MODEL 1
REMARK VINA RESULT:    -6.588      0.000      0.000
REMARK INTER + INTRA:         -10.844
REMARK INTER:                 -10.247
REMARK INTRA:                  -0.598
REMARK UNBOUND:                -0.598
REMARK SMILES COCCc1ccc(OCC(O)CNC(C)C)cc1
REMARK SMILES IDX 10 1 9 2 8 3 5 4 6 5 19 6 7 7 18 8 4 9 3 10 2 11 1 12 11 13
REMARK SMILES IDX 12 14 13 16 14 17 15 19 16 20 17 21
REMARK H PARENT 12 15 14 18
REMARK Flexibility Score: inf
ROOT
ATOM      1  C   UNL     1      21.060  37.337  -9.145  1.00  0.00     0.262 C 
ENDROOT
BRANCH   1   2
ATOM      2  O   UNL     1      22.422  37.070  -9.491  1.00  0.00    -0.491 OA
BRANCH   2   3
ATOM      3  C   UNL     1      23.396  36.510  -8.648  1.00  0.00     0.119 A 
ATOM      4  C   UNL     1      25.269  35.395  -6.862  1.00  0.00    -0.045 A 
ATOM      5  C   UNL     1      25.581  35.527  -8.224  1.00  0.00     0.007 A 
ATOM      6  C   UNL     1      24.025  35.846  -6.397  1.00  0.00     0.007 A 
ATOM      7  C   UNL     1      24.653  36.077  -9.112  1.00  0.00     0.047 A 
ATOM      8  C   UNL     1      23.097  36.396  -7.285  1.00  0.00     0.047 A 
BRANCH   4   9
ATOM      9  C   UNL     1      26.283  34.833  -5.901  1.00  0.00     0.064 C 
BRANCH   9  10
ATOM     10  C   UNL     1      26.854  35.935  -5.009  1.00  0.00     0.164 C 
BRANCH  10  11
ATOM     11  O   UNL     1      26.131  35.965  -3.797  1.00  0.00    -0.384 OA
ATOM     12  C   UNL     1      26.030  34.656  -3.282  1.00  0.00     0.194 C 
ENDBRANCH  10  11
ENDBRANCH   9  10
ENDBRANCH   4   9
ENDBRANCH   2   3
ENDBRANCH   1   2
BRANCH   1  13
ATOM     13  C   UNL     1      20.767  38.848  -9.093  1.00  0.00     0.165 C 
BRANCH  13  14
ATOM     14  O   UNL     1      19.380  39.061  -9.098  1.00  0.00    -0.388 OA
ATOM     15  H   UNL     1      18.951  38.178  -8.949  1.00  0.00     0.211 HD
ENDBRANCH  13  14
BRANCH  13  16
ATOM     16  C   UNL     1      21.390  39.517  -7.855  1.00  0.00     0.116 C 
BRANCH  16  17
ATOM     17  N   UNL     1      20.892  38.887  -6.623  1.00  0.00    -0.312 NA
ATOM     18  H   UNL     1      21.387  37.968  -6.532  1.00  0.00     0.123 HD
BRANCH  17  19
ATOM     19  C   UNL     1      21.166  39.718  -5.435  1.00  0.00     0.047 C 
ATOM     20  C   UNL     1      22.221  39.047  -4.542  1.00  0.00     0.024 C 
ATOM     21  C   UNL     1      19.874  39.921  -4.632  1.00  0.00     0.024 C 
ENDBRANCH  17  19
ENDBRANCH  16  17
ENDBRANCH  13  16
ENDBRANCH   1  13
TORSDOF 10
ENDMDL
MODEL 2
REMARK VINA RESULT:    -6.508      2.438      6.596
REMARK INTER + INTRA:         -10.721
REMARK INTER:                  -9.682
REMARK INTRA:                  -1.039
REMARK UNBOUND:                -0.598
REMARK SMILES COCCc1ccc(OCC(O)CNC(C)C)cc1
REMARK SMILES IDX 10 1 9 2 8 3 5 4 6 5 19 6 7 7 18 8 4 9 3 10 2 11 1 12 11 13
REMARK SMILES IDX 12 14 13 16 14 17 15 19 16 20 17 21
REMARK H PARENT 12 15 14 18
REMARK Flexibility Score: inf
ROOT
ATOM      1  C   UNL     1      26.478  35.958  -4.692  1.00  0.00     0.262 C 
ENDROOT
BRANCH   1   2
ATOM      2  O   UNL     1      25.341  36.207  -3.862  1.00  0.00    -0.491 OA
BRANCH   2   3
ATOM      3  C   UNL     1      24.209  36.961  -4.212  1.00  0.00     0.119 A 
ATOM      4  C   UNL     1      21.998  38.576  -4.877  1.00  0.00    -0.045 A 
ATOM      5  C   UNL     1      21.972  37.198  -5.140  1.00  0.00     0.007 A 
ATOM      6  C   UNL     1      23.125  39.135  -4.258  1.00  0.00     0.007 A 
ATOM      7  C   UNL     1      23.069  36.395  -4.814  1.00  0.00     0.047 A 
ATOM      8  C   UNL     1      24.222  38.332  -3.932  1.00  0.00     0.047 A 
BRANCH   4   9
ATOM      9  C   UNL     1      20.803  39.434  -5.198  1.00  0.00     0.064 C 
BRANCH   9  10
ATOM     10  C   UNL     1      20.749  39.752  -6.691  1.00  0.00     0.164 C 
BRANCH  10  11
ATOM     11  O   UNL     1      21.583  40.860  -6.955  1.00  0.00    -0.384 OA
ATOM     12  C   UNL     1      22.420  40.563  -8.050  1.00  0.00     0.194 C 
ENDBRANCH  10  11
ENDBRANCH   9  10
ENDBRANCH   4   9
ENDBRANCH   2   3
ENDBRANCH   1   2
BRANCH   1  13
ATOM     13  C   UNL     1      26.526  34.496  -5.177  1.00  0.00     0.165 C 
BRANCH  13  14
ATOM     14  O   UNL     1      26.156  33.639  -4.129  1.00  0.00    -0.388 OA
ATOM     15  H   UNL     1      25.245  33.304  -4.336  1.00  0.00     0.211 HD
ENDBRANCH  13  14
BRANCH  13  16
ATOM     16  C   UNL     1      25.608  34.258  -6.389  1.00  0.00     0.116 C 
BRANCH  16  17
ATOM     17  N   UNL     1      25.896  35.231  -7.454  1.00  0.00    -0.312 NA
ATOM     18  H   UNL     1      26.584  34.776  -8.101  1.00  0.00     0.123 HD
BRANCH  17  19
ATOM     19  C   UNL     1      24.678  35.598  -8.202  1.00  0.00     0.047 C 
ATOM     20  C   UNL     1      24.842  35.266  -9.693  1.00  0.00     0.024 C 
ATOM     21  C   UNL     1      24.402  37.100  -8.042  1.00  0.00     0.024 C 
ENDBRANCH  17  19
ENDBRANCH  16  17
ENDBRANCH  13  16
ENDBRANCH   1  13
TORSDOF 10
ENDMDL
MODEL 3
REMARK VINA RESULT:    -6.503      2.029      5.710
REMARK INTER + INTRA:         -10.712
REMARK INTER:                 -10.148
REMARK INTRA:                  -0.565
REMARK UNBOUND:                -0.598
REMARK SMILES COCCc1ccc(OCC(O)CNC(C)C)cc1
REMARK SMILES IDX 10 1 9 2 8 3 5 4 6 5 19 6 7 7 18 8 4 9 3 10 2 11 1 12 11 13
REMARK SMILES IDX 12 14 13 16 14 17 15 19 16 20 17 21
REMARK H PARENT 12 15 14 18
REMARK Flexibility Score: inf
ROOT
ATOM      1  C   UNL     1      26.520  35.747  -5.117  1.00  0.00     0.262 C 
ENDROOT
BRANCH   1   2
ATOM      2  O   UNL     1      26.269  34.834  -6.188  1.00  0.00    -0.491 OA
BRANCH   2   3
ATOM      3  C   UNL     1      25.566  35.118  -7.370  1.00  0.00     0.119 A 
ATOM      4  C   UNL     1      24.197  35.581  -9.789  1.00  0.00    -0.045 A 
ATOM      5  C   UNL     1      24.079  36.487  -8.725  1.00  0.00     0.007 A 
ATOM      6  C   UNL     1      25.022  34.456  -9.644  1.00  0.00     0.007 A 
ATOM      7  C   UNL     1      24.754  36.259  -7.523  1.00  0.00     0.047 A 
ATOM      8  C   UNL     1      25.698  34.228  -8.442  1.00  0.00     0.047 A 
BRANCH   4   9
ATOM      9  C   UNL     1      23.496  35.846 -11.095  1.00  0.00     0.064 C 
BRANCH   9  10
ATOM     10  C   UNL     1      22.097  35.230 -11.095  1.00  0.00     0.164 C 
BRANCH  10  11
ATOM     11  O   UNL     1      21.153  36.235 -10.793  1.00  0.00    -0.384 OA
ATOM     12  C   UNL     1      20.853  36.960 -11.965  1.00  0.00     0.194 C 
ENDBRANCH  10  11
ENDBRANCH   9  10
ENDBRANCH   4   9
ENDBRANCH   2   3
ENDBRANCH   1   2
BRANCH   1  13
ATOM     13  C   UNL     1      25.329  35.832  -4.144  1.00  0.00     0.165 C 
BRANCH  13  14
ATOM     14  O   UNL     1      25.695  35.297  -2.900  1.00  0.00    -0.388 OA
ATOM     15  H   UNL     1      26.572  34.848  -3.024  1.00  0.00     0.211 HD
ENDBRANCH  13  14
BRANCH  13  16
ATOM     16  C   UNL     1      24.834  37.278  -3.960  1.00  0.00     0.116 C 
BRANCH  16  17
ATOM     17  N   UNL     1      23.441  37.408  -4.415  1.00  0.00    -0.312 NA
ATOM     18  H   UNL     1      22.841  36.947  -3.689  1.00  0.00     0.123 HD
BRANCH  17  19
ATOM     19  C   UNL     1      23.044  38.822  -4.561  1.00  0.00     0.047 C 
ATOM     20  C   UNL     1      21.535  38.984  -4.324  1.00  0.00     0.024 C 
ATOM     21  C   UNL     1      23.394  39.318  -5.971  1.00  0.00     0.024 C 
ENDBRANCH  17  19
ENDBRANCH  16  17
ENDBRANCH  13  16
ENDBRANCH   1  13
TORSDOF 10
ENDMDL
MODEL 4
REMARK VINA RESULT:    -6.492      2.306      3.551
REMARK INTER + INTRA:         -10.695
REMARK INTER:                  -9.508
REMARK INTRA:                  -1.187
REMARK UNBOUND:                -0.598
REMARK SMILES COCCc1ccc(OCC(O)CNC(C)C)cc1
REMARK SMILES IDX 10 1 9 2 8 3 5 4 6 5 19 6 7 7 18 8 4 9 3 10 2 11 1 12 11 13
REMARK SMILES IDX 12 14 13 16 14 17 15 19 16 20 17 21
REMARK H PARENT 12 15 14 18
REMARK Flexibility Score: inf
ROOT
ATOM      1  C   UNL     1      20.613  39.697  -4.780  1.00  0.00     0.262 C 
ENDROOT
BRANCH   1   2
ATOM      2  O   UNL     1      21.117  38.511  -5.400  1.00  0.00    -0.491 OA
BRANCH   2   3
ATOM      3  C   UNL     1      22.373  37.926  -5.171  1.00  0.00     0.119 A 
ATOM      4  C   UNL     1      24.915  36.841  -4.626  1.00  0.00    -0.045 A 
ATOM      5  C   UNL     1      24.068  36.224  -5.559  1.00  0.00     0.007 A 
ATOM      6  C   UNL     1      24.493  38.015  -3.987  1.00  0.00     0.007 A 
ATOM      7  C   UNL     1      22.805  36.758  -5.829  1.00  0.00     0.047 A 
ATOM      8  C   UNL     1      23.230  38.550  -4.258  1.00  0.00     0.047 A 
BRANCH   4   9
ATOM      9  C   UNL     1      26.288  36.282  -4.361  1.00  0.00     0.064 C 
BRANCH   9  10
ATOM     10  C   UNL     1      26.316  34.773  -4.600  1.00  0.00     0.164 C 
BRANCH  10  11
ATOM     11  O   UNL     1      26.940  34.516  -5.840  1.00  0.00    -0.384 OA
ATOM     12  C   UNL     1      26.387  33.349  -6.406  1.00  0.00     0.194 C 
ENDBRANCH  10  11
ENDBRANCH   9  10
ENDBRANCH   4   9
ENDBRANCH   2   3
ENDBRANCH   1   2
BRANCH   1  13
ATOM     13  C   UNL     1      19.721  40.510  -5.737  1.00  0.00     0.165 C 
BRANCH  13  14
ATOM     14  O   UNL     1      19.648  41.841  -5.299  1.00  0.00    -0.388 OA
ATOM     15  H   UNL     1      19.119  41.841  -4.459  1.00  0.00     0.211 HD
ENDBRANCH  13  14
BRANCH  13  16
ATOM     16  C   UNL     1      20.237  40.469  -7.186  1.00  0.00     0.116 C 
BRANCH  16  17
ATOM     17  N   UNL     1      21.535  41.153  -7.291  1.00  0.00    -0.312 NA
ATOM     18  H   UNL     1      21.965  41.134  -6.335  1.00  0.00     0.123 HD
BRANCH  17  19
ATOM     19  C   UNL     1      22.430  40.482  -8.252  1.00  0.00     0.047 C 
ATOM     20  C   UNL     1      21.798  39.174  -8.753  1.00  0.00     0.024 C 
ATOM     21  C   UNL     1      23.776  40.172  -7.582  1.00  0.00     0.024 C 
ENDBRANCH  17  19
ENDBRANCH  16  17
ENDBRANCH  13  16
ENDBRANCH   1  13
TORSDOF 10
ENDMDL
MODEL 5
REMARK VINA RESULT:    -6.402      2.653      5.938
REMARK INTER + INTRA:         -10.556
REMARK INTER:                  -9.692
REMARK INTRA:                  -0.864
REMARK UNBOUND:                -0.598
REMARK SMILES COCCc1ccc(OCC(O)CNC(C)C)cc1
REMARK SMILES IDX 10 1 9 2 8 3 5 4 6 5 19 6 7 7 18 8 4 9 3 10 2 11 1 12 11 13
REMARK SMILES IDX 12 14 13 16 14 17 15 19 16 20 17 21
REMARK H PARENT 12 15 14 18
REMARK Flexibility Score: inf
ROOT
ATOM      1  C   UNL     1      25.209  35.649  -9.173  1.00  0.00     0.262 C 
ENDROOT
BRANCH   1   2
ATOM      2  O   UNL     1      23.873  36.069  -8.888  1.00  0.00    -0.491 OA
BRANCH   2   3
ATOM      3  C   UNL     1      23.451  36.772  -7.747  1.00  0.00     0.119 A 
ATOM      4  C   UNL     1      22.664  38.284  -5.504  1.00  0.00    -0.045 A 
ATOM      5  C   UNL     1      22.258  36.947  -5.634  1.00  0.00     0.007 A 
ATOM      6  C   UNL     1      23.484  38.851  -6.490  1.00  0.00     0.007 A 
ATOM      7  C   UNL     1      22.645  36.195  -6.747  1.00  0.00     0.047 A 
ATOM      8  C   UNL     1      23.871  38.099  -7.603  1.00  0.00     0.047 A 
BRANCH   4   9
ATOM      9  C   UNL     1      22.274  39.082  -4.288  1.00  0.00     0.064 C 
BRANCH   9  10
ATOM     10  C   UNL     1      20.754  39.186  -4.172  1.00  0.00     0.164 C 
BRANCH  10  11
ATOM     11  O   UNL     1      20.268  39.999  -5.219  1.00  0.00    -0.384 OA
ATOM     12  C   UNL     1      19.350  40.933  -4.697  1.00  0.00     0.194 C 
ENDBRANCH  10  11
ENDBRANCH   9  10
ENDBRANCH   4   9
ENDBRANCH   2   3
ENDBRANCH   1   2
BRANCH   1  13
ATOM     13  C   UNL     1      25.444  34.177  -8.782  1.00  0.00     0.165 C 
BRANCH  13  14
ATOM     14  O   UNL     1      26.312  33.576  -9.705  1.00  0.00    -0.388 OA
ATOM     15  H   UNL     1      27.183  34.048  -9.635  1.00  0.00     0.211 HD
ENDBRANCH  13  14
BRANCH  13  16
ATOM     16  C   UNL     1      26.023  34.041  -7.363  1.00  0.00     0.116 C 
BRANCH  16  17
ATOM     17  N   UNL     1      26.179  35.364  -6.739  1.00  0.00    -0.312 NA
ATOM     18  H   UNL     1      25.471  35.995  -7.188  1.00  0.00     0.123 HD
BRANCH  17  19
ATOM     19  C   UNL     1      25.946  35.313  -5.283  1.00  0.00     0.047 C 
ATOM     20  C   UNL     1      26.918  36.249  -4.550  1.00  0.00     0.024 C 
ATOM     21  C   UNL     1      26.141  33.877  -4.775  1.00  0.00     0.024 C 
ENDBRANCH  17  19
ENDBRANCH  16  17
ENDBRANCH  13  16
ENDBRANCH   1  13
TORSDOF 10
ENDMDL
MODEL 6
REMARK VINA RESULT:    -6.400      1.159      1.702
REMARK INTER + INTRA:         -10.551
REMARK INTER:                  -9.749
REMARK INTRA:                  -0.803
REMARK UNBOUND:                -0.598
REMARK SMILES COCCc1ccc(OCC(O)CNC(C)C)cc1
REMARK SMILES IDX 10 1 9 2 8 3 5 4 6 5 19 6 7 7 18 8 4 9 3 10 2 11 1 12 11 13
REMARK SMILES IDX 12 14 13 16 14 17 15 19 16 20 17 21
REMARK H PARENT 12 15 14 18
REMARK Flexibility Score: inf
ROOT
ATOM      1  C   UNL     1      21.693  39.121  -8.869  1.00  0.00     0.262 C 
ENDROOT
BRANCH   1   2
ATOM      2  O   UNL     1      21.569  37.848  -8.230  1.00  0.00    -0.491 OA
BRANCH   2   3
ATOM      3  C   UNL     1      22.623  36.981  -7.900  1.00  0.00     0.119 A 
ATOM      4  C   UNL     1      24.779  35.250  -7.356  1.00  0.00    -0.045 A 
ATOM      5  C   UNL     1      23.899  35.629  -6.331  1.00  0.00     0.007 A 
ATOM      6  C   UNL     1      24.559  35.722  -8.658  1.00  0.00     0.007 A 
ATOM      7  C   UNL     1      22.831  36.489  -6.597  1.00  0.00     0.047 A 
ATOM      8  C   UNL     1      23.490  36.583  -8.924  1.00  0.00     0.047 A 
BRANCH   4   9
ATOM      9  C   UNL     1      25.909  34.296  -7.074  1.00  0.00     0.064 C 
BRANCH   9  10
ATOM     10  C   UNL     1      26.401  34.448  -5.635  1.00  0.00     0.164 C 
BRANCH  10  11
ATOM     11  O   UNL     1      27.361  35.482  -5.585  1.00  0.00    -0.384 OA
ATOM     12  C   UNL     1      27.017  36.389  -4.562  1.00  0.00     0.194 C 
ENDBRANCH  10  11
ENDBRANCH   9  10
ENDBRANCH   4   9
ENDBRANCH   2   3
ENDBRANCH   1   2
BRANCH   1  13
ATOM     13  C   UNL     1      20.445  39.997  -8.649  1.00  0.00     0.165 C 
BRANCH  13  14
ATOM     14  O   UNL     1      19.288  39.242  -8.892  1.00  0.00    -0.388 OA
ATOM     15  H   UNL     1      18.575  39.880  -9.158  1.00  0.00     0.211 HD
ENDBRANCH  13  14
BRANCH  13  16
ATOM     16  C   UNL     1      20.391  40.582  -7.226  1.00  0.00     0.116 C 
BRANCH  16  17
ATOM     17  N   UNL     1      20.160  39.516  -6.238  1.00  0.00    -0.312 NA
ATOM     18  H   UNL     1      20.703  38.680  -6.564  1.00  0.00     0.123 HD
BRANCH  17  19
ATOM     19  C   UNL     1      20.616  39.912  -4.892  1.00  0.00     0.047 C 
ATOM     20  C   UNL     1      21.783  39.023  -4.437  1.00  0.00     0.024 C 
ATOM     21  C   UNL     1      19.458  39.782  -3.892  1.00  0.00     0.024 C 
ENDBRANCH  17  19
ENDBRANCH  16  17
ENDBRANCH  13  16
ENDBRANCH   1  13
TORSDOF 10
ENDMDL
MODEL 7
REMARK VINA RESULT:    -6.367      2.737      5.843
REMARK INTER + INTRA:         -10.500
REMARK INTER:                  -9.493
REMARK INTRA:                  -1.007
REMARK UNBOUND:                -0.598
REMARK SMILES COCCc1ccc(OCC(O)CNC(C)C)cc1
REMARK SMILES IDX 10 1 9 2 8 3 5 4 6 5 19 6 7 7 18 8 4 9 3 10 2 11 1 12 11 13
REMARK SMILES IDX 12 14 13 16 14 17 15 19 16 20 17 21
REMARK H PARENT 12 15 14 18
REMARK Flexibility Score: inf
ROOT
ATOM      1  C   UNL     1      25.609  35.506  -8.572  1.00  0.00     0.262 C 
ENDROOT
BRANCH   1   2
ATOM      2  O   UNL     1      24.450  35.322  -7.755  1.00  0.00    -0.491 OA
BRANCH   2   3
ATOM      3  C   UNL     1      23.848  36.296  -6.941  1.00  0.00     0.119 A 
ATOM      4  C   UNL     1      22.566  38.160  -5.261  1.00  0.00    -0.045 A 
ATOM      5  C   UNL     1      23.628  38.563  -6.085  1.00  0.00     0.007 A 
ATOM      6  C   UNL     1      22.135  36.826  -5.301  1.00  0.00     0.007 A 
ATOM      7  C   UNL     1      24.267  37.640  -6.917  1.00  0.00     0.047 A 
ATOM      8  C   UNL     1      22.774  35.903  -6.133  1.00  0.00     0.047 A 
BRANCH   4   9
ATOM      9  C   UNL     1      21.857  39.163  -4.391  1.00  0.00     0.064 C 
BRANCH   9  10
ATOM     10  C   UNL     1      20.541  39.603  -5.031  1.00  0.00     0.164 C 
BRANCH  10  11
ATOM     11  O   UNL     1      20.795  40.677  -5.911  1.00  0.00    -0.384 OA
ATOM     12  C   UNL     1      20.242  40.385  -7.175  1.00  0.00     0.194 C 
ENDBRANCH  10  11
ENDBRANCH   9  10
ENDBRANCH   4   9
ENDBRANCH   2   3
ENDBRANCH   1   2
BRANCH   1  13
ATOM     13  C   UNL     1      25.421  34.905  -9.978  1.00  0.00     0.165 C 
BRANCH  13  14
ATOM     14  O   UNL     1      25.111  33.541  -9.871  1.00  0.00    -0.388 OA
ATOM     15  H   UNL     1      25.142  33.311  -8.906  1.00  0.00     0.211 HD
ENDBRANCH  13  14
BRANCH  13  16
ATOM     16  C   UNL     1      24.318  35.627 -10.773  1.00  0.00     0.116 C 
BRANCH  16  17
ATOM     17  N   UNL     1      23.050  34.886 -10.686  1.00  0.00    -0.312 NA
ATOM     18  H   UNL     1      22.963  34.551  -9.696  1.00  0.00     0.123 HD
BRANCH  17  19
ATOM     19  C   UNL     1      21.895  35.738 -11.026  1.00  0.00     0.047 C 
ATOM     20  C   UNL     1      22.054  36.319 -12.440  1.00  0.00     0.024 C 
ATOM     21  C   UNL     1      21.780  36.887 -10.014  1.00  0.00     0.024 C 
ENDBRANCH  17  19
ENDBRANCH  16  17
ENDBRANCH  13  16
ENDBRANCH   1  13
TORSDOF 10
ENDMDL
MODEL 8
REMARK VINA RESULT:    -6.359      0.930      1.657
REMARK INTER + INTRA:         -10.489
REMARK INTER:                  -9.609
REMARK INTRA:                  -0.879
REMARK UNBOUND:                -0.598
REMARK SMILES COCCc1ccc(OCC(O)CNC(C)C)cc1
REMARK SMILES IDX 10 1 9 2 8 3 5 4 6 5 19 6 7 7 18 8 4 9 3 10 2 11 1 12 11 13
REMARK SMILES IDX 12 14 13 16 14 17 15 19 16 20 17 21
REMARK H PARENT 12 15 14 18
REMARK Flexibility Score: inf
ROOT
ATOM      1  C   UNL     1      21.319  37.015  -9.687  1.00  0.00     0.262 C 
ENDROOT
BRANCH   1   2
ATOM      2  O   UNL     1      22.700  36.672  -9.819  1.00  0.00    -0.491 OA
BRANCH   2   3
ATOM      3  C   UNL     1      23.555  36.263  -8.783  1.00  0.00     0.119 A 
ATOM      4  C   UNL     1      25.360  35.430  -6.787  1.00  0.00    -0.045 A 
ATOM      5  C   UNL     1      24.050  35.798  -6.446  1.00  0.00     0.007 A 
ATOM      6  C   UNL     1      25.753  35.457  -8.132  1.00  0.00     0.007 A 
ATOM      7  C   UNL     1      23.153  36.215  -7.434  1.00  0.00     0.047 A 
ATOM      8  C   UNL     1      24.856  35.874  -9.120  1.00  0.00     0.047 A 
BRANCH   4   9
ATOM      9  C   UNL     1      26.315  34.949  -5.725  1.00  0.00     0.064 C 
BRANCH   9  10
ATOM     10  C   UNL     1      26.726  36.098  -4.806  1.00  0.00     0.164 C 
BRANCH  10  11
ATOM     11  O   UNL     1      26.366  35.776  -3.479  1.00  0.00    -0.384 OA
ATOM     12  C   UNL     1      26.010  34.413  -3.410  1.00  0.00     0.194 C 
ENDBRANCH  10  11
ENDBRANCH   9  10
ENDBRANCH   4   9
ENDBRANCH   2   3
ENDBRANCH   1   2
BRANCH   1  13
ATOM     13  C   UNL     1      21.050  38.478 -10.089  1.00  0.00     0.165 C 
BRANCH  13  14
ATOM     14  O   UNL     1      20.025  38.524 -11.046  1.00  0.00    -0.388 OA
ATOM     15  H   UNL     1      19.227  38.911 -10.598  1.00  0.00     0.211 HD
ENDBRANCH  13  14
BRANCH  13  16
ATOM     16  C   UNL     1      20.668  39.350  -8.879  1.00  0.00     0.116 C 
BRANCH  16  17
ATOM     17  N   UNL     1      21.192  38.765  -7.635  1.00  0.00    -0.312 NA
ATOM     18  H   UNL     1      21.813  37.968  -7.915  1.00  0.00     0.123 HD
BRANCH  17  19
ATOM     19  C   UNL     1      21.967  39.748  -6.854  1.00  0.00     0.047 C 
ATOM     20  C   UNL     1      23.380  39.904  -7.436  1.00  0.00     0.024 C 
ATOM     21  C   UNL     1      22.066  39.288  -5.392  1.00  0.00     0.024 C 
ENDBRANCH  17  19
ENDBRANCH  16  17
ENDBRANCH  13  16
ENDBRANCH   1  13
TORSDOF 10
ENDMDL
MODEL 9
REMARK VINA RESULT:    -6.333      2.150      3.657
REMARK INTER + INTRA:         -10.448
REMARK INTER:                  -9.593
REMARK INTRA:                  -0.856
REMARK UNBOUND:                -0.598
REMARK SMILES COCCc1ccc(OCC(O)CNC(C)C)cc1
REMARK SMILES IDX 10 1 9 2 8 3 5 4 6 5 19 6 7 7 18 8 4 9 3 10 2 11 1 12 11 13
REMARK SMILES IDX 12 14 13 16 14 17 15 19 16 20 17 21
REMARK H PARENT 12 15 14 18
REMARK Flexibility Score: inf
ROOT
ATOM      1  C   UNL     1      20.831  39.998  -5.678  1.00  0.00     0.262 C 
ENDROOT
BRANCH   1   2
ATOM      2  O   UNL     1      22.150  39.798  -6.196  1.00  0.00    -0.491 OA
BRANCH   2   3
ATOM      3  C   UNL     1      23.081  38.849  -5.744  1.00  0.00     0.119 A 
ATOM      4  C   UNL     1      24.936  36.990  -4.724  1.00  0.00    -0.045 A 
ATOM      5  C   UNL     1      24.590  36.970  -6.083  1.00  0.00     0.007 A 
ATOM      6  C   UNL     1      24.369  37.960  -3.885  1.00  0.00     0.007 A 
ATOM      7  C   UNL     1      23.668  37.889  -6.592  1.00  0.00     0.047 A 
ATOM      8  C   UNL     1      23.446  38.879  -4.394  1.00  0.00     0.047 A 
BRANCH   4   9
ATOM      9  C   UNL     1      25.955  36.021  -4.185  1.00  0.00     0.064 C 
BRANCH   9  10
ATOM     10  C   UNL     1      26.624  35.249  -5.321  1.00  0.00     0.164 C 
BRANCH  10  11
ATOM     11  O   UNL     1      26.354  33.873  -5.163  1.00  0.00    -0.384 OA
ATOM     12  C   UNL     1      26.323  33.255  -6.430  1.00  0.00     0.194 C 
ENDBRANCH  10  11
ENDBRANCH   9  10
ENDBRANCH   4   9
ENDBRANCH   2   3
ENDBRANCH   1   2
BRANCH   1  13
ATOM     13  C   UNL     1      19.974  40.870  -6.614  1.00  0.00     0.165 C 
BRANCH  13  14
ATOM     14  O   UNL     1      20.142  42.224  -6.284  1.00  0.00    -0.388 OA
ATOM     15  H   UNL     1      20.671  42.637  -7.015  1.00  0.00     0.211 HD
ENDBRANCH  13  14
BRANCH  13  16
ATOM     16  C   UNL     1      20.327  40.651  -8.095  1.00  0.00     0.116 C 
BRANCH  16  17
ATOM     17  N   UNL     1      20.055  39.261  -8.492  1.00  0.00    -0.312 NA
ATOM     18  H   UNL     1      19.087  39.247  -8.896  1.00  0.00     0.123 HD
BRANCH  17  19
ATOM     19  C   UNL     1      21.021  38.780  -9.497  1.00  0.00     0.047 C 
ATOM     20  C   UNL     1      20.518  39.087 -10.916  1.00  0.00     0.024 C 
ATOM     21  C   UNL     1      21.220  37.265  -9.345  1.00  0.00     0.024 C 
ENDBRANCH  17  19
ENDBRANCH  16  17
ENDBRANCH  13  16
ENDBRANCH   1  13
TORSDOF 10
ENDMDL
MODEL 10
REMARK VINA RESULT:    -6.273      2.008      3.588
REMARK INTER + INTRA:         -10.355
REMARK INTER:                  -8.887
REMARK INTRA:                  -1.468
REMARK UNBOUND:                -0.598
REMARK SMILES COCCc1ccc(OCC(O)CNC(C)C)cc1
REMARK SMILES IDX 10 1 9 2 8 3 5 4 6 5 19 6 7 7 18 8 4 9 3 10 2 11 1 12 11 13
REMARK SMILES IDX 12 14 13 16 14 17 15 19 16 20 17 21
REMARK H PARENT 12 15 14 18
REMARK Flexibility Score: inf
ROOT
ATOM      1  C   UNL     1      20.082  40.336  -6.142  1.00  0.00     0.262 C 
ENDROOT
BRANCH   1   2
ATOM      2  O   UNL     1      21.500  40.191  -6.016  1.00  0.00    -0.491 OA
BRANCH   2   3
ATOM      3  C   UNL     1      22.245  39.041  -6.324  1.00  0.00     0.119 A 
ATOM      4  C   UNL     1      23.822  36.806  -7.000  1.00  0.00    -0.045 A 
ATOM      5  C   UNL     1      22.663  36.646  -6.226  1.00  0.00     0.007 A 
ATOM      6  C   UNL     1      24.173  38.086  -7.453  1.00  0.00     0.007 A 
ATOM      7  C   UNL     1      21.880  37.753  -5.887  1.00  0.00     0.047 A 
ATOM      8  C   UNL     1      23.390  39.193  -7.113  1.00  0.00     0.047 A 
BRANCH   4   9
ATOM      9  C   UNL     1      24.645  35.608  -7.392  1.00  0.00     0.064 C 
BRANCH   9  10
ATOM     10  C   UNL     1      25.348  35.010  -6.174  1.00  0.00     0.164 C 
BRANCH  10  11
ATOM     11  O   UNL     1      26.475  35.800  -5.860  1.00  0.00    -0.384 OA
ATOM     12  C   UNL     1      26.451  36.122  -4.487  1.00  0.00     0.194 C 
ENDBRANCH  10  11
ENDBRANCH   9  10
ENDBRANCH   4   9
ENDBRANCH   2   3
ENDBRANCH   1   2
BRANCH   1  13
ATOM     13  C   UNL     1      19.705  41.373  -7.217  1.00  0.00     0.165 C 
BRANCH  13  14
ATOM     14  O   UNL     1      20.787  42.238  -7.439  1.00  0.00    -0.388 OA
ATOM     15  H   UNL     1      20.982  42.687  -6.574  1.00  0.00     0.211 HD
ENDBRANCH  13  14
BRANCH  13  16
ATOM     16  C   UNL     1      19.293  40.710  -8.542  1.00  0.00     0.116 C 
BRANCH  16  17
ATOM     17  N   UNL     1      19.627  39.277  -8.529  1.00  0.00    -0.312 NA
ATOM     18  H   UNL     1      18.719  38.756  -8.460  1.00  0.00     0.123 HD
BRANCH  17  19
ATOM     19  C   UNL     1      20.341  38.871  -9.754  1.00  0.00     0.047 C 
ATOM     20  C   UNL     1      21.020  37.508  -9.554  1.00  0.00     0.024 C 
ATOM     21  C   UNL     1      21.402  39.921 -10.111  1.00  0.00     0.024 C 
ENDBRANCH  17  19
ENDBRANCH  16  17
ENDBRANCH  13  16
ENDBRANCH   1  13
TORSDOF 10
ENDMDL
MODEL 11
REMARK VINA RESULT:    -6.248      2.598      7.326
REMARK INTER + INTRA:         -10.316
REMARK INTER:                  -9.549
REMARK INTRA:                  -0.768
REMARK UNBOUND:                -0.598
REMARK SMILES COCCc1ccc(OCC(O)CNC(C)C)cc1
REMARK SMILES IDX 10 1 9 2 8 3 5 4 6 5 19 6 7 7 18 8 4 9 3 10 2 11 1 12 11 13
REMARK SMILES IDX 12 14 13 16 14 17 15 19 16 20 17 21
REMARK H PARENT 12 15 14 18
REMARK Flexibility Score: inf
ROOT
ATOM      1  C   UNL     1      24.217  36.845  -3.979  1.00  0.00     0.262 C 
ENDROOT
BRANCH   1   2
ATOM      2  O   UNL     1      24.151  38.206  -4.414  1.00  0.00    -0.491 OA
BRANCH   2   3
ATOM      3  C   UNL     1      23.044  38.831  -5.011  1.00  0.00     0.119 A 
ATOM      4  C   UNL     1      20.892  40.103  -6.311  1.00  0.00    -0.045 A 
ATOM      5  C   UNL     1      20.733  39.593  -5.014  1.00  0.00     0.007 A 
ATOM      6  C   UNL     1      22.139  39.994  -6.943  1.00  0.00     0.007 A 
ATOM      7  C   UNL     1      21.798  38.960  -4.367  1.00  0.00     0.047 A 
ATOM      8  C   UNL     1      23.204  39.360  -6.297  1.00  0.00     0.047 A 
BRANCH   4   9
ATOM      9  C   UNL     1      19.754  40.815  -6.993  1.00  0.00     0.064 C 
BRANCH   9  10
ATOM     10  C   UNL     1      19.195  41.923  -6.101  1.00  0.00     0.164 C 
BRANCH  10  11
ATOM     11  O   UNL     1      20.080  43.023  -6.128  1.00  0.00    -0.384 OA
ATOM     12  C   UNL     1      19.659  43.983  -5.184  1.00  0.00     0.194 C 
ENDBRANCH  10  11
ENDBRANCH   9  10
ENDBRANCH   4   9
ENDBRANCH   2   3
ENDBRANCH   1   2
BRANCH   1  13
ATOM     13  C   UNL     1      25.670  36.348  -3.868  1.00  0.00     0.165 C 
BRANCH  13  14
ATOM     14  O   UNL     1      25.735  35.272  -2.970  1.00  0.00    -0.388 OA
ATOM     15  H   UNL     1      26.663  35.243  -2.618  1.00  0.00     0.211 HD
ENDBRANCH  13  14
BRANCH  13  16
ATOM     16  C   UNL     1      26.241  35.919  -5.232  1.00  0.00     0.116 C 
BRANCH  16  17
ATOM     17  N   UNL     1      25.296  36.242  -6.312  1.00  0.00    -0.312 NA
ATOM     18  H   UNL     1      25.668  37.096  -6.794  1.00  0.00     0.123 HD
BRANCH  17  19
ATOM     19  C   UNL     1      25.177  35.136  -7.282  1.00  0.00     0.047 C 
ATOM     20  C   UNL     1      26.068  33.957  -6.864  1.00  0.00     0.024 C 
ATOM     21  C   UNL     1      25.594  35.621  -8.677  1.00  0.00     0.024 C 
ENDBRANCH  17  19
ENDBRANCH  16  17
ENDBRANCH  13  16
ENDBRANCH   1  13
TORSDOF 10
ENDMDL
MODEL 12
REMARK VINA RESULT:    -6.221      1.936      2.688
REMARK INTER + INTRA:         -10.274
REMARK INTER:                  -9.368
REMARK INTRA:                  -0.906
REMARK UNBOUND:                -0.598
REMARK SMILES COCCc1ccc(OCC(O)CNC(C)C)cc1
REMARK SMILES IDX 10 1 9 2 8 3 5 4 6 5 19 6 7 7 18 8 4 9 3 10 2 11 1 12 11 13
REMARK SMILES IDX 12 14 13 16 14 17 15 19 16 20 17 21
REMARK H PARENT 12 15 14 18
REMARK Flexibility Score: inf
ROOT
ATOM      1  C   UNL     1      21.942  40.585  -8.435  1.00  0.00     0.262 C 
ENDROOT
BRANCH   1   2
ATOM      2  O   UNL     1      22.442  40.471  -7.100  1.00  0.00    -0.491 OA
BRANCH   2   3
ATOM      3  C   UNL     1      23.135  39.372  -6.566  1.00  0.00     0.119 A 
ATOM      4  C   UNL     1      24.486  37.202  -5.383  1.00  0.00    -0.045 A 
ATOM      5  C   UNL     1      24.495  37.365  -6.776  1.00  0.00     0.007 A 
ATOM      6  C   UNL     1      23.820  38.143  -4.585  1.00  0.00     0.007 A 
ATOM      7  C   UNL     1      23.823  38.439  -7.366  1.00  0.00     0.047 A 
ATOM      8  C   UNL     1      23.148  39.217  -5.176  1.00  0.00     0.047 A 
BRANCH   4   9
ATOM      9  C   UNL     1      25.239  36.063  -4.747  1.00  0.00     0.064 C 
BRANCH   9  10
ATOM     10  C   UNL     1      26.131  35.362  -5.771  1.00  0.00     0.164 C 
BRANCH  10  11
ATOM     11  O   UNL     1      26.360  34.035  -5.349  1.00  0.00    -0.384 OA
ATOM     12  C   UNL     1      26.400  33.188  -6.475  1.00  0.00     0.194 C 
ENDBRANCH  10  11
ENDBRANCH   9  10
ENDBRANCH   4   9
ENDBRANCH   2   3
ENDBRANCH   1   2
BRANCH   1  13
ATOM     13  C   UNL     1      20.441  40.252  -8.516  1.00  0.00     0.165 C 
BRANCH  13  14
ATOM     14  O   UNL     1      20.265  38.860  -8.506  1.00  0.00    -0.388 OA
ATOM     15  H   UNL     1      20.411  38.542  -9.436  1.00  0.00     0.211 HD
ENDBRANCH  13  14
BRANCH  13  16
ATOM     16  C   UNL     1      19.644  40.882  -7.360  1.00  0.00     0.116 C 
BRANCH  16  17
ATOM     17  N   UNL     1      19.694  40.021  -6.169  1.00  0.00    -0.312 NA
ATOM     18  H   UNL     1      20.532  39.400  -6.280  1.00  0.00     0.123 HD
BRANCH  17  19
ATOM     19  C   UNL     1      19.822  40.811  -4.929  1.00  0.00     0.047 C 
ATOM     20  C   UNL     1      19.627  39.914  -3.697  1.00  0.00     0.024 C 
ATOM     21  C   UNL     1      18.772  41.931  -4.914  1.00  0.00     0.024 C 
ENDBRANCH  17  19
ENDBRANCH  16  17
ENDBRANCH  13  16
ENDBRANCH   1  13
TORSDOF 10
ENDMDL
MODEL 13
REMARK VINA RESULT:    -6.177      2.405      4.091
REMARK INTER + INTRA:         -10.206
REMARK INTER:                  -8.718
REMARK INTRA:                  -1.488
REMARK UNBOUND:                -0.598
REMARK SMILES COCCc1ccc(OCC(O)CNC(C)C)cc1
REMARK SMILES IDX 10 1 9 2 8 3 5 4 6 5 19 6 7 7 18 8 4 9 3 10 2 11 1 12 11 13
REMARK SMILES IDX 12 14 13 16 14 17 15 19 16 20 17 21
REMARK H PARENT 12 15 14 18
REMARK Flexibility Score: inf
ROOT
ATOM      1  C   UNL     1      19.940  40.331  -5.921  1.00  0.00     0.262 C 
ENDROOT
BRANCH   1   2
ATOM      2  O   UNL     1      21.369  40.282  -5.899  1.00  0.00    -0.491 OA
BRANCH   2   3
ATOM      3  C   UNL     1      22.162  39.149  -6.142  1.00  0.00     0.119 A 
ATOM      4  C   UNL     1      23.660  36.805  -6.586  1.00  0.00    -0.045 A 
ATOM      5  C   UNL     1      24.186  38.057  -6.937  1.00  0.00     0.007 A 
ATOM      6  C   UNL     1      22.394  36.735  -5.989  1.00  0.00     0.007 A 
ATOM      7  C   UNL     1      23.444  39.221  -6.721  1.00  0.00     0.047 A 
ATOM      8  C   UNL     1      21.651  37.899  -5.773  1.00  0.00     0.047 A 
BRANCH   4   9
ATOM      9  C   UNL     1      24.475  35.555  -6.789  1.00  0.00     0.064 C 
BRANCH   9  10
ATOM     10  C   UNL     1      25.244  35.616  -8.108  1.00  0.00     0.164 C 
BRANCH  10  11
ATOM     11  O   UNL     1      24.643  34.734  -9.032  1.00  0.00    -0.384 OA
ATOM     12  C   UNL     1      23.979  35.481 -10.026  1.00  0.00     0.194 C 
ENDBRANCH  10  11
ENDBRANCH   9  10
ENDBRANCH   4   9
ENDBRANCH   2   3
ENDBRANCH   1   2
BRANCH   1  13
ATOM     13  C   UNL     1      19.418  41.450  -6.842  1.00  0.00     0.165 C 
BRANCH  13  14
ATOM     14  O   UNL     1      20.253  42.573  -6.740  1.00  0.00    -0.388 OA
ATOM     15  H   UNL     1      20.170  42.913  -5.810  1.00  0.00     0.211 HD
ENDBRANCH  13  14
BRANCH  13  16
ATOM     16  C   UNL     1      19.334  40.999  -8.311  1.00  0.00     0.116 C 
BRANCH  16  17
ATOM     17  N   UNL     1      19.451  39.536  -8.410  1.00  0.00    -0.312 NA
ATOM     18  H   UNL     1      18.479  39.163  -8.536  1.00  0.00     0.123 HD
BRANCH  17  19
ATOM     19  C   UNL     1      20.292  39.131  -9.553  1.00  0.00     0.047 C 
ATOM     20  C   UNL     1      20.817  37.701  -9.354  1.00  0.00     0.024 C 
ATOM     21  C   UNL     1      21.479  40.094  -9.693  1.00  0.00     0.024 C 
ENDBRANCH  17  19
ENDBRANCH  16  17
ENDBRANCH  13  16
ENDBRANCH   1  13
TORSDOF 10
ENDMDL
MODEL 14
REMARK VINA RESULT:    -6.161      2.154      7.227
REMARK INTER + INTRA:         -10.181
REMARK INTER:                  -9.403
REMARK INTRA:                  -0.778
REMARK UNBOUND:                -0.598
REMARK SMILES COCCc1ccc(OCC(O)CNC(C)C)cc1
REMARK SMILES IDX 10 1 9 2 8 3 5 4 6 5 19 6 7 7 18 8 4 9 3 10 2 11 1 12 11 13
REMARK SMILES IDX 12 14 13 16 14 17 15 19 16 20 17 21
REMARK H PARENT 12 15 14 18
REMARK Flexibility Score: inf
ROOT
ATOM      1  C   UNL     1      24.304  36.670  -4.043  1.00  0.00     0.262 C 
ENDROOT
BRANCH   1   2
ATOM      2  O   UNL     1      24.231  38.053  -4.397  1.00  0.00    -0.491 OA
BRANCH   2   3
ATOM      3  C   UNL     1      23.119  38.709  -4.951  1.00  0.00     0.119 A 
ATOM      4  C   UNL     1      20.955  40.040  -6.167  1.00  0.00    -0.045 A 
ATOM      5  C   UNL     1      20.821  39.504  -4.878  1.00  0.00     0.007 A 
ATOM      6  C   UNL     1      22.183  39.928  -6.833  1.00  0.00     0.007 A 
ATOM      7  C   UNL     1      21.892  38.840  -4.273  1.00  0.00     0.047 A 
ATOM      8  C   UNL     1      23.255  39.265  -6.228  1.00  0.00     0.047 A 
BRANCH   4   9
ATOM      9  C   UNL     1      19.810  40.784  -6.803  1.00  0.00     0.064 C 
BRANCH   9  10
ATOM     10  C   UNL     1      20.025  40.927  -8.309  1.00  0.00     0.164 C 
BRANCH  10  11
ATOM     11  O   UNL     1      19.410  39.839  -8.966  1.00  0.00    -0.384 OA
ATOM     12  C   UNL     1      20.268  39.358  -9.975  1.00  0.00     0.194 C 
ENDBRANCH  10  11
ENDBRANCH   9  10
ENDBRANCH   4   9
ENDBRANCH   2   3
ENDBRANCH   1   2
BRANCH   1  13
ATOM     13  C   UNL     1      25.753  36.222  -3.773  1.00  0.00     0.165 C 
BRANCH  13  14
ATOM     14  O   UNL     1      25.754  35.118  -2.909  1.00  0.00    -0.388 OA
ATOM     15  H   UNL     1      24.806  34.930  -2.677  1.00  0.00     0.211 HD
ENDBRANCH  13  14
BRANCH  13  16
ATOM     16  C   UNL     1      26.500  35.865  -5.071  1.00  0.00     0.116 C 
BRANCH  16  17
ATOM     17  N   UNL     1      25.608  35.998  -6.233  1.00  0.00    -0.312 NA
ATOM     18  H   UNL     1      26.066  36.676  -6.889  1.00  0.00     0.123 HD
BRANCH  17  19
ATOM     19  C   UNL     1      25.405  34.706  -6.916  1.00  0.00     0.047 C 
ATOM     20  C   UNL     1      26.390  33.655  -6.383  1.00  0.00     0.024 C 
ATOM     21  C   UNL     1      25.614  34.878  -8.428  1.00  0.00     0.024 C 
ENDBRANCH  17  19
ENDBRANCH  16  17
ENDBRANCH  13  16
ENDBRANCH   1  13
TORSDOF 10
ENDMDL
MODEL 15
REMARK VINA RESULT:    -6.094      3.267      4.855
REMARK INTER + INTRA:         -10.076
REMARK INTER:                  -9.361
REMARK INTRA:                  -0.715
REMARK UNBOUND:                -0.598
REMARK SMILES COCCc1ccc(OCC(O)CNC(C)C)cc1
REMARK SMILES IDX 10 1 9 2 8 3 5 4 6 5 19 6 7 7 18 8 4 9 3 10 2 11 1 12 11 13
REMARK SMILES IDX 12 14 13 16 14 17 15 19 16 20 17 21
REMARK H PARENT 12 15 14 18
REMARK Flexibility Score: inf
ROOT
ATOM      1  C   UNL     1      22.244  35.350 -11.188  1.00  0.00     0.262 C 
ENDROOT
BRANCH   1   2
ATOM      2  O   UNL     1      23.547  35.806 -10.814  1.00  0.00    -0.491 OA
BRANCH   2   3
ATOM      3  C   UNL     1      24.265  35.414  -9.672  1.00  0.00     0.119 A 
ATOM      4  C   UNL     1      25.650  34.720  -7.320  1.00  0.00    -0.045 A 
ATOM      5  C   UNL     1      25.814  33.959  -8.487  1.00  0.00     0.007 A 
ATOM      6  C   UNL     1      24.810  35.842  -7.343  1.00  0.00     0.007 A 
ATOM      7  C   UNL     1      25.126  34.300  -9.655  1.00  0.00     0.047 A 
ATOM      8  C   UNL     1      24.122  36.182  -8.511  1.00  0.00     0.047 A 
BRANCH   4   9
ATOM      9  C   UNL     1      26.419  34.371  -6.072  1.00  0.00     0.064 C 
BRANCH   9  10
ATOM     10  C   UNL     1      26.590  35.599  -5.179  1.00  0.00     0.164 C 
BRANCH  10  11
ATOM     11  O   UNL     1      25.940  35.366  -3.948  1.00  0.00    -0.384 OA
ATOM     12  C   UNL     1      24.890  36.293  -3.791  1.00  0.00     0.194 C 
ENDBRANCH  10  11
ENDBRANCH   9  10
ENDBRANCH   4   9
ENDBRANCH   2   3
ENDBRANCH   1   2
BRANCH   1  13
ATOM     13  C   UNL     1      21.319  36.517 -11.582  1.00  0.00     0.165 C 
BRANCH  13  14
ATOM     14  O   UNL     1      21.121  37.357 -10.476  1.00  0.00    -0.388 OA
ATOM     15  H   UNL     1      20.810  36.784  -9.728  1.00  0.00     0.211 HD
ENDBRANCH  13  14
BRANCH  13  16
ATOM     16  C   UNL     1      21.885  37.334 -12.757  1.00  0.00     0.116 C 
BRANCH  16  17
ATOM     17  N   UNL     1      22.905  36.558 -13.481  1.00  0.00    -0.312 NA
ATOM     18  H   UNL     1      22.409  35.752 -13.930  1.00  0.00     0.123 HD
BRANCH  17  19
ATOM     19  C   UNL     1      23.575  37.369 -14.516  1.00  0.00     0.047 C 
ATOM     20  C   UNL     1      25.102  37.245 -14.391  1.00  0.00     0.024 C 
ATOM     21  C   UNL     1      23.170  38.842 -14.366  1.00  0.00     0.024 C 
ENDBRANCH  17  19
ENDBRANCH  16  17
ENDBRANCH  13  16
ENDBRANCH   1  13
TORSDOF 10
ENDMDL
