MODEL 1
REMARK VINA RESULT:    -7.973      0.000      0.000
REMARK INTER + INTRA:         -11.856
REMARK INTER:                 -10.770
REMARK INTRA:                  -1.087
REMARK UNBOUND:                -1.087
REMARK SMILES CN1CCC[C@@H]1CCO[C@](C)(c1ccccc1)c1ccc(Cl)cc1
REMARK SMILES IDX 8 1 7 2 6 3 1 4 2 5 3 6 4 7 5 8 9 9 10 10 11 11 12 12 13 13
REMARK SMILES IDX 17 14 14 15 16 16 15 17 18 18 19 19 24 20 20 21 23 22 21 23
REMARK SMILES IDX 22 24
REMARK H PARENT
REMARK Flexibility Score: inf
ROOT
ATOM      1  C   UNL     1      26.589  22.057  35.223  1.00  0.00     0.163 C 
ENDROOT
BRANCH   1   2
ATOM      2  C   UNL     1      25.370  22.770  35.834  1.00  0.00     0.047 C 
BRANCH   2   3
ATOM      3  C   UNL     1      25.080  22.565  37.352  1.00  0.00     0.058 C 
ATOM      4  C   UNL     1      23.479  24.446  37.484  1.00  0.00     0.105 C 
ATOM      5  N   UNL     1      23.777  23.049  37.852  1.00  0.00    -0.303 NA
ATOM      6  C   UNL     1      23.914  22.930  39.316  1.00  0.00     0.084 C 
ATOM      7  C   UNL     1      25.398  23.064  39.673  1.00  0.00     0.017 C 
ATOM      8  C   UNL     1      26.145  23.024  38.348  1.00  0.00     0.020 C 
ENDBRANCH   2   3
ENDBRANCH   1   2
BRANCH   1   9
ATOM      9  O   UNL     1      26.135  21.233  34.157  1.00  0.00    -0.366 OA
BRANCH   9  10
ATOM     10  C   UNL     1      27.087  21.050  33.107  1.00  0.00     0.115 C 
ATOM     11  C   UNL     1      28.529  20.920  33.682  1.00  0.00     0.053 C 
BRANCH  10  12
ATOM     12  C   UNL     1      26.924  22.185  32.081  1.00  0.00    -0.012 A 
ATOM     13  C   UNL     1      28.077  22.840  31.595  1.00  0.00     0.007 A 
ATOM     14  C   UNL     1      25.661  22.654  31.656  1.00  0.00     0.007 A 
ATOM     15  C   UNL     1      27.972  23.916  30.713  1.00  0.00     0.000 A 
ATOM     16  C   UNL     1      25.563  23.718  30.755  1.00  0.00     0.000 A 
ATOM     17  C   UNL     1      26.717  24.351  30.288  1.00  0.00     0.000 A 
ENDBRANCH  10  12
BRANCH  10  18
ATOM     18  C   UNL     1      26.772  19.719  32.409  1.00  0.00    -0.012 A 
ATOM     19  C   UNL     1      26.899  19.598  31.006  1.00  0.00     0.008 A 
ATOM     20  C   UNL     1      26.458  18.557  33.151  1.00  0.00     0.008 A 
ATOM     21  C   UNL     1      26.690  18.372  30.366  1.00  0.00     0.021 A 
ATOM     22  C   UNL     1      26.243  17.336  32.507  1.00  0.00     0.021 A 
ATOM     23  C   UNL     1      26.359  17.241  31.116  1.00  0.00     0.041 A 
ATOM     24  Cl  UNL     1      26.101  15.703  30.316  1.00  0.00    -0.084 Cl
ENDBRANCH  10  18
ENDBRANCH   9  10
ENDBRANCH   1   9
TORSDOF 6
ENDMDL
MODEL 2
REMARK VINA RESULT:    -7.630      1.551      1.963
REMARK INTER + INTRA:         -11.393
REMARK INTER:                 -10.293
REMARK INTRA:                  -1.100
REMARK UNBOUND:                -1.087
REMARK SMILES CN1CCC[C@@H]1CCO[C@](C)(c1ccccc1)c1ccc(Cl)cc1
REMARK SMILES IDX 8 1 7 2 6 3 1 4 2 5 3 6 4 7 5 8 9 9 10 10 11 11 12 12 13 13
REMARK SMILES IDX 17 14 14 15 16 16 15 17 18 18 19 19 24 20 20 21 23 22 21 23
REMARK SMILES IDX 22 24
REMARK H PARENT
REMARK Flexibility Score: inf
ROOT
ATOM      1  C   UNL     1      26.598  22.074  35.039  1.00  0.00     0.163 C 
ENDROOT
BRANCH   1   2
ATOM      2  C   UNL     1      25.346  22.694  35.684  1.00  0.00     0.047 C 
BRANCH   2   3
ATOM      3  C   UNL     1      25.135  22.505  37.217  1.00  0.00     0.058 C 
ATOM      4  C   UNL     1      23.473  24.328  37.395  1.00  0.00     0.105 C 
ATOM      5  N   UNL     1      23.840  22.949  37.771  1.00  0.00    -0.303 NA
ATOM      6  C   UNL     1      24.050  22.861  39.228  1.00  0.00     0.084 C 
ATOM      7  C   UNL     1      25.543  23.056  39.512  1.00  0.00     0.017 C 
ATOM      8  C   UNL     1      26.228  23.020  38.153  1.00  0.00     0.020 C 
ENDBRANCH   2   3
ENDBRANCH   1   2
BRANCH   1   9
ATOM      9  O   UNL     1      26.179  21.232  33.973  1.00  0.00    -0.366 OA
BRANCH   9  10
ATOM     10  C   UNL     1      27.245  20.552  33.306  1.00  0.00     0.115 C 
ATOM     11  C   UNL     1      28.617  20.901  33.953  1.00  0.00     0.053 C 
BRANCH  10  12
ATOM     12  C   UNL     1      27.168  20.862  31.799  1.00  0.00    -0.012 A 
ATOM     13  C   UNL     1      27.786  22.033  31.309  1.00  0.00     0.007 A 
ATOM     14  C   UNL     1      26.439  20.060  30.892  1.00  0.00     0.007 A 
ATOM     15  C   UNL     1      27.687  22.385  29.962  1.00  0.00     0.000 A 
ATOM     16  C   UNL     1      26.362  20.407  29.540  1.00  0.00     0.000 A 
ATOM     17  C   UNL     1      26.981  21.570  29.077  1.00  0.00     0.000 A 
ENDBRANCH  10  12
BRANCH  10  18
ATOM     18  C   UNL     1      27.040  19.043  33.500  1.00  0.00    -0.012 A 
ATOM     19  C   UNL     1      28.097  18.138  33.247  1.00  0.00     0.008 A 
ATOM     20  C   UNL     1      25.839  18.529  34.038  1.00  0.00     0.008 A 
ATOM     21  C   UNL     1      27.948  16.769  33.492  1.00  0.00     0.021 A 
ATOM     22  C   UNL     1      25.692  17.160  34.276  1.00  0.00     0.021 A 
ATOM     23  C   UNL     1      26.745  16.279  34.005  1.00  0.00     0.041 A 
ATOM     24  Cl  UNL     1      26.558  14.565  34.317  1.00  0.00    -0.084 Cl
ENDBRANCH  10  18
ENDBRANCH   9  10
ENDBRANCH   1   9
TORSDOF 6
ENDMDL
MODEL 3
REMARK VINA RESULT:    -7.140      3.864      6.242
REMARK INTER + INTRA:         -10.731
REMARK INTER:                  -9.632
REMARK INTRA:                  -1.099
REMARK UNBOUND:                -1.087
REMARK SMILES CN1CCC[C@@H]1CCO[C@](C)(c1ccccc1)c1ccc(Cl)cc1
REMARK SMILES IDX 8 1 7 2 6 3 1 4 2 5 3 6 4 7 5 8 9 9 10 10 11 11 12 12 13 13
REMARK SMILES IDX 17 14 14 15 16 16 15 17 18 18 19 19 24 20 20 21 23 22 21 23
REMARK SMILES IDX 22 24
REMARK H PARENT
REMARK Flexibility Score: inf
ROOT
ATOM      1  C   UNL     1      28.517  17.344  31.627  1.00  0.00     0.163 C 
ENDROOT
BRANCH   1   2
ATOM      2  C   UNL     1      29.067  16.922  33.001  1.00  0.00     0.047 C 
BRANCH   2   3
ATOM      3  C   UNL     1      28.069  16.344  34.050  1.00  0.00     0.058 C 
ATOM      4  C   UNL     1      28.972  14.046  33.911  1.00  0.00     0.105 C 
ATOM      5  N   UNL     1      28.499  15.137  34.784  1.00  0.00    -0.303 NA
ATOM      6  C   UNL     1      27.274  14.722  35.494  1.00  0.00     0.084 C 
ATOM      7  C   UNL     1      26.064  15.198  34.684  1.00  0.00     0.017 C 
ATOM      8  C   UNL     1      26.625  16.113  33.605  1.00  0.00     0.020 C 
ENDBRANCH   2   3
ENDBRANCH   1   2
BRANCH   1   9
ATOM      9  O   UNL     1      28.721  18.743  31.477  1.00  0.00    -0.366 OA
BRANCH   9  10
ATOM     10  C   UNL     1      27.558  19.468  31.073  1.00  0.00     0.115 C 
ATOM     11  C   UNL     1      26.364  18.502  30.811  1.00  0.00     0.053 C 
BRANCH  10  12
ATOM     12  C   UNL     1      27.917  20.358  29.869  1.00  0.00    -0.012 A 
ATOM     13  C   UNL     1      29.266  20.444  29.461  1.00  0.00     0.007 A 
ATOM     14  C   UNL     1      26.963  21.153  29.196  1.00  0.00     0.007 A 
ATOM     15  C   UNL     1      29.646  21.288  28.415  1.00  0.00     0.000 A 
ATOM     16  C   UNL     1      27.346  21.978  28.135  1.00  0.00     0.000 A 
ATOM     17  C   UNL     1      28.686  22.049  27.749  1.00  0.00     0.000 A 
ENDBRANCH  10  12
BRANCH  10  18
ATOM     18  C   UNL     1      27.138  20.377  32.236  1.00  0.00    -0.012 A 
ATOM     19  C   UNL     1      27.099  21.781  32.072  1.00  0.00     0.008 A 
ATOM     20  C   UNL     1      26.674  19.838  33.458  1.00  0.00     0.008 A 
ATOM     21  C   UNL     1      26.646  22.615  33.098  1.00  0.00     0.021 A 
ATOM     22  C   UNL     1      26.228  20.676  34.484  1.00  0.00     0.021 A 
ATOM     23  C   UNL     1      26.212  22.064  34.306  1.00  0.00     0.041 A 
ATOM     24  Cl  UNL     1      25.640  23.108  35.592  1.00  0.00    -0.084 Cl
ENDBRANCH  10  18
ENDBRANCH   9  10
ENDBRANCH   1   9
TORSDOF 6
ENDMDL
MODEL 4
REMARK VINA RESULT:    -7.103      4.720      6.996
REMARK INTER + INTRA:         -10.681
REMARK INTER:                  -9.243
REMARK INTRA:                  -1.438
REMARK UNBOUND:                -1.087
REMARK SMILES CN1CCC[C@@H]1CCO[C@](C)(c1ccccc1)c1ccc(Cl)cc1
REMARK SMILES IDX 8 1 7 2 6 3 1 4 2 5 3 6 4 7 5 8 9 9 10 10 11 11 12 12 13 13
REMARK SMILES IDX 17 14 14 15 16 16 15 17 18 18 19 19 24 20 20 21 23 22 21 23
REMARK SMILES IDX 22 24
REMARK H PARENT
REMARK Flexibility Score: inf
ROOT
ATOM      1  C   UNL     1      26.663  18.711  33.186  1.00  0.00     0.163 C 
ENDROOT
BRANCH   1   2
ATOM      2  C   UNL     1      26.550  17.373  33.938  1.00  0.00     0.047 C 
BRANCH   2   3
ATOM      3  C   UNL     1      27.634  16.284  33.673  1.00  0.00     0.058 C 
ATOM      4  C   UNL     1      26.059  14.730  32.568  1.00  0.00     0.105 C 
ATOM      5  N   UNL     1      27.391  15.364  32.543  1.00  0.00    -0.303 NA
ATOM      6  C   UNL     1      28.441  14.342  32.712  1.00  0.00     0.084 C 
ATOM      7  C   UNL     1      28.798  14.258  34.199  1.00  0.00     0.017 C 
ATOM      8  C   UNL     1      28.092  15.435  34.858  1.00  0.00     0.020 C 
ENDBRANCH   2   3
ENDBRANCH   1   2
BRANCH   1   9
ATOM      9  O   UNL     1      27.923  18.748  32.529  1.00  0.00    -0.366 OA
BRANCH   9  10
ATOM     10  C   UNL     1      27.850  19.033  31.130  1.00  0.00     0.115 C 
ATOM     11  C   UNL     1      26.563  18.418  30.505  1.00  0.00     0.053 C 
BRANCH  10  12
ATOM     12  C   UNL     1      29.154  18.568  30.458  1.00  0.00    -0.012 A 
ATOM     13  C   UNL     1      29.615  19.253  29.311  1.00  0.00     0.007 A 
ATOM     14  C   UNL     1      29.877  17.436  30.895  1.00  0.00     0.007 A 
ATOM     15  C   UNL     1      30.757  18.826  28.633  1.00  0.00     0.000 A 
ATOM     16  C   UNL     1      31.033  17.027  30.224  1.00  0.00     0.000 A 
ATOM     17  C   UNL     1      31.469  17.718  29.092  1.00  0.00     0.000 A 
ENDBRANCH  10  12
BRANCH  10  18
ATOM     18  C   UNL     1      27.735  20.554  30.961  1.00  0.00    -0.012 A 
ATOM     19  C   UNL     1      26.791  21.107  30.064  1.00  0.00     0.008 A 
ATOM     20  C   UNL     1      28.481  21.441  31.770  1.00  0.00     0.008 A 
ATOM     21  C   UNL     1      26.623  22.490  29.957  1.00  0.00     0.021 A 
ATOM     22  C   UNL     1      28.314  22.823  31.655  1.00  0.00     0.021 A 
ATOM     23  C   UNL     1      27.386  23.350  30.751  1.00  0.00     0.041 A 
ATOM     24  Cl  UNL     1      27.173  25.085  30.620  1.00  0.00    -0.084 Cl
ENDBRANCH  10  18
ENDBRANCH   9  10
ENDBRANCH   1   9
TORSDOF 6
ENDMDL
MODEL 5
REMARK VINA RESULT:    -7.032      3.981      5.770
REMARK INTER + INTRA:         -10.586
REMARK INTER:                  -9.157
REMARK INTRA:                  -1.429
REMARK UNBOUND:                -1.087
REMARK SMILES CN1CCC[C@@H]1CCO[C@](C)(c1ccccc1)c1ccc(Cl)cc1
REMARK SMILES IDX 8 1 7 2 6 3 1 4 2 5 3 6 4 7 5 8 9 9 10 10 11 11 12 12 13 13
REMARK SMILES IDX 17 14 14 15 16 16 15 17 18 18 19 19 24 20 20 21 23 22 21 23
REMARK SMILES IDX 22 24
REMARK H PARENT
REMARK Flexibility Score: inf
ROOT
ATOM      1  C   UNL     1      27.616  20.621  32.613  1.00  0.00     0.163 C 
ENDROOT
BRANCH   1   2
ATOM      2  C   UNL     1      28.263  21.894  32.039  1.00  0.00     0.047 C 
BRANCH   2   3
ATOM      3  C   UNL     1      27.334  23.083  31.648  1.00  0.00     0.058 C 
ATOM      4  C   UNL     1      27.032  22.317  29.316  1.00  0.00     0.105 C 
ATOM      5  N   UNL     1      26.394  22.855  30.532  1.00  0.00    -0.303 NA
ATOM      6  C   UNL     1      25.855  24.203  30.267  1.00  0.00     0.084 C 
ATOM      7  C   UNL     1      26.911  25.233  30.681  1.00  0.00     0.017 C 
ATOM      8  C   UNL     1      27.984  24.448  31.421  1.00  0.00     0.020 C 
ENDBRANCH   2   3
ENDBRANCH   1   2
BRANCH   1   9
ATOM      9  O   UNL     1      27.480  19.677  31.560  1.00  0.00    -0.366 OA
BRANCH   9  10
ATOM     10  C   UNL     1      28.156  18.438  31.788  1.00  0.00     0.115 C 
ATOM     11  C   UNL     1      28.636  18.332  33.266  1.00  0.00     0.053 C 
BRANCH  10  12
ATOM     12  C   UNL     1      29.286  18.287  30.753  1.00  0.00    -0.012 A 
ATOM     13  C   UNL     1      29.386  19.231  29.707  1.00  0.00     0.007 A 
ATOM     14  C   UNL     1      30.187  17.200  30.761  1.00  0.00     0.007 A 
ATOM     15  C   UNL     1      30.354  19.097  28.711  1.00  0.00     0.000 A 
ATOM     16  C   UNL     1      31.169  17.083  29.773  1.00  0.00     0.000 A 
ATOM     17  C   UNL     1      31.249  18.027  28.747  1.00  0.00     0.000 A 
ENDBRANCH  10  12
BRANCH  10  18
ATOM     18  C   UNL     1      27.148  17.301  31.572  1.00  0.00    -0.012 A 
ATOM     19  C   UNL     1      26.593  16.615  32.678  1.00  0.00     0.008 A 
ATOM     20  C   UNL     1      26.664  16.984  30.283  1.00  0.00     0.008 A 
ATOM     21  C   UNL     1      25.618  15.630  32.499  1.00  0.00     0.021 A 
ATOM     22  C   UNL     1      25.694  15.994  30.108  1.00  0.00     0.021 A 
ATOM     23  C   UNL     1      25.168  15.317  31.214  1.00  0.00     0.041 A 
ATOM     24  Cl  UNL     1      23.943  14.085  30.989  1.00  0.00    -0.084 Cl
ENDBRANCH  10  18
ENDBRANCH   9  10
ENDBRANCH   1   9
TORSDOF 6
ENDMDL
MODEL 6
REMARK VINA RESULT:    -6.963      4.136      6.267
REMARK INTER + INTRA:         -10.492
REMARK INTER:                  -9.073
REMARK INTRA:                  -1.419
REMARK UNBOUND:                -1.087
REMARK SMILES CN1CCC[C@@H]1CCO[C@](C)(c1ccccc1)c1ccc(Cl)cc1
REMARK SMILES IDX 8 1 7 2 6 3 1 4 2 5 3 6 4 7 5 8 9 9 10 10 11 11 12 12 13 13
REMARK SMILES IDX 17 14 14 15 16 16 15 17 18 18 19 19 24 20 20 21 23 22 21 23
REMARK SMILES IDX 22 24
REMARK H PARENT
REMARK Flexibility Score: inf
ROOT
ATOM      1  C   UNL     1      26.075  19.557  30.524  1.00  0.00     0.163 C 
ENDROOT
BRANCH   1   2
ATOM      2  C   UNL     1      26.616  20.649  29.585  1.00  0.00     0.047 C 
BRANCH   2   3
ATOM      3  C   UNL     1      26.687  22.112  30.119  1.00  0.00     0.058 C 
ATOM      4  C   UNL     1      28.721  21.713  31.468  1.00  0.00     0.105 C 
ATOM      5  N   UNL     1      28.017  22.608  30.530  1.00  0.00    -0.303 NA
ATOM      6  C   UNL     1      27.707  23.890  31.190  1.00  0.00     0.084 C 
ATOM      7  C   UNL     1      26.290  23.806  31.765  1.00  0.00     0.017 C 
ATOM      8  C   UNL     1      25.696  22.521  31.208  1.00  0.00     0.020 C 
ENDBRANCH   2   3
ENDBRANCH   1   2
BRANCH   1   9
ATOM      9  O   UNL     1      27.062  18.541  30.642  1.00  0.00    -0.366 OA
BRANCH   9  10
ATOM     10  C   UNL     1      27.196  17.999  31.958  1.00  0.00     0.115 C 
ATOM     11  C   UNL     1      26.839  19.065  33.036  1.00  0.00     0.053 C 
BRANCH  10  12
ATOM     12  C   UNL     1      28.607  17.404  32.111  1.00  0.00    -0.012 A 
ATOM     13  C   UNL     1      29.489  17.440  31.008  1.00  0.00     0.007 A 
ATOM     14  C   UNL     1      29.037  16.754  33.289  1.00  0.00     0.007 A 
ATOM     15  C   UNL     1      30.754  16.855  31.083  1.00  0.00     0.000 A 
ATOM     16  C   UNL     1      30.314  16.190  33.365  1.00  0.00     0.000 A 
ATOM     17  C   UNL     1      31.169  16.236  32.262  1.00  0.00     0.000 A 
ENDBRANCH  10  12
BRANCH  10  18
ATOM     18  C   UNL     1      26.174  16.864  32.109  1.00  0.00    -0.012 A 
ATOM     19  C   UNL     1      25.449  16.708  33.313  1.00  0.00     0.008 A 
ATOM     20  C   UNL     1      25.849  16.020  31.023  1.00  0.00     0.008 A 
ATOM     21  C   UNL     1      24.461  15.726  33.437  1.00  0.00     0.021 A 
ATOM     22  C   UNL     1      24.865  15.036  31.154  1.00  0.00     0.021 A 
ATOM     23  C   UNL     1      24.169  14.888  32.359  1.00  0.00     0.041 A 
ATOM     24  Cl  UNL     1      22.929  13.660  32.512  1.00  0.00    -0.084 Cl
ENDBRANCH  10  18
ENDBRANCH   9  10
ENDBRANCH   1   9
TORSDOF 6
ENDMDL
MODEL 7
REMARK VINA RESULT:    -6.933      4.607      7.502
REMARK INTER + INTRA:         -10.452
REMARK INTER:                  -9.035
REMARK INTRA:                  -1.417
REMARK UNBOUND:                -1.087
REMARK SMILES CN1CCC[C@@H]1CCO[C@](C)(c1ccccc1)c1ccc(Cl)cc1
REMARK SMILES IDX 8 1 7 2 6 3 1 4 2 5 3 6 4 7 5 8 9 9 10 10 11 11 12 12 13 13
REMARK SMILES IDX 17 14 14 15 16 16 15 17 18 18 19 19 24 20 20 21 23 22 21 23
REMARK SMILES IDX 22 24
REMARK H PARENT
REMARK Flexibility Score: inf
ROOT
ATOM      1  C   UNL     1      27.432  17.332  33.147  1.00  0.00     0.163 C 
ENDROOT
BRANCH   1   2
ATOM      2  C   UNL     1      28.281  16.385  34.013  1.00  0.00     0.047 C 
BRANCH   2   3
ATOM      3  C   UNL     1      28.884  15.113  33.343  1.00  0.00     0.058 C 
ATOM      4  C   UNL     1      31.112  16.130  32.999  1.00  0.00     0.105 C 
ATOM      5  N   UNL     1      30.349  14.944  33.432  1.00  0.00    -0.303 NA
ATOM      6  C   UNL     1      30.612  13.814  32.521  1.00  0.00     0.084 C 
ATOM      7  C   UNL     1      29.522  13.798  31.445  1.00  0.00     0.017 C 
ATOM      8  C   UNL     1      28.480  14.811  31.900  1.00  0.00     0.020 C 
ENDBRANCH   2   3
ENDBRANCH   1   2
BRANCH   1   9
ATOM      9  O   UNL     1      28.296  18.299  32.565  1.00  0.00    -0.366 OA
BRANCH   9  10
ATOM     10  C   UNL     1      27.863  18.787  31.293  1.00  0.00     0.115 C 
ATOM     11  C   UNL     1      26.579  18.043  30.821  1.00  0.00     0.053 C 
BRANCH  10  12
ATOM     12  C   UNL     1      29.036  18.701  30.300  1.00  0.00    -0.012 A 
ATOM     13  C   UNL     1      29.416  19.860  29.588  1.00  0.00     0.007 A 
ATOM     14  C   UNL     1      29.705  17.490  30.013  1.00  0.00     0.007 A 
ATOM     15  C   UNL     1      30.431  19.811  28.631  1.00  0.00     0.000 A 
ATOM     16  C   UNL     1      30.736  17.454  29.069  1.00  0.00     0.000 A 
ATOM     17  C   UNL     1      31.095  18.611  28.376  1.00  0.00     0.000 A 
ENDBRANCH  10  12
BRANCH  10  18
ATOM     18  C   UNL     1      27.478  20.263  31.459  1.00  0.00    -0.012 A 
ATOM     19  C   UNL     1      26.312  20.774  30.842  1.00  0.00     0.008 A 
ATOM     20  C   UNL     1      28.207  21.121  32.314  1.00  0.00     0.008 A 
ATOM     21  C   UNL     1      25.909  22.097  31.047  1.00  0.00     0.021 A 
ATOM     22  C   UNL     1      27.804  22.444  32.511  1.00  0.00     0.021 A 
ATOM     23  C   UNL     1      26.655  22.934  31.880  1.00  0.00     0.041 A 
ATOM     24  Cl  UNL     1      26.148  24.591  32.140  1.00  0.00    -0.084 Cl
ENDBRANCH  10  18
ENDBRANCH   9  10
ENDBRANCH   1   9
TORSDOF 6
ENDMDL
MODEL 8
REMARK VINA RESULT:    -6.921     13.081     16.354
REMARK INTER + INTRA:         -10.435
REMARK INTER:                  -9.035
REMARK INTRA:                  -1.400
REMARK UNBOUND:                -1.087
REMARK SMILES CN1CCC[C@@H]1CCO[C@](C)(c1ccccc1)c1ccc(Cl)cc1
REMARK SMILES IDX 8 1 7 2 6 3 1 4 2 5 3 6 4 7 5 8 9 9 10 10 11 11 12 12 13 13
REMARK SMILES IDX 17 14 14 15 16 16 15 17 18 18 19 19 24 20 20 21 23 22 21 23
REMARK SMILES IDX 22 24
REMARK H PARENT
REMARK Flexibility Score: inf
ROOT
ATOM      1  C   UNL     1      11.601  23.331  40.397  1.00  0.00     0.163 C 
ENDROOT
BRANCH   1   2
ATOM      2  C   UNL     1      12.138  21.931  40.053  1.00  0.00     0.047 C 
BRANCH   2   3
ATOM      3  C   UNL     1      13.101  21.788  38.836  1.00  0.00     0.058 C 
ATOM      4  C   UNL     1      11.299  21.185  37.252  1.00  0.00     0.105 C 
ATOM      5  N   UNL     1      12.514  21.987  37.495  1.00  0.00    -0.303 NA
ATOM      6  C   UNL     1      13.594  21.556  36.588  1.00  0.00     0.084 C 
ATOM      7  C   UNL     1      14.451  20.517  37.319  1.00  0.00     0.017 C 
ATOM      8  C   UNL     1      13.976  20.536  38.765  1.00  0.00     0.020 C 
ENDBRANCH   2   3
ENDBRANCH   1   2
BRANCH   1   9
ATOM      9  O   UNL     1      12.659  24.266  40.236  1.00  0.00    -0.366 OA
BRANCH   9  10
ATOM     10  C   UNL     1      12.517  25.457  41.013  1.00  0.00     0.115 C 
ATOM     11  C   UNL     1      12.162  25.117  42.490  1.00  0.00     0.053 C 
BRANCH  10  12
ATOM     12  C   UNL     1      11.500  26.384  40.323  1.00  0.00    -0.012 A 
ATOM     13  C   UNL     1      10.443  26.927  41.086  1.00  0.00     0.007 A 
ATOM     14  C   UNL     1      11.536  26.660  38.938  1.00  0.00     0.007 A 
ATOM     15  C   UNL     1       9.462  27.721  40.488  1.00  0.00     0.000 A 
ATOM     16  C   UNL     1      10.564  27.474  38.350  1.00  0.00     0.000 A 
ATOM     17  C   UNL     1       9.526  27.999  39.122  1.00  0.00     0.000 A 
ENDBRANCH  10  12
BRANCH  10  18
ATOM     18  C   UNL     1      13.877  26.168  41.042  1.00  0.00    -0.012 A 
ATOM     19  C   UNL     1      14.020  27.416  41.693  1.00  0.00     0.008 A 
ATOM     20  C   UNL     1      15.039  25.553  40.524  1.00  0.00     0.008 A 
ATOM     21  C   UNL     1      15.268  28.038  41.794  1.00  0.00     0.021 A 
ATOM     22  C   UNL     1      16.284  26.181  40.621  1.00  0.00     0.021 A 
ATOM     23  C   UNL     1      16.401  27.423  41.256  1.00  0.00     0.041 A 
ATOM     24  Cl  UNL     1      17.966  28.199  41.385  1.00  0.00    -0.084 Cl
ENDBRANCH  10  18
ENDBRANCH   9  10
ENDBRANCH   1   9
TORSDOF 6
ENDMDL
MODEL 9
REMARK VINA RESULT:    -6.853     13.409     16.341
REMARK INTER + INTRA:         -10.343
REMARK INTER:                  -8.947
REMARK INTRA:                  -1.396
REMARK UNBOUND:                -1.087
REMARK SMILES CN1CCC[C@@H]1CCO[C@](C)(c1ccccc1)c1ccc(Cl)cc1
REMARK SMILES IDX 8 1 7 2 6 3 1 4 2 5 3 6 4 7 5 8 9 9 10 10 11 11 12 12 13 13
REMARK SMILES IDX 17 14 14 15 16 16 15 17 18 18 19 19 24 20 20 21 23 22 21 23
REMARK SMILES IDX 22 24
REMARK H PARENT
REMARK Flexibility Score: inf
ROOT
ATOM      1  C   UNL     1      13.009  20.904  35.562  1.00  0.00     0.163 C 
ENDROOT
BRANCH   1   2
ATOM      2  C   UNL     1      11.679  21.105  34.815  1.00  0.00     0.047 C 
BRANCH   2   3
ATOM      3  C   UNL     1      10.752  19.868  34.614  1.00  0.00     0.058 C 
ATOM      4  C   UNL     1       9.834  20.680  32.466  1.00  0.00     0.105 C 
ATOM      5  N   UNL     1      10.376  19.537  33.224  1.00  0.00    -0.303 NA
ATOM      6  C   UNL     1       9.336  18.505  33.395  1.00  0.00     0.084 C 
ATOM      7  C   UNL     1       8.645  18.736  34.743  1.00  0.00     0.017 C 
ATOM      8  C   UNL     1       9.480  19.789  35.458  1.00  0.00     0.020 C 
ENDBRANCH   2   3
ENDBRANCH   1   2
BRANCH   1   9
ATOM      9  O   UNL     1      13.065  19.559  36.020  1.00  0.00    -0.366 OA
BRANCH   9  10
ATOM     10  C   UNL     1      13.398  19.420  37.403  1.00  0.00     0.115 C 
ATOM     11  C   UNL     1      14.942  19.414  37.604  1.00  0.00     0.053 C 
BRANCH  10  12
ATOM     12  C   UNL     1      12.690  18.174  37.964  1.00  0.00    -0.012 A 
ATOM     13  C   UNL     1      13.123  17.637  39.196  1.00  0.00     0.007 A 
ATOM     14  C   UNL     1      11.669  17.495  37.262  1.00  0.00     0.007 A 
ATOM     15  C   UNL     1      12.553  16.472  39.710  1.00  0.00     0.000 A 
ATOM     16  C   UNL     1      11.087  16.341  37.793  1.00  0.00     0.000 A 
ATOM     17  C   UNL     1      11.532  15.827  39.013  1.00  0.00     0.000 A 
ENDBRANCH  10  12
BRANCH  10  18
ATOM     18  C   UNL     1      12.864  20.654  38.145  1.00  0.00    -0.012 A 
ATOM     19  C   UNL     1      11.500  20.737  38.509  1.00  0.00     0.008 A 
ATOM     20  C   UNL     1      13.732  21.680  38.581  1.00  0.00     0.008 A 
ATOM     21  C   UNL     1      11.017  21.819  39.251  1.00  0.00     0.021 A 
ATOM     22  C   UNL     1      13.244  22.763  39.318  1.00  0.00     0.021 A 
ATOM     23  C   UNL     1      11.888  22.834  39.655  1.00  0.00     0.041 A 
ATOM     24  Cl  UNL     1      11.285  24.188  40.589  1.00  0.00    -0.084 Cl
ENDBRANCH  10  18
ENDBRANCH   9  10
ENDBRANCH   1   9
TORSDOF 6
ENDMDL
MODEL 10
REMARK VINA RESULT:    -6.850      4.721      7.093
REMARK INTER + INTRA:         -10.339
REMARK INTER:                  -8.936
REMARK INTRA:                  -1.403
REMARK UNBOUND:                -1.087
REMARK SMILES CN1CCC[C@@H]1CCO[C@](C)(c1ccccc1)c1ccc(Cl)cc1
REMARK SMILES IDX 8 1 7 2 6 3 1 4 2 5 3 6 4 7 5 8 9 9 10 10 11 11 12 12 13 13
REMARK SMILES IDX 17 14 14 15 16 16 15 17 18 18 19 19 24 20 20 21 23 22 21 23
REMARK SMILES IDX 22 24
REMARK H PARENT
REMARK Flexibility Score: inf
ROOT
ATOM      1  C   UNL     1      26.657  18.636  33.079  1.00  0.00     0.163 C 
ENDROOT
BRANCH   1   2
ATOM      2  C   UNL     1      27.116  17.339  33.767  1.00  0.00     0.047 C 
BRANCH   2   3
ATOM      3  C   UNL     1      26.617  15.980  33.189  1.00  0.00     0.058 C 
ATOM      4  C   UNL     1      28.013  14.616  34.708  1.00  0.00     0.105 C 
ATOM      5  N   UNL     1      26.689  14.808  34.086  1.00  0.00    -0.303 NA
ATOM      6  C   UNL     1      26.384  13.679  33.187  1.00  0.00     0.084 C 
ATOM      7  C   UNL     1      26.816  14.062  31.768  1.00  0.00     0.017 C 
ATOM      8  C   UNL     1      27.161  15.543  31.829  1.00  0.00     0.020 C 
ENDBRANCH   2   3
ENDBRANCH   1   2
BRANCH   1   9
ATOM      9  O   UNL     1      27.782  19.224  32.440  1.00  0.00    -0.366 OA
BRANCH   9  10
ATOM     10  C   UNL     1      27.571  19.561  31.067  1.00  0.00     0.115 C 
ATOM     11  C   UNL     1      26.243  18.941  30.541  1.00  0.00     0.053 C 
BRANCH  10  12
ATOM     12  C   UNL     1      28.815  19.153  30.256  1.00  0.00    -0.012 A 
ATOM     13  C   UNL     1      29.506  17.974  30.611  1.00  0.00     0.007 A 
ATOM     14  C   UNL     1      29.341  19.949  29.214  1.00  0.00     0.007 A 
ATOM     15  C   UNL     1      30.674  17.600  29.944  1.00  0.00     0.000 A 
ATOM     16  C   UNL     1      30.499  19.558  28.536  1.00  0.00     0.000 A 
ATOM     17  C   UNL     1      31.167  18.388  28.904  1.00  0.00     0.000 A 
ENDBRANCH  10  12
BRANCH  10  18
ATOM     18  C   UNL     1      27.411  21.084  30.972  1.00  0.00    -0.012 A 
ATOM     19  C   UNL     1      28.187  21.940  31.788  1.00  0.00     0.008 A 
ATOM     20  C   UNL     1      26.574  21.675  29.997  1.00  0.00     0.008 A 
ATOM     21  C   UNL     1      28.106  23.330  31.658  1.00  0.00     0.021 A 
ATOM     22  C   UNL     1      26.492  23.065  29.875  1.00  0.00     0.021 A 
ATOM     23  C   UNL     1      27.257  23.893  30.703  1.00  0.00     0.041 A 
ATOM     24  Cl  UNL     1      27.158  25.635  30.536  1.00  0.00    -0.084 Cl
ENDBRANCH  10  18
ENDBRANCH   9  10
ENDBRANCH   1   9
TORSDOF 6
ENDMDL
MODEL 11
REMARK VINA RESULT:    -6.818      4.108      6.473
REMARK INTER + INTRA:         -10.297
REMARK INTER:                  -9.392
REMARK INTRA:                  -0.905
REMARK UNBOUND:                -1.087
REMARK SMILES CN1CCC[C@@H]1CCO[C@](C)(c1ccccc1)c1ccc(Cl)cc1
REMARK SMILES IDX 8 1 7 2 6 3 1 4 2 5 3 6 4 7 5 8 9 9 10 10 11 11 12 12 13 13
REMARK SMILES IDX 17 14 14 15 16 16 15 17 18 18 19 19 24 20 20 21 23 22 21 23
REMARK SMILES IDX 22 24
REMARK H PARENT
REMARK Flexibility Score: inf
ROOT
ATOM      1  C   UNL     1      28.605  16.211  32.826  1.00  0.00     0.163 C 
ENDROOT
BRANCH   1   2
ATOM      2  C   UNL     1      28.159  15.993  34.283  1.00  0.00     0.047 C 
BRANCH   2   3
ATOM      3  C   UNL     1      26.953  15.044  34.552  1.00  0.00     0.058 C 
ATOM      4  C   UNL     1      25.272  16.855  34.447  1.00  0.00     0.105 C 
ATOM      5  N   UNL     1      25.635  15.482  34.048  1.00  0.00    -0.303 NA
ATOM      6  C   UNL     1      24.704  14.514  34.660  1.00  0.00     0.084 C 
ATOM      7  C   UNL     1      25.319  14.016  35.971  1.00  0.00     0.017 C 
ATOM      8  C   UNL     1      26.747  14.543  35.982  1.00  0.00     0.020 C 
ENDBRANCH   2   3
ENDBRANCH   1   2
BRANCH   1   9
ATOM      9  O   UNL     1      28.933  17.584  32.661  1.00  0.00    -0.366 OA
BRANCH   9  10
ATOM     10  C   UNL     1      28.274  18.220  31.564  1.00  0.00     0.115 C 
ATOM     11  C   UNL     1      27.015  17.412  31.129  1.00  0.00     0.053 C 
BRANCH  10  12
ATOM     12  C   UNL     1      29.293  18.445  30.432  1.00  0.00    -0.012 A 
ATOM     13  C   UNL     1      29.477  19.752  29.928  1.00  0.00     0.007 A 
ATOM     14  C   UNL     1      30.003  17.387  29.823  1.00  0.00     0.007 A 
ATOM     15  C   UNL     1      30.343  19.991  28.860  1.00  0.00     0.000 A 
ATOM     16  C   UNL     1      30.885  17.637  28.768  1.00  0.00     0.000 A 
ATOM     17  C   UNL     1      31.051  18.937  28.284  1.00  0.00     0.000 A 
ENDBRANCH  10  12
BRANCH  10  18
ATOM     18  C   UNL     1      27.772  19.589  32.042  1.00  0.00    -0.012 A 
ATOM     19  C   UNL     1      26.811  20.304  31.289  1.00  0.00     0.008 A 
ATOM     20  C   UNL     1      28.166  20.120  33.292  1.00  0.00     0.008 A 
ATOM     21  C   UNL     1      26.289  21.516  31.751  1.00  0.00     0.021 A 
ATOM     22  C   UNL     1      27.646  21.335  33.747  1.00  0.00     0.021 A 
ATOM     23  C   UNL     1      26.708  22.034  32.980  1.00  0.00     0.041 A 
ATOM     24  Cl  UNL     1      26.051  23.550  33.562  1.00  0.00    -0.084 Cl
ENDBRANCH  10  18
ENDBRANCH   9  10
ENDBRANCH   1   9
TORSDOF 6
ENDMDL
MODEL 12
REMARK VINA RESULT:    -6.741      3.783      6.102
REMARK INTER + INTRA:         -10.193
REMARK INTER:                  -8.874
REMARK INTRA:                  -1.319
REMARK UNBOUND:                -1.087
REMARK SMILES CN1CCC[C@@H]1CCO[C@](C)(c1ccccc1)c1ccc(Cl)cc1
REMARK SMILES IDX 8 1 7 2 6 3 1 4 2 5 3 6 4 7 5 8 9 9 10 10 11 11 12 12 13 13
REMARK SMILES IDX 17 14 14 15 16 16 15 17 18 18 19 19 24 20 20 21 23 22 21 23
REMARK SMILES IDX 22 24
REMARK H PARENT
REMARK Flexibility Score: inf
ROOT
ATOM      1  C   UNL     1      27.199  19.726  30.639  1.00  0.00     0.163 C 
ENDROOT
BRANCH   1   2
ATOM      2  C   UNL     1      25.977  20.596  30.295  1.00  0.00     0.047 C 
BRANCH   2   3
ATOM      3  C   UNL     1      25.794  21.944  31.055  1.00  0.00     0.058 C 
ATOM      4  C   UNL     1      27.707  23.043  29.937  1.00  0.00     0.105 C 
ATOM      5  N   UNL     1      26.308  23.159  30.390  1.00  0.00    -0.303 NA
ATOM      6  C   UNL     1      26.200  24.188  31.442  1.00  0.00     0.084 C 
ATOM      7  C   UNL     1      26.309  23.497  32.805  1.00  0.00     0.017 C 
ATOM      8  C   UNL     1      26.241  22.004  32.516  1.00  0.00     0.020 C 
ENDBRANCH   2   3
ENDBRANCH   1   2
BRANCH   1   9
ATOM      9  O   UNL     1      26.750  18.604  31.387  1.00  0.00    -0.366 OA
BRANCH   9  10
ATOM     10  C   UNL     1      27.758  17.993  32.196  1.00  0.00     0.115 C 
ATOM     11  C   UNL     1      28.507  19.059  33.049  1.00  0.00     0.053 C 
BRANCH  10  12
ATOM     12  C   UNL     1      28.682  17.155  31.293  1.00  0.00    -0.012 A 
ATOM     13  C   UNL     1      30.063  17.446  31.269  1.00  0.00     0.007 A 
ATOM     14  C   UNL     1      28.195  16.149  30.429  1.00  0.00     0.007 A 
ATOM     15  C   UNL     1      30.926  16.754  30.418  1.00  0.00     0.000 A 
ATOM     16  C   UNL     1      29.068  15.444  29.595  1.00  0.00     0.000 A 
ATOM     17  C   UNL     1      30.431  15.750  29.586  1.00  0.00     0.000 A 
ENDBRANCH  10  12
BRANCH  10  18
ATOM     18  C   UNL     1      27.064  17.049  33.186  1.00  0.00    -0.012 A 
ATOM     19  C   UNL     1      27.818  16.124  33.946  1.00  0.00     0.008 A 
ATOM     20  C   UNL     1      25.678  17.151  33.449  1.00  0.00     0.008 A 
ATOM     21  C   UNL     1      27.208  15.312  34.906  1.00  0.00     0.021 A 
ATOM     22  C   UNL     1      25.071  16.332  34.406  1.00  0.00     0.021 A 
ATOM     23  C   UNL     1      25.834  15.413  35.136  1.00  0.00     0.041 A 
ATOM     24  Cl  UNL     1      25.069  14.399  36.342  1.00  0.00    -0.084 Cl
ENDBRANCH  10  18
ENDBRANCH   9  10
ENDBRANCH   1   9
TORSDOF 6
ENDMDL
MODEL 13
REMARK VINA RESULT:    -6.699     13.397     16.690
REMARK INTER + INTRA:         -10.136
REMARK INTER:                  -9.136
REMARK INTRA:                  -0.999
REMARK UNBOUND:                -1.087
REMARK SMILES CN1CCC[C@@H]1CCO[C@](C)(c1ccccc1)c1ccc(Cl)cc1
REMARK SMILES IDX 8 1 7 2 6 3 1 4 2 5 3 6 4 7 5 8 9 9 10 10 11 11 12 12 13 13
REMARK SMILES IDX 17 14 14 15 16 16 15 17 18 18 19 19 24 20 20 21 23 22 21 23
REMARK SMILES IDX 22 24
REMARK H PARENT
REMARK Flexibility Score: inf
ROOT
ATOM      1  C   UNL     1      12.245  24.376  39.811  1.00  0.00     0.163 C 
ENDROOT
BRANCH   1   2
ATOM      2  C   UNL     1      12.221  22.844  39.668  1.00  0.00     0.047 C 
BRANCH   2   3
ATOM      3  C   UNL     1      13.198  22.182  38.651  1.00  0.00     0.058 C 
ATOM      4  C   UNL     1      11.389  21.260  37.239  1.00  0.00     0.105 C 
ATOM      5  N   UNL     1      12.686  21.961  37.283  1.00  0.00    -0.303 NA
ATOM      6  C   UNL     1      13.734  21.127  36.663  1.00  0.00     0.084 C 
ATOM      7  C   UNL     1      14.427  20.325  37.769  1.00  0.00     0.017 C 
ATOM      8  C   UNL     1      13.910  20.899  39.080  1.00  0.00     0.020 C 
ENDBRANCH   2   3
ENDBRANCH   1   2
BRANCH   1   9
ATOM      9  O   UNL     1      13.026  24.705  40.952  1.00  0.00    -0.366 OA
BRANCH   9  10
ATOM     10  C   UNL     1      13.167  26.108  41.185  1.00  0.00     0.115 C 
ATOM     11  C   UNL     1      12.277  26.926  40.203  1.00  0.00     0.053 C 
BRANCH  10  12
ATOM     12  C   UNL     1      14.661  26.475  41.127  1.00  0.00    -0.012 A 
ATOM     13  C   UNL     1      15.591  25.497  40.712  1.00  0.00     0.007 A 
ATOM     14  C   UNL     1      15.154  27.732  41.543  1.00  0.00     0.007 A 
ATOM     15  C   UNL     1      16.960  25.766  40.706  1.00  0.00     0.000 A 
ATOM     16  C   UNL     1      16.525  28.003  41.514  1.00  0.00     0.000 A 
ATOM     17  C   UNL     1      17.427  27.020  41.101  1.00  0.00     0.000 A 
ENDBRANCH  10  12
BRANCH  10  18
ATOM     18  C   UNL     1      12.650  26.408  42.598  1.00  0.00    -0.012 A 
ATOM     19  C   UNL     1      12.247  27.717  42.951  1.00  0.00     0.008 A 
ATOM     20  C   UNL     1      12.458  25.376  43.545  1.00  0.00     0.008 A 
ATOM     21  C   UNL     1      11.703  27.989  44.211  1.00  0.00     0.021 A 
ATOM     22  C   UNL     1      11.920  25.653  44.804  1.00  0.00     0.021 A 
ATOM     23  C   UNL     1      11.541  26.958  45.139  1.00  0.00     0.041 A 
ATOM     24  Cl  UNL     1      10.855  27.297  46.715  1.00  0.00    -0.084 Cl
ENDBRANCH  10  18
ENDBRANCH   9  10
ENDBRANCH   1   9
TORSDOF 6
ENDMDL
MODEL 14
REMARK VINA RESULT:    -6.678     13.737     16.608
REMARK INTER + INTRA:         -10.107
REMARK INTER:                  -8.600
REMARK INTRA:                  -1.508
REMARK UNBOUND:                -1.087
REMARK SMILES CN1CCC[C@@H]1CCO[C@](C)(c1ccccc1)c1ccc(Cl)cc1
REMARK SMILES IDX 8 1 7 2 6 3 1 4 2 5 3 6 4 7 5 8 9 9 10 10 11 11 12 12 13 13
REMARK SMILES IDX 17 14 14 15 16 16 15 17 18 18 19 19 24 20 20 21 23 22 21 23
REMARK SMILES IDX 22 24
REMARK H PARENT
REMARK Flexibility Score: inf
ROOT
ATOM      1  C   UNL     1      11.853  21.170  34.884  1.00  0.00     0.163 C 
ENDROOT
BRANCH   1   2
ATOM      2  C   UNL     1      10.531  21.613  34.232  1.00  0.00     0.047 C 
BRANCH   2   3
ATOM      3  C   UNL     1       9.623  20.521  33.590  1.00  0.00     0.058 C 
ATOM      4  C   UNL     1       8.111  20.374  35.542  1.00  0.00     0.105 C 
ATOM      5  N   UNL     1       8.229  20.446  34.073  1.00  0.00    -0.303 NA
ATOM      6  C   UNL     1       7.730  19.198  33.464  1.00  0.00     0.084 C 
ATOM      7  C   UNL     1       8.920  18.256  33.252  1.00  0.00     0.017 C 
ATOM      8  C   UNL     1      10.160  19.091  33.534  1.00  0.00     0.020 C 
ENDBRANCH   2   3
ENDBRANCH   1   2
BRANCH   1   9
ATOM      9  O   UNL     1      11.570  20.719  36.202  1.00  0.00    -0.366 OA
BRANCH   9  10
ATOM     10  C   UNL     1      12.704  20.689  37.070  1.00  0.00     0.115 C 
ATOM     11  C   UNL     1      13.998  21.103  36.309  1.00  0.00     0.053 C 
BRANCH  10  12
ATOM     12  C   UNL     1      12.787  19.302  37.734  1.00  0.00    -0.012 A 
ATOM     13  C   UNL     1      11.945  18.269  37.268  1.00  0.00     0.007 A 
ATOM     14  C   UNL     1      13.621  19.036  38.843  1.00  0.00     0.007 A 
ATOM     15  C   UNL     1      11.942  17.016  37.883  1.00  0.00     0.000 A 
ATOM     16  C   UNL     1      13.629  17.772  39.440  1.00  0.00     0.000 A 
ATOM     17  C   UNL     1      12.787  16.765  38.963  1.00  0.00     0.000 A 
ENDBRANCH  10  12
BRANCH  10  18
ATOM     18  C   UNL     1      12.488  21.738  38.169  1.00  0.00    -0.012 A 
ATOM     19  C   UNL     1      13.521  22.641  38.512  1.00  0.00     0.008 A 
ATOM     20  C   UNL     1      11.227  21.906  38.787  1.00  0.00     0.008 A 
ATOM     21  C   UNL     1      13.313  23.650  39.457  1.00  0.00     0.021 A 
ATOM     22  C   UNL     1      11.025  22.912  39.735  1.00  0.00     0.021 A 
ATOM     23  C   UNL     1      12.065  23.786  40.071  1.00  0.00     0.041 A 
ATOM     24  Cl  UNL     1      11.801  25.053  41.252  1.00  0.00    -0.084 Cl
ENDBRANCH  10  18
ENDBRANCH   9  10
ENDBRANCH   1   9
TORSDOF 6
ENDMDL
