MODEL 1
REMARK VINA RESULT:    -8.340      0.000      0.000
REMARK INTER + INTRA:         -10.231
REMARK INTER:                 -10.047
REMARK INTRA:                  -0.184
REMARK UNBOUND:                -0.184
REMARK SMILES C[C@]12C=CC(=O)C=C1CC[C@@H]1[C@@H]2[C@@H](O)C[C@@]2(C)[C@H]1CC[C@]2(O)C(=O)CO
REMARK SMILES IDX 23 1 24 2 21 3 18 4 19 5 16 6 11 7 20 8 17 9 15 10 12 11
REMARK SMILES IDX 10 12 13 13 2 14 9 15 8 16 3 17 1 18 7 19 4 20 5 21 6 22
REMARK SMILES IDX 22 23 14 25 25 27 26 28
REMARK H PARENT 22 24 14 26 26 29
REMARK Flexibility Score: inf
ROOT
ATOM      1  C   UNL     1      32.467  15.288  11.653  1.00  0.00     0.190 C 
ATOM      2  O   UNL     1      32.815  16.457  11.573  1.00  0.00    -0.294 OA
ENDROOT
BRANCH   1   3
ATOM      3  C   UNL     1      30.994  14.941  11.936  1.00  0.00     0.131 C 
ATOM      4  C   UNL     1      28.835  14.251  11.187  1.00  0.00     0.002 C 
ATOM      5  C   UNL     1      28.702  15.758  11.363  1.00  0.00     0.008 C 
ATOM      6  C   UNL     1      30.328  14.038  10.843  1.00  0.00     0.009 C 
ATOM      7  C   UNL     1      27.874  13.494  10.235  1.00  0.00    -0.000 C 
ATOM      8  C   UNL     1      30.055  16.194  11.955  1.00  0.00     0.044 C 
ATOM      9  C   UNL     1      30.729  14.579   9.427  1.00  0.00     0.015 C 
ATOM     10  C   UNL     1      30.645  12.515  10.941  1.00  0.00     0.042 C 
ATOM     11  C   UNL     1      28.159  11.964  10.403  1.00  0.00     0.035 C 
ATOM     12  C   UNL     1      26.372  13.855  10.449  1.00  0.00     0.009 C 
ATOM     13  C   UNL     1      29.664  11.604  10.144  1.00  0.00     0.119 C 
ATOM     14  C   UNL     1      27.057  11.071   9.724  1.00  0.00     0.013 C 
ATOM     15  C   UNL     1      25.516  12.747  11.078  1.00  0.00     0.032 C 
ATOM     16  C   UNL     1      25.736  11.388  10.449  1.00  0.00    -0.056 C 
ATOM     17  C   UNL     1      27.404   9.585   9.831  1.00  0.00    -0.012 C 
ATOM     18  C   UNL     1      26.862  11.361   8.217  1.00  0.00     0.021 C 
ATOM     19  C   UNL     1      24.806  10.439  10.651  1.00  0.00     0.052 C 
ATOM     20  C   UNL     1      26.471   8.648  10.024  1.00  0.00     0.048 C 
ATOM     21  C   UNL     1      25.097   9.037  10.350  1.00  0.00     0.178 C 
ATOM     22  O   UNL     1      24.193   8.165  10.435  1.00  0.00    -0.290 OA
BRANCH   3  23
ATOM     23  O   UNL     1      30.908  14.306  13.194  1.00  0.00    -0.381 OA
ATOM     24  H   UNL     1      31.589  14.715  13.790  1.00  0.00     0.212 HD
ENDBRANCH   3  23
BRANCH  13  25
ATOM     25  O   UNL     1      30.021  11.536   8.785  1.00  0.00    -0.393 OA
ATOM     26  H   UNL     1      29.739  12.368   8.338  1.00  0.00     0.210 HD
ENDBRANCH  13  25
ENDBRANCH   1   3
BRANCH   1  27
ATOM     27  C   UNL     1      33.513  14.225  11.428  1.00  0.00     0.234 C 
BRANCH  27  28
ATOM     28  O   UNL     1      33.874  13.614  12.636  1.00  0.00    -0.388 OA
ATOM     29  H   UNL     1      34.518  14.229  13.074  1.00  0.00     0.211 HD
ENDBRANCH  27  28
ENDBRANCH   1  27
TORSDOF 5
ENDMDL
MODEL 2
REMARK VINA RESULT:    -8.282      2.426      3.461
REMARK INTER + INTRA:         -10.160
REMARK INTER:                 -10.033
REMARK INTRA:                  -0.127
REMARK UNBOUND:                -0.184
REMARK SMILES C[C@]12C=CC(=O)C=C1CC[C@@H]1[C@@H]2[C@@H](O)C[C@@]2(C)[C@H]1CC[C@]2(O)C(=O)CO
REMARK SMILES IDX 23 1 24 2 21 3 18 4 19 5 16 6 11 7 20 8 17 9 15 10 12 11
REMARK SMILES IDX 10 12 13 13 2 14 9 15 8 16 3 17 1 18 7 19 4 20 5 21 6 22
REMARK SMILES IDX 22 23 14 25 25 27 26 28
REMARK H PARENT 22 24 14 26 26 29
REMARK Flexibility Score: inf
ROOT
ATOM      1  C   UNL     1      34.180  10.225   9.682  1.00  0.00     0.190 C 
ATOM      2  O   UNL     1      34.197   9.035   9.404  1.00  0.00    -0.294 OA
ENDROOT
BRANCH   1   3
ATOM      3  C   UNL     1      32.954  10.835  10.385  1.00  0.00     0.131 C 
ATOM      4  C   UNL     1      30.761  11.773  10.307  1.00  0.00     0.002 C 
ATOM      5  C   UNL     1      31.675  12.982  10.458  1.00  0.00     0.008 C 
ATOM      6  C   UNL     1      31.626  10.731   9.561  1.00  0.00     0.009 C 
ATOM      7  C   UNL     1      29.346  11.943   9.697  1.00  0.00    -0.000 C 
ATOM      8  C   UNL     1      33.082  12.378  10.624  1.00  0.00     0.044 C 
ATOM      9  C   UNL     1      31.925  11.116   8.070  1.00  0.00     0.015 C 
ATOM     10  C   UNL     1      30.902   9.352   9.621  1.00  0.00     0.042 C 
ATOM     11  C   UNL     1      28.610  10.568   9.833  1.00  0.00     0.035 C 
ATOM     12  C   UNL     1      28.537  13.124  10.316  1.00  0.00     0.009 C 
ATOM     13  C   UNL     1      29.411   9.392   9.169  1.00  0.00     0.119 C 
ATOM     14  C   UNL     1      27.071  10.679   9.529  1.00  0.00     0.013 C 
ATOM     15  C   UNL     1      27.354  12.713  11.202  1.00  0.00     0.032 C 
ATOM     16  C   UNL     1      26.489  11.633  10.588  1.00  0.00    -0.056 C 
ATOM     17  C   UNL     1      26.394   9.308   9.588  1.00  0.00    -0.012 C 
ATOM     18  C   UNL     1      26.753  11.258   8.130  1.00  0.00     0.021 C 
ATOM     19  C   UNL     1      25.251  11.457  11.080  1.00  0.00     0.052 C 
ATOM     20  C   UNL     1      25.160   9.144  10.073  1.00  0.00     0.048 C 
ATOM     21  C   UNL     1      24.489  10.249  10.761  1.00  0.00     0.178 C 
ATOM     22  O   UNL     1      23.292  10.133  11.132  1.00  0.00    -0.290 OA
BRANCH   3  23
ATOM     23  O   UNL     1      32.786  10.207  11.638  1.00  0.00    -0.381 OA
ATOM     24  H   UNL     1      32.437  10.883  12.275  1.00  0.00     0.212 HD
ENDBRANCH   3  23
BRANCH  13  25
ATOM     25  O   UNL     1      29.300   9.330   7.769  1.00  0.00    -0.393 OA
ATOM     26  H   UNL     1      29.943   8.666   7.426  1.00  0.00     0.210 HD
ENDBRANCH  13  25
ENDBRANCH   1   3
BRANCH   1  27
ATOM     27  C   UNL     1      35.404  11.042   9.350  1.00  0.00     0.234 C 
BRANCH  27  28
ATOM     28  O   UNL     1      36.319  11.028  10.411  1.00  0.00    -0.388 OA
ATOM     29  H   UNL     1      36.040  11.757  11.024  1.00  0.00     0.211 HD
ENDBRANCH  27  28
ENDBRANCH   1  27
TORSDOF 5
ENDMDL
MODEL 3
REMARK VINA RESULT:    -8.077      2.522      7.833
REMARK INTER + INTRA:          -9.914
REMARK INTER:                  -9.713
REMARK INTRA:                  -0.201
REMARK UNBOUND:                -0.184
REMARK SMILES C[C@]12C=CC(=O)C=C1CC[C@@H]1[C@@H]2[C@@H](O)C[C@@]2(C)[C@H]1CC[C@]2(O)C(=O)CO
REMARK SMILES IDX 23 1 24 2 21 3 18 4 19 5 16 6 11 7 20 8 17 9 15 10 12 11
REMARK SMILES IDX 10 12 13 13 2 14 9 15 8 16 3 17 1 18 7 19 4 20 5 21 6 22
REMARK SMILES IDX 22 23 14 25 25 27 26 28
REMARK H PARENT 22 24 14 26 26 29
REMARK Flexibility Score: inf
ROOT
ATOM      1  C   UNL     1      27.892   7.772   9.381  1.00  0.00     0.190 C 
ATOM      2  O   UNL     1      27.752   7.202   8.309  1.00  0.00    -0.294 OA
ENDROOT
BRANCH   1   3
ATOM      3  C   UNL     1      29.302   8.125   9.888  1.00  0.00     0.131 C 
ATOM      4  C   UNL     1      31.309   9.408   9.739  1.00  0.00     0.002 C 
ATOM      5  C   UNL     1      31.675   8.073   9.103  1.00  0.00     0.008 C 
ATOM      6  C   UNL     1      29.793   9.554   9.475  1.00  0.00     0.009 C 
ATOM      7  C   UNL     1      32.118  10.682   9.386  1.00  0.00    -0.000 C 
ATOM      8  C   UNL     1      30.421   7.201   9.297  1.00  0.00     0.044 C 
ATOM      9  C   UNL     1      29.439   9.793   7.965  1.00  0.00     0.015 C 
ATOM     10  C   UNL     1      29.250  10.730  10.342  1.00  0.00     0.042 C 
ATOM     11  C   UNL     1      31.608  11.832  10.318  1.00  0.00     0.035 C 
ATOM     12  C   UNL     1      33.663  10.483   9.463  1.00  0.00     0.009 C 
ATOM     13  C   UNL     1      30.059  12.055  10.202  1.00  0.00     0.119 C 
ATOM     14  C   UNL     1      32.542  13.097  10.276  1.00  0.00     0.013 C 
ATOM     15  C   UNL     1      34.357  11.200  10.629  1.00  0.00     0.032 C 
ATOM     16  C   UNL     1      33.915  12.638  10.799  1.00  0.00    -0.056 C 
ATOM     17  C   UNL     1      31.977  14.233  11.129  1.00  0.00    -0.012 C 
ATOM     18  C   UNL     1      32.737  13.680   8.856  1.00  0.00     0.021 C 
ATOM     19  C   UNL     1      34.696  13.458  11.523  1.00  0.00     0.052 C 
ATOM     20  C   UNL     1      32.761  15.048  11.840  1.00  0.00     0.048 C 
ATOM     21  C   UNL     1      34.186  14.749  11.989  1.00  0.00     0.178 C 
ATOM     22  O   UNL     1      34.949  15.562  12.573  1.00  0.00    -0.290 OA
BRANCH   3  23
ATOM     23  O   UNL     1      29.326   8.003  11.294  1.00  0.00    -0.381 OA
ATOM     24  H   UNL     1      29.308   8.917  11.681  1.00  0.00     0.212 HD
ENDBRANCH   3  23
BRANCH  13  25
ATOM     25  O   UNL     1      29.658  12.779   9.065  1.00  0.00    -0.393 OA
ATOM     26  H   UNL     1      28.880  13.338   9.299  1.00  0.00     0.210 HD
ENDBRANCH  13  25
ENDBRANCH   1   3
BRANCH   1  27
ATOM     27  C   UNL     1      26.647   8.143  10.149  1.00  0.00     0.234 C 
BRANCH  27  28
ATOM     28  O   UNL     1      26.380   7.203  11.152  1.00  0.00    -0.388 OA
ATOM     29  H   UNL     1      26.746   7.585  11.992  1.00  0.00     0.211 HD
ENDBRANCH  27  28
ENDBRANCH   1  27
TORSDOF 5
ENDMDL
MODEL 4
REMARK VINA RESULT:    -8.071      2.667      3.684
REMARK INTER + INTRA:          -9.907
REMARK INTER:                  -9.856
REMARK INTRA:                  -0.050
REMARK UNBOUND:                -0.184
REMARK SMILES C[C@]12C=CC(=O)C=C1CC[C@@H]1[C@@H]2[C@@H](O)C[C@@]2(C)[C@H]1CC[C@]2(O)C(=O)CO
REMARK SMILES IDX 23 1 24 2 21 3 18 4 19 5 16 6 11 7 20 8 17 9 15 10 12 11
REMARK SMILES IDX 10 12 13 13 2 14 9 15 8 16 3 17 1 18 7 19 4 20 5 21 6 22
REMARK SMILES IDX 22 23 14 25 25 27 26 28
REMARK H PARENT 22 24 14 26 26 29
REMARK Flexibility Score: inf
ROOT
ATOM      1  C   UNL     1      35.535  11.234  10.466  1.00  0.00     0.190 C 
ATOM      2  O   UNL     1      36.267  12.143  10.101  1.00  0.00    -0.294 OA
ENDROOT
BRANCH   1   3
ATOM      3  C   UNL     1      34.087  11.535  10.894  1.00  0.00     0.131 C 
ATOM      4  C   UNL     1      31.775  11.811  10.371  1.00  0.00     0.002 C 
ATOM      5  C   UNL     1      32.299  13.235  10.494  1.00  0.00     0.008 C 
ATOM      6  C   UNL     1      33.001  10.992   9.905  1.00  0.00     0.009 C 
ATOM      7  C   UNL     1      30.496  11.524   9.543  1.00  0.00    -0.000 C 
ATOM      8  C   UNL     1      33.762  13.066  10.943  1.00  0.00     0.044 C 
ATOM      9  C   UNL     1      33.448  11.313   8.436  1.00  0.00     0.015 C 
ATOM     10  C   UNL     1      32.664   9.476  10.040  1.00  0.00     0.042 C 
ATOM     11  C   UNL     1      30.134  10.016   9.751  1.00  0.00     0.035 C 
ATOM     12  C   UNL     1      29.310  12.481   9.875  1.00  0.00     0.009 C 
ATOM     13  C   UNL     1      31.319   9.058   9.373  1.00  0.00     0.119 C 
ATOM     14  C   UNL     1      28.698   9.664   9.212  1.00  0.00     0.013 C 
ATOM     15  C   UNL     1      28.138  11.834  10.625  1.00  0.00     0.032 C 
ATOM     16  C   UNL     1      27.708  10.506  10.038  1.00  0.00    -0.056 C 
ATOM     17  C   UNL     1      28.404   8.170   9.352  1.00  0.00    -0.012 C 
ATOM     18  C   UNL     1      28.493  10.007   7.718  1.00  0.00     0.021 C 
ATOM     19  C   UNL     1      26.493  10.034  10.363  1.00  0.00     0.052 C 
ATOM     20  C   UNL     1      27.190   7.710   9.667  1.00  0.00     0.048 C 
ATOM     21  C   UNL     1      26.143   8.638  10.097  1.00  0.00     0.178 C 
ATOM     22  O   UNL     1      24.971   8.225  10.301  1.00  0.00    -0.290 OA
BRANCH   3  23
ATOM     23  O   UNL     1      33.870  10.996  12.180  1.00  0.00    -0.381 OA
ATOM     24  H   UNL     1      34.236  10.073  12.191  1.00  0.00     0.212 HD
ENDBRANCH   3  23
BRANCH  13  25
ATOM     25  O   UNL     1      31.478   8.845   7.992  1.00  0.00    -0.393 OA
ATOM     26  H   UNL     1      30.601   8.628   7.598  1.00  0.00     0.210 HD
ENDBRANCH  13  25
ENDBRANCH   1   3
BRANCH   1  27
ATOM     27  C   UNL     1      36.089   9.831  10.440  1.00  0.00     0.234 C 
BRANCH  27  28
ATOM     28  O   UNL     1      37.441   9.820  10.806  1.00  0.00    -0.388 OA
ATOM     29  H   UNL     1      37.882  10.515  10.251  1.00  0.00     0.211 HD
ENDBRANCH  27  28
ENDBRANCH   1  27
TORSDOF 5
ENDMDL
MODEL 5
REMARK VINA RESULT:    -7.853      2.041      7.223
REMARK INTER + INTRA:          -9.643
REMARK INTER:                  -9.350
REMARK INTRA:                  -0.293
REMARK UNBOUND:                -0.184
REMARK SMILES C[C@]12C=CC(=O)C=C1CC[C@@H]1[C@@H]2[C@@H](O)C[C@@]2(C)[C@H]1CC[C@]2(O)C(=O)CO
REMARK SMILES IDX 23 1 24 2 21 3 18 4 19 5 16 6 11 7 20 8 17 9 15 10 12 11
REMARK SMILES IDX 10 12 13 13 2 14 9 15 8 16 3 17 1 18 7 19 4 20 5 21 6 22
REMARK SMILES IDX 22 23 14 25 25 27 26 28
REMARK H PARENT 22 24 14 26 26 29
REMARK Flexibility Score: inf
ROOT
ATOM      1  C   UNL     1      27.799   7.850   9.301  1.00  0.00     0.190 C 
ATOM      2  O   UNL     1      27.839   7.182   8.277  1.00  0.00    -0.294 OA
ENDROOT
BRANCH   1   3
ATOM      3  C   UNL     1      29.066   8.566   9.802  1.00  0.00     0.131 C 
ATOM      4  C   UNL     1      30.552  10.433   9.774  1.00  0.00     0.002 C 
ATOM      5  C   UNL     1      31.262   9.382   8.931  1.00  0.00     0.008 C 
ATOM      6  C   UNL     1      29.049  10.118   9.591  1.00  0.00     0.009 C 
ATOM      7  C   UNL     1      30.890  11.935   9.587  1.00  0.00    -0.000 C 
ATOM      8  C   UNL     1      30.363   8.136   9.039  1.00  0.00     0.044 C 
ATOM      9  C   UNL     1      28.515  10.427   8.149  1.00  0.00     0.015 C 
ATOM     10  C   UNL     1      28.241  10.934  10.644  1.00  0.00     0.042 C 
ATOM     11  C   UNL     1      30.126  12.728  10.699  1.00  0.00     0.035 C 
ATOM     12  C   UNL     1      32.421  12.234   9.576  1.00  0.00     0.009 C 
ATOM     13  C   UNL     1      28.581  12.454  10.675  1.00  0.00     0.119 C 
ATOM     14  C   UNL     1      30.612  14.220  10.813  1.00  0.00     0.013 C 
ATOM     15  C   UNL     1      32.951  12.976  10.810  1.00  0.00     0.032 C 
ATOM     16  C   UNL     1      32.098  14.161  11.211  1.00  0.00    -0.056 C 
ATOM     17  C   UNL     1      29.793  14.992  11.849  1.00  0.00    -0.012 C 
ATOM     18  C   UNL     1      30.496  15.014   9.491  1.00  0.00     0.021 C 
ATOM     19  C   UNL     1      32.641  15.086  12.020  1.00  0.00     0.052 C 
ATOM     20  C   UNL     1      30.340  15.915  12.644  1.00  0.00     0.048 C 
ATOM     21  C   UNL     1      31.794  16.072  12.694  1.00  0.00     0.178 C 
ATOM     22  O   UNL     1      32.311  17.004  13.365  1.00  0.00    -0.290 OA
BRANCH   3  23
ATOM     23  O   UNL     1      29.242   8.275  11.172  1.00  0.00    -0.381 OA
ATOM     24  H   UNL     1      29.681   7.387  11.242  1.00  0.00     0.212 HD
ENDBRANCH   3  23
BRANCH  13  25
ATOM     25  O   UNL     1      27.881  13.154   9.676  1.00  0.00    -0.393 OA
ATOM     26  H   UNL     1      27.838  12.596   8.864  1.00  0.00     0.210 HD
ENDBRANCH  13  25
ENDBRANCH   1   3
BRANCH   1  27
ATOM     27  C   UNL     1      26.474   7.970  10.012  1.00  0.00     0.234 C 
BRANCH  27  28
ATOM     28  O   UNL     1      26.449   7.172  11.163  1.00  0.00    -0.388 OA
ATOM     29  H   UNL     1      26.824   7.730  11.893  1.00  0.00     0.211 HD
ENDBRANCH  27  28
ENDBRANCH   1  27
TORSDOF 5
ENDMDL
MODEL 6
REMARK VINA RESULT:    -7.370      3.086      7.843
REMARK INTER + INTRA:          -9.062
REMARK INTER:                  -9.241
REMARK INTRA:                   0.179
REMARK UNBOUND:                -0.184
REMARK SMILES C[C@]12C=CC(=O)C=C1CC[C@@H]1[C@@H]2[C@@H](O)C[C@@]2(C)[C@H]1CC[C@]2(O)C(=O)CO
REMARK SMILES IDX 23 1 24 2 21 3 18 4 19 5 16 6 11 7 20 8 17 9 15 10 12 11
REMARK SMILES IDX 10 12 13 13 2 14 9 15 8 16 3 17 1 18 7 19 4 20 5 21 6 22
REMARK SMILES IDX 22 23 14 25 25 27 26 28
REMARK H PARENT 22 24 14 26 26 29
REMARK Flexibility Score: inf
ROOT
ATOM      1  C   UNL     1      25.573   9.106  10.305  1.00  0.00     0.190 C 
ATOM      2  O   UNL     1      25.425  10.254  10.699  1.00  0.00    -0.294 OA
ENDROOT
BRANCH   1   3
ATOM      3  C   UNL     1      26.986   8.510  10.180  1.00  0.00     0.131 C 
ATOM      4  C   UNL     1      29.208   8.581   9.310  1.00  0.00     0.002 C 
ATOM      5  C   UNL     1      28.501   7.552   8.437  1.00  0.00     0.008 C 
ATOM      6  C   UNL     1      28.082   9.544   9.753  1.00  0.00     0.009 C 
ATOM      7  C   UNL     1      30.467   9.313   8.780  1.00  0.00    -0.000 C 
ATOM      8  C   UNL     1      27.101   7.418   9.064  1.00  0.00     0.044 C 
ATOM      9  C   UNL     1      27.517  10.426   8.585  1.00  0.00     0.015 C 
ATOM     10  C   UNL     1      28.630  10.456  10.892  1.00  0.00     0.042 C 
ATOM     11  C   UNL     1      31.043  10.165   9.960  1.00  0.00     0.035 C 
ATOM     12  C   UNL     1      31.528   8.357   8.153  1.00  0.00     0.009 C 
ATOM     13  C   UNL     1      29.982  11.155  10.558  1.00  0.00     0.119 C 
ATOM     14  C   UNL     1      32.482  10.721   9.653  1.00  0.00     0.013 C 
ATOM     15  C   UNL     1      32.816   8.183   8.969  1.00  0.00     0.032 C 
ATOM     16  C   UNL     1      33.391   9.491   9.471  1.00  0.00    -0.056 C 
ATOM     17  C   UNL     1      32.985  11.617  10.786  1.00  0.00    -0.012 C 
ATOM     18  C   UNL     1      32.558  11.572   8.363  1.00  0.00     0.021 C 
ATOM     19  C   UNL     1      34.675   9.508   9.865  1.00  0.00     0.052 C 
ATOM     20  C   UNL     1      34.265  11.632  11.166  1.00  0.00     0.048 C 
ATOM     21  C   UNL     1      35.198  10.631  10.645  1.00  0.00     0.178 C 
ATOM     22  O   UNL     1      36.424  10.698  10.921  1.00  0.00    -0.290 OA
BRANCH   3  23
ATOM     23  O   UNL     1      27.344   7.921  11.412  1.00  0.00    -0.381 OA
ATOM     24  H   UNL     1      28.036   7.232  11.233  1.00  0.00     0.212 HD
ENDBRANCH   3  23
BRANCH  13  25
ATOM     25  O   UNL     1      29.779  12.320   9.796  1.00  0.00    -0.393 OA
ATOM     26  H   UNL     1      30.610  12.534   9.309  1.00  0.00     0.210 HD
ENDBRANCH  13  25
ENDBRANCH   1   3
BRANCH   1  27
ATOM     27  C   UNL     1      24.333   8.305   9.992  1.00  0.00     0.234 C 
BRANCH  27  28
ATOM     28  O   UNL     1      24.289   7.132  10.756  1.00  0.00    -0.388 OA
ATOM     29  H   UNL     1      24.811   7.319  11.579  1.00  0.00     0.211 HD
ENDBRANCH  27  28
ENDBRANCH   1  27
TORSDOF 5
ENDMDL
MODEL 7
REMARK VINA RESULT:    -7.367      2.833      7.663
REMARK INTER + INTRA:          -9.059
REMARK INTER:                  -8.882
REMARK INTRA:                  -0.177
REMARK UNBOUND:                -0.184
REMARK SMILES C[C@]12C=CC(=O)C=C1CC[C@@H]1[C@@H]2[C@@H](O)C[C@@]2(C)[C@H]1CC[C@]2(O)C(=O)CO
REMARK SMILES IDX 23 1 24 2 21 3 18 4 19 5 16 6 11 7 20 8 17 9 15 10 12 11
REMARK SMILES IDX 10 12 13 13 2 14 9 15 8 16 3 17 1 18 7 19 4 20 5 21 6 22
REMARK SMILES IDX 22 23 14 25 25 27 26 28
REMARK H PARENT 22 24 14 26 26 29
REMARK Flexibility Score: inf
ROOT
ATOM      1  C   UNL     1      27.269   8.304   9.180  1.00  0.00     0.190 C 
ATOM      2  O   UNL     1      27.655   7.374   8.486  1.00  0.00    -0.294 OA
ENDROOT
BRANCH   1   3
ATOM      3  C   UNL     1      27.986   9.664   9.113  1.00  0.00     0.131 C 
ATOM      4  C   UNL     1      29.675  11.169   9.873  1.00  0.00     0.002 C 
ATOM      5  C   UNL     1      28.404  11.668  10.548  1.00  0.00     0.008 C 
ATOM      6  C   UNL     1      29.441   9.651   9.693  1.00  0.00     0.009 C 
ATOM      7  C   UNL     1      31.060  11.506  10.483  1.00  0.00    -0.000 C 
ATOM      8  C   UNL     1      27.291  10.773   9.973  1.00  0.00     0.044 C 
ATOM      9  C   UNL     1      29.440   8.851  11.042  1.00  0.00     0.015 C 
ATOM     10  C   UNL     1      30.540   9.090   8.742  1.00  0.00     0.042 C 
ATOM     11  C   UNL     1      32.149  10.999   9.479  1.00  0.00     0.035 C 
ATOM     12  C   UNL     1      31.231  13.012  10.850  1.00  0.00     0.009 C 
ATOM     13  C   UNL     1      31.995   9.472   9.149  1.00  0.00     0.119 C 
ATOM     14  C   UNL     1      33.584  11.540   9.827  1.00  0.00     0.013 C 
ATOM     15  C   UNL     1      32.202  13.796   9.956  1.00  0.00     0.032 C 
ATOM     16  C   UNL     1      33.509  13.074   9.709  1.00  0.00    -0.056 C 
ATOM     17  C   UNL     1      34.639  10.964   8.881  1.00  0.00    -0.012 C 
ATOM     18  C   UNL     1      34.051  11.189  11.259  1.00  0.00     0.021 C 
ATOM     19  C   UNL     1      34.554  13.792   9.266  1.00  0.00     0.052 C 
ATOM     20  C   UNL     1      35.679  11.683   8.452  1.00  0.00     0.048 C 
ATOM     21  C   UNL     1      35.733  13.123   8.711  1.00  0.00     0.178 C 
ATOM     22  O   UNL     1      36.754  13.789   8.398  1.00  0.00    -0.290 OA
BRANCH   3  23
ATOM     23  O   UNL     1      28.013  10.099   7.770  1.00  0.00    -0.381 OA
ATOM     24  H   UNL     1      28.858  10.603   7.629  1.00  0.00     0.212 HD
ENDBRANCH   3  23
BRANCH  13  25
ATOM     25  O   UNL     1      32.490   8.610  10.143  1.00  0.00    -0.393 OA
ATOM     26  H   UNL     1      32.499   9.086  11.006  1.00  0.00     0.210 HD
ENDBRANCH  13  25
ENDBRANCH   1   3
BRANCH   1  27
ATOM     27  C   UNL     1      26.062   8.074  10.055  1.00  0.00     0.234 C 
BRANCH  27  28
ATOM     28  O   UNL     1      26.345   7.146  11.065  1.00  0.00    -0.388 OA
ATOM     29  H   UNL     1      27.220   6.741  10.830  1.00  0.00     0.211 HD
ENDBRANCH  27  28
ENDBRANCH   1  27
TORSDOF 5
ENDMDL
MODEL 8
REMARK VINA RESULT:    -7.301     12.392     15.134
REMARK INTER + INTRA:          -8.979
REMARK INTER:                  -8.680
REMARK INTRA:                  -0.300
REMARK UNBOUND:                -0.184
REMARK SMILES C[C@]12C=CC(=O)C=C1CC[C@@H]1[C@@H]2[C@@H](O)C[C@@]2(C)[C@H]1CC[C@]2(O)C(=O)CO
REMARK SMILES IDX 23 1 24 2 21 3 18 4 19 5 16 6 11 7 20 8 17 9 15 10 12 11
REMARK SMILES IDX 10 12 13 13 2 14 9 15 8 16 3 17 1 18 7 19 4 20 5 21 6 22
REMARK SMILES IDX 22 23 14 25 25 27 26 28
REMARK H PARENT 22 24 14 26 26 29
REMARK Flexibility Score: inf
ROOT
ATOM      1  C   UNL     1      35.706  -0.060   1.201  1.00  0.00     0.190 C 
ATOM      2  O   UNL     1      36.453  -0.708   0.482  1.00  0.00    -0.294 OA
ENDROOT
BRANCH   1   3
ATOM      3  C   UNL     1      36.218   0.494   2.543  1.00  0.00     0.131 C 
ATOM      4  C   UNL     1      37.204   2.242   3.835  1.00  0.00     0.002 C 
ATOM      5  C   UNL     1      38.350   1.269   3.593  1.00  0.00     0.008 C 
ATOM      6  C   UNL     1      36.281   2.058   2.607  1.00  0.00     0.009 C 
ATOM      7  C   UNL     1      37.505   3.728   4.157  1.00  0.00    -0.000 C 
ATOM      8  C   UNL     1      37.696   0.084   2.858  1.00  0.00     0.044 C 
ATOM      9  C   UNL     1      36.902   2.595   1.270  1.00  0.00     0.015 C 
ATOM     10  C   UNL     1      34.928   2.777   2.893  1.00  0.00     0.042 C 
ATOM     11  C   UNL     1      36.143   4.414   4.512  1.00  0.00     0.035 C 
ATOM     12  C   UNL     1      38.584   3.921   5.266  1.00  0.00     0.009 C 
ATOM     13  C   UNL     1      35.076   4.252   3.372  1.00  0.00     0.119 C 
ATOM     14  C   UNL     1      36.336   5.840   5.147  1.00  0.00     0.013 C 
ATOM     15  C   UNL     1      38.057   4.452   6.606  1.00  0.00     0.032 C 
ATOM     16  C   UNL     1      37.114   5.627   6.459  1.00  0.00    -0.056 C 
ATOM     17  C   UNL     1      34.990   6.519   5.407  1.00  0.00    -0.012 C 
ATOM     18  C   UNL     1      37.146   6.812   4.258  1.00  0.00     0.021 C 
ATOM     19  C   UNL     1      36.886   6.395   7.538  1.00  0.00     0.052 C 
ATOM     20  C   UNL     1      34.776   7.287   6.478  1.00  0.00     0.048 C 
ATOM     21  C   UNL     1      35.765   7.336   7.556  1.00  0.00     0.178 C 
ATOM     22  O   UNL     1      35.616   8.130   8.521  1.00  0.00    -0.290 OA
BRANCH   3  23
ATOM     23  O   UNL     1      35.394   0.009   3.581  1.00  0.00    -0.381 OA
ATOM     24  H   UNL     1      35.904  -0.683   4.078  1.00  0.00     0.212 HD
ENDBRANCH   3  23
BRANCH  13  25
ATOM     25  O   UNL     1      35.249   5.127   2.285  1.00  0.00    -0.393 OA
ATOM     26  H   UNL     1      35.111   6.053   2.593  1.00  0.00     0.210 HD
ENDBRANCH  13  25
ENDBRANCH   1   3
BRANCH   1  27
ATOM     27  C   UNL     1      34.304   0.200   0.707  1.00  0.00     0.234 C 
BRANCH  27  28
ATOM     28  O   UNL     1      33.356  -0.250   1.635  1.00  0.00    -0.388 OA
ATOM     29  H   UNL     1      33.769  -1.025   2.098  1.00  0.00     0.211 HD
ENDBRANCH  27  28
ENDBRANCH   1  27
TORSDOF 5
ENDMDL
MODEL 9
REMARK VINA RESULT:    -7.175      3.219      4.978
REMARK INTER + INTRA:          -8.828
REMARK INTER:                  -8.516
REMARK INTRA:                  -0.312
REMARK UNBOUND:                -0.184
REMARK SMILES C[C@]12C=CC(=O)C=C1CC[C@@H]1[C@@H]2[C@@H](O)C[C@@]2(C)[C@H]1CC[C@]2(O)C(=O)CO
REMARK SMILES IDX 23 1 24 2 21 3 18 4 19 5 16 6 11 7 20 8 17 9 15 10 12 11
REMARK SMILES IDX 10 12 13 13 2 14 9 15 8 16 3 17 1 18 7 19 4 20 5 21 6 22
REMARK SMILES IDX 22 23 14 25 25 27 26 28
REMARK H PARENT 22 24 14 26 26 29
REMARK Flexibility Score: inf
ROOT
ATOM      1  C   UNL     1      34.421  12.923   7.112  1.00  0.00     0.190 C 
ATOM      2  O   UNL     1      35.610  12.795   7.369  1.00  0.00    -0.294 OA
ENDROOT
BRANCH   1   3
ATOM      3  C   UNL     1      33.491  11.697   7.141  1.00  0.00     0.131 C 
ATOM      4  C   UNL     1      32.059  10.197   8.323  1.00  0.00     0.002 C 
ATOM      5  C   UNL     1      33.365   9.427   8.182  1.00  0.00     0.008 C 
ATOM      6  C   UNL     1      32.490  11.681   8.347  1.00  0.00     0.009 C 
ATOM      7  C   UNL     1      31.062   9.831   9.452  1.00  0.00    -0.000 C 
ATOM      8  C   UNL     1      34.257  10.343   7.322  1.00  0.00     0.044 C 
ATOM      9  C   UNL     1      33.263  12.089   9.650  1.00  0.00     0.015 C 
ATOM     10  C   UNL     1      31.221  12.569   8.181  1.00  0.00     0.042 C 
ATOM     11  C   UNL     1      29.766  10.679   9.224  1.00  0.00     0.035 C 
ATOM     12  C   UNL     1      30.771   8.302   9.557  1.00  0.00     0.009 C 
ATOM     13  C   UNL     1      30.062  12.219   9.163  1.00  0.00     0.119 C 
ATOM     14  C   UNL     1      28.565  10.192  10.116  1.00  0.00     0.013 C 
ATOM     15  C   UNL     1      29.365   7.872   9.118  1.00  0.00     0.032 C 
ATOM     16  C   UNL     1      28.265   8.745   9.683  1.00  0.00    -0.056 C 
ATOM     17  C   UNL     1      27.339  11.089   9.934  1.00  0.00    -0.012 C 
ATOM     18  C   UNL     1      28.877  10.187  11.631  1.00  0.00     0.021 C 
ATOM     19  C   UNL     1      27.010   8.265   9.677  1.00  0.00     0.052 C 
ATOM     20  C   UNL     1      26.095  10.603   9.938  1.00  0.00     0.048 C 
ATOM     21  C   UNL     1      25.872   9.157   9.907  1.00  0.00     0.178 C 
ATOM     22  O   UNL     1      24.707   8.690  10.009  1.00  0.00    -0.290 OA
BRANCH   3  23
ATOM     23  O   UNL     1      32.773  11.640   5.928  1.00  0.00    -0.381 OA
ATOM     24  H   UNL     1      33.269  12.174   5.253  1.00  0.00     0.212 HD
ENDBRANCH   3  23
BRANCH  13  25
ATOM     25  O   UNL     1      30.256  12.826  10.417  1.00  0.00    -0.393 OA
ATOM     26  H   UNL     1      30.210  12.134  11.118  1.00  0.00     0.210 HD
ENDBRANCH  13  25
ENDBRANCH   1   3
BRANCH   1  27
ATOM     27  C   UNL     1      33.912  14.310   6.810  1.00  0.00     0.234 C 
BRANCH  27  28
ATOM     28  O   UNL     1      33.416  14.388   5.503  1.00  0.00    -0.388 OA
ATOM     29  H   UNL     1      33.153  15.335   5.363  1.00  0.00     0.211 HD
ENDBRANCH  27  28
ENDBRANCH   1  27
TORSDOF 5
ENDMDL
MODEL 10
REMARK VINA RESULT:    -7.166      2.954      7.977
REMARK INTER + INTRA:          -8.816
REMARK INTER:                  -8.816
REMARK INTRA:                   0.000
REMARK UNBOUND:                -0.184
REMARK SMILES C[C@]12C=CC(=O)C=C1CC[C@@H]1[C@@H]2[C@@H](O)C[C@@]2(C)[C@H]1CC[C@]2(O)C(=O)CO
REMARK SMILES IDX 23 1 24 2 21 3 18 4 19 5 16 6 11 7 20 8 17 9 15 10 12 11
REMARK SMILES IDX 10 12 13 13 2 14 9 15 8 16 3 17 1 18 7 19 4 20 5 21 6 22
REMARK SMILES IDX 22 23 14 25 25 27 26 28
REMARK H PARENT 22 24 14 26 26 29
REMARK Flexibility Score: inf
ROOT
ATOM      1  C   UNL     1      27.499   9.134  10.208  1.00  0.00     0.190 C 
ATOM      2  O   UNL     1      26.917  10.187  10.424  1.00  0.00    -0.294 OA
ENDROOT
BRANCH   1   3
ATOM      3  C   UNL     1      29.033   9.066  10.313  1.00  0.00     0.131 C 
ATOM      4  C   UNL     1      31.204   9.607   9.481  1.00  0.00     0.002 C 
ATOM      5  C   UNL     1      30.990   8.163   9.046  1.00  0.00     0.008 C 
ATOM      6  C   UNL     1      29.779  10.204   9.537  1.00  0.00     0.009 C 
ATOM      7  C   UNL     1      32.215  10.503   8.721  1.00  0.00    -0.000 C 
ATOM      8  C   UNL     1      29.641   7.771   9.676  1.00  0.00     0.044 C 
ATOM      9  C   UNL     1      29.114  10.374   8.126  1.00  0.00     0.015 C 
ATOM     10  C   UNL     1      29.848  11.582  10.262  1.00  0.00     0.042 C 
ATOM     11  C   UNL     1      32.324  11.853   9.506  1.00  0.00     0.035 C 
ATOM     12  C   UNL     1      33.600   9.826   8.490  1.00  0.00     0.009 C 
ATOM     13  C   UNL     1      30.930  12.550   9.697  1.00  0.00     0.119 C 
ATOM     14  C   UNL     1      33.531  12.735   9.018  1.00  0.00     0.013 C 
ATOM     15  C   UNL     1      34.758  10.406   9.314  1.00  0.00     0.032 C 
ATOM     16  C   UNL     1      34.806  11.919   9.301  1.00  0.00    -0.056 C 
ATOM     17  C   UNL     1      33.564  14.082   9.743  1.00  0.00    -0.012 C 
ATOM     18  C   UNL     1      33.493  13.060   7.506  1.00  0.00     0.021 C 
ATOM     19  C   UNL     1      35.952  12.519   9.664  1.00  0.00     0.052 C 
ATOM     20  C   UNL     1      34.709  14.674  10.093  1.00  0.00     0.048 C 
ATOM     21  C   UNL     1      35.976  13.948   9.977  1.00  0.00     0.178 C 
ATOM     22  O   UNL     1      37.066  14.532  10.211  1.00  0.00    -0.290 OA
BRANCH   3  23
ATOM     23  O   UNL     1      29.400   9.102  11.676  1.00  0.00    -0.381 OA
ATOM     24  H   UNL     1      29.385  10.050  11.972  1.00  0.00     0.212 HD
ENDBRANCH   3  23
BRANCH  13  25
ATOM     25  O   UNL     1      30.461  13.232   8.560  1.00  0.00    -0.393 OA
ATOM     26  H   UNL     1      30.607  12.669   7.764  1.00  0.00     0.210 HD
ENDBRANCH  13  25
ENDBRANCH   1   3
BRANCH   1  27
ATOM     27  C   UNL     1      26.663   7.921   9.882  1.00  0.00     0.234 C 
BRANCH  27  28
ATOM     28  O   UNL     1      26.438   7.145  11.026  1.00  0.00    -0.388 OA
ATOM     29  H   UNL     1      27.196   6.506  11.079  1.00  0.00     0.211 HD
ENDBRANCH  27  28
ENDBRANCH   1  27
TORSDOF 5
ENDMDL
MODEL 11
REMARK VINA RESULT:    -6.973      1.952      6.831
REMARK INTER + INTRA:          -8.584
REMARK INTER:                  -8.454
REMARK INTRA:                  -0.130
REMARK UNBOUND:                -0.184
REMARK SMILES C[C@]12C=CC(=O)C=C1CC[C@@H]1[C@@H]2[C@@H](O)C[C@@]2(C)[C@H]1CC[C@]2(O)C(=O)CO
REMARK SMILES IDX 23 1 24 2 21 3 18 4 19 5 16 6 11 7 20 8 17 9 15 10 12 11
REMARK SMILES IDX 10 12 13 13 2 14 9 15 8 16 3 17 1 18 7 19 4 20 5 21 6 22
REMARK SMILES IDX 22 23 14 25 25 27 26 28
REMARK H PARENT 22 24 14 26 26 29
REMARK Flexibility Score: inf
ROOT
ATOM      1  C   UNL     1      28.005   9.037   9.090  1.00  0.00     0.190 C 
ATOM      2  O   UNL     1      29.070   8.737   8.569  1.00  0.00    -0.294 OA
ENDROOT
BRANCH   1   3
ATOM      3  C   UNL     1      27.512  10.494   9.053  1.00  0.00     0.131 C 
ATOM      4  C   UNL     1      27.343  12.662  10.038  1.00  0.00     0.002 C 
ATOM      5  C   UNL     1      25.991  12.021  10.318  1.00  0.00     0.008 C 
ATOM      6  C   UNL     1      28.325  11.468   9.972  1.00  0.00     0.009 C 
ATOM      7  C   UNL     1      27.851  13.823  10.930  1.00  0.00    -0.000 C 
ATOM      8  C   UNL     1      26.051  10.667   9.588  1.00  0.00     0.044 C 
ATOM      9  C   UNL     1      28.562  10.775  11.359  1.00  0.00     0.015 C 
ATOM     10  C   UNL     1      29.679  11.973   9.390  1.00  0.00     0.042 C 
ATOM     11  C   UNL     1      29.172  14.363  10.288  1.00  0.00     0.035 C 
ATOM     12  C   UNL     1      26.791  14.944  11.160  1.00  0.00     0.009 C 
ATOM     13  C   UNL     1      30.250  13.237  10.100  1.00  0.00     0.119 C 
ATOM     14  C   UNL     1      29.632  15.729  10.918  1.00  0.00     0.013 C 
ATOM     15  C   UNL     1      27.082  16.274  10.453  1.00  0.00     0.032 C 
ATOM     16  C   UNL     1      28.512  16.742  10.617  1.00  0.00    -0.056 C 
ATOM     17  C   UNL     1      30.967  16.190  10.331  1.00  0.00    -0.012 C 
ATOM     18  C   UNL     1      29.832  15.671  12.451  1.00  0.00     0.021 C 
ATOM     19  C   UNL     1      28.788  18.034  10.371  1.00  0.00     0.052 C 
ATOM     20  C   UNL     1      31.235  17.477  10.096  1.00  0.00     0.048 C 
ATOM     21  C   UNL     1      30.172  18.479  10.201  1.00  0.00     0.178 C 
ATOM     22  O   UNL     1      30.437  19.703  10.079  1.00  0.00    -0.290 OA
BRANCH   3  23
ATOM     23  O   UNL     1      27.552  10.956   7.720  1.00  0.00    -0.381 OA
ATOM     24  H   UNL     1      27.394  10.178   7.122  1.00  0.00     0.212 HD
ENDBRANCH   3  23
BRANCH  13  25
ATOM     25  O   UNL     1      30.944  12.894  11.274  1.00  0.00    -0.393 OA
ATOM     26  H   UNL     1      30.342  13.004  12.046  1.00  0.00     0.210 HD
ENDBRANCH  13  25
ENDBRANCH   1   3
BRANCH   1  27
ATOM     27  C   UNL     1      27.196   7.931   9.721  1.00  0.00     0.234 C 
BRANCH  27  28
ATOM     28  O   UNL     1      27.151   6.806   8.888  1.00  0.00    -0.388 OA
ATOM     29  H   UNL     1      27.777   6.991   8.140  1.00  0.00     0.211 HD
ENDBRANCH  27  28
ENDBRANCH   1  27
TORSDOF 5
ENDMDL
MODEL 12
REMARK VINA RESULT:    -6.851      3.565      5.384
REMARK INTER + INTRA:          -8.437
REMARK INTER:                  -8.137
REMARK INTRA:                  -0.300
REMARK UNBOUND:                -0.184
REMARK SMILES C[C@]12C=CC(=O)C=C1CC[C@@H]1[C@@H]2[C@@H](O)C[C@@]2(C)[C@H]1CC[C@]2(O)C(=O)CO
REMARK SMILES IDX 23 1 24 2 21 3 18 4 19 5 16 6 11 7 20 8 17 9 15 10 12 11
REMARK SMILES IDX 10 12 13 13 2 14 9 15 8 16 3 17 1 18 7 19 4 20 5 21 6 22
REMARK SMILES IDX 22 23 14 25 25 27 26 28
REMARK H PARENT 22 24 14 26 26 29
REMARK Flexibility Score: inf
ROOT
ATOM      1  C   UNL     1      35.482  10.964   8.044  1.00  0.00     0.190 C 
ATOM      2  O   UNL     1      36.494  10.376   8.397  1.00  0.00    -0.294 OA
ENDROOT
BRANCH   1   3
ATOM      3  C   UNL     1      34.168  10.187   7.851  1.00  0.00     0.131 C 
ATOM      4  C   UNL     1      32.168   9.226   8.730  1.00  0.00     0.002 C 
ATOM      5  C   UNL     1      33.105   8.038   8.559  1.00  0.00     0.008 C 
ATOM      6  C   UNL     1      33.112  10.424   8.984  1.00  0.00     0.009 C 
ATOM      7  C   UNL     1      30.994   9.147   9.740  1.00  0.00    -0.000 C 
ATOM      8  C   UNL     1      34.356   8.633   7.886  1.00  0.00     0.044 C 
ATOM      9  C   UNL     1      33.840  10.366  10.372  1.00  0.00     0.015 C 
ATOM     10  C   UNL     1      32.284  11.739   8.870  1.00  0.00     0.042 C 
ATOM     11  C   UNL     1      30.135  10.442   9.558  1.00  0.00     0.035 C 
ATOM     12  C   UNL     1      30.151   7.841   9.616  1.00  0.00     0.009 C 
ATOM     13  C   UNL     1      30.983  11.752   9.727  1.00  0.00     0.119 C 
ATOM     14  C   UNL     1      28.753  10.355  10.305  1.00  0.00     0.013 C 
ATOM     15  C   UNL     1      28.739   8.026   9.042  1.00  0.00     0.032 C 
ATOM     16  C   UNL     1      27.987   9.185   9.660  1.00  0.00    -0.056 C 
ATOM     17  C   UNL     1      27.971  11.664  10.180  1.00  0.00    -0.012 C 
ATOM     18  C   UNL     1      28.881  10.071  11.820  1.00  0.00     0.021 C 
ATOM     19  C   UNL     1      26.651   9.221   9.517  1.00  0.00     0.052 C 
ATOM     20  C   UNL     1      26.642  11.689  10.046  1.00  0.00     0.048 C 
ATOM     21  C   UNL     1      25.905  10.447   9.803  1.00  0.00     0.178 C 
ATOM     22  O   UNL     1      24.647  10.450   9.774  1.00  0.00    -0.290 OA
BRANCH   3  23
ATOM     23  O   UNL     1      33.610  10.537   6.602  1.00  0.00    -0.381 OA
ATOM     24  H   UNL     1      34.356  10.658   5.957  1.00  0.00     0.212 HD
ENDBRANCH   3  23
BRANCH  13  25
ATOM     25  O   UNL     1      31.255  12.102  11.062  1.00  0.00    -0.393 OA
ATOM     26  H   UNL     1      30.730  12.903  11.297  1.00  0.00     0.210 HD
ENDBRANCH  13  25
ENDBRANCH   1   3
BRANCH   1  27
ATOM     27  C   UNL     1      35.569  12.458   7.848  1.00  0.00     0.234 C 
BRANCH  27  28
ATOM     28  O   UNL     1      35.539  12.787   6.487  1.00  0.00    -0.388 OA
ATOM     29  H   UNL     1      34.583  12.770   6.220  1.00  0.00     0.211 HD
ENDBRANCH  27  28
ENDBRANCH   1  27
TORSDOF 5
ENDMDL
MODEL 13
REMARK VINA RESULT:    -6.642      3.493      7.866
REMARK INTER + INTRA:          -8.186
REMARK INTER:                  -8.147
REMARK INTRA:                  -0.039
REMARK UNBOUND:                -0.184
REMARK SMILES C[C@]12C=CC(=O)C=C1CC[C@@H]1[C@@H]2[C@@H](O)C[C@@]2(C)[C@H]1CC[C@]2(O)C(=O)CO
REMARK SMILES IDX 23 1 24 2 21 3 18 4 19 5 16 6 11 7 20 8 17 9 15 10 12 11
REMARK SMILES IDX 10 12 13 13 2 14 9 15 8 16 3 17 1 18 7 19 4 20 5 21 6 22
REMARK SMILES IDX 22 23 14 25 25 27 26 28
REMARK H PARENT 22 24 14 26 26 29
REMARK Flexibility Score: inf
ROOT
ATOM      1  C   UNL     1      26.862  10.337  10.349  1.00  0.00     0.190 C 
ATOM      2  O   UNL     1      26.813  11.508  10.699  1.00  0.00    -0.294 OA
ENDROOT
BRANCH   1   3
ATOM      3  C   UNL     1      28.196   9.571  10.410  1.00  0.00     0.131 C 
ATOM      4  C   UNL     1      30.350   9.063   9.518  1.00  0.00     0.002 C 
ATOM      5  C   UNL     1      29.485   7.885   9.089  1.00  0.00     0.008 C 
ATOM      6  C   UNL     1      29.361  10.248   9.613  1.00  0.00     0.009 C 
ATOM      7  C   UNL     1      31.640   9.404   8.729  1.00  0.00    -0.000 C 
ATOM      8  C   UNL     1      28.123   8.149   9.757  1.00  0.00     0.044 C 
ATOM      9  C   UNL     1      28.814  10.722   8.222  1.00  0.00     0.015 C 
ATOM     10  C   UNL     1      30.074  11.430  10.336  1.00  0.00     0.042 C 
ATOM     11  C   UNL     1      32.378  10.542   9.510  1.00  0.00     0.035 C 
ATOM     12  C   UNL     1      32.553   8.169   8.459  1.00  0.00     0.009 C 
ATOM     13  C   UNL     1      31.466  11.799   9.740  1.00  0.00     0.119 C 
ATOM     14  C   UNL     1      33.843  10.777   8.988  1.00  0.00     0.013 C 
ATOM     15  C   UNL     1      33.867   8.141   9.250  1.00  0.00     0.032 C 
ATOM     16  C   UNL     1      34.606   9.463   9.236  1.00  0.00    -0.056 C 
ATOM     17  C   UNL     1      34.510  11.948   9.712  1.00  0.00    -0.012 C 
ATOM     18  C   UNL     1      33.920  11.103   7.478  1.00  0.00     0.021 C 
ATOM     19  C   UNL     1      35.908   9.463   9.566  1.00  0.00     0.052 C 
ATOM     20  C   UNL     1      35.807  11.943  10.029  1.00  0.00     0.048 C 
ATOM     21  C   UNL     1      36.595  10.718   9.878  1.00  0.00     0.178 C 
ATOM     22  O   UNL     1      37.837  10.732  10.081  1.00  0.00    -0.290 OA
BRANCH   3  23
ATOM     23  O   UNL     1      28.571   9.417  11.762  1.00  0.00    -0.381 OA
ATOM     24  H   UNL     1      28.075   8.639  12.131  1.00  0.00     0.212 HD
ENDBRANCH   3  23
BRANCH  13  25
ATOM     25  O   UNL     1      31.334  12.636   8.617  1.00  0.00    -0.393 OA
ATOM     26  H   UNL     1      31.852  12.254   7.870  1.00  0.00     0.210 HD
ENDBRANCH  13  25
ENDBRANCH   1   3
BRANCH   1  27
ATOM     27  C   UNL     1      25.579   9.682   9.902  1.00  0.00     0.234 C 
BRANCH  27  28
ATOM     28  O   UNL     1      24.484  10.192  10.610  1.00  0.00    -0.388 OA
ATOM     29  H   UNL     1      24.393   9.629  11.422  1.00  0.00     0.211 HD
ENDBRANCH  27  28
ENDBRANCH   1  27
TORSDOF 5
ENDMDL
MODEL 14
REMARK VINA RESULT:    -6.609     12.057     13.825
REMARK INTER + INTRA:          -8.146
REMARK INTER:                  -8.000
REMARK INTRA:                  -0.145
REMARK UNBOUND:                -0.184
REMARK SMILES C[C@]12C=CC(=O)C=C1CC[C@@H]1[C@@H]2[C@@H](O)C[C@@]2(C)[C@H]1CC[C@]2(O)C(=O)CO
REMARK SMILES IDX 23 1 24 2 21 3 18 4 19 5 16 6 11 7 20 8 17 9 15 10 12 11
REMARK SMILES IDX 10 12 13 13 2 14 9 15 8 16 3 17 1 18 7 19 4 20 5 21 6 22
REMARK SMILES IDX 22 23 14 25 25 27 26 28
REMARK H PARENT 22 24 14 26 26 29
REMARK Flexibility Score: inf
ROOT
ATOM      1  C   UNL     1      35.326   6.992   7.193  1.00  0.00     0.190 C 
ATOM      2  O   UNL     1      34.426   6.488   7.850  1.00  0.00    -0.294 OA
ENDROOT
BRANCH   1   3
ATOM      3  C   UNL     1      35.490   6.629   5.706  1.00  0.00     0.131 C 
ATOM      4  C   UNL     1      36.458   5.292   3.982  1.00  0.00     0.002 C 
ATOM      5  C   UNL     1      37.260   6.586   3.941  1.00  0.00     0.008 C 
ATOM      6  C   UNL     1      36.004   5.171   5.455  1.00  0.00     0.009 C 
ATOM      7  C   UNL     1      37.070   3.983   3.420  1.00  0.00    -0.000 C 
ATOM      8  C   UNL     1      36.568   7.497   4.972  1.00  0.00     0.044 C 
ATOM      9  C   UNL     1      37.179   4.871   6.451  1.00  0.00     0.015 C 
ATOM     10  C   UNL     1      34.926   4.050   5.550  1.00  0.00     0.042 C 
ATOM     11  C   UNL     1      35.950   2.890   3.457  1.00  0.00     0.035 C 
ATOM     12  C   UNL     1      37.707   4.148   2.006  1.00  0.00     0.009 C 
ATOM     13  C   UNL     1      35.345   2.701   4.893  1.00  0.00     0.119 C 
ATOM     14  C   UNL     1      36.341   1.602   2.643  1.00  0.00     0.013 C 
ATOM     15  C   UNL     1      36.942   3.469   0.862  1.00  0.00     0.032 C 
ATOM     16  C   UNL     1      36.516   2.052   1.181  1.00  0.00    -0.056 C 
ATOM     17  C   UNL     1      35.266   0.521   2.764  1.00  0.00    -0.012 C 
ATOM     18  C   UNL     1      37.664   0.950   3.109  1.00  0.00     0.021 C 
ATOM     19  C   UNL     1      36.179   1.247   0.159  1.00  0.00     0.052 C 
ATOM     20  C   UNL     1      34.943  -0.279   1.745  1.00  0.00     0.048 C 
ATOM     21  C   UNL     1      35.466  -0.007   0.405  1.00  0.00     0.178 C 
ATOM     22  O   UNL     1      35.246  -0.811  -0.539  1.00  0.00    -0.290 OA
BRANCH   3  23
ATOM     23  O   UNL     1      34.253   6.815   5.052  1.00  0.00    -0.381 OA
ATOM     24  H   UNL     1      34.261   7.716   4.634  1.00  0.00     0.212 HD
ENDBRANCH   3  23
BRANCH  13  25
ATOM     25  O   UNL     1      36.141   1.934   5.763  1.00  0.00    -0.393 OA
ATOM     26  H   UNL     1      35.894   2.147   6.694  1.00  0.00     0.210 HD
ENDBRANCH  13  25
ENDBRANCH   1   3
BRANCH   1  27
ATOM     27  C   UNL     1      36.223   7.992   7.879  1.00  0.00     0.234 C 
BRANCH  27  28
ATOM     28  O   UNL     1      35.498   9.121   8.282  1.00  0.00    -0.388 OA
ATOM     29  H   UNL     1      35.770   9.855   7.672  1.00  0.00     0.211 HD
ENDBRANCH  27  28
ENDBRANCH   1  27
TORSDOF 5
ENDMDL
MODEL 15
REMARK VINA RESULT:    -6.493      9.430     11.961
REMARK INTER + INTRA:          -8.005
REMARK INTER:                  -8.001
REMARK INTRA:                  -0.004
REMARK UNBOUND:                -0.184
REMARK SMILES C[C@]12C=CC(=O)C=C1CC[C@@H]1[C@@H]2[C@@H](O)C[C@@]2(C)[C@H]1CC[C@]2(O)C(=O)CO
REMARK SMILES IDX 23 1 24 2 21 3 18 4 19 5 16 6 11 7 20 8 17 9 15 10 12 11
REMARK SMILES IDX 10 12 13 13 2 14 9 15 8 16 3 17 1 18 7 19 4 20 5 21 6 22
REMARK SMILES IDX 22 23 14 25 25 27 26 28
REMARK H PARENT 22 24 14 26 26 29
REMARK Flexibility Score: inf
ROOT
ATOM      1  C   UNL     1      36.308   4.164   1.791  1.00  0.00     0.190 C 
ATOM      2  O   UNL     1      36.694   5.197   1.264  1.00  0.00    -0.294 OA
ENDROOT
BRANCH   1   3
ATOM      3  C   UNL     1      35.345   4.224   2.991  1.00  0.00     0.131 C 
ATOM      4  C   UNL     1      34.903   4.710   5.285  1.00  0.00     0.002 C 
ATOM      5  C   UNL     1      35.052   3.195   5.250  1.00  0.00     0.008 C 
ATOM      6  C   UNL     1      35.794   5.208   4.123  1.00  0.00     0.009 C 
ATOM      7  C   UNL     1      35.137   5.481   6.610  1.00  0.00    -0.000 C 
ATOM      8  C   UNL     1      35.224   2.863   3.756  1.00  0.00     0.044 C 
ATOM      9  C   UNL     1      37.329   5.015   4.382  1.00  0.00     0.015 C 
ATOM     10  C   UNL     1      35.482   6.714   3.871  1.00  0.00     0.042 C 
ATOM     11  C   UNL     1      34.748   6.975   6.355  1.00  0.00     0.035 C 
ATOM     12  C   UNL     1      34.391   4.863   7.832  1.00  0.00     0.009 C 
ATOM     13  C   UNL     1      35.536   7.602   5.151  1.00  0.00     0.119 C 
ATOM     14  C   UNL     1      34.652   7.806   7.688  1.00  0.00     0.013 C 
ATOM     15  C   UNL     1      33.211   5.688   8.363  1.00  0.00     0.032 C 
ATOM     16  C   UNL     1      33.528   7.160   8.519  1.00  0.00    -0.056 C 
ATOM     17  C   UNL     1      34.353   9.279   7.404  1.00  0.00    -0.012 C 
ATOM     18  C   UNL     1      35.949   7.783   8.530  1.00  0.00     0.021 C 
ATOM     19  C   UNL     1      32.726   7.901   9.302  1.00  0.00     0.052 C 
ATOM     20  C   UNL     1      33.560  10.009   8.192  1.00  0.00     0.048 C 
ATOM     21  C   UNL     1      32.778   9.363   9.248  1.00  0.00     0.178 C 
ATOM     22  O   UNL     1      32.106  10.055  10.056  1.00  0.00    -0.290 OA
BRANCH   3  23
ATOM     23  O   UNL     1      34.062   4.586   2.528  1.00  0.00    -0.381 OA
ATOM     24  H   UNL     1      33.965   5.569   2.633  1.00  0.00     0.212 HD
ENDBRANCH   3  23
BRANCH  13  25
ATOM     25  O   UNL     1      36.856   7.982   5.453  1.00  0.00    -0.393 OA
ATOM     26  H   UNL     1      37.409   7.894   4.641  1.00  0.00     0.210 HD
ENDBRANCH  13  25
ENDBRANCH   1   3
BRANCH   1  27
ATOM     27  C   UNL     1      36.775   2.856   1.202  1.00  0.00     0.234 C 
BRANCH  27  28
ATOM     28  O   UNL     1      35.810   2.323   0.339  1.00  0.00    -0.388 OA
ATOM     29  H   UNL     1      35.907   2.812  -0.520  1.00  0.00     0.211 HD
ENDBRANCH  27  28
ENDBRANCH   1  27
TORSDOF 5
ENDMDL
