MODEL 1
REMARK VINA RESULT:    -6.856      0.000      0.000
REMARK INTER + INTRA:          -7.815
REMARK INTER:                  -8.459
REMARK INTRA:                   0.644
REMARK UNBOUND:                 0.644
REMARK SMILES NC(=O)N1c2ccccc2C=Cc2ccccc21
REMARK SMILES IDX 1 1 2 2 3 3 4 4 5 7 6 8 10 9 7 10 9 11 8 12 11 13 18 15
REMARK SMILES IDX 13 16 17 17 14 18 16 19 15 20 12 21
REMARK H PARENT 1 5 1 6
REMARK Flexibility Score: 30.00
ROOT
ATOM      1  N   UNL     1      16.039  78.881  -0.721  1.00  0.00    -0.351 N 
ATOM      2  C   UNL     1      14.653  79.116  -0.459  1.00  0.00     0.323 C 
ATOM      3  O   UNL     1      14.230  79.006   0.723  1.00  0.00    -0.248 OA
ATOM      4  N   UNL     1      13.752  79.516  -1.516  1.00  0.00    -0.262 N 
ATOM      5  H   UNL     1      16.668  78.566   0.051  1.00  0.00     0.161 HD
ATOM      6  H   UNL     1      16.461  79.069  -1.655  1.00  0.00     0.161 HD
ENDROOT
BRANCH   4   7
ATOM      7  C   UNL     1      12.417  79.943  -1.221  1.00  0.00     0.058 A 
ATOM      8  C   UNL     1      12.208  81.137  -0.511  1.00  0.00     0.027 A 
ATOM      9  C   UNL     1      11.310  79.169  -1.628  1.00  0.00    -0.001 A 
ATOM     10  C   UNL     1      10.912  81.576  -0.231  1.00  0.00     0.002 A 
ATOM     11  C   UNL     1      10.012  79.636  -1.359  1.00  0.00     0.010 A 
ATOM     12  C   UNL     1       9.816  80.829  -0.659  1.00  0.00     0.001 A 
BRANCH   9  13
ATOM     13  C   UNL     1      11.455  77.919  -2.410  1.00  0.00     0.011 CG0
ATOM     14  G   UNL     1      12.405  77.664  -3.322  1.00  0.00     0.000 G0
ENDBRANCH   9  13
ENDBRANCH   4   7
BRANCH   4  15
ATOM     15  C   UNL     1      14.135  79.440  -2.893  1.00  0.00     0.058 A 
ATOM     16  C   UNL     1      13.508  78.525  -3.764  1.00  0.00    -0.001 A 
ATOM     17  C   UNL     1      15.152  80.280  -3.377  1.00  0.00     0.027 A 
ATOM     18  C   UNL     1      13.882  78.506  -5.119  1.00  0.00     0.010 A 
ATOM     19  C   UNL     1      15.527  80.232  -4.721  1.00  0.00     0.002 A 
ATOM     20  C   UNL     1      14.889  79.350  -5.592  1.00  0.00     0.001 A 
BRANCH  16  21
ATOM     21  C   UNL     1      12.403  77.640  -3.329  1.00  0.00     0.011 CG0
ATOM     22  G   UNL     1      11.469  77.935  -2.412  1.00  0.00     0.000 G0
ENDBRANCH  16  21
ENDBRANCH   4  15
TORSDOF 0
ENDMDL
MODEL 2
REMARK VINA RESULT:    -6.854      3.776      6.160
REMARK INTER + INTRA:          -7.813
REMARK INTER:                  -8.442
REMARK INTRA:                   0.629
REMARK UNBOUND:                 0.644
REMARK SMILES NC(=O)N1c2ccccc2C=Cc2ccccc21
REMARK SMILES IDX 1 1 2 2 3 3 4 4 5 7 6 8 10 9 7 10 9 11 8 12 11 13 18 15
REMARK SMILES IDX 13 16 17 17 14 18 16 19 15 20 12 21
REMARK H PARENT 1 5 1 6
REMARK Flexibility Score: 30.00
ROOT
ATOM      1  N   UNL     1       6.767  80.443  -2.368  1.00  0.00    -0.351 N 
ATOM      2  C   UNL     1       8.167  80.423  -2.074  1.00  0.00     0.323 C 
ATOM      3  O   UNL     1       8.934  81.194  -2.713  1.00  0.00    -0.248 OA
ATOM      4  N   UNL     1       8.699  79.571  -1.036  1.00  0.00    -0.262 N 
ATOM      5  H   UNL     1       6.406  81.045  -3.141  1.00  0.00     0.161 HD
ATOM      6  H   UNL     1       6.078  79.912  -1.794  1.00  0.00     0.161 HD
ENDROOT
BRANCH   4   7
ATOM      7  C   UNL     1      10.060  79.696  -0.608  1.00  0.00     0.058 A 
ATOM      8  C   UNL     1      10.476  80.859   0.062  1.00  0.00     0.027 A 
ATOM      9  C   UNL     1      10.990  78.666  -0.862  1.00  0.00    -0.001 A 
ATOM     10  C   UNL     1      11.795  80.990   0.501  1.00  0.00     0.002 A 
ATOM     11  C   UNL     1      12.308  78.802  -0.393  1.00  0.00     0.010 A 
ATOM     12  C   UNL     1      12.708  79.960   0.278  1.00  0.00     0.001 A 
BRANCH   9  13
ATOM     13  C   UNL     1      10.613  77.399  -1.530  1.00  0.00     0.011 CG0
ATOM     14  G   UNL     1       9.433  76.770  -1.422  1.00  0.00     0.000 G0
ENDBRANCH   9  13
ENDBRANCH   4   7
BRANCH   4  15
ATOM     15  C   UNL     1       7.911  78.533  -0.445  1.00  0.00     0.058 A 
ATOM     16  C   UNL     1       8.240  77.176  -0.648  1.00  0.00    -0.001 A 
ATOM     17  C   UNL     1       6.794  78.870   0.338  1.00  0.00     0.027 A 
ATOM     18  C   UNL     1       7.467  76.184  -0.019  1.00  0.00     0.010 A 
ATOM     19  C   UNL     1       6.024  77.872   0.937  1.00  0.00     0.002 A 
ATOM     20  C   UNL     1       6.363  76.531   0.763  1.00  0.00     0.001 A 
BRANCH  16  21
ATOM     21  C   UNL     1       9.426  76.752  -1.427  1.00  0.00     0.011 CG0
ATOM     22  G   UNL     1      10.593  77.409  -1.510  1.00  0.00     0.000 G0
ENDBRANCH  16  21
ENDBRANCH   4  15
TORSDOF 0
ENDMDL
MODEL 3
REMARK VINA RESULT:    -6.765      2.212      5.044
REMARK INTER + INTRA:          -7.703
REMARK INTER:                  -8.334
REMARK INTRA:                   0.631
REMARK UNBOUND:                 0.644
REMARK SMILES NC(=O)N1c2ccccc2C=Cc2ccccc21
REMARK SMILES IDX 1 1 2 2 3 3 4 4 5 7 6 8 10 9 7 10 9 11 8 12 11 13 18 15
REMARK SMILES IDX 13 16 17 17 14 18 16 19 15 20 12 21
REMARK H PARENT 1 5 1 6
REMARK Flexibility Score: 30.00
ROOT
ATOM      1  N   UNL     1      10.033  77.647  -1.553  1.00  0.00    -0.351 N 
ATOM      2  C   UNL     1      11.189  77.985  -2.324  1.00  0.00     0.323 C 
ATOM      3  O   UNL     1      11.468  77.292  -3.339  1.00  0.00    -0.248 OA
ATOM      4  N   UNL     1      12.007  79.126  -1.979  1.00  0.00    -0.262 N 
ATOM      5  H   UNL     1       9.471  76.802  -1.802  1.00  0.00     0.161 HD
ATOM      6  H   UNL     1       9.695  78.253  -0.775  1.00  0.00     0.161 HD
ENDROOT
BRANCH   4   7
ATOM      7  C   UNL     1      13.042  79.581  -2.859  1.00  0.00     0.058 A 
ATOM      8  C   UNL     1      12.704  80.126  -4.109  1.00  0.00     0.027 A 
ATOM      9  C   UNL     1      14.399  79.476  -2.485  1.00  0.00    -0.001 A 
ATOM     10  C   UNL     1      13.700  80.590  -4.971  1.00  0.00     0.002 A 
ATOM     11  C   UNL     1      15.388  79.969  -3.354  1.00  0.00     0.010 A 
ATOM     12  C   UNL     1      15.039  80.516  -4.592  1.00  0.00     0.001 A 
BRANCH   9  13
ATOM     13  C   UNL     1      14.825  78.946  -1.170  1.00  0.00     0.011 CG0
ATOM     14  G   UNL     1      14.151  79.063  -0.015  1.00  0.00     0.000 G0
ENDBRANCH   9  13
ENDBRANCH   4   7
BRANCH   4  15
ATOM     15  C   UNL     1      11.859  79.799  -0.725  1.00  0.00     0.058 A 
ATOM     16  C   UNL     1      12.883  79.749   0.244  1.00  0.00    -0.001 A 
ATOM     17  C   UNL     1      10.678  80.511  -0.456  1.00  0.00     0.027 A 
ATOM     18  C   UNL     1      12.720  80.456   1.448  1.00  0.00     0.010 A 
ATOM     19  C   UNL     1      10.522  81.189   0.754  1.00  0.00     0.002 A 
ATOM     20  C   UNL     1      11.544  81.166   1.703  1.00  0.00     0.001 A 
BRANCH  16  21
ATOM     21  C   UNL     1      14.169  79.052   0.009  1.00  0.00     0.011 CG0
ATOM     22  G   UNL     1      14.813  78.957  -1.164  1.00  0.00     0.000 G0
ENDBRANCH  16  21
ENDBRANCH   4  15
TORSDOF 0
ENDMDL
MODEL 4
REMARK VINA RESULT:    -6.745      3.789      5.277
REMARK INTER + INTRA:          -7.678
REMARK INTER:                  -8.429
REMARK INTRA:                   0.750
REMARK UNBOUND:                 0.644
REMARK SMILES NC(=O)N1c2ccccc2C=Cc2ccccc21
REMARK SMILES IDX 1 1 2 2 3 3 4 4 5 7 6 8 10 9 7 10 9 11 8 12 11 13 18 15
REMARK SMILES IDX 13 16 17 17 14 18 16 19 15 20 12 21
REMARK H PARENT 1 5 1 6
REMARK Flexibility Score: 30.00
ROOT
ATOM      1  N   UNL     1       8.828  81.151  -3.013  1.00  0.00    -0.351 N 
ATOM      2  C   UNL     1       8.008  80.358  -2.151  1.00  0.00     0.323 C 
ATOM      3  O   UNL     1       6.754  80.467  -2.234  1.00  0.00    -0.248 OA
ATOM      4  N   UNL     1       8.592  79.415  -1.226  1.00  0.00    -0.262 N 
ATOM      5  H   UNL     1       8.388  81.848  -3.655  1.00  0.00     0.161 HD
ATOM      6  H   UNL     1       9.861  81.017  -3.064  1.00  0.00     0.161 HD
ENDROOT
BRANCH   4   7
ATOM      7  C   UNL     1       7.772  78.484  -0.509  1.00  0.00     0.058 A 
ATOM      8  C   UNL     1       6.761  78.960   0.342  1.00  0.00     0.027 A 
ATOM      9  C   UNL     1       7.980  77.095  -0.641  1.00  0.00    -0.001 A 
ATOM     10  C   UNL     1       5.942  78.066   1.035  1.00  0.00     0.002 A 
ATOM     11  C   UNL     1       7.132  76.208   0.045  1.00  0.00     0.010 A 
ATOM     12  C   UNL     1       6.124  76.692   0.883  1.00  0.00     0.001 A 
BRANCH   9  13
ATOM     13  C   UNL     1       9.003  76.524  -1.547  1.00  0.00     0.011 CG0
ATOM     14  G   UNL     1      10.214  77.044  -1.797  1.00  0.00     0.000 G0
ENDBRANCH   9  13
ENDBRANCH   4   7
BRANCH   4  15
ATOM     15  C   UNL     1       9.995  79.417  -0.943  1.00  0.00     0.058 A 
ATOM     16  C   UNL     1      10.782  78.274  -1.195  1.00  0.00    -0.001 A 
ATOM     17  C   UNL     1      10.592  80.569  -0.402  1.00  0.00     0.027 A 
ATOM     18  C   UNL     1      12.164  78.326  -0.942  1.00  0.00     0.010 A 
ATOM     19  C   UNL     1      11.961  80.596  -0.136  1.00  0.00     0.002 A 
ATOM     20  C   UNL     1      12.747  79.478  -0.410  1.00  0.00     0.001 A 
BRANCH  16  21
ATOM     21  C   UNL     1      10.226  77.042  -1.801  1.00  0.00     0.011 CG0
ATOM     22  G   UNL     1       9.014  76.520  -1.559  1.00  0.00     0.000 G0
ENDBRANCH  16  21
ENDBRANCH   4  15
TORSDOF 0
ENDMDL
MODEL 5
REMARK VINA RESULT:    -6.635      0.779      4.121
REMARK INTER + INTRA:          -7.543
REMARK INTER:                  -8.305
REMARK INTRA:                   0.762
REMARK UNBOUND:                 0.644
REMARK SMILES NC(=O)N1c2ccccc2C=Cc2ccccc21
REMARK SMILES IDX 1 1 2 2 3 3 4 4 5 7 6 8 10 9 7 10 9 11 8 12 11 13 18 15
REMARK SMILES IDX 13 16 17 17 14 18 16 19 15 20 12 21
REMARK H PARENT 1 5 1 6
REMARK Flexibility Score: 30.00
ROOT
ATOM      1  N   UNL     1      14.468  78.685   0.903  1.00  0.00    -0.351 N 
ATOM      2  C   UNL     1      14.862  78.882  -0.458  1.00  0.00     0.323 C 
ATOM      3  O   UNL     1      16.053  78.632  -0.788  1.00  0.00    -0.248 OA
ATOM      4  N   UNL     1      13.911  79.318  -1.454  1.00  0.00    -0.262 N 
ATOM      5  H   UNL     1      15.176  78.396   1.614  1.00  0.00     0.161 HD
ATOM      6  H   UNL     1      13.473  78.767   1.203  1.00  0.00     0.161 HD
ENDROOT
BRANCH   4   7
ATOM      7  C   UNL     1      14.254  79.325  -2.845  1.00  0.00     0.058 A 
ATOM      8  C   UNL     1      15.336  80.101  -3.292  1.00  0.00     0.027 A 
ATOM      9  C   UNL     1      13.506  78.567  -3.772  1.00  0.00    -0.001 A 
ATOM     10  C   UNL     1      15.694  80.104  -4.641  1.00  0.00     0.002 A 
ATOM     11  C   UNL     1      13.894  78.563  -5.123  1.00  0.00     0.010 A 
ATOM     12  C   UNL     1      14.977  79.333  -5.555  1.00  0.00     0.001 A 
BRANCH   9  13
ATOM     13  C   UNL     1      12.377  77.700  -3.365  1.00  0.00     0.011 CG0
ATOM     14  G   UNL     1      11.475  77.973  -2.410  1.00  0.00     0.000 G0
ENDBRANCH   9  13
ENDBRANCH   4   7
BRANCH   4  15
ATOM     15  C   UNL     1      12.622  79.820  -1.087  1.00  0.00     0.058 A 
ATOM     16  C   UNL     1      11.447  79.198  -1.558  1.00  0.00    -0.001 A 
ATOM     17  C   UNL     1      12.528  80.949  -0.254  1.00  0.00     0.027 A 
ATOM     18  C   UNL     1      10.198  79.694  -1.144  1.00  0.00     0.010 A 
ATOM     19  C   UNL     1      11.280  81.442   0.129  1.00  0.00     0.002 A 
ATOM     20  C   UNL     1      10.117  80.812  -0.311  1.00  0.00     0.001 A 
BRANCH  16  21
ATOM     21  C   UNL     1      11.473  77.982  -2.404  1.00  0.00     0.011 CG0
ATOM     22  G   UNL     1      12.374  77.704  -3.359  1.00  0.00     0.000 G0
ENDBRANCH  16  21
ENDBRANCH   4  15
TORSDOF 0
ENDMDL
MODEL 6
REMARK VINA RESULT:    -6.486      2.140      3.098
REMARK INTER + INTRA:          -7.359
REMARK INTER:                  -8.107
REMARK INTRA:                   0.748
REMARK UNBOUND:                 0.644
REMARK SMILES NC(=O)N1c2ccccc2C=Cc2ccccc21
REMARK SMILES IDX 1 1 2 2 3 3 4 4 5 7 6 8 10 9 7 10 9 11 8 12 11 13 18 15
REMARK SMILES IDX 13 16 17 17 14 18 16 19 15 20 12 21
REMARK H PARENT 1 5 1 6
REMARK Flexibility Score: 30.00
ROOT
ATOM      1  N   UNL     1      11.629  77.128  -3.348  1.00  0.00    -0.351 N 
ATOM      2  C   UNL     1      11.319  77.968  -2.233  1.00  0.00     0.323 C 
ATOM      3  O   UNL     1      10.317  77.688  -1.521  1.00  0.00    -0.248 OA
ATOM      4  N   UNL     1      12.155  79.096  -1.894  1.00  0.00    -0.262 N 
ATOM      5  H   UNL     1      10.997  76.334  -3.594  1.00  0.00     0.161 HD
ATOM      6  H   UNL     1      12.507  77.248  -3.898  1.00  0.00     0.161 HD
ENDROOT
BRANCH   4   7
ATOM      7  C   UNL     1      11.960  79.814  -0.670  1.00  0.00     0.058 A 
ATOM      8  C   UNL     1      10.727  80.438  -0.418  1.00  0.00     0.027 A 
ATOM      9  C   UNL     1      13.000  79.911   0.279  1.00  0.00    -0.001 A 
ATOM     10  C   UNL     1      10.514  81.127   0.778  1.00  0.00     0.002 A 
ATOM     11  C   UNL     1      12.762  80.589   1.488  1.00  0.00     0.010 A 
ATOM     12  C   UNL     1      11.529  81.199   1.731  1.00  0.00     0.001 A 
BRANCH   9  13
ATOM     13  C   UNL     1      14.312  79.249   0.095  1.00  0.00     0.011 CG0
ATOM     14  G   UNL     1      14.976  79.121  -1.064  1.00  0.00     0.000 G0
ENDBRANCH   9  13
ENDBRANCH   4   7
BRANCH   4  15
ATOM     15  C   UNL     1      13.162  79.577  -2.791  1.00  0.00     0.058 A 
ATOM     16  C   UNL     1      14.516  79.617  -2.399  1.00  0.00    -0.001 A 
ATOM     17  C   UNL     1      12.793  80.019  -4.073  1.00  0.00     0.027 A 
ATOM     18  C   UNL     1      15.481  80.057  -3.321  1.00  0.00     0.010 A 
ATOM     19  C   UNL     1      13.762  80.475  -4.968  1.00  0.00     0.002 A 
ATOM     20  C   UNL     1      15.105  80.489  -4.595  1.00  0.00     0.001 A 
BRANCH  16  21
ATOM     21  C   UNL     1      14.978  79.129  -1.079  1.00  0.00     0.011 CG0
ATOM     22  G   UNL     1      14.318  79.250   0.083  1.00  0.00     0.000 G0
ENDBRANCH  16  21
ENDBRANCH   4  15
TORSDOF 0
ENDMDL
MODEL 7
REMARK VINA RESULT:    -6.365      1.615      2.198
REMARK INTER + INTRA:          -7.210
REMARK INTER:                  -7.843
REMARK INTRA:                   0.634
REMARK UNBOUND:                 0.644
REMARK SMILES NC(=O)N1c2ccccc2C=Cc2ccccc21
REMARK SMILES IDX 1 1 2 2 3 3 4 4 5 7 6 8 10 9 7 10 9 11 8 12 11 13 18 15
REMARK SMILES IDX 13 16 17 17 14 18 16 19 15 20 12 21
REMARK H PARENT 1 5 1 6
REMARK Flexibility Score: 30.00
ROOT
ATOM      1  N   UNL     1      13.778  80.755  -0.877  1.00  0.00    -0.351 N 
ATOM      2  C   UNL     1      12.380  80.453  -0.860  1.00  0.00     0.323 C 
ATOM      3  O   UNL     1      11.709  80.740   0.168  1.00  0.00    -0.248 OA
ATOM      4  N   UNL     1      11.729  79.871  -2.011  1.00  0.00    -0.262 N 
ATOM      5  H   UNL     1      14.236  81.150  -0.026  1.00  0.00     0.161 HD
ATOM      6  H   UNL     1      14.353  80.643  -1.740  1.00  0.00     0.161 HD
ENDROOT
BRANCH   4   7
ATOM      7  C   UNL     1      10.302  79.754  -2.067  1.00  0.00     0.058 A 
ATOM      8  C   UNL     1       9.511  80.913  -2.135  1.00  0.00     0.027 A 
ATOM      9  C   UNL     1       9.684  78.486  -2.045  1.00  0.00    -0.001 A 
ATOM     10  C   UNL     1       8.120  80.817  -2.208  1.00  0.00     0.002 A 
ATOM     11  C   UNL     1       8.284  78.405  -2.143  1.00  0.00     0.010 A 
ATOM     12  C   UNL     1       7.508  79.565  -2.217  1.00  0.00     0.001 A 
BRANCH   9  13
ATOM     13  C   UNL     1      10.457  77.223  -2.010  1.00  0.00     0.011 CG0
ATOM     14  G   UNL     1      11.653  77.014  -2.581  1.00  0.00     0.000 G0
ENDBRANCH   9  13
ENDBRANCH   4   7
BRANCH   4  15
ATOM     15  C   UNL     1      12.482  79.332  -3.102  1.00  0.00     0.058 A 
ATOM     16  C   UNL     1      12.473  77.946  -3.368  1.00  0.00    -0.001 A 
ATOM     17  C   UNL     1      13.243  80.192  -3.911  1.00  0.00     0.027 A 
ATOM     18  C   UNL     1      13.192  77.458  -4.472  1.00  0.00     0.010 A 
ATOM     19  C   UNL     1      13.970  79.688  -4.990  1.00  0.00     0.002 A 
ATOM     20  C   UNL     1      13.941  78.323  -5.274  1.00  0.00     0.001 A 
BRANCH  16  21
ATOM     21  C   UNL     1      11.661  76.990  -2.581  1.00  0.00     0.011 CG0
ATOM     22  G   UNL     1      10.464  77.238  -2.027  1.00  0.00     0.000 G0
ENDBRANCH  16  21
ENDBRANCH   4  15
TORSDOF 0
ENDMDL
MODEL 8
REMARK VINA RESULT:    -6.253      1.809      4.595
REMARK INTER + INTRA:          -7.072
REMARK INTER:                  -7.829
REMARK INTRA:                   0.757
REMARK UNBOUND:                 0.644
REMARK SMILES NC(=O)N1c2ccccc2C=Cc2ccccc21
REMARK SMILES IDX 1 1 2 2 3 3 4 4 5 7 6 8 10 9 7 10 9 11 8 12 11 13 18 15
REMARK SMILES IDX 13 16 17 17 14 18 16 19 15 20 12 21
REMARK H PARENT 1 5 1 6
REMARK Flexibility Score: 30.00
ROOT
ATOM      1  N   UNL     1      11.562  81.102   0.338  1.00  0.00    -0.351 N 
ATOM      2  C   UNL     1      12.294  80.756  -0.841  1.00  0.00     0.323 C 
ATOM      3  O   UNL     1      13.503  81.105  -0.931  1.00  0.00    -0.248 OA
ATOM      4  N   UNL     1      11.684  79.984  -1.899  1.00  0.00    -0.262 N 
ATOM      5  H   UNL     1      12.013  81.684   1.078  1.00  0.00     0.161 HD
ATOM      6  H   UNL     1      10.600  80.742   0.511  1.00  0.00     0.161 HD
ENDROOT
BRANCH   4   7
ATOM      7  C   UNL     1      12.468  79.471  -2.982  1.00  0.00     0.058 A 
ATOM      8  C   UNL     1      13.186  80.356  -3.803  1.00  0.00     0.027 A 
ATOM      9  C   UNL     1      12.518  78.084  -3.238  1.00  0.00    -0.001 A 
ATOM     10  C   UNL     1      13.969  79.871  -4.852  1.00  0.00     0.002 A 
ATOM     11  C   UNL     1      13.329  77.609  -4.283  1.00  0.00     0.010 A 
ATOM     12  C   UNL     1      14.044  78.499  -5.089  1.00  0.00     0.001 A 
BRANCH   9  13
ATOM     13  C   UNL     1      11.815  77.092  -2.392  1.00  0.00     0.011 CG0
ATOM     14  G   UNL     1      10.618  77.257  -1.810  1.00  0.00     0.000 G0
ENDBRANCH   9  13
ENDBRANCH   4   7
BRANCH   4  15
ATOM     15  C   UNL     1      10.270  79.760  -1.939  1.00  0.00     0.058 A 
ATOM     16  C   UNL     1       9.749  78.450  -1.916  1.00  0.00    -0.001 A 
ATOM     17  C   UNL     1       9.396  80.858  -2.012  1.00  0.00     0.027 A 
ATOM     18  C   UNL     1       8.355  78.269  -1.916  1.00  0.00     0.010 A 
ATOM     19  C   UNL     1       8.015  80.661  -2.035  1.00  0.00     0.002 A 
ATOM     20  C   UNL     1       7.495  79.368  -1.982  1.00  0.00     0.001 A 
BRANCH  16  21
ATOM     21  C   UNL     1      10.611  77.251  -1.799  1.00  0.00     0.011 CG0
ATOM     22  G   UNL     1      11.807  77.079  -2.382  1.00  0.00     0.000 G0
ENDBRANCH  16  21
ENDBRANCH   4  15
TORSDOF 0
ENDMDL
MODEL 9
REMARK VINA RESULT:    -6.207      4.368      6.307
REMARK INTER + INTRA:          -7.015
REMARK INTER:                  -7.644
REMARK INTRA:                   0.629
REMARK UNBOUND:                 0.644
REMARK SMILES NC(=O)N1c2ccccc2C=Cc2ccccc21
REMARK SMILES IDX 1 1 2 2 3 3 4 4 5 7 6 8 10 9 7 10 9 11 8 12 11 13 18 15
REMARK SMILES IDX 13 16 17 17 14 18 16 19 15 20 12 21
REMARK H PARENT 1 5 1 6
REMARK Flexibility Score: 30.00
ROOT
ATOM      1  N   UNL     1       6.518  78.094   0.645  1.00  0.00    -0.351 N 
ATOM      2  C   UNL     1       7.082  76.942   0.012  1.00  0.00     0.323 C 
ATOM      3  O   UNL     1       6.727  75.797   0.404  1.00  0.00    -0.248 OA
ATOM      4  N   UNL     1       8.011  77.075  -1.086  1.00  0.00    -0.262 N 
ATOM      5  H   UNL     1       5.869  77.977   1.455  1.00  0.00     0.161 HD
ATOM      6  H   UNL     1       6.690  79.057   0.286  1.00  0.00     0.161 HD
ENDROOT
BRANCH   4   7
ATOM      7  C   UNL     1       8.421  75.932  -1.845  1.00  0.00     0.058 A 
ATOM      8  C   UNL     1       7.486  75.260  -2.651  1.00  0.00     0.027 A 
ATOM      9  C   UNL     1       9.752  75.467  -1.783  1.00  0.00    -0.001 A 
ATOM     10  C   UNL     1       7.873  74.155  -3.411  1.00  0.00     0.002 A 
ATOM     11  C   UNL     1      10.131  74.367  -2.571  1.00  0.00     0.010 A 
ATOM     12  C   UNL     1       9.194  73.712  -3.375  1.00  0.00     0.001 A 
BRANCH   9  13
ATOM     13  C   UNL     1      10.796  76.147  -0.983  1.00  0.00     0.011 CG0
ATOM     14  G   UNL     1      10.894  77.468  -0.770  1.00  0.00     0.000 G0
ENDBRANCH   9  13
ENDBRANCH   4   7
BRANCH   4  15
ATOM     15  C   UNL     1       8.606  78.336  -1.413  1.00  0.00     0.058 A 
ATOM     16  C   UNL     1       9.990  78.545  -1.241  1.00  0.00    -0.001 A 
ATOM     17  C   UNL     1       7.799  79.376  -1.904  1.00  0.00     0.027 A 
ATOM     18  C   UNL     1      10.545  79.782  -1.611  1.00  0.00     0.010 A 
ATOM     19  C   UNL     1       8.362  80.606  -2.245  1.00  0.00     0.002 A 
ATOM     20  C   UNL     1       9.735  80.808  -2.103  1.00  0.00     0.001 A 
BRANCH  16  21
ATOM     21  C   UNL     1      10.904  77.480  -0.767  1.00  0.00     0.011 CG0
ATOM     22  G   UNL     1      10.769  76.164  -0.995  1.00  0.00     0.000 G0
ENDBRANCH  16  21
ENDBRANCH   4  15
TORSDOF 0
ENDMDL
MODEL 10
REMARK VINA RESULT:    -6.201      2.521      4.790
REMARK INTER + INTRA:          -7.007
REMARK INTER:                  -7.646
REMARK INTRA:                   0.639
REMARK UNBOUND:                 0.644
REMARK SMILES NC(=O)N1c2ccccc2C=Cc2ccccc21
REMARK SMILES IDX 1 1 2 2 3 3 4 4 5 7 6 8 10 9 7 10 9 11 8 12 11 13 18 15
REMARK SMILES IDX 13 16 17 17 14 18 16 19 15 20 12 21
REMARK H PARENT 1 5 1 6
REMARK Flexibility Score: 30.00
ROOT
ATOM      1  N   UNL     1      13.860  80.205  -2.458  1.00  0.00    -0.351 N 
ATOM      2  C   UNL     1      12.700  79.442  -2.800  1.00  0.00     0.323 C 
ATOM      3  O   UNL     1      12.572  79.027  -3.984  1.00  0.00    -0.248 OA
ATOM      4  N   UNL     1      11.707  79.109  -1.805  1.00  0.00    -0.262 N 
ATOM      5  H   UNL     1      14.553  80.459  -3.197  1.00  0.00     0.161 HD
ATOM      6  H   UNL     1      14.070  80.473  -1.473  1.00  0.00     0.161 HD
ENDROOT
BRANCH   4   7
ATOM      7  C   UNL     1      10.653  78.183  -2.098  1.00  0.00     0.058 A 
ATOM      8  C   UNL     1      10.959  76.831  -2.327  1.00  0.00     0.027 A 
ATOM      9  C   UNL     1       9.313  78.619  -2.170  1.00  0.00    -0.001 A 
ATOM     10  C   UNL     1       9.943  75.912  -2.597  1.00  0.00     0.002 A 
ATOM     11  C   UNL     1       8.300  77.678  -2.420  1.00  0.00     0.010 A 
ATOM     12  C   UNL     1       8.615  76.334  -2.639  1.00  0.00     0.001 A 
BRANCH   9  13
ATOM     13  C   UNL     1       8.916  80.021  -1.906  1.00  0.00     0.011 CG0
ATOM     14  G   UNL     1       9.496  80.854  -1.028  1.00  0.00     0.000 G0
ENDBRANCH   9  13
ENDBRANCH   4   7
BRANCH   4  15
ATOM     15  C   UNL     1      11.698  79.737  -0.518  1.00  0.00     0.058 A 
ATOM     16  C   UNL     1      10.649  80.604  -0.148  1.00  0.00    -0.001 A 
ATOM     17  C   UNL     1      12.750  79.491   0.380  1.00  0.00     0.027 A 
ATOM     18  C   UNL     1      10.653  81.171   1.138  1.00  0.00     0.010 A 
ATOM     19  C   UNL     1      12.751  80.080   1.645  1.00  0.00     0.002 A 
ATOM     20  C   UNL     1      11.701  80.915   2.026  1.00  0.00     0.001 A 
BRANCH  16  21
ATOM     21  C   UNL     1       9.490  80.874  -1.030  1.00  0.00     0.011 CG0
ATOM     22  G   UNL     1       8.939  80.012  -1.897  1.00  0.00     0.000 G0
ENDBRANCH  16  21
ENDBRANCH   4  15
TORSDOF 0
ENDMDL
MODEL 11
REMARK VINA RESULT:    -6.146      3.818      6.648
REMARK INTER + INTRA:          -6.939
REMARK INTER:                  -7.713
REMARK INTRA:                   0.774
REMARK UNBOUND:                 0.644
REMARK SMILES NC(=O)N1c2ccccc2C=Cc2ccccc21
REMARK SMILES IDX 1 1 2 2 3 3 4 4 5 7 6 8 10 9 7 10 9 11 8 12 11 13 18 15
REMARK SMILES IDX 13 16 17 17 14 18 16 19 15 20 12 21
REMARK H PARENT 1 5 1 6
REMARK Flexibility Score: 30.00
ROOT
ATOM      1  N   UNL     1       7.506  75.826  -2.776  1.00  0.00    -0.351 N 
ATOM      2  C   UNL     1       8.788  76.329  -2.389  1.00  0.00     0.323 C 
ATOM      3  O   UNL     1       9.814  75.904  -2.988  1.00  0.00    -0.248 OA
ATOM      4  N   UNL     1       8.916  77.337  -1.362  1.00  0.00    -0.262 N 
ATOM      5  H   UNL     1       7.437  75.078  -3.501  1.00  0.00     0.161 HD
ATOM      6  H   UNL     1       6.622  76.226  -2.394  1.00  0.00     0.161 HD
ENDROOT
BRANCH   4   7
ATOM      7  C   UNL     1      10.171  77.981  -1.115  1.00  0.00     0.058 A 
ATOM      8  C   UNL     1      11.286  77.212  -0.740  1.00  0.00     0.027 A 
ATOM      9  C   UNL     1      10.295  79.381  -1.235  1.00  0.00    -0.001 A 
ATOM     10  C   UNL     1      12.521  77.822  -0.513  1.00  0.00     0.002 A 
ATOM     11  C   UNL     1      11.551  79.977  -1.025  1.00  0.00     0.010 A 
ATOM     12  C   UNL     1      12.655  79.202  -0.660  1.00  0.00     0.001 A 
BRANCH   9  13
ATOM     13  C   UNL     1       9.172  80.248  -1.661  1.00  0.00     0.011 CG0
ATOM     14  G   UNL     1       7.883  80.092  -1.323  1.00  0.00     0.000 G0
ENDBRANCH   9  13
ENDBRANCH   4   7
BRANCH   4  15
ATOM     15  C   UNL     1       7.815  77.682  -0.514  1.00  0.00     0.058 A 
ATOM     16  C   UNL     1       7.329  79.005  -0.468  1.00  0.00    -0.001 A 
ATOM     17  C   UNL     1       7.221  76.692   0.287  1.00  0.00     0.027 A 
ATOM     18  C   UNL     1       6.222  79.298   0.346  1.00  0.00     0.010 A 
ATOM     19  C   UNL     1       6.137  77.005   1.108  1.00  0.00     0.002 A 
ATOM     20  C   UNL     1       5.634  78.306   1.134  1.00  0.00     0.001 A 
BRANCH  16  21
ATOM     21  C   UNL     1       7.883  80.087  -1.315  1.00  0.00     0.011 CG0
ATOM     22  G   UNL     1       9.171  80.242  -1.657  1.00  0.00     0.000 G0
ENDBRANCH  16  21
ENDBRANCH   4  15
TORSDOF 0
ENDMDL
MODEL 12
REMARK VINA RESULT:    -6.093      4.218      5.910
REMARK INTER + INTRA:          -6.874
REMARK INTER:                  -7.625
REMARK INTRA:                   0.750
REMARK UNBOUND:                 0.644
REMARK SMILES NC(=O)N1c2ccccc2C=Cc2ccccc21
REMARK SMILES IDX 1 1 2 2 3 3 4 4 5 7 6 8 10 9 7 10 9 11 8 12 11 13 18 15
REMARK SMILES IDX 13 16 17 17 14 18 16 19 15 20 12 21
REMARK H PARENT 1 5 1 6
REMARK Flexibility Score: 30.00
ROOT
ATOM      1  N   UNL     1       6.618  76.484   0.662  1.00  0.00    -0.351 N 
ATOM      2  C   UNL     1       7.059  77.679   0.012  1.00  0.00     0.323 C 
ATOM      3  O   UNL     1       6.661  78.792   0.451  1.00  0.00    -0.248 OA
ATOM      4  N   UNL     1       7.978  77.627  -1.101  1.00  0.00    -0.262 N 
ATOM      5  H   UNL     1       5.932  76.541   1.447  1.00  0.00     0.161 HD
ATOM      6  H   UNL     1       7.005  75.549   0.412  1.00  0.00     0.161 HD
ENDROOT
BRANCH   4   7
ATOM      7  C   UNL     1       8.571  78.823  -1.621  1.00  0.00     0.058 A 
ATOM      8  C   UNL     1       7.750  79.845  -2.126  1.00  0.00     0.027 A 
ATOM      9  C   UNL     1       9.974  78.978  -1.641  1.00  0.00    -0.001 A 
ATOM     10  C   UNL     1       8.312  81.024  -2.620  1.00  0.00     0.002 A 
ATOM     11  C   UNL     1      10.522  80.180  -2.121  1.00  0.00     0.010 A 
ATOM     12  C   UNL     1       9.696  81.193  -2.613  1.00  0.00     0.001 A 
BRANCH   9  13
ATOM     13  C   UNL     1      10.896  77.957  -1.094  1.00  0.00     0.011 CG0
ATOM     14  G   UNL     1      10.747  76.627  -1.187  1.00  0.00     0.000 G0
ENDBRANCH   9  13
ENDBRANCH   4   7
BRANCH   4  15
ATOM     15  C   UNL     1       8.277  76.395  -1.766  1.00  0.00     0.058 A 
ATOM     16  C   UNL     1       9.603  75.918  -1.832  1.00  0.00    -0.001 A 
ATOM     17  C   UNL     1       7.240  75.660  -2.364  1.00  0.00     0.027 A 
ATOM     18  C   UNL     1       9.854  74.684  -2.457  1.00  0.00     0.010 A 
ATOM     19  C   UNL     1       7.510  74.448  -3.001  1.00  0.00     0.002 A 
ATOM     20  C   UNL     1       8.815  73.958  -3.043  1.00  0.00     0.001 A 
BRANCH  16  21
ATOM     21  C   UNL     1      10.737  76.621  -1.188  1.00  0.00     0.011 CG0
ATOM     22  G   UNL     1      10.894  77.951  -1.101  1.00  0.00     0.000 G0
ENDBRANCH  16  21
ENDBRANCH   4  15
TORSDOF 0
ENDMDL
MODEL 13
REMARK VINA RESULT:    -6.058      3.945      5.449
REMARK INTER + INTRA:          -6.831
REMARK INTER:                  -7.458
REMARK INTRA:                   0.627
REMARK UNBOUND:                 0.644
REMARK SMILES NC(=O)N1c2ccccc2C=Cc2ccccc21
REMARK SMILES IDX 1 1 2 2 3 3 4 4 5 7 6 8 10 9 7 10 9 11 8 12 11 13 18 15
REMARK SMILES IDX 13 16 17 17 14 18 16 19 15 20 12 21
REMARK H PARENT 1 5 1 6
REMARK Flexibility Score: 30.00
ROOT
ATOM      1  N   UNL     1       9.947  75.679  -3.005  1.00  0.00    -0.351 N 
ATOM      2  C   UNL     1       8.808  76.236  -2.343  1.00  0.00     0.323 C 
ATOM      3  O   UNL     1       7.661  75.807  -2.643  1.00  0.00    -0.248 OA
ATOM      4  N   UNL     1       8.959  77.241  -1.317  1.00  0.00    -0.262 N 
ATOM      5  H   UNL     1       9.816  74.974  -3.763  1.00  0.00     0.161 HD
ATOM      6  H   UNL     1      10.920  75.916  -2.714  1.00  0.00     0.161 HD
ENDROOT
BRANCH   4   7
ATOM      7  C   UNL     1       7.842  77.652  -0.519  1.00  0.00     0.058 A 
ATOM      8  C   UNL     1       7.255  76.743   0.377  1.00  0.00     0.027 A 
ATOM      9  C   UNL     1       7.319  78.957  -0.634  1.00  0.00    -0.001 A 
ATOM     10  C   UNL     1       6.177  77.132   1.174  1.00  0.00     0.002 A 
ATOM     11  C   UNL     1       6.249  79.341   0.192  1.00  0.00     0.010 A 
ATOM     12  C   UNL     1       5.677  78.430   1.086  1.00  0.00     0.001 A 
BRANCH   9  13
ATOM     13  C   UNL     1       7.910  79.977  -1.531  1.00  0.00     0.011 CG0
ATOM     14  G   UNL     1       9.209  80.093  -1.847  1.00  0.00     0.000 G0
ENDBRANCH   9  13
ENDBRANCH   4   7
BRANCH   4  15
ATOM     15  C   UNL     1      10.207  77.909  -1.103  1.00  0.00     0.058 A 
ATOM     16  C   UNL     1      10.345  79.284  -1.385  1.00  0.00    -0.001 A 
ATOM     17  C   UNL     1      11.307  77.184  -0.614  1.00  0.00     0.027 A 
ATOM     18  C   UNL     1      11.574  79.915  -1.125  1.00  0.00     0.010 A 
ATOM     19  C   UNL     1      12.527  77.821  -0.383  1.00  0.00     0.002 A 
ATOM     20  C   UNL     1      12.659  79.186  -0.633  1.00  0.00     0.001 A 
BRANCH  16  21
ATOM     21  C   UNL     1       9.217  80.117  -1.863  1.00  0.00     0.011 CG0
ATOM     22  G   UNL     1       7.926  79.963  -1.531  1.00  0.00     0.000 G0
ENDBRANCH  16  21
ENDBRANCH   4  15
TORSDOF 0
ENDMDL
MODEL 14
REMARK VINA RESULT:    -6.030      2.488      4.331
REMARK INTER + INTRA:          -6.797
REMARK INTER:                  -7.559
REMARK INTRA:                   0.763
REMARK UNBOUND:                 0.644
REMARK SMILES NC(=O)N1c2ccccc2C=Cc2ccccc21
REMARK SMILES IDX 1 1 2 2 3 3 4 4 5 7 6 8 10 9 7 10 9 11 8 12 11 13 18 15
REMARK SMILES IDX 13 16 17 17 14 18 16 19 15 20 12 21
REMARK H PARENT 1 5 1 6
REMARK Flexibility Score: 30.00
ROOT
ATOM      1  N   UNL     1      12.783  78.251  -3.926  1.00  0.00    -0.351 N 
ATOM      2  C   UNL     1      12.858  78.834  -2.622  1.00  0.00     0.323 C 
ATOM      3  O   UNL     1      13.923  79.414  -2.275  1.00  0.00    -0.248 OA
ATOM      4  N   UNL     1      11.726  78.802  -1.725  1.00  0.00    -0.262 N 
ATOM      5  H   UNL     1      13.621  78.260  -4.549  1.00  0.00     0.161 HD
ATOM      6  H   UNL     1      11.892  77.861  -4.302  1.00  0.00     0.161 HD
ENDROOT
BRANCH   4   7
ATOM      7  C   UNL     1      11.733  79.554  -0.505  1.00  0.00     0.058 A 
ATOM      8  C   UNL     1      12.725  79.308   0.458  1.00  0.00     0.027 A 
ATOM      9  C   UNL     1      10.745  80.531  -0.258  1.00  0.00    -0.001 A 
ATOM     10  C   UNL     1      12.757  80.043   1.645  1.00  0.00     0.002 A 
ATOM     11  C   UNL     1      10.804  81.279   0.930  1.00  0.00     0.010 A 
ATOM     12  C   UNL     1      11.801  81.031   1.878  1.00  0.00     0.001 A 
BRANCH   9  13
ATOM     13  C   UNL     1       9.692  80.866  -1.244  1.00  0.00     0.011 CG0
ATOM     14  G   UNL     1       9.063  80.000  -2.054  1.00  0.00     0.000 G0
ENDBRANCH   9  13
ENDBRANCH   4   7
BRANCH   4  15
ATOM     15  C   UNL     1      10.589  77.973  -1.986  1.00  0.00     0.058 A 
ATOM     16  C   UNL     1       9.303  78.538  -2.124  1.00  0.00    -0.001 A 
ATOM     17  C   UNL     1      10.756  76.583  -2.098  1.00  0.00     0.027 A 
ATOM     18  C   UNL     1       8.216  77.697  -2.420  1.00  0.00     0.010 A 
ATOM     19  C   UNL     1       9.662  75.760  -2.370  1.00  0.00     0.002 A 
ATOM     20  C   UNL     1       8.394  76.316  -2.535  1.00  0.00     0.001 A 
BRANCH  16  21
ATOM     21  C   UNL     1       9.063  79.998  -2.058  1.00  0.00     0.011 CG0
ATOM     22  G   UNL     1       9.689  80.865  -1.248  1.00  0.00     0.000 G0
ENDBRANCH  16  21
ENDBRANCH   4  15
TORSDOF 0
ENDMDL
MODEL 15
REMARK VINA RESULT:    -5.961      3.505      5.105
REMARK INTER + INTRA:          -6.711
REMARK INTER:                  -7.343
REMARK INTRA:                   0.633
REMARK UNBOUND:                 0.644
REMARK SMILES NC(=O)N1c2ccccc2C=Cc2ccccc21
REMARK SMILES IDX 1 1 2 2 3 3 4 4 5 7 6 8 10 9 7 10 9 11 8 12 11 13 18 15
REMARK SMILES IDX 13 16 17 17 14 18 16 19 15 20 12 21
REMARK H PARENT 1 5 1 6
REMARK Flexibility Score: 30.00
ROOT
ATOM      1  N   UNL     1       8.667  80.365  -0.477  1.00  0.00    -0.351 N 
ATOM      2  C   UNL     1       8.332  79.010  -0.791  1.00  0.00     0.323 C 
ATOM      3  O   UNL     1       7.197  78.572  -0.459  1.00  0.00    -0.248 OA
ATOM      4  N   UNL     1       9.252  78.162  -1.512  1.00  0.00    -0.262 N 
ATOM      5  H   UNL     1       7.999  80.953   0.069  1.00  0.00     0.161 HD
ATOM      6  H   UNL     1       9.543  80.809  -0.828  1.00  0.00     0.161 HD
ENDROOT
BRANCH   4   7
ATOM      7  C   UNL     1       8.843  76.878  -1.998  1.00  0.00     0.058 A 
ATOM      8  C   UNL     1       7.881  76.794  -3.018  1.00  0.00     0.027 A 
ATOM      9  C   UNL     1       9.388  75.697  -1.452  1.00  0.00    -0.001 A 
ATOM     10  C   UNL     1       7.483  75.551  -3.515  1.00  0.00     0.002 A 
ATOM     11  C   UNL     1       8.995  74.454  -1.979  1.00  0.00     0.010 A 
ATOM     12  C   UNL     1       8.043  74.383  -2.999  1.00  0.00     0.001 A 
BRANCH   9  13
ATOM     13  C   UNL     1      10.431  75.712  -0.400  1.00  0.00     0.011 CG0
ATOM     14  G   UNL     1      11.404  76.626  -0.266  1.00  0.00     0.000 G0
ENDBRANCH   9  13
ENDBRANCH   4   7
BRANCH   4  15
ATOM     15  C   UNL     1      10.618  78.541  -1.711  1.00  0.00     0.058 A 
ATOM     16  C   UNL     1      11.662  77.824  -1.089  1.00  0.00    -0.001 A 
ATOM     17  C   UNL     1      10.920  79.643  -2.528  1.00  0.00     0.027 A 
ATOM     18  C   UNL     1      12.993  78.200  -1.340  1.00  0.00     0.010 A 
ATOM     19  C   UNL     1      12.246  80.018  -2.748  1.00  0.00     0.002 A 
ATOM     20  C   UNL     1      13.282  79.294  -2.159  1.00  0.00     0.001 A 
BRANCH  16  21
ATOM     21  C   UNL     1      11.417  76.629  -0.249  1.00  0.00     0.011 CG0
ATOM     22  G   UNL     1      10.427  75.737  -0.413  1.00  0.00     0.000 G0
ENDBRANCH  16  21
ENDBRANCH   4  15
TORSDOF 0
ENDMDL
