MODEL 1
REMARK VINA RESULT:    -8.551      0.000      0.000
REMARK INTER + INTRA:         -18.955
REMARK INTER:                 -16.298
REMARK INTRA:                  -2.657
REMARK UNBOUND:                -2.657
REMARK SMILES CC(C)OC(=O)CCC/C=C\C[C@@H]1[C@@H](/C=C/[C@@H](O)COc2cccc(C(F)(F)F)c2)[C@H](O)C[C@@H]1O
REMARK SMILES IDX 12 1 11 2 10 3 9 4 8 5 7 6 5 7 6 8 4 9 2 10 1 11 3 12 13 13
REMARK SMILES IDX 34 14 14 15 33 16 31 17 35 18 15 20 16 21 17 22 18 23 19 25
REMARK SMILES IDX 20 26 21 27 22 28 30 29 23 30 25 31 24 32 26 33 27 34 28 35
REMARK SMILES IDX 29 36 32 37
REMARK H PARENT 35 19 18 24 32 38
REMARK Flexibility Score: inf
ROOT
ATOM      1  C   UNL     1      31.037   9.195   8.920  1.00  0.00     0.034 C 
ENDROOT
BRANCH   1   2
ATOM      2  C   UNL     1      32.222  10.027   8.486  1.00  0.00    -0.031 C 
ATOM      3  C   UNL     1      33.073  10.658   9.319  1.00  0.00    -0.031 C 
BRANCH   3   4
ATOM      4  C   UNL     1      32.985  10.630  10.826  1.00  0.00     0.027 C 
BRANCH   4   5
ATOM      5  C   UNL     1      34.310  11.034  11.489  1.00  0.00     0.016 C 
BRANCH   5   6
ATOM      6  C   UNL     1      34.875  12.331  10.896  1.00  0.00     0.123 C 
BRANCH   6   7
ATOM      7  C   UNL     1      34.622  13.482  11.817  1.00  0.00     0.306 C 
ATOM      8  O   UNL     1      35.198  13.525  12.939  1.00  0.00    -0.252 OA
BRANCH   7   9
ATOM      9  O   UNL     1      33.722  14.485  11.433  1.00  0.00    -0.463 OA
BRANCH   9  10
ATOM     10  C   UNL     1      32.312  14.283  11.342  1.00  0.00     0.170 C 
ATOM     11  C   UNL     1      31.902  14.083   9.880  1.00  0.00     0.052 C 
ATOM     12  C   UNL     1      31.598  15.497  11.935  1.00  0.00     0.052 C 
ENDBRANCH   9  10
ENDBRANCH   7   9
ENDBRANCH   6   7
ENDBRANCH   5   6
ENDBRANCH   4   5
ENDBRANCH   3   4
ENDBRANCH   1   2
BRANCH   1  13
ATOM     13  C   UNL     1      29.800  10.077   9.233  1.00  0.00     0.031 C 
ATOM     14  C   UNL     1      28.520   9.616   8.517  1.00  0.00     0.121 C 
ATOM     15  C   UNL     1      29.430   9.984  10.728  1.00  0.00     0.046 C 
ATOM     16  C   UNL     1      27.922   8.535   9.411  1.00  0.00     0.064 C 
ATOM     17  C   UNL     1      28.404   8.837  10.839  1.00  0.00     0.124 C 
BRANCH  14  18
ATOM     18  O   UNL     1      28.764   9.136   7.221  1.00  0.00    -0.393 OA
ATOM     19  H   UNL     1      29.384   8.368   7.317  1.00  0.00     0.210 HD
ENDBRANCH  14  18
BRANCH  15  20
ATOM     20  C   UNL     1      28.816  11.287  11.198  1.00  0.00    -0.022 C 
ATOM     21  C   UNL     1      28.665  12.340  10.377  1.00  0.00     0.004 C 
BRANCH  21  22
ATOM     22  C   UNL     1      28.053  13.644  10.833  1.00  0.00     0.174 C 
BRANCH  22  23
ATOM     23  O   UNL     1      28.683  14.738  10.211  1.00  0.00    -0.385 OA
ATOM     24  H   UNL     1      28.674  15.501  10.848  1.00  0.00     0.211 HD
ENDBRANCH  22  23
BRANCH  22  25
ATOM     25  C   UNL     1      26.528  13.673  10.610  1.00  0.00     0.265 C 
BRANCH  25  26
ATOM     26  O   UNL     1      26.074  12.431  10.072  1.00  0.00    -0.491 OA
BRANCH  26  27
ATOM     27  C   UNL     1      25.000  11.667  10.560  1.00  0.00     0.120 A 
ATOM     28  C   UNL     1      24.074  12.295  11.398  1.00  0.00     0.046 A 
ATOM     29  C   UNL     1      24.815  10.310  10.226  1.00  0.00     0.059 A 
ATOM     30  C   UNL     1      22.977  11.591  11.899  1.00  0.00     0.004 A 
ATOM     31  C   UNL     1      23.725   9.588  10.746  1.00  0.00     0.059 A 
ATOM     32  C   UNL     1      22.795  10.249  11.567  1.00  0.00     0.013 A 
BRANCH  31  33
ATOM     33  C   UNL     1      23.498   8.151  10.342  1.00  0.00     0.416 C 
ATOM     34  F   UNL     1      24.691   7.449  10.342  1.00  0.00    -0.166 F 
ATOM     35  F   UNL     1      22.628   7.561  11.239  1.00  0.00    -0.166 F 
ATOM     36  F   UNL     1      22.955   8.082   9.071  1.00  0.00    -0.166 F 
ENDBRANCH  31  33
ENDBRANCH  26  27
ENDBRANCH  25  26
ENDBRANCH  22  25
ENDBRANCH  21  22
ENDBRANCH  15  20
BRANCH  17  37
ATOM     37  O   UNL     1      29.020   7.704  11.397  1.00  0.00    -0.392 OA
ATOM     38  H   UNL     1      28.478   6.920  11.118  1.00  0.00     0.210 HD
ENDBRANCH  17  37
ENDBRANCH   1  13
TORSDOF 17
ENDMDL
MODEL 2
REMARK VINA RESULT:    -8.474      0.887      1.725
REMARK INTER + INTRA:         -18.810
REMARK INTER:                 -15.726
REMARK INTRA:                  -3.084
REMARK UNBOUND:                -2.657
REMARK SMILES CC(C)OC(=O)CCC/C=C\C[C@@H]1[C@@H](/C=C/[C@@H](O)COc2cccc(C(F)(F)F)c2)[C@H](O)C[C@@H]1O
REMARK SMILES IDX 12 1 11 2 10 3 9 4 8 5 7 6 5 7 6 8 4 9 2 10 1 11 3 12 13 13
REMARK SMILES IDX 34 14 14 15 33 16 31 17 35 18 15 20 16 21 17 22 18 23 19 25
REMARK SMILES IDX 20 26 21 27 22 28 30 29 23 30 25 31 24 32 26 33 27 34 28 35
REMARK SMILES IDX 29 36 32 37
REMARK H PARENT 35 19 18 24 32 38
REMARK Flexibility Score: inf
ROOT
ATOM      1  C   UNL     1      31.041   9.257   8.763  1.00  0.00     0.034 C 
ENDROOT
BRANCH   1   2
ATOM      2  C   UNL     1      32.117   9.351   9.821  1.00  0.00    -0.031 C 
ATOM      3  C   UNL     1      33.201  10.149   9.755  1.00  0.00    -0.031 C 
BRANCH   3   4
ATOM      4  C   UNL     1      33.513  11.089   8.616  1.00  0.00     0.027 C 
BRANCH   4   5
ATOM      5  C   UNL     1      33.507  12.559   9.060  1.00  0.00     0.016 C 
BRANCH   5   6
ATOM      6  C   UNL     1      32.169  12.959   9.693  1.00  0.00     0.123 C 
BRANCH   6   7
ATOM      7  C   UNL     1      32.393  13.860  10.866  1.00  0.00     0.306 C 
ATOM      8  O   UNL     1      31.528  13.921  11.783  1.00  0.00    -0.252 OA
BRANCH   7   9
ATOM      9  O   UNL     1      33.550  14.647  10.917  1.00  0.00    -0.463 OA
BRANCH   9  10
ATOM     10  C   UNL     1      34.458  14.640  12.018  1.00  0.00     0.170 C 
ATOM     11  C   UNL     1      35.695  15.480  11.686  1.00  0.00     0.052 C 
ATOM     12  C   UNL     1      34.860  13.196  12.320  1.00  0.00     0.052 C 
ENDBRANCH   9  10
ENDBRANCH   7   9
ENDBRANCH   6   7
ENDBRANCH   5   6
ENDBRANCH   4   5
ENDBRANCH   3   4
ENDBRANCH   1   2
BRANCH   1  13
ATOM     13  C   UNL     1      29.793  10.099   9.137  1.00  0.00     0.031 C 
ATOM     14  C   UNL     1      28.513   9.659   8.409  1.00  0.00     0.121 C 
ATOM     15  C   UNL     1      29.441   9.916  10.628  1.00  0.00     0.046 C 
ATOM     16  C   UNL     1      27.942   8.519   9.247  1.00  0.00     0.064 C 
ATOM     17  C   UNL     1      28.434   8.748  10.684  1.00  0.00     0.124 C 
BRANCH  14  18
ATOM     18  O   UNL     1      28.751   9.256   7.086  1.00  0.00    -0.393 OA
ATOM     19  H   UNL     1      27.881   9.309   6.613  1.00  0.00     0.210 HD
ENDBRANCH  14  18
BRANCH  15  20
ATOM     20  C   UNL     1      28.811  11.181  11.177  1.00  0.00    -0.022 C 
ATOM     21  C   UNL     1      28.790  12.328  10.477  1.00  0.00     0.004 C 
BRANCH  21  22
ATOM     22  C   UNL     1      28.164  13.595  11.012  1.00  0.00     0.174 C 
BRANCH  22  23
ATOM     23  O   UNL     1      28.916  14.724  10.634  1.00  0.00    -0.385 OA
ATOM     24  H   UNL     1      28.420  15.534  10.925  1.00  0.00     0.211 HD
ENDBRANCH  22  23
BRANCH  22  25
ATOM     25  C   UNL     1      26.690  13.732  10.584  1.00  0.00     0.265 C 
BRANCH  25  26
ATOM     26  O   UNL     1      26.202  12.501  10.053  1.00  0.00    -0.491 OA
BRANCH  26  27
ATOM     27  C   UNL     1      25.108  11.769  10.544  1.00  0.00     0.120 A 
ATOM     28  C   UNL     1      24.199  12.427  11.379  1.00  0.00     0.046 A 
ATOM     29  C   UNL     1      24.886  10.416  10.217  1.00  0.00     0.059 A 
ATOM     30  C   UNL     1      23.084  11.756  11.883  1.00  0.00     0.004 A 
ATOM     31  C   UNL     1      23.776   9.727  10.740  1.00  0.00     0.059 A 
ATOM     32  C   UNL     1      22.864  10.417  11.558  1.00  0.00     0.013 A 
BRANCH  31  33
ATOM     33  C   UNL     1      23.509   8.295  10.343  1.00  0.00     0.416 C 
ATOM     34  F   UNL     1      22.978   8.232   9.067  1.00  0.00    -0.166 F 
ATOM     35  F   UNL     1      24.697   7.589  10.372  1.00  0.00    -0.166 F 
ATOM     36  F   UNL     1      22.610   7.706  11.215  1.00  0.00    -0.166 F 
ENDBRANCH  31  33
ENDBRANCH  26  27
ENDBRANCH  25  26
ENDBRANCH  22  25
ENDBRANCH  21  22
ENDBRANCH  15  20
BRANCH  17  37
ATOM     37  O   UNL     1      29.074   7.596  11.172  1.00  0.00    -0.392 OA
ATOM     38  H   UNL     1      29.395   7.816  12.085  1.00  0.00     0.210 HD
ENDBRANCH  17  37
ENDBRANCH   1  13
TORSDOF 17
ENDMDL
MODEL 3
REMARK VINA RESULT:    -8.427      1.349      2.010
REMARK INTER + INTRA:         -18.720
REMARK INTER:                 -16.269
REMARK INTRA:                  -2.451
REMARK UNBOUND:                -2.657
REMARK SMILES CC(C)OC(=O)CCC/C=C\C[C@@H]1[C@@H](/C=C/[C@@H](O)COc2cccc(C(F)(F)F)c2)[C@H](O)C[C@@H]1O
REMARK SMILES IDX 12 1 11 2 10 3 9 4 8 5 7 6 5 7 6 8 4 9 2 10 1 11 3 12 13 13
REMARK SMILES IDX 34 14 14 15 33 16 31 17 35 18 15 20 16 21 17 22 18 23 19 25
REMARK SMILES IDX 20 26 21 27 22 28 30 29 23 30 25 31 24 32 26 33 27 34 28 35
REMARK SMILES IDX 29 36 32 37
REMARK H PARENT 35 19 18 24 32 38
REMARK Flexibility Score: inf
ROOT
ATOM      1  C   UNL     1      31.001   9.207   8.579  1.00  0.00     0.034 C 
ENDROOT
BRANCH   1   2
ATOM      2  C   UNL     1      31.934   8.930   9.736  1.00  0.00    -0.031 C 
ATOM      3  C   UNL     1      33.246   8.644   9.622  1.00  0.00    -0.031 C 
BRANCH   3   4
ATOM      4  C   UNL     1      34.002   8.561   8.318  1.00  0.00     0.027 C 
BRANCH   4   5
ATOM      5  C   UNL     1      35.276   9.419   8.332  1.00  0.00     0.016 C 
BRANCH   5   6
ATOM      6  C   UNL     1      36.030   9.300   9.663  1.00  0.00     0.123 C 
BRANCH   6   7
ATOM      7  C   UNL     1      36.244  10.652  10.266  1.00  0.00     0.306 C 
ATOM      8  O   UNL     1      37.344  11.247  10.095  1.00  0.00    -0.252 OA
BRANCH   7   9
ATOM      9  O   UNL     1      35.229  11.228  11.039  1.00  0.00    -0.463 OA
BRANCH   9  10
ATOM     10  C   UNL     1      34.649  12.500  10.754  1.00  0.00     0.170 C 
ATOM     11  C   UNL     1      34.623  13.363  12.020  1.00  0.00     0.052 C 
ATOM     12  C   UNL     1      33.232  12.292  10.221  1.00  0.00     0.052 C 
ENDBRANCH   9  10
ENDBRANCH   7   9
ENDBRANCH   6   7
ENDBRANCH   5   6
ENDBRANCH   4   5
ENDBRANCH   3   4
ENDBRANCH   1   2
BRANCH   1  13
ATOM     13  C   UNL     1      29.815  10.112   9.002  1.00  0.00     0.031 C 
ATOM     14  C   UNL     1      28.480   9.724   8.345  1.00  0.00     0.121 C 
ATOM     15  C   UNL     1      29.529   9.963  10.511  1.00  0.00     0.046 C 
ATOM     16  C   UNL     1      27.900   8.623   9.225  1.00  0.00     0.064 C 
ATOM     17  C   UNL     1      28.473   8.845  10.633  1.00  0.00     0.124 C 
BRANCH  14  18
ATOM     18  O   UNL     1      28.633   9.294   7.017  1.00  0.00    -0.393 OA
ATOM     19  H   UNL     1      28.827   8.322   7.055  1.00  0.00     0.210 HD
ENDBRANCH  14  18
BRANCH  15  20
ATOM     20  C   UNL     1      28.987  11.263  11.072  1.00  0.00    -0.022 C 
ATOM     21  C   UNL     1      28.736  12.326  10.290  1.00  0.00     0.004 C 
BRANCH  21  22
ATOM     22  C   UNL     1      28.194  13.627  10.836  1.00  0.00     0.174 C 
BRANCH  22  23
ATOM     23  O   UNL     1      28.797  14.728  10.200  1.00  0.00    -0.385 OA
ATOM     24  H   UNL     1      29.044  15.389  10.899  1.00  0.00     0.211 HD
ENDBRANCH  22  23
BRANCH  22  25
ATOM     25  C   UNL     1      26.657  13.695  10.742  1.00  0.00     0.265 C 
BRANCH  25  26
ATOM     26  O   UNL     1      26.138  12.517  10.125  1.00  0.00    -0.491 OA
BRANCH  26  27
ATOM     27  C   UNL     1      25.055  11.753  10.591  1.00  0.00     0.120 A 
ATOM     28  C   UNL     1      24.118  12.379  11.419  1.00  0.00     0.046 A 
ATOM     29  C   UNL     1      24.872  10.398  10.247  1.00  0.00     0.059 A 
ATOM     30  C   UNL     1      23.012  11.675  11.898  1.00  0.00     0.004 A 
ATOM     31  C   UNL     1      23.772   9.676  10.745  1.00  0.00     0.059 A 
ATOM     32  C   UNL     1      22.831  10.335  11.556  1.00  0.00     0.013 A 
BRANCH  31  33
ATOM     33  C   UNL     1      23.548   8.243  10.330  1.00  0.00     0.416 C 
ATOM     34  F   UNL     1      22.688   7.607  11.209  1.00  0.00    -0.166 F 
ATOM     35  F   UNL     1      22.995   8.220   9.064  1.00  0.00    -0.166 F 
ATOM     36  F   UNL     1      24.744   7.546  10.315  1.00  0.00    -0.166 F 
ENDBRANCH  31  33
ENDBRANCH  26  27
ENDBRANCH  25  26
ENDBRANCH  22  25
ENDBRANCH  21  22
ENDBRANCH  15  20
BRANCH  17  37
ATOM     37  O   UNL     1      29.081   7.669  11.106  1.00  0.00    -0.392 OA
ATOM     38  H   UNL     1      29.260   7.812  12.072  1.00  0.00     0.210 HD
ENDBRANCH  17  37
ENDBRANCH   1  13
TORSDOF 17
ENDMDL
MODEL 4
REMARK VINA RESULT:    -8.365      3.643      5.496
REMARK INTER + INTRA:         -18.601
REMARK INTER:                 -16.563
REMARK INTRA:                  -2.038
REMARK UNBOUND:                -2.657
REMARK SMILES CC(C)OC(=O)CCC/C=C\C[C@@H]1[C@@H](/C=C/[C@@H](O)COc2cccc(C(F)(F)F)c2)[C@H](O)C[C@@H]1O
REMARK SMILES IDX 12 1 11 2 10 3 9 4 8 5 7 6 5 7 6 8 4 9 2 10 1 11 3 12 13 13
REMARK SMILES IDX 34 14 14 15 33 16 31 17 35 18 15 20 16 21 17 22 18 23 19 25
REMARK SMILES IDX 20 26 21 27 22 28 30 29 23 30 25 31 24 32 26 33 27 34 28 35
REMARK SMILES IDX 29 36 32 37
REMARK H PARENT 35 19 18 24 32 38
REMARK Flexibility Score: inf
ROOT
ATOM      1  C   UNL     1      30.754   7.263   9.240  1.00  0.00     0.034 C 
ENDROOT
BRANCH   1   2
ATOM      2  C   UNL     1      32.219   7.616   9.112  1.00  0.00    -0.031 C 
ATOM      3  C   UNL     1      33.193   6.760   8.745  1.00  0.00    -0.031 C 
BRANCH   3   4
ATOM      4  C   UNL     1      32.979   5.308   8.393  1.00  0.00     0.027 C 
BRANCH   4   5
ATOM      5  C   UNL     1      34.018   4.798   7.384  1.00  0.00     0.016 C 
BRANCH   5   6
ATOM      6  C   UNL     1      35.115   5.836   7.119  1.00  0.00     0.123 C 
BRANCH   6   7
ATOM      7  C   UNL     1      35.141   6.212   5.671  1.00  0.00     0.306 C 
ATOM      8  O   UNL     1      34.555   7.261   5.286  1.00  0.00    -0.252 OA
BRANCH   7   9
ATOM      9  O   UNL     1      35.793   5.376   4.756  1.00  0.00    -0.463 OA
BRANCH   9  10
ATOM     10  C   UNL     1      35.108   4.599   3.775  1.00  0.00     0.170 C 
ATOM     11  C   UNL     1      35.152   3.115   4.153  1.00  0.00     0.052 C 
ATOM     12  C   UNL     1      35.768   4.823   2.415  1.00  0.00     0.052 C 
ENDBRANCH   9  10
ENDBRANCH   7   9
ENDBRANCH   6   7
ENDBRANCH   5   6
ENDBRANCH   4   5
ENDBRANCH   3   4
ENDBRANCH   1   2
BRANCH   1  13
ATOM     13  C   UNL     1      29.849   8.516   9.112  1.00  0.00     0.031 C 
ATOM     14  C   UNL     1      28.383   8.184   8.789  1.00  0.00     0.121 C 
ATOM     15  C   UNL     1      29.760   9.262  10.460  1.00  0.00     0.046 C 
ATOM     16  C   UNL     1      27.725   7.898  10.135  1.00  0.00     0.064 C 
ATOM     17  C   UNL     1      28.529   8.680  11.186  1.00  0.00     0.124 C 
BRANCH  14  18
ATOM     18  O   UNL     1      28.252   7.097   7.911  1.00  0.00    -0.393 OA
ATOM     19  H   UNL     1      27.500   7.314   7.302  1.00  0.00     0.210 HD
ENDBRANCH  14  18
BRANCH  15  20
ATOM     20  C   UNL     1      29.578  10.749  10.225  1.00  0.00    -0.022 C 
ATOM     21  C   UNL     1      28.744  11.491  10.973  1.00  0.00     0.004 C 
BRANCH  21  22
ATOM     22  C   UNL     1      28.555  12.974  10.749  1.00  0.00     0.174 C 
BRANCH  22  23
ATOM     23  O   UNL     1      29.400  13.437   9.723  1.00  0.00    -0.385 OA
ATOM     24  H   UNL     1      29.391  12.766   8.990  1.00  0.00     0.211 HD
ENDBRANCH  22  23
BRANCH  22  25
ATOM     25  C   UNL     1      27.082  13.328  10.467  1.00  0.00     0.265 C 
BRANCH  25  26
ATOM     26  O   UNL     1      26.391  12.211   9.909  1.00  0.00    -0.491 OA
BRANCH  26  27
ATOM     27  C   UNL     1      25.246  11.599  10.447  1.00  0.00     0.120 A 
ATOM     28  C   UNL     1      24.408  12.372  11.257  1.00  0.00     0.046 A 
ATOM     29  C   UNL     1      24.906  10.255  10.190  1.00  0.00     0.059 A 
ATOM     30  C   UNL     1      23.246  11.823  11.804  1.00  0.00     0.004 A 
ATOM     31  C   UNL     1      23.750   9.689  10.757  1.00  0.00     0.059 A 
ATOM     32  C   UNL     1      22.911  10.494  11.548  1.00  0.00     0.013 A 
BRANCH  31  33
ATOM     33  C   UNL     1      23.359   8.268  10.435  1.00  0.00     0.416 C 
ATOM     34  F   UNL     1      24.464   7.435  10.473  1.00  0.00    -0.166 F 
ATOM     35  F   UNL     1      22.434   7.831  11.365  1.00  0.00    -0.166 F 
ATOM     36  F   UNL     1      22.801   8.189   9.171  1.00  0.00    -0.166 F 
ENDBRANCH  31  33
ENDBRANCH  26  27
ENDBRANCH  25  26
ENDBRANCH  22  25
ENDBRANCH  21  22
ENDBRANCH  15  20
BRANCH  17  37
ATOM     37  O   UNL     1      28.950   7.823  12.217  1.00  0.00    -0.392 OA
ATOM     38  H   UNL     1      29.099   8.394  13.016  1.00  0.00     0.210 HD
ENDBRANCH  17  37
ENDBRANCH   1  13
TORSDOF 17
ENDMDL
MODEL 5
REMARK VINA RESULT:    -8.198      3.200      5.148
REMARK INTER + INTRA:         -18.283
REMARK INTER:                 -16.301
REMARK INTRA:                  -1.982
REMARK UNBOUND:                -2.657
REMARK SMILES CC(C)OC(=O)CCC/C=C\C[C@@H]1[C@@H](/C=C/[C@@H](O)COc2cccc(C(F)(F)F)c2)[C@H](O)C[C@@H]1O
REMARK SMILES IDX 12 1 11 2 10 3 9 4 8 5 7 6 5 7 6 8 4 9 2 10 1 11 3 12 13 13
REMARK SMILES IDX 34 14 14 15 33 16 31 17 35 18 15 20 16 21 17 22 18 23 19 25
REMARK SMILES IDX 20 26 21 27 22 28 30 29 23 30 25 31 24 32 26 33 27 34 28 35
REMARK SMILES IDX 29 36 32 37
REMARK H PARENT 35 19 18 24 32 38
REMARK Flexibility Score: inf
ROOT
ATOM      1  C   UNL     1      31.034   9.209   8.678  1.00  0.00     0.034 C 
ENDROOT
BRANCH   1   2
ATOM      2  C   UNL     1      32.144   9.270   9.703  1.00  0.00    -0.031 C 
ATOM      3  C   UNL     1      33.440   8.996   9.460  1.00  0.00    -0.031 C 
BRANCH   3   4
ATOM      4  C   UNL     1      34.000   8.590   8.118  1.00  0.00     0.027 C 
BRANCH   4   5
ATOM      5  C   UNL     1      34.523   7.146   8.123  1.00  0.00     0.016 C 
BRANCH   5   6
ATOM      6  C   UNL     1      33.440   6.144   7.702  1.00  0.00     0.123 C 
BRANCH   6   7
ATOM      7  C   UNL     1      33.871   4.746   8.014  1.00  0.00     0.306 C 
ATOM      8  O   UNL     1      33.053   3.941   8.540  1.00  0.00    -0.252 OA
BRANCH   7   9
ATOM      9  O   UNL     1      35.189   4.357   7.744  1.00  0.00    -0.463 OA
BRANCH   9  10
ATOM     10  C   UNL     1      35.615   3.845   6.482  1.00  0.00     0.170 C 
ATOM     11  C   UNL     1      35.777   2.323   6.558  1.00  0.00     0.052 C 
ATOM     12  C   UNL     1      36.940   4.504   6.101  1.00  0.00     0.052 C 
ENDBRANCH   9  10
ENDBRANCH   7   9
ENDBRANCH   6   7
ENDBRANCH   5   6
ENDBRANCH   4   5
ENDBRANCH   3   4
ENDBRANCH   1   2
BRANCH   1  13
ATOM     13  C   UNL     1      29.855  10.145   9.050  1.00  0.00     0.031 C 
ATOM     14  C   UNL     1      28.537   9.783   8.348  1.00  0.00     0.121 C 
ATOM     15  C   UNL     1      29.512  10.016  10.549  1.00  0.00     0.046 C 
ATOM     16  C   UNL     1      27.898   8.704   9.215  1.00  0.00     0.064 C 
ATOM     17  C   UNL     1      28.425   8.924  10.641  1.00  0.00     0.124 C 
BRANCH  14  18
ATOM     18  O   UNL     1      28.727   9.339   7.030  1.00  0.00    -0.393 OA
ATOM     19  H   UNL     1      29.676   9.521   6.804  1.00  0.00     0.210 HD
ENDBRANCH  14  18
BRANCH  15  20
ATOM     20  C   UNL     1      28.980  11.333  11.080  1.00  0.00    -0.022 C 
ATOM     21  C   UNL     1      28.657  12.351  10.265  1.00  0.00     0.004 C 
BRANCH  21  22
ATOM     22  C   UNL     1      28.126  13.668  10.781  1.00  0.00     0.174 C 
BRANCH  22  23
ATOM     23  O   UNL     1      28.670  14.746  10.059  1.00  0.00    -0.385 OA
ATOM     24  H   UNL     1      29.588  14.914  10.402  1.00  0.00     0.211 HD
ENDBRANCH  22  23
BRANCH  22  25
ATOM     25  C   UNL     1      26.585  13.708  10.776  1.00  0.00     0.265 C 
BRANCH  25  26
ATOM     26  O   UNL     1      26.053  12.555  10.125  1.00  0.00    -0.491 OA
BRANCH  26  27
ATOM     27  C   UNL     1      24.990  11.763  10.592  1.00  0.00     0.120 A 
ATOM     28  C   UNL     1      24.038  12.365  11.420  1.00  0.00     0.046 A 
ATOM     29  C   UNL     1      24.841  10.405  10.247  1.00  0.00     0.059 A 
ATOM     30  C   UNL     1      22.950  11.633  11.900  1.00  0.00     0.004 A 
ATOM     31  C   UNL     1      23.760   9.655  10.746  1.00  0.00     0.059 A 
ATOM     32  C   UNL     1      22.803  10.289  11.558  1.00  0.00     0.013 A 
BRANCH  31  33
ATOM     33  C   UNL     1      23.572   8.216  10.330  1.00  0.00     0.416 C 
ATOM     34  F   UNL     1      22.665   7.581  11.161  1.00  0.00    -0.166 F 
ATOM     35  F   UNL     1      23.097   8.178   9.032  1.00  0.00    -0.166 F 
ATOM     36  F   UNL     1      24.771   7.529  10.394  1.00  0.00    -0.166 F 
ENDBRANCH  31  33
ENDBRANCH  26  27
ENDBRANCH  25  26
ENDBRANCH  22  25
ENDBRANCH  21  22
ENDBRANCH  15  20
BRANCH  17  37
ATOM     37  O   UNL     1      28.988   7.739  11.144  1.00  0.00    -0.392 OA
ATOM     38  H   UNL     1      29.500   7.330  10.398  1.00  0.00     0.210 HD
ENDBRANCH  17  37
ENDBRANCH   1  13
TORSDOF 17
ENDMDL
MODEL 6
REMARK VINA RESULT:    -8.196      1.163      1.749
REMARK INTER + INTRA:         -18.280
REMARK INTER:                 -15.516
REMARK INTRA:                  -2.764
REMARK UNBOUND:                -2.657
REMARK SMILES CC(C)OC(=O)CCC/C=C\C[C@@H]1[C@@H](/C=C/[C@@H](O)COc2cccc(C(F)(F)F)c2)[C@H](O)C[C@@H]1O
REMARK SMILES IDX 12 1 11 2 10 3 9 4 8 5 7 6 5 7 6 8 4 9 2 10 1 11 3 12 13 13
REMARK SMILES IDX 34 14 14 15 33 16 31 17 35 18 15 20 16 21 17 22 18 23 19 25
REMARK SMILES IDX 20 26 21 27 22 28 30 29 23 30 25 31 24 32 26 33 27 34 28 35
REMARK SMILES IDX 29 36 32 37
REMARK H PARENT 35 19 18 24 32 38
REMARK Flexibility Score: inf
ROOT
ATOM      1  C   UNL     1      31.152   9.552   9.004  1.00  0.00     0.034 C 
ENDROOT
BRANCH   1   2
ATOM      2  C   UNL     1      32.084   9.639  10.191  1.00  0.00    -0.031 C 
ATOM      3  C   UNL     1      33.018  10.593  10.376  1.00  0.00    -0.031 C 
BRANCH   3   4
ATOM      4  C   UNL     1      33.280  11.738   9.429  1.00  0.00     0.027 C 
BRANCH   4   5
ATOM      5  C   UNL     1      32.297  12.900   9.639  1.00  0.00     0.016 C 
BRANCH   5   6
ATOM      6  C   UNL     1      32.623  13.702  10.905  1.00  0.00     0.123 C 
BRANCH   6   7
ATOM      7  C   UNL     1      31.673  14.848  11.058  1.00  0.00     0.306 C 
ATOM      8  O   UNL     1      31.311  15.500  10.040  1.00  0.00    -0.252 OA
BRANCH   7   9
ATOM      9  O   UNL     1      31.221  15.200  12.336  1.00  0.00    -0.463 OA
BRANCH   9  10
ATOM     10  C   UNL     1      31.201  16.542  12.820  1.00  0.00     0.170 C 
ATOM     11  C   UNL     1      32.613  17.135  12.787  1.00  0.00     0.052 C 
ATOM     12  C   UNL     1      30.654  16.546  14.247  1.00  0.00     0.052 C 
ENDBRANCH   9  10
ENDBRANCH   7   9
ENDBRANCH   6   7
ENDBRANCH   5   6
ENDBRANCH   4   5
ENDBRANCH   3   4
ENDBRANCH   1   2
BRANCH   1  13
ATOM     13  C   UNL     1      29.859  10.380   9.227  1.00  0.00     0.031 C 
ATOM     14  C   UNL     1      28.665   9.892   8.392  1.00  0.00     0.121 C 
ATOM     15  C   UNL     1      29.365  10.234  10.682  1.00  0.00     0.046 C 
ATOM     16  C   UNL     1      28.034   8.767   9.205  1.00  0.00     0.064 C 
ATOM     17  C   UNL     1      28.378   9.048  10.676  1.00  0.00     0.124 C 
BRANCH  14  18
ATOM     18  O   UNL     1      29.039   9.455   7.112  1.00  0.00    -0.393 OA
ATOM     19  H   UNL     1      30.030   9.455   7.092  1.00  0.00     0.210 HD
ENDBRANCH  14  18
BRANCH  15  20
ATOM     20  C   UNL     1      28.662  11.502  11.126  1.00  0.00    -0.022 C 
ATOM     21  C   UNL     1      28.675  12.621  10.382  1.00  0.00     0.004 C 
BRANCH  21  22
ATOM     22  C   UNL     1      27.978  13.891  10.813  1.00  0.00     0.174 C 
BRANCH  22  23
ATOM     23  O   UNL     1      28.466  14.999  10.096  1.00  0.00    -0.385 OA
ATOM     24  H   UNL     1      28.008  15.812  10.439  1.00  0.00     0.211 HD
ENDBRANCH  22  23
BRANCH  22  25
ATOM     25  C   UNL     1      26.446  13.773  10.692  1.00  0.00     0.265 C 
BRANCH  25  26
ATOM     26  O   UNL     1      26.077  12.501  10.160  1.00  0.00    -0.491 OA
BRANCH  26  27
ATOM     27  C   UNL     1      25.004  11.706  10.597  1.00  0.00     0.120 A 
ATOM     28  C   UNL     1      24.041  12.298  11.421  1.00  0.00     0.046 A 
ATOM     29  C   UNL     1      24.855  10.354  10.226  1.00  0.00     0.059 A 
ATOM     30  C   UNL     1      22.943  11.562  11.870  1.00  0.00     0.004 A 
ATOM     31  C   UNL     1      23.763   9.601  10.694  1.00  0.00     0.059 A 
ATOM     32  C   UNL     1      22.796  10.225  11.502  1.00  0.00     0.013 A 
BRANCH  31  33
ATOM     33  C   UNL     1      23.575   8.171  10.250  1.00  0.00     0.416 C 
ATOM     34  F   UNL     1      24.796   7.527  10.144  1.00  0.00    -0.166 F 
ATOM     35  F   UNL     1      22.795   7.507  11.178  1.00  0.00    -0.166 F 
ATOM     36  F   UNL     1      22.952   8.121   9.016  1.00  0.00    -0.166 F 
ENDBRANCH  31  33
ENDBRANCH  26  27
ENDBRANCH  25  26
ENDBRANCH  22  25
ENDBRANCH  21  22
ENDBRANCH  15  20
BRANCH  17  37
ATOM     37  O   UNL     1      28.986   7.924  11.260  1.00  0.00    -0.392 OA
ATOM     38  H   UNL     1      29.718   7.649  10.649  1.00  0.00     0.210 HD
ENDBRANCH  17  37
ENDBRANCH   1  13
TORSDOF 17
ENDMDL
MODEL 7
REMARK VINA RESULT:    -8.160      3.345      6.086
REMARK INTER + INTRA:         -18.211
REMARK INTER:                 -16.039
REMARK INTRA:                  -2.172
REMARK UNBOUND:                -2.657
REMARK SMILES CC(C)OC(=O)CCC/C=C\C[C@@H]1[C@@H](/C=C/[C@@H](O)COc2cccc(C(F)(F)F)c2)[C@H](O)C[C@@H]1O
REMARK SMILES IDX 12 1 11 2 10 3 9 4 8 5 7 6 5 7 6 8 4 9 2 10 1 11 3 12 13 13
REMARK SMILES IDX 34 14 14 15 33 16 31 17 35 18 15 20 16 21 17 22 18 23 19 25
REMARK SMILES IDX 20 26 21 27 22 28 30 29 23 30 25 31 24 32 26 33 27 34 28 35
REMARK SMILES IDX 29 36 32 37
REMARK H PARENT 35 19 18 24 32 38
REMARK Flexibility Score: inf
ROOT
ATOM      1  C   UNL     1      34.219  12.041   9.448  1.00  0.00     0.034 C 
ENDROOT
BRANCH   1   2
ATOM      2  C   UNL     1      35.285  11.396  10.303  1.00  0.00    -0.031 C 
ATOM      3  C   UNL     1      35.968  10.279   9.981  1.00  0.00    -0.031 C 
BRANCH   3   4
ATOM      4  C   UNL     1      35.784   9.494   8.705  1.00  0.00     0.027 C 
BRANCH   4   5
ATOM      5  C   UNL     1      34.737   8.381   8.856  1.00  0.00     0.016 C 
BRANCH   5   6
ATOM      6  C   UNL     1      34.658   7.497   7.605  1.00  0.00     0.123 C 
BRANCH   6   7
ATOM      7  C   UNL     1      33.694   6.373   7.818  1.00  0.00     0.306 C 
ATOM      8  O   UNL     1      32.811   6.467   8.715  1.00  0.00    -0.252 OA
BRANCH   7   9
ATOM      9  O   UNL     1      33.804   5.216   7.037  1.00  0.00    -0.463 OA
BRANCH   9  10
ATOM     10  C   UNL     1      34.783   4.203   7.264  1.00  0.00     0.170 C 
ATOM     11  C   UNL     1      35.125   3.496   5.950  1.00  0.00     0.052 C 
ATOM     12  C   UNL     1      34.235   3.204   8.282  1.00  0.00     0.052 C 
ENDBRANCH   9  10
ENDBRANCH   7   9
ENDBRANCH   6   7
ENDBRANCH   5   6
ENDBRANCH   4   5
ENDBRANCH   3   4
ENDBRANCH   1   2
BRANCH   1  13
ATOM     13  C   UNL     1      32.795  11.587   9.864  1.00  0.00     0.031 C 
ATOM     14  C   UNL     1      31.776  12.737   9.924  1.00  0.00     0.121 C 
ATOM     15  C   UNL     1      32.199  10.632   8.810  1.00  0.00     0.046 C 
ATOM     16  C   UNL     1      31.262  12.897   8.497  1.00  0.00     0.064 C 
ATOM     17  C   UNL     1      31.420  11.525   7.823  1.00  0.00     0.124 C 
BRANCH  14  18
ATOM     18  O   UNL     1      32.332  13.932  10.407  1.00  0.00    -0.393 OA
ATOM     19  H   UNL     1      33.188  13.689  10.845  1.00  0.00     0.210 HD
ENDBRANCH  14  18
BRANCH  15  20
ATOM     20  C   UNL     1      31.264   9.639   9.472  1.00  0.00    -0.022 C 
ATOM     21  C   UNL     1      30.391   8.902   8.765  1.00  0.00     0.004 C 
BRANCH  21  22
ATOM     22  C   UNL     1      29.455   7.908   9.413  1.00  0.00     0.174 C 
BRANCH  22  23
ATOM     23  O   UNL     1      30.155   7.058  10.290  1.00  0.00    -0.385 OA
ATOM     24  H   UNL     1      29.942   7.334  11.220  1.00  0.00     0.211 HD
ENDBRANCH  22  23
BRANCH  22  25
ATOM     25  C   UNL     1      28.280   8.606  10.125  1.00  0.00     0.265 C 
BRANCH  25  26
ATOM     26  O   UNL     1      27.049   8.331   9.455  1.00  0.00    -0.491 OA
BRANCH  26  27
ATOM     27  C   UNL     1      25.776   8.758   9.866  1.00  0.00     0.120 A 
ATOM     28  C   UNL     1      24.727   7.834   9.820  1.00  0.00     0.046 A 
ATOM     29  C   UNL     1      25.521  10.064  10.331  1.00  0.00     0.059 A 
ATOM     30  C   UNL     1      23.443   8.196  10.232  1.00  0.00     0.004 A 
ATOM     31  C   UNL     1      24.225  10.443  10.727  1.00  0.00     0.059 A 
ATOM     32  C   UNL     1      23.193   9.488  10.694  1.00  0.00     0.013 A 
BRANCH  31  33
ATOM     33  C   UNL     1      23.968  11.824  11.278  1.00  0.00     0.416 C 
ATOM     34  F   UNL     1      24.274  11.877  12.627  1.00  0.00    -0.166 F 
ATOM     35  F   UNL     1      24.755  12.736  10.601  1.00  0.00    -0.166 F 
ATOM     36  F   UNL     1      22.637  12.171  11.123  1.00  0.00    -0.166 F 
ENDBRANCH  31  33
ENDBRANCH  26  27
ENDBRANCH  25  26
ENDBRANCH  22  25
ENDBRANCH  21  22
ENDBRANCH  15  20
BRANCH  17  37
ATOM     37  O   UNL     1      32.144  11.649   6.624  1.00  0.00    -0.392 OA
ATOM     38  H   UNL     1      33.100  11.731   6.879  1.00  0.00     0.210 HD
ENDBRANCH  17  37
ENDBRANCH   1  13
TORSDOF 17
ENDMDL
MODEL 8
REMARK VINA RESULT:    -8.119      1.902      4.535
REMARK INTER + INTRA:         -18.132
REMARK INTER:                 -15.783
REMARK INTRA:                  -2.349
REMARK UNBOUND:                -2.657
REMARK SMILES CC(C)OC(=O)CCC/C=C\C[C@@H]1[C@@H](/C=C/[C@@H](O)COc2cccc(C(F)(F)F)c2)[C@H](O)C[C@@H]1O
REMARK SMILES IDX 12 1 11 2 10 3 9 4 8 5 7 6 5 7 6 8 4 9 2 10 1 11 3 12 13 13
REMARK SMILES IDX 34 14 14 15 33 16 31 17 35 18 15 20 16 21 17 22 18 23 19 25
REMARK SMILES IDX 20 26 21 27 22 28 30 29 23 30 25 31 24 32 26 33 27 34 28 35
REMARK SMILES IDX 29 36 32 37
REMARK H PARENT 35 19 18 24 32 38
REMARK Flexibility Score: inf
ROOT
ATOM      1  C   UNL     1      34.704  12.438   9.925  1.00  0.00     0.034 C 
ENDROOT
BRANCH   1   2
ATOM      2  C   UNL     1      34.634  12.463  11.435  1.00  0.00    -0.031 C 
ATOM      3  C   UNL     1      34.528  13.575  12.188  1.00  0.00    -0.031 C 
BRANCH   3   4
ATOM      4  C   UNL     1      34.454  14.982  11.644  1.00  0.00     0.027 C 
BRANCH   4   5
ATOM      5  C   UNL     1      33.101  15.645  11.940  1.00  0.00     0.016 C 
BRANCH   5   6
ATOM      6  C   UNL     1      31.938  14.891  11.281  1.00  0.00     0.123 C 
BRANCH   6   7
ATOM      7  C   UNL     1      30.898  14.542  12.298  1.00  0.00     0.306 C 
ATOM      8  O   UNL     1      31.087  14.830  13.512  1.00  0.00    -0.252 OA
BRANCH   7   9
ATOM      9  O   UNL     1      29.737  13.872  11.891  1.00  0.00    -0.463 OA
BRANCH   9  10
ATOM     10  C   UNL     1      29.239  13.903  10.554  1.00  0.00     0.170 C 
ATOM     11  C   UNL     1      27.713  14.032  10.563  1.00  0.00     0.052 C 
ATOM     12  C   UNL     1      29.662  12.621   9.838  1.00  0.00     0.052 C 
ENDBRANCH   9  10
ENDBRANCH   7   9
ENDBRANCH   6   7
ENDBRANCH   5   6
ENDBRANCH   4   5
ENDBRANCH   3   4
ENDBRANCH   1   2
BRANCH   1  13
ATOM     13  C   UNL     1      33.556  11.594   9.311  1.00  0.00     0.031 C 
ATOM     14  C   UNL     1      33.716  11.343   7.803  1.00  0.00     0.121 C 
ATOM     15  C   UNL     1      33.545  10.173   9.913  1.00  0.00     0.046 C 
ATOM     16  C   UNL     1      34.620  10.121   7.688  1.00  0.00     0.064 C 
ATOM     17  C   UNL     1      34.422   9.312   8.980  1.00  0.00     0.124 C 
BRANCH  14  18
ATOM     18  O   UNL     1      34.254  12.447   7.123  1.00  0.00    -0.393 OA
ATOM     19  H   UNL     1      33.487  12.941   6.734  1.00  0.00     0.210 HD
ENDBRANCH  14  18
BRANCH  15  20
ATOM     20  C   UNL     1      32.129   9.631   9.951  1.00  0.00    -0.022 C 
ATOM     21  C   UNL     1      31.793   8.474   9.357  1.00  0.00     0.004 C 
BRANCH  21  22
ATOM     22  C   UNL     1      30.386   7.924   9.389  1.00  0.00     0.174 C 
BRANCH  22  23
ATOM     23  O   UNL     1      30.249   6.957  10.403  1.00  0.00    -0.385 OA
ATOM     24  H   UNL     1      29.445   6.410  10.199  1.00  0.00     0.211 HD
ENDBRANCH  22  23
BRANCH  22  25
ATOM     25  C   UNL     1      29.335   9.042   9.534  1.00  0.00     0.265 C 
BRANCH  25  26
ATOM     26  O   UNL     1      28.037   8.563   9.180  1.00  0.00    -0.491 OA
BRANCH  26  27
ATOM     27  C   UNL     1      26.815   9.094   9.625  1.00  0.00     0.120 A 
ATOM     28  C   UNL     1      26.753  10.466   9.889  1.00  0.00     0.046 A 
ATOM     29  C   UNL     1      25.658   8.307   9.797  1.00  0.00     0.059 A 
ATOM     30  C   UNL     1      25.560  11.053  10.315  1.00  0.00     0.004 A 
ATOM     31  C   UNL     1      24.459   8.889  10.249  1.00  0.00     0.059 A 
ATOM     32  C   UNL     1      24.416  10.274  10.485  1.00  0.00     0.013 A 
BRANCH  31  33
ATOM     33  C   UNL     1      23.208   8.055  10.379  1.00  0.00     0.416 C 
ATOM     34  F   UNL     1      22.317   8.643  11.260  1.00  0.00    -0.166 F 
ATOM     35  F   UNL     1      22.608   7.943   9.139  1.00  0.00    -0.166 F 
ATOM     36  F   UNL     1      23.511   6.790  10.851  1.00  0.00    -0.166 F 
ENDBRANCH  31  33
ENDBRANCH  26  27
ENDBRANCH  25  26
ENDBRANCH  22  25
ENDBRANCH  21  22
ENDBRANCH  15  20
BRANCH  17  37
ATOM     37  O   UNL     1      35.661   9.060   9.595  1.00  0.00    -0.392 OA
ATOM     38  H   UNL     1      35.882   8.111   9.407  1.00  0.00     0.210 HD
ENDBRANCH  17  37
ENDBRANCH   1  13
TORSDOF 17
ENDMDL
MODEL 9
REMARK VINA RESULT:    -8.060      2.980      4.462
REMARK INTER + INTRA:         -18.020
REMARK INTER:                 -14.552
REMARK INTRA:                  -3.468
REMARK UNBOUND:                -2.657
REMARK SMILES CC(C)OC(=O)CCC/C=C\C[C@@H]1[C@@H](/C=C/[C@@H](O)COc2cccc(C(F)(F)F)c2)[C@H](O)C[C@@H]1O
REMARK SMILES IDX 12 1 11 2 10 3 9 4 8 5 7 6 5 7 6 8 4 9 2 10 1 11 3 12 13 13
REMARK SMILES IDX 34 14 14 15 33 16 31 17 35 18 15 20 16 21 17 22 18 23 19 25
REMARK SMILES IDX 20 26 21 27 22 28 30 29 23 30 25 31 24 32 26 33 27 34 28 35
REMARK SMILES IDX 29 36 32 37
REMARK H PARENT 35 19 18 24 32 38
REMARK Flexibility Score: inf
ROOT
ATOM      1  C   UNL     1      32.248  10.246  10.435  1.00  0.00     0.034 C 
ENDROOT
BRANCH   1   2
ATOM      2  C   UNL     1      32.686   9.025   9.658  1.00  0.00    -0.031 C 
ATOM      3  C   UNL     1      33.874   8.887   9.036  1.00  0.00    -0.031 C 
BRANCH   3   4
ATOM      4  C   UNL     1      34.966   9.929   9.021  1.00  0.00     0.027 C 
BRANCH   4   5
ATOM      5  C   UNL     1      35.019  10.693   7.690  1.00  0.00     0.016 C 
BRANCH   5   6
ATOM      6  C   UNL     1      34.975  12.212   7.901  1.00  0.00     0.123 C 
BRANCH   6   7
ATOM      7  C   UNL     1      33.608  12.641   8.333  1.00  0.00     0.306 C 
ATOM      8  O   UNL     1      32.614  12.406   7.592  1.00  0.00    -0.252 OA
BRANCH   7   9
ATOM      9  O   UNL     1      33.455  13.326   9.545  1.00  0.00    -0.463 OA
BRANCH   9  10
ATOM     10  C   UNL     1      34.543  13.641  10.414  1.00  0.00     0.170 C 
ATOM     11  C   UNL     1      34.577  12.662  11.592  1.00  0.00     0.052 C 
ATOM     12  C   UNL     1      34.377  15.075  10.916  1.00  0.00     0.052 C 
ENDBRANCH   9  10
ENDBRANCH   7   9
ENDBRANCH   6   7
ENDBRANCH   5   6
ENDBRANCH   4   5
ENDBRANCH   3   4
ENDBRANCH   1   2
BRANCH   1  13
ATOM     13  C   UNL     1      30.722  10.234  10.710  1.00  0.00     0.031 C 
ATOM     14  C   UNL     1      30.077  11.629  10.665  1.00  0.00     0.121 C 
ATOM     15  C   UNL     1      29.976   9.457   9.605  1.00  0.00     0.046 C 
ATOM     16  C   UNL     1      29.767  11.884   9.194  1.00  0.00     0.064 C 
ATOM     17  C   UNL     1      29.584  10.505   8.543  1.00  0.00     0.124 C 
BRANCH  14  18
ATOM     18  O   UNL     1      30.907  12.628  11.197  1.00  0.00    -0.393 OA
ATOM     19  H   UNL     1      31.656  12.744  10.557  1.00  0.00     0.210 HD
ENDBRANCH  14  18
BRANCH  15  20
ATOM     20  C   UNL     1      28.736   8.796  10.175  1.00  0.00    -0.022 C 
ATOM     21  C   UNL     1      27.679   8.485   9.407  1.00  0.00     0.004 C 
BRANCH  21  22
ATOM     22  C   UNL     1      26.438   7.825   9.962  1.00  0.00     0.174 C 
BRANCH  22  23
ATOM     23  O   UNL     1      26.694   7.257  11.224  1.00  0.00    -0.385 OA
ATOM     24  H   UNL     1      26.416   7.911  11.918  1.00  0.00     0.211 HD
ENDBRANCH  22  23
BRANCH  22  25
ATOM     25  C   UNL     1      25.244   8.799  10.016  1.00  0.00     0.265 C 
BRANCH  25  26
ATOM     26  O   UNL     1      25.627  10.092   9.550  1.00  0.00    -0.491 OA
BRANCH  26  27
ATOM     27  C   UNL     1      25.350  11.312  10.189  1.00  0.00     0.120 A 
ATOM     28  C   UNL     1      24.127  11.442  10.856  1.00  0.00     0.046 A 
ATOM     29  C   UNL     1      26.255  12.393  10.197  1.00  0.00     0.059 A 
ATOM     30  C   UNL     1      23.804  12.624  11.524  1.00  0.00     0.004 A 
ATOM     31  C   UNL     1      25.927  13.596  10.849  1.00  0.00     0.059 A 
ATOM     32  C   UNL     1      24.701  13.693  11.531  1.00  0.00     0.013 A 
BRANCH  31  33
ATOM     33  C   UNL     1      26.920  14.731  10.904  1.00  0.00     0.416 C 
ATOM     34  F   UNL     1      26.487  15.719  11.771  1.00  0.00    -0.166 F 
ATOM     35  F   UNL     1      28.137  14.246  11.344  1.00  0.00    -0.166 F 
ATOM     36  F   UNL     1      27.084  15.297   9.651  1.00  0.00    -0.166 F 
ENDBRANCH  31  33
ENDBRANCH  26  27
ENDBRANCH  25  26
ENDBRANCH  22  25
ENDBRANCH  21  22
ENDBRANCH  15  20
BRANCH  17  37
ATOM     37  O   UNL     1      30.422  10.377   7.421  1.00  0.00    -0.392 OA
ATOM     38  H   UNL     1      30.678   9.419   7.367  1.00  0.00     0.210 HD
ENDBRANCH  17  37
ENDBRANCH   1  13
TORSDOF 17
ENDMDL
MODEL 10
REMARK VINA RESULT:    -8.017      1.682      2.634
REMARK INTER + INTRA:         -17.939
REMARK INTER:                 -15.646
REMARK INTRA:                  -2.292
REMARK UNBOUND:                -2.657
REMARK SMILES CC(C)OC(=O)CCC/C=C\C[C@@H]1[C@@H](/C=C/[C@@H](O)COc2cccc(C(F)(F)F)c2)[C@H](O)C[C@@H]1O
REMARK SMILES IDX 12 1 11 2 10 3 9 4 8 5 7 6 5 7 6 8 4 9 2 10 1 11 3 12 13 13
REMARK SMILES IDX 34 14 14 15 33 16 31 17 35 18 15 20 16 21 17 22 18 23 19 25
REMARK SMILES IDX 20 26 21 27 22 28 30 29 23 30 25 31 24 32 26 33 27 34 28 35
REMARK SMILES IDX 29 36 32 37
REMARK H PARENT 35 19 18 24 32 38
REMARK Flexibility Score: inf
ROOT
ATOM      1  C   UNL     1      31.155   9.357   8.831  1.00  0.00     0.034 C 
ENDROOT
BRANCH   1   2
ATOM      2  C   UNL     1      32.061   9.245  10.036  1.00  0.00    -0.031 C 
ATOM      3  C   UNL     1      32.919  10.198  10.451  1.00  0.00    -0.031 C 
BRANCH   3   4
ATOM      4  C   UNL     1      33.110  11.539   9.785  1.00  0.00     0.027 C 
BRANCH   4   5
ATOM      5  C   UNL     1      34.191  12.381  10.477  1.00  0.00     0.016 C 
BRANCH   5   6
ATOM      6  C   UNL     1      35.386  12.648   9.553  1.00  0.00     0.123 C 
BRANCH   6   7
ATOM      7  C   UNL     1      36.246  11.430   9.443  1.00  0.00     0.306 C 
ATOM      8  O   UNL     1      36.838  10.986  10.466  1.00  0.00    -0.252 OA
BRANCH   7   9
ATOM      9  O   UNL     1      36.408  10.813   8.196  1.00  0.00    -0.463 OA
BRANCH   9  10
ATOM     10  C   UNL     1      35.583   9.744   7.735  1.00  0.00     0.170 C 
ATOM     11  C   UNL     1      36.426   8.485   7.511  1.00  0.00     0.052 C 
ATOM     12  C   UNL     1      34.903  10.169   6.433  1.00  0.00     0.052 C 
ENDBRANCH   9  10
ENDBRANCH   7   9
ENDBRANCH   6   7
ENDBRANCH   5   6
ENDBRANCH   4   5
ENDBRANCH   3   4
ENDBRANCH   1   2
BRANCH   1  13
ATOM     13  C   UNL     1      29.911  10.235   9.128  1.00  0.00     0.031 C 
ATOM     14  C   UNL     1      28.662   9.820   8.335  1.00  0.00     0.121 C 
ATOM     15  C   UNL     1      29.472  10.076  10.599  1.00  0.00     0.046 C 
ATOM     16  C   UNL     1      28.016   8.704   9.149  1.00  0.00     0.064 C 
ATOM     17  C   UNL     1      28.434   8.935  10.609  1.00  0.00     0.124 C 
BRANCH  14  18
ATOM     18  O   UNL     1      28.962   9.397   7.030  1.00  0.00    -0.393 OA
ATOM     19  H   UNL     1      28.686   8.447   6.970  1.00  0.00     0.210 HD
ENDBRANCH  14  18
BRANCH  15  20
ATOM     20  C   UNL     1      28.846  11.362  11.101  1.00  0.00    -0.022 C 
ATOM     21  C   UNL     1      28.804  12.475  10.348  1.00  0.00     0.004 C 
BRANCH  21  22
ATOM     22  C   UNL     1      28.182  13.762  10.836  1.00  0.00     0.174 C 
BRANCH  22  23
ATOM     23  O   UNL     1      28.737  14.871  10.170  1.00  0.00    -0.385 OA
ATOM     24  H   UNL     1      27.995  15.374   9.740  1.00  0.00     0.211 HD
ENDBRANCH  22  23
BRANCH  22  25
ATOM     25  C   UNL     1      26.646  13.742  10.710  1.00  0.00     0.265 C 
BRANCH  25  26
ATOM     26  O   UNL     1      26.203  12.515  10.131  1.00  0.00    -0.491 OA
BRANCH  26  27
ATOM     27  C   UNL     1      25.125  11.735  10.579  1.00  0.00     0.120 A 
ATOM     28  C   UNL     1      24.181  12.338  11.417  1.00  0.00     0.046 A 
ATOM     29  C   UNL     1      24.951  10.386  10.208  1.00  0.00     0.059 A 
ATOM     30  C   UNL     1      23.079  11.617  11.880  1.00  0.00     0.004 A 
ATOM     31  C   UNL     1      23.855   9.647  10.690  1.00  0.00     0.059 A 
ATOM     32  C   UNL     1      22.908  10.283  11.511  1.00  0.00     0.013 A 
BRANCH  31  33
ATOM     33  C   UNL     1      23.642   8.220  10.246  1.00  0.00     0.416 C 
ATOM     34  F   UNL     1      24.850   7.555  10.137  1.00  0.00    -0.166 F 
ATOM     35  F   UNL     1      22.851   7.570  11.174  1.00  0.00    -0.166 F 
ATOM     36  F   UNL     1      23.015   8.182   9.012  1.00  0.00    -0.166 F 
ENDBRANCH  31  33
ENDBRANCH  26  27
ENDBRANCH  25  26
ENDBRANCH  22  25
ENDBRANCH  21  22
ENDBRANCH  15  20
BRANCH  17  37
ATOM     37  O   UNL     1      29.015   7.772  11.142  1.00  0.00    -0.392 OA
ATOM     38  H   UNL     1      28.794   7.033  10.517  1.00  0.00     0.210 HD
ENDBRANCH  17  37
ENDBRANCH   1  13
TORSDOF 17
ENDMDL
MODEL 11
REMARK VINA RESULT:    -8.016      3.452      6.302
REMARK INTER + INTRA:         -17.936
REMARK INTER:                 -15.906
REMARK INTRA:                  -2.030
REMARK UNBOUND:                -2.657
REMARK SMILES CC(C)OC(=O)CCC/C=C\C[C@@H]1[C@@H](/C=C/[C@@H](O)COc2cccc(C(F)(F)F)c2)[C@H](O)C[C@@H]1O
REMARK SMILES IDX 12 1 11 2 10 3 9 4 8 5 7 6 5 7 6 8 4 9 2 10 1 11 3 12 13 13
REMARK SMILES IDX 34 14 14 15 33 16 31 17 35 18 15 20 16 21 17 22 18 23 19 25
REMARK SMILES IDX 20 26 21 27 22 28 30 29 23 30 25 31 24 32 26 33 27 34 28 35
REMARK SMILES IDX 29 36 32 37
REMARK H PARENT 35 19 18 24 32 38
REMARK Flexibility Score: inf
ROOT
ATOM      1  C   UNL     1      34.682  11.542   9.029  1.00  0.00     0.034 C 
ENDROOT
BRANCH   1   2
ATOM      2  C   UNL     1      35.548  10.738   9.973  1.00  0.00    -0.031 C 
ATOM      3  C   UNL     1      36.061   9.521   9.707  1.00  0.00    -0.031 C 
BRANCH   3   4
ATOM      4  C   UNL     1      35.862   8.763   8.417  1.00  0.00     0.027 C 
BRANCH   4   5
ATOM      5  C   UNL     1      34.686   7.779   8.499  1.00  0.00     0.016 C 
BRANCH   5   6
ATOM      6  C   UNL     1      34.261   7.279   7.113  1.00  0.00     0.123 C 
BRANCH   6   7
ATOM      7  C   UNL     1      34.048   5.798   7.134  1.00  0.00     0.306 C 
ATOM      8  O   UNL     1      33.038   5.319   7.718  1.00  0.00    -0.252 OA
BRANCH   7   9
ATOM      9  O   UNL     1      34.992   4.959   6.528  1.00  0.00    -0.463 OA
BRANCH   9  10
ATOM     10  C   UNL     1      34.954   3.536   6.621  1.00  0.00     0.170 C 
ATOM     11  C   UNL     1      35.875   3.057   7.747  1.00  0.00     0.052 C 
ATOM     12  C   UNL     1      35.390   2.939   5.284  1.00  0.00     0.052 C 
ENDBRANCH   9  10
ENDBRANCH   7   9
ENDBRANCH   6   7
ENDBRANCH   5   6
ENDBRANCH   4   5
ENDBRANCH   3   4
ENDBRANCH   1   2
BRANCH   1  13
ATOM     13  C   UNL     1      33.179  11.436   9.398  1.00  0.00     0.031 C 
ATOM     14  C   UNL     1      32.459  12.794   9.437  1.00  0.00     0.121 C 
ATOM     15  C   UNL     1      32.408  10.650   8.317  1.00  0.00     0.046 C 
ATOM     16  C   UNL     1      32.042  13.073   7.997  1.00  0.00     0.064 C 
ATOM     17  C   UNL     1      31.893  11.705   7.315  1.00  0.00     0.124 C 
BRANCH  14  18
ATOM     18  O   UNL     1      33.265  13.822   9.948  1.00  0.00    -0.393 OA
ATOM     19  H   UNL     1      34.143  13.414  10.163  1.00  0.00     0.210 HD
ENDBRANCH  14  18
BRANCH  15  20
ATOM     20  C   UNL     1      31.245   9.905   8.941  1.00  0.00    -0.022 C 
ATOM     21  C   UNL     1      31.146   8.566   8.887  1.00  0.00     0.004 C 
BRANCH  21  22
ATOM     22  C   UNL     1      29.992   7.812   9.506  1.00  0.00     0.174 C 
BRANCH  22  23
ATOM     23  O   UNL     1      30.458   6.784  10.347  1.00  0.00    -0.385 OA
ATOM     24  H   UNL     1      30.702   6.007   9.777  1.00  0.00     0.211 HD
ENDBRANCH  22  23
BRANCH  22  25
ATOM     25  C   UNL     1      29.024   8.752  10.250  1.00  0.00     0.265 C 
BRANCH  25  26
ATOM     26  O   UNL     1      27.973   9.181   9.386  1.00  0.00    -0.491 OA
BRANCH  26  27
ATOM     27  C   UNL     1      26.682   9.566   9.787  1.00  0.00     0.120 A 
ATOM     28  C   UNL     1      26.453  10.921  10.047  1.00  0.00     0.046 A 
ATOM     29  C   UNL     1      25.619   8.651   9.920  1.00  0.00     0.059 A 
ATOM     30  C   UNL     1      25.187  11.365  10.432  1.00  0.00     0.004 A 
ATOM     31  C   UNL     1      24.346   9.088  10.330  1.00  0.00     0.059 A 
ATOM     32  C   UNL     1      24.135  10.458  10.562  1.00  0.00     0.013 A 
BRANCH  31  33
ATOM     33  C   UNL     1      23.196   8.115  10.417  1.00  0.00     0.416 C 
ATOM     34  F   UNL     1      22.240   8.565  11.311  1.00  0.00    -0.166 F 
ATOM     35  F   UNL     1      22.618   7.984   9.168  1.00  0.00    -0.166 F 
ATOM     36  F   UNL     1      23.637   6.875  10.845  1.00  0.00    -0.166 F 
ENDBRANCH  31  33
ENDBRANCH  26  27
ENDBRANCH  25  26
ENDBRANCH  22  25
ENDBRANCH  21  22
ENDBRANCH  15  20
BRANCH  17  37
ATOM     37  O   UNL     1      32.664  11.656   6.140  1.00  0.00    -0.392 OA
ATOM     38  H   UNL     1      33.377  12.340   6.242  1.00  0.00     0.210 HD
ENDBRANCH  17  37
ENDBRANCH   1  13
TORSDOF 17
ENDMDL
MODEL 12
REMARK VINA RESULT:    -7.962      3.096      5.859
REMARK INTER + INTRA:         -17.833
REMARK INTER:                 -15.297
REMARK INTRA:                  -2.536
REMARK UNBOUND:                -2.657
REMARK SMILES CC(C)OC(=O)CCC/C=C\C[C@@H]1[C@@H](/C=C/[C@@H](O)COc2cccc(C(F)(F)F)c2)[C@H](O)C[C@@H]1O
REMARK SMILES IDX 12 1 11 2 10 3 9 4 8 5 7 6 5 7 6 8 4 9 2 10 1 11 3 12 13 13
REMARK SMILES IDX 34 14 14 15 33 16 31 17 35 18 15 20 16 21 17 22 18 23 19 25
REMARK SMILES IDX 20 26 21 27 22 28 30 29 23 30 25 31 24 32 26 33 27 34 28 35
REMARK SMILES IDX 29 36 32 37
REMARK H PARENT 35 19 18 24 32 38
REMARK Flexibility Score: inf
ROOT
ATOM      1  C   UNL     1      33.805  12.147  10.418  1.00  0.00     0.034 C 
ENDROOT
BRANCH   1   2
ATOM      2  C   UNL     1      34.674  10.975  10.814  1.00  0.00    -0.031 C 
ATOM      3  C   UNL     1      35.323  10.165   9.955  1.00  0.00    -0.031 C 
BRANCH   3   4
ATOM      4  C   UNL     1      35.297  10.303   8.452  1.00  0.00     0.027 C 
BRANCH   4   5
ATOM      5  C   UNL     1      34.533   9.153   7.779  1.00  0.00     0.016 C 
BRANCH   5   6
ATOM      6  C   UNL     1      34.335   7.965   8.729  1.00  0.00     0.123 C 
BRANCH   6   7
ATOM      7  C   UNL     1      33.588   6.865   8.044  1.00  0.00     0.306 C 
ATOM      8  O   UNL     1      32.758   6.172   8.694  1.00  0.00    -0.252 OA
BRANCH   7   9
ATOM      9  O   UNL     1      33.843   6.600   6.693  1.00  0.00    -0.463 OA
BRANCH   9  10
ATOM     10  C   UNL     1      34.766   5.607   6.247  1.00  0.00     0.170 C 
ATOM     11  C   UNL     1      34.903   4.504   7.302  1.00  0.00     0.052 C 
ATOM     12  C   UNL     1      36.119   6.269   5.988  1.00  0.00     0.052 C 
ENDBRANCH   9  10
ENDBRANCH   7   9
ENDBRANCH   6   7
ENDBRANCH   5   6
ENDBRANCH   4   5
ENDBRANCH   3   4
ENDBRANCH   1   2
BRANCH   1  13
ATOM     13  C   UNL     1      32.300  11.774  10.421  1.00  0.00     0.031 C 
ATOM     14  C   UNL     1      31.373  12.960  10.732  1.00  0.00     0.121 C 
ATOM     15  C   UNL     1      31.849  11.324   9.016  1.00  0.00     0.046 C 
ATOM     16  C   UNL     1      31.153  13.664   9.398  1.00  0.00     0.064 C 
ATOM     17  C   UNL     1      31.338  12.596   8.308  1.00  0.00     0.124 C 
BRANCH  14  18
ATOM     18  O   UNL     1      31.910  13.832  11.692  1.00  0.00    -0.393 OA
ATOM     19  H   UNL     1      32.260  13.265  12.426  1.00  0.00     0.210 HD
ENDBRANCH  14  18
BRANCH  15  20
ATOM     20  C   UNL     1      30.737  10.300   9.126  1.00  0.00    -0.022 C 
ATOM     21  C   UNL     1      30.958   9.054   9.578  1.00  0.00     0.004 C 
BRANCH  21  22
ATOM     22  C   UNL     1      29.858   8.025   9.694  1.00  0.00     0.174 C 
BRANCH  22  23
ATOM     23  O   UNL     1      30.341   6.837  10.274  1.00  0.00    -0.385 OA
ATOM     24  H   UNL     1      29.611   6.164  10.250  1.00  0.00     0.211 HD
ENDBRANCH  22  23
BRANCH  22  25
ATOM     25  C   UNL     1      28.638   8.570  10.462  1.00  0.00     0.265 C 
BRANCH  25  26
ATOM     26  O   UNL     1      27.612   8.976   9.558  1.00  0.00    -0.491 OA
BRANCH  26  27
ATOM     27  C   UNL     1      26.265   9.201   9.888  1.00  0.00     0.120 A 
ATOM     28  C   UNL     1      25.366   8.140   9.738  1.00  0.00     0.046 A 
ATOM     29  C   UNL     1      25.794  10.438  10.375  1.00  0.00     0.059 A 
ATOM     30  C   UNL     1      24.019   8.299  10.068  1.00  0.00     0.004 A 
ATOM     31  C   UNL     1      24.433  10.612  10.687  1.00  0.00     0.059 A 
ATOM     32  C   UNL     1      23.555   9.523  10.550  1.00  0.00     0.013 A 
BRANCH  31  33
ATOM     33  C   UNL     1      23.943  11.918  11.261  1.00  0.00     0.416 C 
ATOM     34  F   UNL     1      24.095  11.937  12.637  1.00  0.00    -0.166 F 
ATOM     35  F   UNL     1      24.673  12.956  10.713  1.00  0.00    -0.166 F 
ATOM     36  F   UNL     1      22.602  12.106  10.973  1.00  0.00    -0.166 F 
ENDBRANCH  31  33
ENDBRANCH  26  27
ENDBRANCH  25  26
ENDBRANCH  22  25
ENDBRANCH  21  22
ENDBRANCH  15  20
BRANCH  17  37
ATOM     37  O   UNL     1      32.284  13.022   7.360  1.00  0.00    -0.392 OA
ATOM     38  H   UNL     1      32.501  13.965   7.582  1.00  0.00     0.210 HD
ENDBRANCH  17  37
ENDBRANCH   1  13
TORSDOF 17
ENDMDL
MODEL 13
REMARK VINA RESULT:    -7.908      2.411      4.882
REMARK INTER + INTRA:         -17.731
REMARK INTER:                 -15.080
REMARK INTRA:                  -2.650
REMARK UNBOUND:                -2.657
REMARK SMILES CC(C)OC(=O)CCC/C=C\C[C@@H]1[C@@H](/C=C/[C@@H](O)COc2cccc(C(F)(F)F)c2)[C@H](O)C[C@@H]1O
REMARK SMILES IDX 12 1 11 2 10 3 9 4 8 5 7 6 5 7 6 8 4 9 2 10 1 11 3 12 13 13
REMARK SMILES IDX 34 14 14 15 33 16 31 17 35 18 15 20 16 21 17 22 18 23 19 25
REMARK SMILES IDX 20 26 21 27 22 28 30 29 23 30 25 31 24 32 26 33 27 34 28 35
REMARK SMILES IDX 29 36 32 37
REMARK H PARENT 35 19 18 24 32 38
REMARK Flexibility Score: inf
ROOT
ATOM      1  C   UNL     1      30.050  13.953  10.364  1.00  0.00     0.034 C 
ENDROOT
BRANCH   1   2
ATOM      2  C   UNL     1      28.570  14.042  10.659  1.00  0.00    -0.031 C 
ATOM      3  C   UNL     1      27.919  15.160  11.035  1.00  0.00    -0.031 C 
BRANCH   3   4
ATOM      4  C   UNL     1      28.563  16.513  11.217  1.00  0.00     0.027 C 
BRANCH   4   5
ATOM      5  C   UNL     1      28.542  16.972  12.682  1.00  0.00     0.016 C 
BRANCH   5   6
ATOM      6  C   UNL     1      29.950  17.285  13.204  1.00  0.00     0.123 C 
BRANCH   6   7
ATOM      7  C   UNL     1      30.749  16.028  13.339  1.00  0.00     0.306 C 
ATOM      8  O   UNL     1      30.461  15.197  14.244  1.00  0.00    -0.252 OA
BRANCH   7   9
ATOM      9  O   UNL     1      31.829  15.804  12.476  1.00  0.00    -0.463 OA
BRANCH   9  10
ATOM     10  C   UNL     1      32.555  16.854  11.837  1.00  0.00     0.170 C 
ATOM     11  C   UNL     1      32.320  16.811  10.324  1.00  0.00     0.052 C 
ATOM     12  C   UNL     1      34.042  16.691  12.151  1.00  0.00     0.052 C 
ENDBRANCH   9  10
ENDBRANCH   7   9
ENDBRANCH   6   7
ENDBRANCH   5   6
ENDBRANCH   4   5
ENDBRANCH   3   4
ENDBRANCH   1   2
BRANCH   1  13
ATOM     13  C   UNL     1      30.413  12.633   9.635  1.00  0.00     0.031 C 
ATOM     14  C   UNL     1      31.386  12.827   8.461  1.00  0.00     0.121 C 
ATOM     15  C   UNL     1      31.175  11.682  10.581  1.00  0.00     0.046 C 
ATOM     16  C   UNL     1      32.778  12.817   9.082  1.00  0.00     0.064 C 
ATOM     17  C   UNL     1      32.673  11.988  10.371  1.00  0.00     0.124 C 
BRANCH  14  18
ATOM     18  O   UNL     1      31.148  14.013   7.748  1.00  0.00    -0.393 OA
ATOM     19  H   UNL     1      31.843  14.062   7.042  1.00  0.00     0.210 HD
ENDBRANCH  14  18
BRANCH  15  20
ATOM     20  C   UNL     1      30.878  10.239  10.224  1.00  0.00    -0.022 C 
ATOM     21  C   UNL     1      29.697   9.664  10.509  1.00  0.00     0.004 C 
BRANCH  21  22
ATOM     22  C   UNL     1      29.388   8.227  10.157  1.00  0.00     0.174 C 
BRANCH  22  23
ATOM     23  O   UNL     1      29.019   7.498  11.303  1.00  0.00    -0.385 OA
ATOM     24  H   UNL     1      28.200   7.914  11.681  1.00  0.00     0.211 HD
ENDBRANCH  22  23
BRANCH  22  25
ATOM     25  C   UNL     1      28.316   8.123   9.055  1.00  0.00     0.265 C 
BRANCH  25  26
ATOM     26  O   UNL     1      27.495   9.290   9.039  1.00  0.00    -0.491 OA
BRANCH  26  27
ATOM     27  C   UNL     1      26.208   9.399   9.593  1.00  0.00     0.120 A 
ATOM     28  C   UNL     1      25.400   8.258   9.607  1.00  0.00     0.046 A 
ATOM     29  C   UNL     1      25.714  10.599  10.144  1.00  0.00     0.059 A 
ATOM     30  C   UNL     1      24.120   8.301  10.161  1.00  0.00     0.004 A 
ATOM     31  C   UNL     1      24.415  10.656  10.683  1.00  0.00     0.059 A 
ATOM     32  C   UNL     1      23.632   9.489  10.707  1.00  0.00     0.013 A 
BRANCH  31  33
ATOM     33  C   UNL     1      23.909  11.925  11.323  1.00  0.00     0.416 C 
ATOM     34  F   UNL     1      22.590  12.157  10.976  1.00  0.00    -0.166 F 
ATOM     35  F   UNL     1      23.999  11.807  12.697  1.00  0.00    -0.166 F 
ATOM     36  F   UNL     1      24.661  13.012  10.912  1.00  0.00    -0.166 F 
ENDBRANCH  31  33
ENDBRANCH  26  27
ENDBRANCH  25  26
ENDBRANCH  22  25
ENDBRANCH  21  22
ENDBRANCH  15  20
BRANCH  17  37
ATOM     37  O   UNL     1      33.164  12.720  11.466  1.00  0.00    -0.392 OA
ATOM     38  H   UNL     1      32.603  12.471  12.246  1.00  0.00     0.210 HD
ENDBRANCH  17  37
ENDBRANCH   1  13
TORSDOF 17
ENDMDL
MODEL 14
REMARK VINA RESULT:    -7.901      2.577      5.529
REMARK INTER + INTRA:         -17.717
REMARK INTER:                 -15.145
REMARK INTRA:                  -2.573
REMARK UNBOUND:                -2.657
REMARK SMILES CC(C)OC(=O)CCC/C=C\C[C@@H]1[C@@H](/C=C/[C@@H](O)COc2cccc(C(F)(F)F)c2)[C@H](O)C[C@@H]1O
REMARK SMILES IDX 12 1 11 2 10 3 9 4 8 5 7 6 5 7 6 8 4 9 2 10 1 11 3 12 13 13
REMARK SMILES IDX 34 14 14 15 33 16 31 17 35 18 15 20 16 21 17 22 18 23 19 25
REMARK SMILES IDX 20 26 21 27 22 28 30 29 23 30 25 31 24 32 26 33 27 34 28 35
REMARK SMILES IDX 29 36 32 37
REMARK H PARENT 35 19 18 24 32 38
REMARK Flexibility Score: inf
ROOT
ATOM      1  C   UNL     1      30.911  13.464   9.501  1.00  0.00     0.034 C 
ENDROOT
BRANCH   1   2
ATOM      2  C   UNL     1      30.393  13.558  10.918  1.00  0.00    -0.031 C 
ATOM      3  C   UNL     1      29.099  13.454  11.280  1.00  0.00    -0.031 C 
BRANCH   3   4
ATOM      4  C   UNL     1      27.953  13.216  10.326  1.00  0.00     0.027 C 
BRANCH   4   5
ATOM      5  C   UNL     1      26.658  13.894  10.799  1.00  0.00     0.016 C 
BRANCH   5   6
ATOM      6  C   UNL     1      26.628  15.384  10.436  1.00  0.00     0.123 C 
BRANCH   6   7
ATOM      7  C   UNL     1      26.019  16.180  11.547  1.00  0.00     0.306 C 
ATOM      8  O   UNL     1      24.927  15.808  12.059  1.00  0.00    -0.252 OA
BRANCH   7   9
ATOM      9  O   UNL     1      26.656  17.348  11.984  1.00  0.00    -0.463 OA
BRANCH   9  10
ATOM     10  C   UNL     1      27.617  17.371  13.040  1.00  0.00     0.170 C 
ATOM     11  C   UNL     1      27.714  18.780  13.633  1.00  0.00     0.052 C 
ATOM     12  C   UNL     1      28.971  16.931  12.487  1.00  0.00     0.052 C 
ENDBRANCH   9  10
ENDBRANCH   7   9
ENDBRANCH   6   7
ENDBRANCH   5   6
ENDBRANCH   4   5
ENDBRANCH   3   4
ENDBRANCH   1   2
BRANCH   1  13
ATOM     13  C   UNL     1      31.193  11.996   9.089  1.00  0.00     0.031 C 
ATOM     14  C   UNL     1      32.375  11.846   8.118  1.00  0.00     0.121 C 
ATOM     15  C   UNL     1      31.624  11.161  10.313  1.00  0.00     0.046 C 
ATOM     16  C   UNL     1      33.619  11.793   8.998  1.00  0.00     0.064 C 
ATOM     17  C   UNL     1      33.164  11.244  10.360  1.00  0.00     0.124 C 
BRANCH  14  18
ATOM     18  O   UNL     1      32.449  12.892   7.185  1.00  0.00    -0.393 OA
ATOM     19  H   UNL     1      32.738  13.697   7.686  1.00  0.00     0.210 HD
ENDBRANCH  14  18
BRANCH  15  20
ATOM     20  C   UNL     1      31.179   9.721  10.148  1.00  0.00    -0.022 C 
ATOM     21  C   UNL     1      30.070   9.392   9.464  1.00  0.00     0.004 C 
BRANCH  21  22
ATOM     22  C   UNL     1      29.617   7.961   9.292  1.00  0.00     0.174 C 
BRANCH  22  23
ATOM     23  O   UNL     1      29.974   7.184  10.409  1.00  0.00    -0.385 OA
ATOM     24  H   UNL     1      29.204   7.175  11.037  1.00  0.00     0.211 HD
ENDBRANCH  22  23
BRANCH  22  25
ATOM     25  C   UNL     1      28.106   7.867   9.002  1.00  0.00     0.265 C 
BRANCH  25  26
ATOM     26  O   UNL     1      27.435   9.050   9.436  1.00  0.00    -0.491 OA
BRANCH  26  27
ATOM     27  C   UNL     1      26.093   9.131   9.844  1.00  0.00     0.120 A 
ATOM     28  C   UNL     1      25.289   7.998   9.688  1.00  0.00     0.046 A 
ATOM     29  C   UNL     1      25.538  10.295  10.414  1.00  0.00     0.059 A 
ATOM     30  C   UNL     1      23.953   8.014  10.093  1.00  0.00     0.004 A 
ATOM     31  C   UNL     1      24.186  10.326  10.803  1.00  0.00     0.059 A 
ATOM     32  C   UNL     1      23.405   9.166  10.657  1.00  0.00     0.013 A 
BRANCH  31  33
ATOM     33  C   UNL     1      23.609  11.553  11.465  1.00  0.00     0.416 C 
ATOM     34  F   UNL     1      23.886  12.687  10.720  1.00  0.00    -0.166 F 
ATOM     35  F   UNL     1      22.239  11.408  11.573  1.00  0.00    -0.166 F 
ATOM     36  F   UNL     1      24.148  11.725  12.728  1.00  0.00    -0.166 F 
ENDBRANCH  31  33
ENDBRANCH  26  27
ENDBRANCH  25  26
ENDBRANCH  22  25
ENDBRANCH  21  22
ENDBRANCH  15  20
BRANCH  17  37
ATOM     37  O   UNL     1      33.559  12.110  11.394  1.00  0.00    -0.392 OA
ATOM     38  H   UNL     1      33.046  12.951  11.270  1.00  0.00     0.210 HD
ENDBRANCH  17  37
ENDBRANCH   1  13
TORSDOF 17
ENDMDL
MODEL 15
REMARK VINA RESULT:    -7.717      2.198      4.694
REMARK INTER + INTRA:         -17.365
REMARK INTER:                 -14.552
REMARK INTRA:                  -2.814
REMARK UNBOUND:                -2.657
REMARK SMILES CC(C)OC(=O)CCC/C=C\C[C@@H]1[C@@H](/C=C/[C@@H](O)COc2cccc(C(F)(F)F)c2)[C@H](O)C[C@@H]1O
REMARK SMILES IDX 12 1 11 2 10 3 9 4 8 5 7 6 5 7 6 8 4 9 2 10 1 11 3 12 13 13
REMARK SMILES IDX 34 14 14 15 33 16 31 17 35 18 15 20 16 21 17 22 18 23 19 25
REMARK SMILES IDX 20 26 21 27 22 28 30 29 23 30 25 31 24 32 26 33 27 34 28 35
REMARK SMILES IDX 29 36 32 37
REMARK H PARENT 35 19 18 24 32 38
REMARK Flexibility Score: inf
ROOT
ATOM      1  C   UNL     1      34.082  12.754   8.643  1.00  0.00     0.034 C 
ENDROOT
BRANCH   1   2
ATOM      2  C   UNL     1      32.902  13.690   8.512  1.00  0.00    -0.031 C 
ATOM      3  C   UNL     1      32.666  14.756   9.301  1.00  0.00    -0.031 C 
BRANCH   3   4
ATOM      4  C   UNL     1      33.549  15.197  10.443  1.00  0.00     0.027 C 
BRANCH   4   5
ATOM      5  C   UNL     1      32.757  15.393  11.744  1.00  0.00     0.016 C 
BRANCH   5   6
ATOM      6  C   UNL     1      31.635  14.357  11.892  1.00  0.00     0.123 C 
BRANCH   6   7
ATOM      7  C   UNL     1      30.336  15.034  12.195  1.00  0.00     0.306 C 
ATOM      8  O   UNL     1      30.092  15.423  13.370  1.00  0.00    -0.252 OA
BRANCH   7   9
ATOM      9  O   UNL     1      29.392  15.199  11.174  1.00  0.00    -0.463 OA
BRANCH   9  10
ATOM     10  C   UNL     1      28.149  14.498  11.131  1.00  0.00     0.170 C 
ATOM     11  C   UNL     1      28.325  13.157  10.411  1.00  0.00     0.052 C 
ATOM     12  C   UNL     1      27.118  15.362  10.407  1.00  0.00     0.052 C 
ENDBRANCH   9  10
ENDBRANCH   7   9
ENDBRANCH   6   7
ENDBRANCH   5   6
ENDBRANCH   4   5
ENDBRANCH   3   4
ENDBRANCH   1   2
BRANCH   1  13
ATOM     13  C   UNL     1      33.643  11.334   9.087  1.00  0.00     0.031 C 
ATOM     14  C   UNL     1      34.811  10.343   9.218  1.00  0.00     0.121 C 
ATOM     15  C   UNL     1      33.041  11.371  10.507  1.00  0.00     0.046 C 
ATOM     16  C   UNL     1      35.373  10.561  10.618  1.00  0.00     0.064 C 
ATOM     17  C   UNL     1      34.216  11.103  11.471  1.00  0.00     0.124 C 
BRANCH  14  18
ATOM     18  O   UNL     1      35.795  10.528   8.234  1.00  0.00    -0.393 OA
ATOM     19  H   UNL     1      35.886   9.662   7.759  1.00  0.00     0.210 HD
ENDBRANCH  14  18
BRANCH  15  20
ATOM     20  C   UNL     1      31.983  10.295  10.655  1.00  0.00    -0.022 C 
ATOM     21  C   UNL     1      30.805  10.363  10.013  1.00  0.00     0.004 C 
BRANCH  21  22
ATOM     22  C   UNL     1      29.743   9.297  10.151  1.00  0.00     0.174 C 
BRANCH  22  23
ATOM     23  O   UNL     1      29.418   9.085  11.504  1.00  0.00    -0.385 OA
ATOM     24  H   UNL     1      29.343   8.106  11.653  1.00  0.00     0.211 HD
ENDBRANCH  22  23
BRANCH  22  25
ATOM     25  C   UNL     1      28.489   9.623   9.316  1.00  0.00     0.265 C 
BRANCH  25  26
ATOM     26  O   UNL     1      27.450   8.678   9.575  1.00  0.00    -0.491 OA
BRANCH  26  27
ATOM     27  C   UNL     1      26.123   8.987   9.916  1.00  0.00     0.120 A 
ATOM     28  C   UNL     1      25.157   7.987   9.768  1.00  0.00     0.046 A 
ATOM     29  C   UNL     1      25.736  10.248  10.412  1.00  0.00     0.059 A 
ATOM     30  C   UNL     1      23.825   8.230  10.108  1.00  0.00     0.004 A 
ATOM     31  C   UNL     1      24.391  10.508  10.735  1.00  0.00     0.059 A 
ATOM     32  C   UNL     1      23.444   9.478  10.600  1.00  0.00     0.013 A 
BRANCH  31  33
ATOM     33  C   UNL     1      23.990  11.840  11.319  1.00  0.00     0.416 C 
ATOM     34  F   UNL     1      24.756  12.860  10.784  1.00  0.00    -0.166 F 
ATOM     35  F   UNL     1      22.659  12.078  11.032  1.00  0.00    -0.166 F 
ATOM     36  F   UNL     1      24.164  11.844  12.692  1.00  0.00    -0.166 F 
ENDBRANCH  31  33
ENDBRANCH  26  27
ENDBRANCH  25  26
ENDBRANCH  22  25
ENDBRANCH  21  22
ENDBRANCH  15  20
BRANCH  17  37
ATOM     37  O   UNL     1      34.592  12.302  12.103  1.00  0.00    -0.392 OA
ATOM     38  H   UNL     1      34.940  12.052  12.998  1.00  0.00     0.210 HD
ENDBRANCH  17  37
ENDBRANCH   1  13
TORSDOF 17
ENDMDL
