MODEL 1
REMARK VINA RESULT:    -5.474      0.000      0.000
REMARK INTER + INTRA:          -5.474
REMARK INTER:                  -5.474
REMARK INTRA:                   0.000
REMARK UNBOUND:                 0.000
REMARK SMILES Cl[C@H]1[C@H](Cl)[C@@H](Cl)[C@@H](Cl)[C@H](Cl)[C@H]1Cl
REMARK SMILES IDX 1 1 2 2 3 3 4 4 5 5 6 6 7 7 8 8 9 9 10 10 11 11 12 12
REMARK H PARENT
REMARK Flexibility Score: inf
ROOT
ATOM      1  Cl  UNL     1       8.832  80.084  -2.193  1.00  0.00    -0.120 Cl
ATOM      2  C   UNL     1      10.588  80.091  -1.832  1.00  0.00     0.120 C 
ATOM      3  C   UNL     1      10.846  80.008  -0.314  1.00  0.00     0.120 C 
ATOM      4  Cl  UNL     1      10.053  81.393   0.506  1.00  0.00    -0.120 Cl
ATOM      5  C   UNL     1      12.361  80.037  -0.024  1.00  0.00     0.120 C 
ATOM      6  Cl  UNL     1      12.686  79.965   1.738  1.00  0.00    -0.120 Cl
ATOM      7  C   UNL     1      13.113  78.904  -0.757  1.00  0.00     0.120 C 
ATOM      8  Cl  UNL     1      12.784  77.297  -0.028  1.00  0.00    -0.120 Cl
ATOM      9  C   UNL     1      12.812  78.894  -2.274  1.00  0.00     0.120 C 
ATOM     10  Cl  UNL     1      13.669  80.250  -3.073  1.00  0.00    -0.120 Cl
ATOM     11  C   UNL     1      11.302  78.960  -2.603  1.00  0.00     0.120 C 
ATOM     12  Cl  UNL     1      10.520  77.366  -2.339  1.00  0.00    -0.120 Cl
ENDROOT
TORSDOF 0
ENDMDL
MODEL 2
REMARK VINA RESULT:    -5.473      4.543      5.718
REMARK INTER + INTRA:          -5.473
REMARK INTER:                  -5.473
REMARK INTRA:                   0.000
REMARK UNBOUND:                 0.000
REMARK SMILES Cl[C@H]1[C@H](Cl)[C@@H](Cl)[C@@H](Cl)[C@H](Cl)[C@H]1Cl
REMARK SMILES IDX 1 1 2 2 3 3 4 4 5 5 6 6 7 7 8 8 9 9 10 10 11 11 12 12
REMARK H PARENT
REMARK Flexibility Score: inf
ROOT
ATOM      1  Cl  UNL     1       8.052  79.584  -0.793  1.00  0.00    -0.120 Cl
ATOM      2  C   UNL     1       8.111  77.848  -0.347  1.00  0.00     0.120 C 
ATOM      3  C   UNL     1       6.701  77.299  -0.050  1.00  0.00     0.120 C 
ATOM      4  Cl  UNL     1       5.958  78.243   1.283  1.00  0.00    -0.120 Cl
ATOM      5  C   UNL     1       6.776  75.812   0.351  1.00  0.00     0.120 C 
ATOM      6  Cl  UNL     1       5.149  75.157   0.724  1.00  0.00    -0.120 Cl
ATOM      7  C   UNL     1       7.467  74.954  -0.731  1.00  0.00     0.120 C 
ATOM      8  Cl  UNL     1       6.429  74.734  -2.179  1.00  0.00    -0.120 Cl
ATOM      9  C   UNL     1       8.852  75.520  -1.125  1.00  0.00     0.120 C 
ATOM     10  Cl  UNL     1      10.037  75.189   0.177  1.00  0.00    -0.120 Cl
ATOM     11  C   UNL     1       8.830  77.033  -1.444  1.00  0.00     0.120 C 
ATOM     12  Cl  UNL     1       8.136  77.335  -3.071  1.00  0.00    -0.120 Cl
ENDROOT
TORSDOF 0
ENDMDL
MODEL 3
REMARK VINA RESULT:    -5.391      1.148      3.538
REMARK INTER + INTRA:          -5.391
REMARK INTER:                  -5.391
REMARK INTRA:                   0.000
REMARK UNBOUND:                 0.000
REMARK SMILES Cl[C@H]1[C@H](Cl)[C@@H](Cl)[C@@H](Cl)[C@H](Cl)[C@H]1Cl
REMARK SMILES IDX 1 1 2 2 3 3 4 4 5 5 6 6 7 7 8 8 9 9 10 10 11 11 12 12
REMARK H PARENT
REMARK Flexibility Score: inf
ROOT
ATOM      1  Cl  UNL     1      14.764  79.236  -1.511  1.00  0.00    -0.120 Cl
ATOM      2  C   UNL     1      13.021  78.918  -1.237  1.00  0.00     0.120 C 
ATOM      3  C   UNL     1      12.347  80.095  -0.502  1.00  0.00     0.120 C 
ATOM      4  Cl  UNL     1      13.168  80.370   1.070  1.00  0.00    -0.120 Cl
ATOM      5  C   UNL     1      10.855  79.792  -0.258  1.00  0.00     0.120 C 
ATOM      6  Cl  UNL     1      10.055  81.138   0.617  1.00  0.00    -0.120 Cl
ATOM      7  C   UNL     1      10.104  79.481  -1.571  1.00  0.00     0.120 C 
ATOM      8  Cl  UNL     1       9.865  80.952  -2.573  1.00  0.00    -0.120 Cl
ATOM      9  C   UNL     1      10.797  78.364  -2.386  1.00  0.00     0.120 C 
ATOM     10  Cl  UNL     1      10.506  76.775  -1.611  1.00  0.00    -0.120 Cl
ATOM     11  C   UNL     1      12.316  78.588  -2.570  1.00  0.00     0.120 C 
ATOM     12  Cl  UNL     1      12.632  79.834  -3.824  1.00  0.00    -0.120 Cl
ENDROOT
TORSDOF 0
ENDMDL
MODEL 4
REMARK VINA RESULT:    -5.325      0.975      2.322
REMARK INTER + INTRA:          -5.325
REMARK INTER:                  -5.325
REMARK INTRA:                   0.000
REMARK UNBOUND:                 0.000
REMARK SMILES Cl[C@H]1[C@H](Cl)[C@@H](Cl)[C@@H](Cl)[C@H](Cl)[C@H]1Cl
REMARK SMILES IDX 1 1 2 2 3 3 4 4 5 5 6 6 7 7 8 8 9 9 10 10 11 11 12 12
REMARK H PARENT
REMARK Flexibility Score: inf
ROOT
ATOM      1  Cl  UNL     1      10.615  77.566  -2.633  1.00  0.00    -0.120 Cl
ATOM      2  C   UNL     1      11.761  78.826  -2.072  1.00  0.00     0.120 C 
ATOM      3  C   UNL     1      11.046  79.891  -1.217  1.00  0.00     0.120 C 
ATOM      4  Cl  UNL     1       9.733  80.649  -2.177  1.00  0.00    -0.120 Cl
ATOM      5  C   UNL     1      12.044  80.976  -0.764  1.00  0.00     0.120 C 
ATOM      6  Cl  UNL     1      11.230  82.239   0.215  1.00  0.00    -0.120 Cl
ATOM      7  C   UNL     1      13.236  80.376   0.014  1.00  0.00     0.120 C 
ATOM      8  Cl  UNL     1      12.759  79.823   1.654  1.00  0.00    -0.120 Cl
ATOM      9  C   UNL     1      13.931  79.240  -0.771  1.00  0.00     0.120 C 
ATOM     10  Cl  UNL     1      14.897  79.930  -2.113  1.00  0.00    -0.120 Cl
ATOM     11  C   UNL     1      12.947  78.182  -1.323  1.00  0.00     0.120 C 
ATOM     12  Cl  UNL     1      12.398  77.077  -0.019  1.00  0.00    -0.120 Cl
ENDROOT
TORSDOF 0
ENDMDL
MODEL 5
REMARK VINA RESULT:    -5.316      1.379      3.471
REMARK INTER + INTRA:          -5.316
REMARK INTER:                  -5.316
REMARK INTRA:                   0.000
REMARK UNBOUND:                 0.000
REMARK SMILES Cl[C@H]1[C@H](Cl)[C@@H](Cl)[C@@H](Cl)[C@H](Cl)[C@H]1Cl
REMARK SMILES IDX 1 1 2 2 3 3 4 4 5 5 6 6 7 7 8 8 9 9 10 10 11 11 12 12
REMARK H PARENT
REMARK Flexibility Score: inf
ROOT
ATOM      1  Cl  UNL     1      10.980  81.696   0.811  1.00  0.00    -0.120 Cl
ATOM      2  C   UNL     1      11.416  80.023   0.334  1.00  0.00     0.120 C 
ATOM      3  C   UNL     1      10.557  79.539  -0.851  1.00  0.00     0.120 C 
ATOM      4  Cl  UNL     1       8.821  79.608  -0.403  1.00  0.00    -0.120 Cl
ATOM      5  C   UNL     1      10.934  78.092  -1.231  1.00  0.00     0.120 C 
ATOM      6  Cl  UNL     1       9.931  77.497  -2.594  1.00  0.00    -0.120 Cl
ATOM      7  C   UNL     1      12.435  77.953  -1.566  1.00  0.00     0.120 C 
ATOM      8  Cl  UNL     1      12.845  78.704  -3.144  1.00  0.00    -0.120 Cl
ATOM      9  C   UNL     1      13.336  78.510  -0.439  1.00  0.00     0.120 C 
ATOM     10  Cl  UNL     1      13.338  77.382   0.953  1.00  0.00    -0.120 Cl
ATOM     11  C   UNL     1      12.927  79.925   0.033  1.00  0.00     0.120 C 
ATOM     12  Cl  UNL     1      13.462  81.171  -1.144  1.00  0.00    -0.120 Cl
ENDROOT
TORSDOF 0
ENDMDL
MODEL 6
REMARK VINA RESULT:    -5.311      6.372      7.537
REMARK INTER + INTRA:          -5.311
REMARK INTER:                  -5.311
REMARK INTRA:                   0.000
REMARK UNBOUND:                 0.000
REMARK SMILES Cl[C@H]1[C@H](Cl)[C@@H](Cl)[C@@H](Cl)[C@H](Cl)[C@H]1Cl
REMARK SMILES IDX 1 1 2 2 3 3 4 4 5 5 6 6 7 7 8 8 9 9 10 10 11 11 12 12
REMARK H PARENT
REMARK Flexibility Score: inf
ROOT
ATOM      1  Cl  UNL     1       7.920  73.154  -6.287  1.00  0.00    -0.120 Cl
ATOM      2  C   UNL     1       9.364  73.250  -5.227  1.00  0.00     0.120 C 
ATOM      3  C   UNL     1       8.962  73.465  -3.754  1.00  0.00     0.120 C 
ATOM      4  Cl  UNL     1       8.001  74.973  -3.608  1.00  0.00    -0.120 Cl
ATOM      5  C   UNL     1      10.218  73.567  -2.864  1.00  0.00     0.120 C 
ATOM      6  Cl  UNL     1       9.776  73.840  -1.148  1.00  0.00    -0.120 Cl
ATOM      7  C   UNL     1      11.123  72.322  -2.996  1.00  0.00     0.120 C 
ATOM      8  Cl  UNL     1      10.408  70.882  -2.197  1.00  0.00    -0.120 Cl
ATOM      9  C   UNL     1      11.480  72.016  -4.470  1.00  0.00     0.120 C 
ATOM     10  Cl  UNL     1      12.685  73.202  -5.063  1.00  0.00    -0.120 Cl
ATOM     11  C   UNL     1      10.251  72.000  -5.409  1.00  0.00     0.120 C 
ATOM     12  Cl  UNL     1       9.318  70.479  -5.217  1.00  0.00    -0.120 Cl
ENDROOT
TORSDOF 0
ENDMDL
MODEL 7
REMARK VINA RESULT:    -5.311      1.604      3.042
REMARK INTER + INTRA:          -5.311
REMARK INTER:                  -5.311
REMARK INTRA:                   0.000
REMARK UNBOUND:                 0.000
REMARK SMILES Cl[C@H]1[C@H](Cl)[C@@H](Cl)[C@@H](Cl)[C@H](Cl)[C@H]1Cl
REMARK SMILES IDX 1 1 2 2 3 3 4 4 5 5 6 6 7 7 8 8 9 9 10 10 11 11 12 12
REMARK H PARENT
REMARK Flexibility Score: inf
ROOT
ATOM      1  Cl  UNL     1      10.190  77.572  -2.519  1.00  0.00    -0.120 Cl
ATOM      2  C   UNL     1      10.965  78.559  -1.237  1.00  0.00     0.120 C 
ATOM      3  C   UNL     1      12.186  77.833  -0.637  1.00  0.00     0.120 C 
ATOM      4  Cl  UNL     1      11.672  76.253   0.041  1.00  0.00    -0.120 Cl
ATOM      5  C   UNL     1      12.825  78.688   0.477  1.00  0.00     0.120 C 
ATOM      6  Cl  UNL     1      14.234  77.854   1.207  1.00  0.00    -0.120 Cl
ATOM      7  C   UNL     1      13.230  80.090  -0.030  1.00  0.00     0.120 C 
ATOM      8  Cl  UNL     1      14.667  80.026  -1.105  1.00  0.00    -0.120 Cl
ATOM      9  C   UNL     1      12.056  80.821  -0.722  1.00  0.00     0.120 C 
ATOM     10  Cl  UNL     1      10.883  81.387   0.509  1.00  0.00    -0.120 Cl
ATOM     11  C   UNL     1      11.331  79.957  -1.780  1.00  0.00     0.120 C 
ATOM     12  Cl  UNL     1      12.291  79.861  -3.294  1.00  0.00    -0.120 Cl
ENDROOT
TORSDOF 0
ENDMDL
MODEL 8
REMARK VINA RESULT:    -5.253      3.699      4.963
REMARK INTER + INTRA:          -5.253
REMARK INTER:                  -5.253
REMARK INTRA:                   0.000
REMARK UNBOUND:                 0.000
REMARK SMILES Cl[C@H]1[C@H](Cl)[C@@H](Cl)[C@@H](Cl)[C@H](Cl)[C@H]1Cl
REMARK SMILES IDX 1 1 2 2 3 3 4 4 5 5 6 6 7 7 8 8 9 9 10 10 11 11 12 12
REMARK H PARENT
REMARK Flexibility Score: inf
ROOT
ATOM      1  Cl  UNL     1       6.403  76.288   0.963  1.00  0.00    -0.120 Cl
ATOM      2  C   UNL     1       6.991  76.717  -0.676  1.00  0.00     0.120 C 
ATOM      3  C   UNL     1       7.703  78.084  -0.673  1.00  0.00     0.120 C 
ATOM      4  Cl  UNL     1       6.575  79.348  -0.083  1.00  0.00    -0.120 Cl
ATOM      5  C   UNL     1       8.181  78.443  -2.095  1.00  0.00     0.120 C 
ATOM      6  Cl  UNL     1       8.994  80.042  -2.121  1.00  0.00    -0.120 Cl
ATOM      7  C   UNL     1       9.108  77.358  -2.686  1.00  0.00     0.120 C 
ATOM      8  Cl  UNL     1      10.726  77.358  -1.908  1.00  0.00    -0.120 Cl
ATOM      9  C   UNL     1       8.467  75.951  -2.628  1.00  0.00     0.120 C 
ATOM     10  Cl  UNL     1       7.184  75.815  -3.871  1.00  0.00    -0.120 Cl
ATOM     11  C   UNL     1       7.891  75.595  -1.237  1.00  0.00     0.120 C 
ATOM     12  Cl  UNL     1       9.203  75.151  -0.096  1.00  0.00    -0.120 Cl
ENDROOT
TORSDOF 0
ENDMDL
MODEL 9
REMARK VINA RESULT:    -5.176      1.731      3.832
REMARK INTER + INTRA:          -5.176
REMARK INTER:                  -5.176
REMARK INTRA:                   0.000
REMARK UNBOUND:                 0.000
REMARK SMILES Cl[C@H]1[C@H](Cl)[C@@H](Cl)[C@@H](Cl)[C@H](Cl)[C@H]1Cl
REMARK SMILES IDX 1 1 2 2 3 3 4 4 5 5 6 6 7 7 8 8 9 9 10 10 11 11 12 12
REMARK H PARENT
REMARK Flexibility Score: inf
ROOT
ATOM      1  Cl  UNL     1      10.330  77.395  -2.654  1.00  0.00    -0.120 Cl
ATOM      2  C   UNL     1      11.876  77.760  -1.823  1.00  0.00     0.120 C 
ATOM      3  C   UNL     1      12.823  78.567  -2.734  1.00  0.00     0.120 C 
ATOM      4  Cl  UNL     1      13.146  77.638  -4.235  1.00  0.00    -0.120 Cl
ATOM      5  C   UNL     1      14.154  78.851  -2.008  1.00  0.00     0.120 C 
ATOM      6  Cl  UNL     1      15.282  79.769  -3.057  1.00  0.00    -0.120 Cl
ATOM      7  C   UNL     1      13.937  79.594  -0.671  1.00  0.00     0.120 C 
ATOM      8  Cl  UNL     1      13.458  81.305  -0.922  1.00  0.00    -0.120 Cl
ATOM      9  C   UNL     1      12.923  78.864   0.241  1.00  0.00     0.120 C 
ATOM     10  Cl  UNL     1      13.681  77.402   0.947  1.00  0.00    -0.120 Cl
ATOM     11  C   UNL     1      11.611  78.479  -0.482  1.00  0.00     0.120 C 
ATOM     12  Cl  UNL     1      10.548  79.910  -0.684  1.00  0.00    -0.120 Cl
ENDROOT
TORSDOF 0
ENDMDL
MODEL 10
REMARK VINA RESULT:    -5.099      3.369      4.688
REMARK INTER + INTRA:          -5.099
REMARK INTER:                  -5.099
REMARK INTRA:                   0.000
REMARK UNBOUND:                 0.000
REMARK SMILES Cl[C@H]1[C@H](Cl)[C@@H](Cl)[C@@H](Cl)[C@H](Cl)[C@H]1Cl
REMARK SMILES IDX 1 1 2 2 3 3 4 4 5 5 6 6 7 7 8 8 9 9 10 10 11 11 12 12
REMARK H PARENT
REMARK Flexibility Score: inf
ROOT
ATOM      1  Cl  UNL     1       7.038  78.939  -0.062  1.00  0.00    -0.120 Cl
ATOM      2  C   UNL     1       7.726  77.953  -1.394  1.00  0.00     0.120 C 
ATOM      3  C   UNL     1       9.255  78.130  -1.487  1.00  0.00     0.120 C 
ATOM      4  Cl  UNL     1       9.644  79.862  -1.750  1.00  0.00    -0.120 Cl
ATOM      5  C   UNL     1       9.823  77.292  -2.650  1.00  0.00     0.120 C 
ATOM      6  Cl  UNL     1      11.598  77.500  -2.792  1.00  0.00    -0.120 Cl
ATOM      7  C   UNL     1       9.464  75.796  -2.515  1.00  0.00     0.120 C 
ATOM      8  Cl  UNL     1      10.392  74.998  -1.201  1.00  0.00    -0.120 Cl
ATOM      9  C   UNL     1       7.945  75.576  -2.330  1.00  0.00     0.120 C 
ATOM     10  Cl  UNL     1       7.097  75.844  -3.885  1.00  0.00    -0.120 Cl
ATOM     11  C   UNL     1       7.323  76.472  -1.232  1.00  0.00     0.120 C 
ATOM     12  Cl  UNL     1       7.712  75.843   0.403  1.00  0.00    -0.120 Cl
ENDROOT
TORSDOF 0
ENDMDL
MODEL 11
REMARK VINA RESULT:    -5.052      1.763      3.542
REMARK INTER + INTRA:          -5.052
REMARK INTER:                  -5.052
REMARK INTRA:                   0.000
REMARK UNBOUND:                 0.000
REMARK SMILES Cl[C@H]1[C@H](Cl)[C@@H](Cl)[C@@H](Cl)[C@H](Cl)[C@H]1Cl
REMARK SMILES IDX 1 1 2 2 3 3 4 4 5 5 6 6 7 7 8 8 9 9 10 10 11 11 12 12
REMARK H PARENT
REMARK Flexibility Score: inf
ROOT
ATOM      1  Cl  UNL     1      12.885  79.920  -3.947  1.00  0.00    -0.120 Cl
ATOM      2  C   UNL     1      12.387  79.708  -2.237  1.00  0.00     0.120 C 
ATOM      3  C   UNL     1      12.302  78.215  -1.862  1.00  0.00     0.120 C 
ATOM      4  Cl  UNL     1      11.131  77.390  -2.942  1.00  0.00    -0.120 Cl
ATOM      5  C   UNL     1      11.852  78.055  -0.395  1.00  0.00     0.120 C 
ATOM      6  Cl  UNL     1      11.724  76.325   0.059  1.00  0.00    -0.120 Cl
ATOM      7  C   UNL     1      12.786  78.801   0.582  1.00  0.00     0.120 C 
ATOM      8  Cl  UNL     1      14.374  77.980   0.753  1.00  0.00    -0.120 Cl
ATOM      9  C   UNL     1      12.971  80.286   0.191  1.00  0.00     0.120 C 
ATOM     10  Cl  UNL     1      11.489  81.209   0.590  1.00  0.00    -0.120 Cl
ATOM     11  C   UNL     1      13.332  80.489  -1.299  1.00  0.00     0.120 C 
ATOM     12  Cl  UNL     1      15.057  80.093  -1.600  1.00  0.00    -0.120 Cl
ENDROOT
TORSDOF 0
ENDMDL
MODEL 12
REMARK VINA RESULT:    -5.044      0.922      2.458
REMARK INTER + INTRA:          -5.044
REMARK INTER:                  -5.044
REMARK INTRA:                   0.000
REMARK UNBOUND:                 0.000
REMARK SMILES Cl[C@H]1[C@H](Cl)[C@@H](Cl)[C@@H](Cl)[C@H](Cl)[C@H]1Cl
REMARK SMILES IDX 1 1 2 2 3 3 4 4 5 5 6 6 7 7 8 8 9 9 10 10 11 11 12 12
REMARK H PARENT
REMARK Flexibility Score: inf
ROOT
ATOM      1  Cl  UNL     1      10.894  82.109   0.302  1.00  0.00    -0.120 Cl
ATOM      2  C   UNL     1      11.649  80.791  -0.652  1.00  0.00     0.120 C 
ATOM      3  C   UNL     1      12.020  79.593   0.245  1.00  0.00     0.120 C 
ATOM      4  Cl  UNL     1      13.147  80.133   1.532  1.00  0.00    -0.120 Cl
ATOM      5  C   UNL     1      12.686  78.482  -0.591  1.00  0.00     0.120 C 
ATOM      6  Cl  UNL     1      13.147  77.086   0.436  1.00  0.00    -0.120 Cl
ATOM      7  C   UNL     1      11.789  78.019  -1.760  1.00  0.00     0.120 C 
ATOM      8  Cl  UNL     1      10.389  77.049  -1.189  1.00  0.00    -0.120 Cl
ATOM      9  C   UNL     1      11.319  79.203  -2.637  1.00  0.00     0.120 C 
ATOM     10  Cl  UNL     1      12.678  79.785  -3.650  1.00  0.00    -0.120 Cl
ATOM     11  C   UNL     1      10.730  80.377  -1.822  1.00  0.00     0.120 C 
ATOM     12  Cl  UNL     1       9.065  80.001  -1.268  1.00  0.00    -0.120 Cl
ENDROOT
TORSDOF 0
ENDMDL
MODEL 13
REMARK VINA RESULT:    -5.044      1.478      3.773
REMARK INTER + INTRA:          -5.044
REMARK INTER:                  -5.044
REMARK INTRA:                   0.000
REMARK UNBOUND:                 0.000
REMARK SMILES Cl[C@H]1[C@H](Cl)[C@@H](Cl)[C@@H](Cl)[C@H](Cl)[C@H]1Cl
REMARK SMILES IDX 1 1 2 2 3 3 4 4 5 5 6 6 7 7 8 8 9 9 10 10 11 11 12 12
REMARK H PARENT
REMARK Flexibility Score: inf
ROOT
ATOM      1  Cl  UNL     1      14.262  80.136   0.767  1.00  0.00    -0.120 Cl
ATOM      2  C   UNL     1      13.395  79.404  -0.621  1.00  0.00     0.120 C 
ATOM      3  C   UNL     1      12.427  78.298  -0.155  1.00  0.00     0.120 C 
ATOM      4  Cl  UNL     1      13.343  77.031   0.725  1.00  0.00    -0.120 Cl
ATOM      5  C   UNL     1      11.709  77.668  -1.365  1.00  0.00     0.120 C 
ATOM      6  Cl  UNL     1      10.593  76.361  -0.849  1.00  0.00    -0.120 Cl
ATOM      7  C   UNL     1      10.953  78.722  -2.204  1.00  0.00     0.120 C 
ATOM      8  Cl  UNL     1       9.481  79.318  -1.366  1.00  0.00    -0.120 Cl
ATOM      9  C   UNL     1      11.867  79.898  -2.620  1.00  0.00     0.120 C 
ATOM     10  Cl  UNL     1      12.981  79.372  -3.920  1.00  0.00    -0.120 Cl
ATOM     11  C   UNL     1      12.675  80.494  -1.444  1.00  0.00     0.120 C 
ATOM     12  Cl  UNL     1      11.637  81.537  -0.416  1.00  0.00    -0.120 Cl
ENDROOT
TORSDOF 0
ENDMDL
MODEL 14
REMARK VINA RESULT:    -4.986      1.433      3.985
REMARK INTER + INTRA:          -4.986
REMARK INTER:                  -4.986
REMARK INTRA:                   0.000
REMARK UNBOUND:                 0.000
REMARK SMILES Cl[C@H]1[C@H](Cl)[C@@H](Cl)[C@@H](Cl)[C@H](Cl)[C@H]1Cl
REMARK SMILES IDX 1 1 2 2 3 3 4 4 5 5 6 6 7 7 8 8 9 9 10 10 11 11 12 12
REMARK H PARENT
REMARK Flexibility Score: inf
ROOT
ATOM      1  Cl  UNL     1      13.128  77.077   0.748  1.00  0.00    -0.120 Cl
ATOM      2  C   UNL     1      12.470  77.822  -0.744  1.00  0.00     0.120 C 
ATOM      3  C   UNL     1      10.938  77.665  -0.817  1.00  0.00     0.120 C 
ATOM      4  Cl  UNL     1      10.510  75.923  -0.769  1.00  0.00    -0.120 Cl
ATOM      5  C   UNL     1      10.395  78.293  -2.117  1.00  0.00     0.120 C 
ATOM      6  Cl  UNL     1       8.616  78.102  -2.236  1.00  0.00    -0.120 Cl
ATOM      7  C   UNL     1      10.788  79.781  -2.250  1.00  0.00     0.120 C 
ATOM      8  Cl  UNL     1       9.873  80.822  -1.109  1.00  0.00    -0.120 Cl
ATOM      9  C   UNL     1      12.312  79.996  -2.094  1.00  0.00     0.120 C 
ATOM     10  Cl  UNL     1      13.160  79.435  -3.569  1.00  0.00    -0.120 Cl
ATOM     11  C   UNL     1      12.907  79.299  -0.848  1.00  0.00     0.120 C 
ATOM     12  Cl  UNL     1      12.525  80.220   0.645  1.00  0.00    -0.120 Cl
ENDROOT
TORSDOF 0
ENDMDL
MODEL 15
REMARK VINA RESULT:    -4.941      1.552      3.132
REMARK INTER + INTRA:          -4.941
REMARK INTER:                  -4.941
REMARK INTRA:                   0.000
REMARK UNBOUND:                 0.000
REMARK SMILES Cl[C@H]1[C@H](Cl)[C@@H](Cl)[C@@H](Cl)[C@H](Cl)[C@H]1Cl
REMARK SMILES IDX 1 1 2 2 3 3 4 4 5 5 6 6 7 7 8 8 9 9 10 10 11 11 12 12
REMARK H PARENT
REMARK Flexibility Score: inf
ROOT
ATOM      1  Cl  UNL     1      11.159  76.143  -0.326  1.00  0.00    -0.120 Cl
ATOM      2  C   UNL     1      11.479  77.864  -0.715  1.00  0.00     0.120 C 
ATOM      3  C   UNL     1      12.968  78.214  -0.520  1.00  0.00     0.120 C 
ATOM      4  Cl  UNL     1      13.446  77.876   1.176  1.00  0.00    -0.120 Cl
ATOM      5  C   UNL     1      13.217  79.702  -0.839  1.00  0.00     0.120 C 
ATOM      6  Cl  UNL     1      14.939  80.138  -0.597  1.00  0.00    -0.120 Cl
ATOM      7  C   UNL     1      12.763  80.071  -2.269  1.00  0.00     0.120 C 
ATOM      8  Cl  UNL     1      13.861  79.396  -3.518  1.00  0.00    -0.120 Cl
ATOM      9  C   UNL     1      11.298  79.657  -2.539  1.00  0.00     0.120 C 
ATOM     10  Cl  UNL     1      10.183  80.769  -1.684  1.00  0.00    -0.120 Cl
ATOM     11  C   UNL     1      10.988  78.195  -2.141  1.00  0.00     0.120 C 
ATOM     12  Cl  UNL     1      11.640  77.049  -3.360  1.00  0.00    -0.120 Cl
ENDROOT
TORSDOF 0
ENDMDL
