MODEL 1
REMARK VINA RESULT:    -7.548      0.000      0.000
REMARK INTER + INTRA:         -17.577
REMARK INTER:                 -15.271
REMARK INTRA:                  -2.307
REMARK UNBOUND:                -2.307
REMARK SMILES OCc1cc(C(O)CNCCCCCCOCCCCc2ccccc2)ccc1O
REMARK SMILES IDX 12 1 11 2 10 3 9 4 8 6 6 7 5 8 3 9 29 10 4 11 28 12 27 13
REMARK SMILES IDX 2 14 1 15 30 17 7 19 13 21 14 22 15 23 16 24 17 25 18 26
REMARK SMILES IDX 19 27 20 28 21 29 22 30 26 31 23 32 25 33 24 34
REMARK H PARENT 9 5 1 16 30 18 7 20
REMARK Flexibility Score: inf
ROOT
ATOM      1  C   UNL     1     -81.205 -21.949  89.908  1.00  0.00     0.001 C 
ENDROOT
BRANCH   1   2
ATOM      2  C   UNL     1     -80.008 -21.108  89.432  1.00  0.00     0.015 C 
BRANCH   2   3
ATOM      3  C   UNL     1     -78.670 -21.693  89.911  1.00  0.00     0.081 C 
BRANCH   3   4
ATOM      4  N   UNL     1     -78.390 -21.313  91.304  1.00  0.00    -0.314 NA
ATOM      5  H   UNL     1     -79.068 -20.559  91.569  1.00  0.00     0.122 HD
BRANCH   4   6
ATOM      6  C   UNL     1     -77.034 -20.764  91.452  1.00  0.00     0.117 C 
BRANCH   6   7
ATOM      7  C   UNL     1     -76.454 -20.410  90.077  1.00  0.00     0.158 C 
BRANCH   7   8
ATOM      8  C   UNL     1     -76.236 -18.916  89.977  1.00  0.00    -0.018 A 
ATOM      9  C   UNL     1     -76.099 -16.732  91.062  1.00  0.00     0.020 A 
ATOM     10  C   UNL     1     -75.733 -16.149  89.835  1.00  0.00     0.121 A 
ATOM     11  C   UNL     1     -76.360 -18.111  91.122  1.00  0.00     0.016 A 
ATOM     12  C   UNL     1     -75.596 -16.953  88.695  1.00  0.00     0.047 A 
ATOM     13  C   UNL     1     -75.834 -18.326  88.767  1.00  0.00     0.010 A 
BRANCH   9  14
ATOM     14  C   UNL     1     -76.268 -15.887  92.298  1.00  0.00     0.195 C 
BRANCH  14  15
ATOM     15  O   UNL     1     -77.281 -14.940  92.099  1.00  0.00    -0.392 OA
ATOM     16  H   UNL     1     -76.833 -14.101  91.810  1.00  0.00     0.211 HD
ENDBRANCH  14  15
ENDBRANCH   9  14
BRANCH  10  17
ATOM     17  O   UNL     1     -75.503 -14.775  89.750  1.00  0.00    -0.508 OA
ATOM     18  H   UNL     1     -76.233 -14.102  89.943  1.00  0.00     0.293 HD
ENDBRANCH  10  17
ENDBRANCH   7   8
BRANCH   7  19
ATOM     19  O   UNL     1     -75.244 -21.099  89.882  1.00  0.00    -0.387 OA
ATOM     20  H   UNL     1     -74.707 -20.972  90.708  1.00  0.00     0.211 HD
ENDBRANCH   7  19
ENDBRANCH   6   7
ENDBRANCH   4   6
ENDBRANCH   3   4
ENDBRANCH   2   3
ENDBRANCH   1   2
BRANCH   1  21
ATOM     21  C   UNL     1     -82.256 -21.114  90.662  1.00  0.00     0.002 C 
BRANCH  21  22
ATOM     22  C   UNL     1     -83.717 -21.401  90.266  1.00  0.00     0.028 C 
BRANCH  22  23
ATOM     23  C   UNL     1     -83.956 -21.438  88.747  1.00  0.00     0.160 C 
BRANCH  23  24
ATOM     24  O   UNL     1     -84.576 -20.253  88.283  1.00  0.00    -0.381 OA
BRANCH  24  25
ATOM     25  C   UNL     1     -84.107 -19.885  86.997  1.00  0.00     0.160 C 
BRANCH  25  26
ATOM     26  C   UNL     1     -82.929 -20.773  86.593  1.00  0.00     0.029 C 
BRANCH  26  27
ATOM     27  C   UNL     1     -81.879 -19.992  85.787  1.00  0.00     0.007 C 
BRANCH  27  28
ATOM     28  C   UNL     1     -80.449 -20.471  86.075  1.00  0.00     0.035 C 
BRANCH  28  29
ATOM     29  C   UNL     1     -79.418 -19.621  85.376  1.00  0.00    -0.048 A 
ATOM     30  C   UNL     1     -78.235 -19.245  86.037  1.00  0.00     0.004 A 
ATOM     31  C   UNL     1     -79.617 -19.223  84.042  1.00  0.00     0.004 A 
ATOM     32  C   UNL     1     -77.275 -18.471  85.377  1.00  0.00     0.000 A 
ATOM     33  C   UNL     1     -78.652 -18.452  83.385  1.00  0.00     0.000 A 
ATOM     34  C   UNL     1     -77.483 -18.076  84.051  1.00  0.00     0.000 A 
ENDBRANCH  28  29
ENDBRANCH  27  28
ENDBRANCH  26  27
ENDBRANCH  25  26
ENDBRANCH  24  25
ENDBRANCH  23  24
ENDBRANCH  22  23
ENDBRANCH  21  22
ENDBRANCH   1  21
TORSDOF 19
ENDMDL
MODEL 2
REMARK VINA RESULT:    -7.458      1.635      6.669
REMARK INTER + INTRA:         -17.394
REMARK INTER:                 -15.550
REMARK INTRA:                  -1.844
REMARK UNBOUND:                -2.307
REMARK SMILES OCc1cc(C(O)CNCCCCCCOCCCCc2ccccc2)ccc1O
REMARK SMILES IDX 12 1 11 2 10 3 9 4 8 6 6 7 5 8 3 9 29 10 4 11 28 12 27 13
REMARK SMILES IDX 2 14 1 15 30 17 7 19 13 21 14 22 15 23 16 24 17 25 18 26
REMARK SMILES IDX 19 27 20 28 21 29 22 30 26 31 23 32 25 33 24 34
REMARK H PARENT 9 5 1 16 30 18 7 20
REMARK Flexibility Score: inf
ROOT
ATOM      1  C   UNL     1     -76.085 -18.506  91.192  1.00  0.00     0.001 C 
ENDROOT
BRANCH   1   2
ATOM      2  C   UNL     1     -76.659 -19.745  91.901  1.00  0.00     0.015 C 
BRANCH   2   3
ATOM      3  C   UNL     1     -76.104 -21.052  91.314  1.00  0.00     0.081 C 
BRANCH   3   4
ATOM      4  N   UNL     1     -77.151 -22.081  91.219  1.00  0.00    -0.314 NA
ATOM      5  H   UNL     1     -76.675 -23.012  91.146  1.00  0.00     0.122 HD
BRANCH   4   6
ATOM      6  C   UNL     1     -77.973 -21.905  90.013  1.00  0.00     0.117 C 
BRANCH   6   7
ATOM      7  C   UNL     1     -79.349 -21.341  90.389  1.00  0.00     0.158 C 
BRANCH   7   8
ATOM      8  C   UNL     1     -80.255 -21.339  89.176  1.00  0.00    -0.018 A 
ATOM      9  C   UNL     1     -82.481 -21.619  88.211  1.00  0.00     0.020 A 
ATOM     10  C   UNL     1     -81.979 -21.242  86.952  1.00  0.00     0.121 A 
ATOM     11  C   UNL     1     -81.612 -21.676  89.313  1.00  0.00     0.016 A 
ATOM     12  C   UNL     1     -80.628 -20.893  86.816  1.00  0.00     0.047 A 
ATOM     13  C   UNL     1     -79.775 -20.929  87.920  1.00  0.00     0.010 A 
BRANCH   9  14
ATOM     14  C   UNL     1     -83.925 -22.014  88.380  1.00  0.00     0.195 C 
BRANCH  14  15
ATOM     15  O   UNL     1     -84.757 -21.070  87.764  1.00  0.00    -0.392 OA
ATOM     16  H   UNL     1     -85.585 -21.021  88.312  1.00  0.00     0.211 HD
ENDBRANCH  14  15
ENDBRANCH   9  14
BRANCH  10  17
ATOM     17  O   UNL     1     -82.821 -21.212  85.840  1.00  0.00    -0.508 OA
ATOM     18  H   UNL     1     -82.746 -20.488  85.137  1.00  0.00     0.293 HD
ENDBRANCH  10  17
ENDBRANCH   7   8
BRANCH   7  19
ATOM     19  O   UNL     1     -79.910 -22.111  91.421  1.00  0.00    -0.387 OA
ATOM     20  H   UNL     1     -79.798 -23.063  91.161  1.00  0.00     0.211 HD
ENDBRANCH   7  19
ENDBRANCH   6   7
ENDBRANCH   4   6
ENDBRANCH   3   4
ENDBRANCH   2   3
ENDBRANCH   1   2
BRANCH   1  21
ATOM     21  C   UNL     1     -76.190 -17.230  92.047  1.00  0.00     0.002 C 
BRANCH  21  22
ATOM     22  C   UNL     1     -76.079 -15.911  91.258  1.00  0.00     0.028 C 
BRANCH  22  23
ATOM     23  C   UNL     1     -74.913 -15.881  90.254  1.00  0.00     0.160 C 
BRANCH  23  24
ATOM     24  O   UNL     1     -75.334 -15.456  88.972  1.00  0.00    -0.381 OA
BRANCH  24  25
ATOM     25  C   UNL     1     -74.760 -16.245  87.943  1.00  0.00     0.160 C 
BRANCH  25  26
ATOM     26  C   UNL     1     -75.665 -17.438  87.628  1.00  0.00     0.029 C 
BRANCH  26  27
ATOM     27  C   UNL     1     -76.693 -17.098  86.537  1.00  0.00     0.007 C 
BRANCH  27  28
ATOM     28  C   UNL     1     -77.607 -18.286  86.207  1.00  0.00     0.035 C 
BRANCH  28  29
ATOM     29  C   UNL     1     -78.083 -18.251  84.776  1.00  0.00    -0.048 A 
ATOM     30  C   UNL     1     -77.214 -17.855  83.744  1.00  0.00     0.004 A 
ATOM     31  C   UNL     1     -79.395 -18.644  84.459  1.00  0.00     0.004 A 
ATOM     32  C   UNL     1     -77.658 -17.841  82.417  1.00  0.00     0.000 A 
ATOM     33  C   UNL     1     -79.832 -18.632  83.130  1.00  0.00     0.000 A 
ATOM     34  C   UNL     1     -78.965 -18.231  82.111  1.00  0.00     0.000 A 
ENDBRANCH  28  29
ENDBRANCH  27  28
ENDBRANCH  26  27
ENDBRANCH  25  26
ENDBRANCH  24  25
ENDBRANCH  23  24
ENDBRANCH  22  23
ENDBRANCH  21  22
ENDBRANCH   1  21
TORSDOF 19
ENDMDL
MODEL 3
REMARK VINA RESULT:    -7.433      2.598      7.289
REMARK INTER + INTRA:         -17.343
REMARK INTER:                 -15.222
REMARK INTRA:                  -2.122
REMARK UNBOUND:                -2.307
REMARK SMILES OCc1cc(C(O)CNCCCCCCOCCCCc2ccccc2)ccc1O
REMARK SMILES IDX 12 1 11 2 10 3 9 4 8 6 6 7 5 8 3 9 29 10 4 11 28 12 27 13
REMARK SMILES IDX 2 14 1 15 30 17 7 19 13 21 14 22 15 23 16 24 17 25 18 26
REMARK SMILES IDX 19 27 20 28 21 29 22 30 26 31 23 32 25 33 24 34
REMARK H PARENT 9 5 1 16 30 18 7 20
REMARK Flexibility Score: inf
ROOT
ATOM      1  C   UNL     1     -77.225 -18.795  87.985  1.00  0.00     0.001 C 
ENDROOT
BRANCH   1   2
ATOM      2  C   UNL     1     -76.854 -20.288  87.959  1.00  0.00     0.015 C 
BRANCH   2   3
ATOM      3  C   UNL     1     -76.702 -20.867  89.374  1.00  0.00     0.081 C 
BRANCH   3   4
ATOM      4  N   UNL     1     -77.775 -21.827  89.675  1.00  0.00    -0.314 NA
ATOM      5  H   UNL     1     -77.460 -22.769  89.340  1.00  0.00     0.122 HD
BRANCH   4   6
ATOM      6  C   UNL     1     -79.015 -21.492  88.961  1.00  0.00     0.117 C 
BRANCH   6   7
ATOM      7  C   UNL     1     -80.124 -21.142  89.961  1.00  0.00     0.158 C 
BRANCH   7   8
ATOM      8  C   UNL     1     -81.481 -21.366  89.329  1.00  0.00    -0.018 A 
ATOM      9  C   UNL     1     -82.821 -22.150  87.444  1.00  0.00     0.020 A 
ATOM     10  C   UNL     1     -83.995 -21.886  88.173  1.00  0.00     0.121 A 
ATOM     11  C   UNL     1     -81.571 -21.876  88.023  1.00  0.00     0.016 A 
ATOM     12  C   UNL     1     -83.906 -21.390  89.481  1.00  0.00     0.047 A 
ATOM     13  C   UNL     1     -82.661 -21.142  90.059  1.00  0.00     0.010 A 
BRANCH   9  14
ATOM     14  C   UNL     1     -82.889 -22.669  86.031  1.00  0.00     0.195 C 
BRANCH  14  15
ATOM     15  O   UNL     1     -83.812 -23.720  85.949  1.00  0.00    -0.392 OA
ATOM     16  H   UNL     1     -84.693 -23.309  85.745  1.00  0.00     0.211 HD
ENDBRANCH  14  15
ENDBRANCH   9  14
BRANCH  10  17
ATOM     17  O   UNL     1     -85.245 -22.121  87.600  1.00  0.00    -0.508 OA
ATOM     18  H   UNL     1     -85.345 -22.354  86.621  1.00  0.00     0.293 HD
ENDBRANCH  10  17
ENDBRANCH   7   8
BRANCH   7  19
ATOM     19  O   UNL     1     -79.984 -21.929  91.118  1.00  0.00    -0.387 OA
ATOM     20  H   UNL     1     -79.082 -21.735  91.487  1.00  0.00     0.211 HD
ENDBRANCH   7  19
ENDBRANCH   6   7
ENDBRANCH   4   6
ENDBRANCH   3   4
ENDBRANCH   2   3
ENDBRANCH   1   2
BRANCH   1  21
ATOM     21  C   UNL     1     -75.994 -17.879  88.106  1.00  0.00     0.002 C 
BRANCH  21  22
ATOM     22  C   UNL     1     -75.484 -17.299  86.772  1.00  0.00     0.028 C 
BRANCH  22  23
ATOM     23  C   UNL     1     -76.485 -16.363  86.075  1.00  0.00     0.160 C 
BRANCH  23  24
ATOM     24  O   UNL     1     -76.121 -16.110  84.732  1.00  0.00    -0.381 OA
BRANCH  24  25
ATOM     25  C   UNL     1     -74.873 -16.698  84.406  1.00  0.00     0.160 C 
BRANCH  25  26
ATOM     26  C   UNL     1     -75.005 -17.543  83.138  1.00  0.00     0.029 C 
BRANCH  26  27
ATOM     27  C   UNL     1     -76.476 -17.803  82.779  1.00  0.00     0.007 C 
BRANCH  27  28
ATOM     28  C   UNL     1     -76.970 -19.162  83.296  1.00  0.00     0.035 C 
BRANCH  28  29
ATOM     29  C   UNL     1     -78.439 -19.135  83.639  1.00  0.00    -0.048 A 
ATOM     30  C   UNL     1     -78.886 -19.573  84.898  1.00  0.00     0.004 A 
ATOM     31  C   UNL     1     -79.372 -18.639  82.712  1.00  0.00     0.004 A 
ATOM     32  C   UNL     1     -80.247 -19.529  85.217  1.00  0.00     0.000 A 
ATOM     33  C   UNL     1     -80.732 -18.593  83.036  1.00  0.00     0.000 A 
ATOM     34  C   UNL     1     -81.169 -19.038  84.287  1.00  0.00     0.000 A 
ENDBRANCH  28  29
ENDBRANCH  27  28
ENDBRANCH  26  27
ENDBRANCH  25  26
ENDBRANCH  24  25
ENDBRANCH  23  24
ENDBRANCH  22  23
ENDBRANCH  21  22
ENDBRANCH   1  21
TORSDOF 19
ENDMDL
MODEL 4
REMARK VINA RESULT:    -7.427      2.417      6.844
REMARK INTER + INTRA:         -17.331
REMARK INTER:                 -15.264
REMARK INTRA:                  -2.067
REMARK UNBOUND:                -2.307
REMARK SMILES OCc1cc(C(O)CNCCCCCCOCCCCc2ccccc2)ccc1O
REMARK SMILES IDX 12 1 11 2 10 3 9 4 8 6 6 7 5 8 3 9 29 10 4 11 28 12 27 13
REMARK SMILES IDX 2 14 1 15 30 17 7 19 13 21 14 22 15 23 16 24 17 25 18 26
REMARK SMILES IDX 19 27 20 28 21 29 22 30 26 31 23 32 25 33 24 34
REMARK H PARENT 9 5 1 16 30 18 7 20
REMARK Flexibility Score: inf
ROOT
ATOM      1  C   UNL     1     -77.170 -18.561  87.933  1.00  0.00     0.001 C 
ENDROOT
BRANCH   1   2
ATOM      2  C   UNL     1     -76.412 -18.540  89.272  1.00  0.00     0.015 C 
BRANCH   2   3
ATOM      3  C   UNL     1     -76.360 -19.930  89.924  1.00  0.00     0.081 C 
BRANCH   3   4
ATOM      4  N   UNL     1     -76.608 -20.992  88.936  1.00  0.00    -0.314 NA
ATOM      5  H   UNL     1     -76.991 -20.537  88.073  1.00  0.00     0.122 HD
BRANCH   4   6
ATOM      6  C   UNL     1     -77.613 -21.951  89.417  1.00  0.00     0.117 C 
BRANCH   6   7
ATOM      7  C   UNL     1     -78.726 -21.217  90.176  1.00  0.00     0.158 C 
BRANCH   7   8
ATOM      8  C   UNL     1     -79.984 -21.176  89.335  1.00  0.00    -0.018 A 
ATOM      9  C   UNL     1     -82.420 -21.072  89.196  1.00  0.00     0.020 A 
ATOM     10  C   UNL     1     -82.334 -20.996  87.794  1.00  0.00     0.121 A 
ATOM     11  C   UNL     1     -81.244 -21.174  89.957  1.00  0.00     0.016 A 
ATOM     12  C   UNL     1     -81.077 -20.984  87.173  1.00  0.00     0.047 A 
ATOM     13  C   UNL     1     -79.911 -21.062  87.936  1.00  0.00     0.010 A 
BRANCH   9  14
ATOM     14  C   UNL     1     -83.759 -21.103  89.887  1.00  0.00     0.195 C 
BRANCH  14  15
ATOM     15  O   UNL     1     -83.583 -21.100  91.277  1.00  0.00    -0.392 OA
ATOM     16  H   UNL     1     -82.900 -20.406  91.476  1.00  0.00     0.211 HD
ENDBRANCH  14  15
ENDBRANCH   9  14
BRANCH  10  17
ATOM     17  O   UNL     1     -83.493 -20.928  87.021  1.00  0.00    -0.508 OA
ATOM     18  H   UNL     1     -84.397 -20.741  87.436  1.00  0.00     0.293 HD
ENDBRANCH  10  17
ENDBRANCH   7   8
BRANCH   7  19
ATOM     19  O   UNL     1     -78.972 -21.864  91.399  1.00  0.00    -0.387 OA
ATOM     20  H   UNL     1     -78.455 -22.713  91.382  1.00  0.00     0.211 HD
ENDBRANCH   7  19
ENDBRANCH   6   7
ENDBRANCH   4   6
ENDBRANCH   3   4
ENDBRANCH   2   3
ENDBRANCH   1   2
BRANCH   1  21
ATOM     21  C   UNL     1     -76.617 -17.542  86.921  1.00  0.00     0.002 C 
BRANCH  21  22
ATOM     22  C   UNL     1     -75.081 -17.416  86.902  1.00  0.00     0.028 C 
BRANCH  22  23
ATOM     23  C   UNL     1     -74.561 -16.276  86.010  1.00  0.00     0.160 C 
BRANCH  23  24
ATOM     24  O   UNL     1     -75.036 -16.388  84.682  1.00  0.00    -0.381 OA
BRANCH  24  25
ATOM     25  C   UNL     1     -73.973 -16.554  83.757  1.00  0.00     0.160 C 
BRANCH  25  26
ATOM     26  C   UNL     1     -74.241 -17.764  82.860  1.00  0.00     0.029 C 
BRANCH  26  27
ATOM     27  C   UNL     1     -75.603 -18.406  83.164  1.00  0.00     0.007 C 
BRANCH  27  28
ATOM     28  C   UNL     1     -76.741 -17.774  82.349  1.00  0.00     0.035 C 
BRANCH  28  29
ATOM     29  C   UNL     1     -78.098 -18.163  82.879  1.00  0.00    -0.048 A 
ATOM     30  C   UNL     1     -79.222 -18.159  82.033  1.00  0.00     0.004 A 
ATOM     31  C   UNL     1     -78.246 -18.566  84.218  1.00  0.00     0.004 A 
ATOM     32  C   UNL     1     -80.475 -18.538  82.526  1.00  0.00     0.000 A 
ATOM     33  C   UNL     1     -79.500 -18.947  84.704  1.00  0.00     0.000 A 
ATOM     34  C   UNL     1     -80.613 -18.933  83.860  1.00  0.00     0.000 A 
ENDBRANCH  28  29
ENDBRANCH  27  28
ENDBRANCH  26  27
ENDBRANCH  25  26
ENDBRANCH  24  25
ENDBRANCH  23  24
ENDBRANCH  22  23
ENDBRANCH  21  22
ENDBRANCH   1  21
TORSDOF 19
ENDMDL
MODEL 5
REMARK VINA RESULT:    -7.333      2.891      5.382
REMARK INTER + INTRA:         -17.142
REMARK INTER:                 -13.913
REMARK INTRA:                  -3.229
REMARK UNBOUND:                -2.307
REMARK SMILES OCc1cc(C(O)CNCCCCCCOCCCCc2ccccc2)ccc1O
REMARK SMILES IDX 12 1 11 2 10 3 9 4 8 6 6 7 5 8 3 9 29 10 4 11 28 12 27 13
REMARK SMILES IDX 2 14 1 15 30 17 7 19 13 21 14 22 15 23 16 24 17 25 18 26
REMARK SMILES IDX 19 27 20 28 21 29 22 30 26 31 23 32 25 33 24 34
REMARK H PARENT 9 5 1 16 30 18 7 20
REMARK Flexibility Score: inf
ROOT
ATOM      1  C   UNL     1     -75.511 -18.021  88.592  1.00  0.00     0.001 C 
ENDROOT
BRANCH   1   2
ATOM      2  C   UNL     1     -75.685 -16.586  88.066  1.00  0.00     0.015 C 
BRANCH   2   3
ATOM      3  C   UNL     1     -74.348 -15.832  88.002  1.00  0.00     0.081 C 
BRANCH   3   4
ATOM      4  N   UNL     1     -73.282 -16.578  88.690  1.00  0.00    -0.314 NA
ATOM      5  H   UNL     1     -73.736 -17.355  89.227  1.00  0.00     0.122 HD
BRANCH   4   6
ATOM      6  C   UNL     1     -72.564 -15.730  89.652  1.00  0.00     0.117 C 
BRANCH   6   7
ATOM      7  C   UNL     1     -73.526 -14.714  90.282  1.00  0.00     0.158 C 
BRANCH   7   8
ATOM      8  C   UNL     1     -74.228 -15.335  91.471  1.00  0.00    -0.018 A 
ATOM      9  C   UNL     1     -76.292 -15.795  92.691  1.00  0.00     0.020 A 
ATOM     10  C   UNL     1     -75.568 -16.566  93.619  1.00  0.00     0.121 A 
ATOM     11  C   UNL     1     -75.614 -15.174  91.630  1.00  0.00     0.016 A 
ATOM     12  C   UNL     1     -74.187 -16.738  93.454  1.00  0.00     0.047 A 
ATOM     13  C   UNL     1     -73.523 -16.137  92.384  1.00  0.00     0.010 A 
BRANCH   9  14
ATOM     14  C   UNL     1     -77.775 -15.583  92.854  1.00  0.00     0.195 C 
BRANCH  14  15
ATOM     15  O   UNL     1     -78.026 -14.794  93.985  1.00  0.00    -0.392 OA
ATOM     16  H   UNL     1     -77.220 -14.230  94.123  1.00  0.00     0.211 HD
ENDBRANCH  14  15
ENDBRANCH   9  14
BRANCH  10  17
ATOM     17  O   UNL     1     -76.220 -17.163  94.699  1.00  0.00    -0.508 OA
ATOM     18  H   UNL     1     -77.091 -16.796  95.061  1.00  0.00     0.293 HD
ENDBRANCH  10  17
ENDBRANCH   7   8
BRANCH   7  19
ATOM     19  O   UNL     1     -72.813 -13.568  90.674  1.00  0.00    -0.387 OA
ATOM     20  H   UNL     1     -73.445 -12.804  90.614  1.00  0.00     0.211 HD
ENDBRANCH   7  19
ENDBRANCH   6   7
ENDBRANCH   4   6
ENDBRANCH   3   4
ENDBRANCH   2   3
ENDBRANCH   1   2
BRANCH   1  21
ATOM     21  C   UNL     1     -76.416 -18.326  89.799  1.00  0.00     0.002 C 
BRANCH  21  22
ATOM     22  C   UNL     1     -75.744 -19.139  90.923  1.00  0.00     0.028 C 
BRANCH  22  23
ATOM     23  C   UNL     1     -75.706 -20.654  90.659  1.00  0.00     0.160 C 
BRANCH  23  24
ATOM     24  O   UNL     1     -76.822 -21.315  91.224  1.00  0.00    -0.381 OA
BRANCH  24  25
ATOM     25  C   UNL     1     -77.625 -21.930  90.231  1.00  0.00     0.160 C 
BRANCH  25  26
ATOM     26  C   UNL     1     -79.011 -21.281  90.198  1.00  0.00     0.029 C 
BRANCH  26  27
ATOM     27  C   UNL     1     -79.478 -21.014  88.759  1.00  0.00     0.007 C 
BRANCH  27  28
ATOM     28  C   UNL     1     -78.305 -20.752  87.804  1.00  0.00     0.035 C 
BRANCH  28  29
ATOM     29  C   UNL     1     -78.728 -19.953  86.597  1.00  0.00    -0.048 A 
ATOM     30  C   UNL     1     -77.876 -18.976  86.052  1.00  0.00     0.004 A 
ATOM     31  C   UNL     1     -79.969 -20.203  85.984  1.00  0.00     0.004 A 
ATOM     32  C   UNL     1     -78.267 -18.252  84.922  1.00  0.00     0.000 A 
ATOM     33  C   UNL     1     -80.354 -19.478  84.852  1.00  0.00     0.000 A 
ATOM     34  C   UNL     1     -79.505 -18.504  84.321  1.00  0.00     0.000 A 
ENDBRANCH  28  29
ENDBRANCH  27  28
ENDBRANCH  26  27
ENDBRANCH  25  26
ENDBRANCH  24  25
ENDBRANCH  23  24
ENDBRANCH  22  23
ENDBRANCH  21  22
ENDBRANCH   1  21
TORSDOF 19
ENDMDL
MODEL 6
REMARK VINA RESULT:    -7.308      1.784      6.681
REMARK INTER + INTRA:         -17.092
REMARK INTER:                 -14.852
REMARK INTRA:                  -2.239
REMARK UNBOUND:                -2.307
REMARK SMILES OCc1cc(C(O)CNCCCCCCOCCCCc2ccccc2)ccc1O
REMARK SMILES IDX 12 1 11 2 10 3 9 4 8 6 6 7 5 8 3 9 29 10 4 11 28 12 27 13
REMARK SMILES IDX 2 14 1 15 30 17 7 19 13 21 14 22 15 23 16 24 17 25 18 26
REMARK SMILES IDX 19 27 20 28 21 29 22 30 26 31 23 32 25 33 24 34
REMARK H PARENT 9 5 1 16 30 18 7 20
REMARK Flexibility Score: inf
ROOT
ATOM      1  C   UNL     1     -74.684 -18.387  90.366  1.00  0.00     0.001 C 
ENDROOT
BRANCH   1   2
ATOM      2  C   UNL     1     -75.354 -19.472  89.505  1.00  0.00     0.015 C 
BRANCH   2   3
ATOM      3  C   UNL     1     -76.783 -19.779  89.978  1.00  0.00     0.081 C 
BRANCH   3   4
ATOM      4  N   UNL     1     -76.865 -21.114  90.592  1.00  0.00    -0.314 NA
ATOM      5  H   UNL     1     -75.957 -21.603  90.410  1.00  0.00     0.122 HD
BRANCH   4   6
ATOM      6  C   UNL     1     -77.935 -21.921  89.988  1.00  0.00     0.117 C 
BRANCH   6   7
ATOM      7  C   UNL     1     -79.308 -21.358  90.380  1.00  0.00     0.158 C 
BRANCH   7   8
ATOM      8  C   UNL     1     -80.214 -21.317  89.168  1.00  0.00    -0.018 A 
ATOM      9  C   UNL     1     -82.454 -21.479  88.208  1.00  0.00     0.020 A 
ATOM     10  C   UNL     1     -81.933 -21.145  86.944  1.00  0.00     0.121 A 
ATOM     11  C   UNL     1     -81.587 -21.575  89.309  1.00  0.00     0.016 A 
ATOM     12  C   UNL     1     -80.565 -20.874  86.804  1.00  0.00     0.047 A 
ATOM     13  C   UNL     1     -79.714 -20.948  87.908  1.00  0.00     0.010 A 
BRANCH   9  14
ATOM     14  C   UNL     1     -83.917 -21.790  88.382  1.00  0.00     0.195 C 
BRANCH  14  15
ATOM     15  O   UNL     1     -84.331 -22.717  87.416  1.00  0.00    -0.392 OA
ATOM     16  H   UNL     1     -84.352 -22.232  86.548  1.00  0.00     0.211 HD
ENDBRANCH  14  15
ENDBRANCH   9  14
BRANCH  10  17
ATOM     17  O   UNL     1     -82.774 -21.078  85.833  1.00  0.00    -0.508 OA
ATOM     18  H   UNL     1     -82.476 -21.405  84.922  1.00  0.00     0.293 HD
ENDBRANCH  10  17
ENDBRANCH   7   8
BRANCH   7  19
ATOM     19  O   UNL     1     -79.874 -22.152  91.391  1.00  0.00    -0.387 OA
ATOM     20  H   UNL     1     -80.237 -21.529  92.074  1.00  0.00     0.211 HD
ENDBRANCH   7  19
ENDBRANCH   6   7
ENDBRANCH   4   6
ENDBRANCH   3   4
ENDBRANCH   2   3
ENDBRANCH   1   2
BRANCH   1  21
ATOM     21  C   UNL     1     -75.678 -17.321  90.859  1.00  0.00     0.002 C 
BRANCH  21  22
ATOM     22  C   UNL     1     -75.233 -15.864  90.627  1.00  0.00     0.028 C 
BRANCH  22  23
ATOM     23  C   UNL     1     -74.945 -15.527  89.154  1.00  0.00     0.160 C 
BRANCH  23  24
ATOM     24  O   UNL     1     -76.010 -15.915  88.308  1.00  0.00    -0.381 OA
BRANCH  24  25
ATOM     25  C   UNL     1     -75.540 -16.551  87.131  1.00  0.00     0.160 C 
BRANCH  25  26
ATOM     26  C   UNL     1     -76.709 -16.845  86.189  1.00  0.00     0.029 C 
BRANCH  26  27
ATOM     27  C   UNL     1     -77.302 -18.240  86.439  1.00  0.00     0.007 C 
BRANCH  27  28
ATOM     28  C   UNL     1     -77.116 -19.177  85.236  1.00  0.00     0.035 C 
BRANCH  28  29
ATOM     29  C   UNL     1     -78.009 -18.797  84.082  1.00  0.00    -0.048 A 
ATOM     30  C   UNL     1     -79.378 -19.118  84.103  1.00  0.00     0.004 A 
ATOM     31  C   UNL     1     -77.485 -18.088  82.986  1.00  0.00     0.004 A 
ATOM     32  C   UNL     1     -80.204 -18.748  83.037  1.00  0.00     0.000 A 
ATOM     33  C   UNL     1     -78.316 -17.717  81.925  1.00  0.00     0.000 A 
ATOM     34  C   UNL     1     -79.674 -18.046  81.949  1.00  0.00     0.000 A 
ENDBRANCH  28  29
ENDBRANCH  27  28
ENDBRANCH  26  27
ENDBRANCH  25  26
ENDBRANCH  24  25
ENDBRANCH  23  24
ENDBRANCH  22  23
ENDBRANCH  21  22
ENDBRANCH   1  21
TORSDOF 19
ENDMDL
MODEL 7
REMARK VINA RESULT:    -7.294      3.052      7.286
REMARK INTER + INTRA:         -17.062
REMARK INTER:                 -15.164
REMARK INTRA:                  -1.899
REMARK UNBOUND:                -2.307
REMARK SMILES OCc1cc(C(O)CNCCCCCCOCCCCc2ccccc2)ccc1O
REMARK SMILES IDX 12 1 11 2 10 3 9 4 8 6 6 7 5 8 3 9 29 10 4 11 28 12 27 13
REMARK SMILES IDX 2 14 1 15 30 17 7 19 13 21 14 22 15 23 16 24 17 25 18 26
REMARK SMILES IDX 19 27 20 28 21 29 22 30 26 31 23 32 25 33 24 34
REMARK H PARENT 9 5 1 16 30 18 7 20
REMARK Flexibility Score: inf
ROOT
ATOM      1  C   UNL     1     -76.792 -18.038  87.702  1.00  0.00     0.001 C 
ENDROOT
BRANCH   1   2
ATOM      2  C   UNL     1     -76.265 -16.680  87.207  1.00  0.00     0.015 C 
BRANCH   2   3
ATOM      3  C   UNL     1     -75.381 -16.827  85.959  1.00  0.00     0.081 C 
BRANCH   3   4
ATOM      4  N   UNL     1     -76.024 -16.230  84.778  1.00  0.00    -0.314 NA
ATOM      5  H   UNL     1     -77.058 -16.221  84.950  1.00  0.00     0.122 HD
BRANCH   4   6
ATOM      6  C   UNL     1     -75.781 -17.030  83.569  1.00  0.00     0.117 C 
BRANCH   6   7
ATOM      7  C   UNL     1     -76.196 -18.488  83.806  1.00  0.00     0.158 C 
BRANCH   7   8
ATOM      8  C   UNL     1     -77.687 -18.641  83.596  1.00  0.00    -0.018 A 
ATOM      9  C   UNL     1     -79.872 -19.326  84.444  1.00  0.00     0.020 A 
ATOM     10  C   UNL     1     -80.476 -18.843  83.268  1.00  0.00     0.121 A 
ATOM     11  C   UNL     1     -78.479 -19.232  84.594  1.00  0.00     0.016 A 
ATOM     12  C   UNL     1     -79.689 -18.240  82.278  1.00  0.00     0.047 A 
ATOM     13  C   UNL     1     -78.308 -18.130  82.444  1.00  0.00     0.010 A 
BRANCH   9  14
ATOM     14  C   UNL     1     -80.695 -19.991  85.517  1.00  0.00     0.195 C 
BRANCH  14  15
ATOM     15  O   UNL     1     -81.945 -19.367  85.621  1.00  0.00    -0.392 OA
ATOM     16  H   UNL     1     -81.820 -18.428  85.322  1.00  0.00     0.211 HD
ENDBRANCH  14  15
ENDBRANCH   9  14
BRANCH  10  17
ATOM     17  O   UNL     1     -81.855 -18.958  83.088  1.00  0.00    -0.508 OA
ATOM     18  H   UNL     1     -82.315 -19.859  83.070  1.00  0.00     0.293 HD
ENDBRANCH  10  17
ENDBRANCH   7   8
BRANCH   7  19
ATOM     19  O   UNL     1     -75.486 -19.330  82.933  1.00  0.00    -0.387 OA
ATOM     20  H   UNL     1     -74.875 -19.875  83.495  1.00  0.00     0.211 HD
ENDBRANCH   7  19
ENDBRANCH   6   7
ENDBRANCH   4   6
ENDBRANCH   3   4
ENDBRANCH   2   3
ENDBRANCH   1   2
BRANCH   1  21
ATOM     21  C   UNL     1     -76.215 -18.437  89.071  1.00  0.00     0.002 C 
BRANCH  21  22
ATOM     22  C   UNL     1     -76.725 -19.782  89.623  1.00  0.00     0.028 C 
BRANCH  22  23
ATOM     23  C   UNL     1     -76.999 -20.838  88.538  1.00  0.00     0.160 C 
BRANCH  23  24
ATOM     24  O   UNL     1     -77.941 -21.802  88.968  1.00  0.00    -0.381 OA
BRANCH  24  25
ATOM     25  C   UNL     1     -78.208 -21.693  90.356  1.00  0.00     0.160 C 
BRANCH  25  26
ATOM     26  C   UNL     1     -79.706 -21.863  90.618  1.00  0.00     0.029 C 
BRANCH  26  27
ATOM     27  C   UNL     1     -80.553 -21.135  89.563  1.00  0.00     0.007 C 
BRANCH  27  28
ATOM     28  C   UNL     1     -82.056 -21.208  89.870  1.00  0.00     0.035 C 
BRANCH  28  29
ATOM     29  C   UNL     1     -82.837 -21.803  88.726  1.00  0.00    -0.048 A 
ATOM     30  C   UNL     1     -82.173 -22.443  87.664  1.00  0.00     0.004 A 
ATOM     31  C   UNL     1     -84.242 -21.752  88.727  1.00  0.00     0.004 A 
ATOM     32  C   UNL     1     -82.905 -23.009  86.615  1.00  0.00     0.000 A 
ATOM     33  C   UNL     1     -84.969 -22.322  87.677  1.00  0.00     0.000 A 
ATOM     34  C   UNL     1     -84.302 -22.949  86.623  1.00  0.00     0.000 A 
ENDBRANCH  28  29
ENDBRANCH  27  28
ENDBRANCH  26  27
ENDBRANCH  25  26
ENDBRANCH  24  25
ENDBRANCH  23  24
ENDBRANCH  22  23
ENDBRANCH  21  22
ENDBRANCH   1  21
TORSDOF 19
ENDMDL
MODEL 8
REMARK VINA RESULT:    -7.279      2.348      3.997
REMARK INTER + INTRA:         -17.032
REMARK INTER:                 -15.079
REMARK INTRA:                  -1.953
REMARK UNBOUND:                -2.307
REMARK SMILES OCc1cc(C(O)CNCCCCCCOCCCCc2ccccc2)ccc1O
REMARK SMILES IDX 12 1 11 2 10 3 9 4 8 6 6 7 5 8 3 9 29 10 4 11 28 12 27 13
REMARK SMILES IDX 2 14 1 15 30 17 7 19 13 21 14 22 15 23 16 24 17 25 18 26
REMARK SMILES IDX 19 27 20 28 21 29 22 30 26 31 23 32 25 33 24 34
REMARK H PARENT 9 5 1 16 30 18 7 20
REMARK Flexibility Score: inf
ROOT
ATOM      1  C   UNL     1     -76.634 -19.876  87.418  1.00  0.00     0.001 C 
ENDROOT
BRANCH   1   2
ATOM      2  C   UNL     1     -76.230 -18.478  86.919  1.00  0.00     0.015 C 
BRANCH   2   3
ATOM      3  C   UNL     1     -74.742 -18.187  87.166  1.00  0.00     0.081 C 
BRANCH   3   4
ATOM      4  N   UNL     1     -74.489 -16.740  87.251  1.00  0.00    -0.314 NA
ATOM      5  H   UNL     1     -73.658 -16.528  86.648  1.00  0.00     0.122 HD
BRANCH   4   6
ATOM      6  C   UNL     1     -74.161 -16.329  88.623  1.00  0.00     0.117 C 
BRANCH   6   7
ATOM      7  C   UNL     1     -75.377 -15.667  89.283  1.00  0.00     0.158 C 
BRANCH   7   8
ATOM      8  C   UNL     1     -75.731 -16.394  90.563  1.00  0.00    -0.018 A 
ATOM      9  C   UNL     1     -76.511 -16.324  92.876  1.00  0.00     0.020 A 
ATOM     10  C   UNL     1     -76.490 -17.731  92.921  1.00  0.00     0.121 A 
ATOM     11  C   UNL     1     -76.119 -15.665  91.699  1.00  0.00     0.016 A 
ATOM     12  C   UNL     1     -76.116 -18.459  91.784  1.00  0.00     0.047 A 
ATOM     13  C   UNL     1     -75.750 -17.798  90.611  1.00  0.00     0.010 A 
BRANCH   9  14
ATOM     14  C   UNL     1     -76.895 -15.518  94.089  1.00  0.00     0.195 C 
BRANCH  14  15
ATOM     15  O   UNL     1     -78.090 -14.828  93.850  1.00  0.00    -0.392 OA
ATOM     16  H   UNL     1     -77.948 -14.288  93.029  1.00  0.00     0.211 HD
ENDBRANCH  14  15
ENDBRANCH   9  14
BRANCH  10  17
ATOM     17  O   UNL     1     -76.845 -18.401  94.092  1.00  0.00    -0.508 OA
ATOM     18  H   UNL     1     -77.748 -18.266  94.529  1.00  0.00     0.293 HD
ENDBRANCH  10  17
ENDBRANCH   7   8
BRANCH   7  19
ATOM     19  O   UNL     1     -75.096 -14.315  89.546  1.00  0.00    -0.387 OA
ATOM     20  H   UNL     1     -74.161 -14.278  89.880  1.00  0.00     0.211 HD
ENDBRANCH   7  19
ENDBRANCH   6   7
ENDBRANCH   4   6
ENDBRANCH   3   4
ENDBRANCH   2   3
ENDBRANCH   1   2
BRANCH   1  21
ATOM     21  C   UNL     1     -77.890 -19.850  88.307  1.00  0.00     0.002 C 
BRANCH  21  22
ATOM     22  C   UNL     1     -78.581 -21.215  88.491  1.00  0.00     0.028 C 
BRANCH  22  23
ATOM     23  C   UNL     1     -80.072 -21.115  88.856  1.00  0.00     0.160 C 
BRANCH  23  24
ATOM     24  O   UNL     1     -80.903 -21.571  87.806  1.00  0.00    -0.381 OA
BRANCH  24  25
ATOM     25  C   UNL     1     -82.117 -20.842  87.743  1.00  0.00     0.160 C 
BRANCH  25  26
ATOM     26  C   UNL     1     -82.335 -20.303  86.328  1.00  0.00     0.029 C 
BRANCH  26  27
ATOM     27  C   UNL     1     -81.013 -19.868  85.676  1.00  0.00     0.007 C 
BRANCH  27  28
ATOM     28  C   UNL     1     -81.230 -19.183  84.319  1.00  0.00     0.035 C 
BRANCH  28  29
ATOM     29  C   UNL     1     -79.925 -18.818  83.657  1.00  0.00    -0.048 A 
ATOM     30  C   UNL     1     -79.915 -18.121  82.436  1.00  0.00     0.004 A 
ATOM     31  C   UNL     1     -78.704 -19.145  84.273  1.00  0.00     0.004 A 
ATOM     32  C   UNL     1     -78.702 -17.770  81.835  1.00  0.00     0.000 A 
ATOM     33  C   UNL     1     -77.494 -18.789  83.670  1.00  0.00     0.000 A 
ATOM     34  C   UNL     1     -77.492 -18.103  82.453  1.00  0.00     0.000 A 
ENDBRANCH  28  29
ENDBRANCH  27  28
ENDBRANCH  26  27
ENDBRANCH  25  26
ENDBRANCH  24  25
ENDBRANCH  23  24
ENDBRANCH  22  23
ENDBRANCH  21  22
ENDBRANCH   1  21
TORSDOF 19
ENDMDL
MODEL 9
REMARK VINA RESULT:    -7.278      1.750      2.728
REMARK INTER + INTRA:         -17.030
REMARK INTER:                 -14.897
REMARK INTRA:                  -2.134
REMARK UNBOUND:                -2.307
REMARK SMILES OCc1cc(C(O)CNCCCCCCOCCCCc2ccccc2)ccc1O
REMARK SMILES IDX 12 1 11 2 10 3 9 4 8 6 6 7 5 8 3 9 29 10 4 11 28 12 27 13
REMARK SMILES IDX 2 14 1 15 30 17 7 19 13 21 14 22 15 23 16 24 17 25 18 26
REMARK SMILES IDX 19 27 20 28 21 29 22 30 26 31 23 32 25 33 24 34
REMARK H PARENT 9 5 1 16 30 18 7 20
REMARK Flexibility Score: inf
ROOT
ATOM      1  C   UNL     1     -79.245 -20.924  88.516  1.00  0.00     0.001 C 
ENDROOT
BRANCH   1   2
ATOM      2  C   UNL     1     -77.972 -20.274  89.084  1.00  0.00     0.015 C 
BRANCH   2   3
ATOM      3  C   UNL     1     -76.697 -20.881  88.476  1.00  0.00     0.081 C 
BRANCH   3   4
ATOM      4  N   UNL     1     -75.783 -19.832  87.999  1.00  0.00    -0.314 NA
ATOM      5  H   UNL     1     -74.903 -19.897  88.564  1.00  0.00     0.122 HD
BRANCH   4   6
ATOM      6  C   UNL     1     -76.347 -18.490  88.205  1.00  0.00     0.117 C 
BRANCH   6   7
ATOM      7  C   UNL     1     -75.290 -17.560  88.816  1.00  0.00     0.158 C 
BRANCH   7   8
ATOM      8  C   UNL     1     -75.662 -17.223  90.244  1.00  0.00    -0.018 A 
ATOM      9  C   UNL     1     -75.991 -17.933  92.557  1.00  0.00     0.020 A 
ATOM     10  C   UNL     1     -76.252 -16.600  92.926  1.00  0.00     0.121 A 
ATOM     11  C   UNL     1     -75.710 -18.237  91.215  1.00  0.00     0.016 A 
ATOM     12  C   UNL     1     -76.191 -15.586  91.960  1.00  0.00     0.047 A 
ATOM     13  C   UNL     1     -75.888 -15.892  90.633  1.00  0.00     0.010 A 
BRANCH   9  14
ATOM     14  C   UNL     1     -76.066 -19.043  93.573  1.00  0.00     0.195 C 
BRANCH  14  15
ATOM     15  O   UNL     1     -77.365 -19.139  94.087  1.00  0.00    -0.392 OA
ATOM     16  H   UNL     1     -77.690 -20.053  93.870  1.00  0.00     0.211 HD
ENDBRANCH  14  15
ENDBRANCH   9  14
BRANCH  10  17
ATOM     17  O   UNL     1     -76.565 -16.285  94.248  1.00  0.00    -0.508 OA
ATOM     18  H   UNL     1     -76.212 -15.447  94.692  1.00  0.00     0.293 HD
ENDBRANCH  10  17
ENDBRANCH   7   8
BRANCH   7  19
ATOM     19  O   UNL     1     -74.030 -18.181  88.769  1.00  0.00    -0.387 OA
ATOM     20  H   UNL     1     -74.162 -19.118  89.073  1.00  0.00     0.211 HD
ENDBRANCH   7  19
ENDBRANCH   6   7
ENDBRANCH   4   6
ENDBRANCH   3   4
ENDBRANCH   2   3
ENDBRANCH   1   2
BRANCH   1  21
ATOM     21  C   UNL     1     -80.315 -21.177  89.593  1.00  0.00     0.002 C 
BRANCH  21  22
ATOM     22  C   UNL     1     -81.569 -21.924  89.097  1.00  0.00     0.028 C 
BRANCH  22  23
ATOM     23  C   UNL     1     -82.891 -21.337  89.621  1.00  0.00     0.160 C 
BRANCH  23  24
ATOM     24  O   UNL     1     -83.787 -21.036  88.568  1.00  0.00    -0.381 OA
BRANCH  24  25
ATOM     25  C   UNL     1     -83.344 -19.929  87.803  1.00  0.00     0.160 C 
BRANCH  25  26
ATOM     26  C   UNL     1     -83.134 -20.347  86.346  1.00  0.00     0.029 C 
BRANCH  26  27
ATOM     27  C   UNL     1     -81.680 -20.135  85.898  1.00  0.00     0.007 C 
BRANCH  27  28
ATOM     28  C   UNL     1     -81.572 -19.183  84.697  1.00  0.00     0.035 C 
BRANCH  28  29
ATOM     29  C   UNL     1     -80.140 -18.966  84.276  1.00  0.00    -0.048 A 
ATOM     30  C   UNL     1     -79.837 -18.535  82.973  1.00  0.00     0.004 A 
ATOM     31  C   UNL     1     -79.096 -19.164  85.197  1.00  0.00     0.004 A 
ATOM     32  C   UNL     1     -78.508 -18.318  82.594  1.00  0.00     0.000 A 
ATOM     33  C   UNL     1     -77.769 -18.943  84.814  1.00  0.00     0.000 A 
ATOM     34  C   UNL     1     -77.475 -18.521  83.515  1.00  0.00     0.000 A 
ENDBRANCH  28  29
ENDBRANCH  27  28
ENDBRANCH  26  27
ENDBRANCH  25  26
ENDBRANCH  24  25
ENDBRANCH  23  24
ENDBRANCH  22  23
ENDBRANCH  21  22
ENDBRANCH   1  21
TORSDOF 19
ENDMDL
MODEL 10
REMARK VINA RESULT:    -7.216      1.432      2.380
REMARK INTER + INTRA:         -16.905
REMARK INTER:                 -15.109
REMARK INTRA:                  -1.795
REMARK UNBOUND:                -2.307
REMARK SMILES OCc1cc(C(O)CNCCCCCCOCCCCc2ccccc2)ccc1O
REMARK SMILES IDX 12 1 11 2 10 3 9 4 8 6 6 7 5 8 3 9 29 10 4 11 28 12 27 13
REMARK SMILES IDX 2 14 1 15 30 17 7 19 13 21 14 22 15 23 16 24 17 25 18 26
REMARK SMILES IDX 19 27 20 28 21 29 22 30 26 31 23 32 25 33 24 34
REMARK H PARENT 9 5 1 16 30 18 7 20
REMARK Flexibility Score: inf
ROOT
ATOM      1  C   UNL     1     -79.831 -21.200  89.061  1.00  0.00     0.001 C 
ENDROOT
BRANCH   1   2
ATOM      2  C   UNL     1     -78.421 -20.745  89.473  1.00  0.00     0.015 C 
BRANCH   2   3
ATOM      3  C   UNL     1     -77.574 -21.911  90.006  1.00  0.00     0.081 C 
BRANCH   3   4
ATOM      4  N   UNL     1     -77.005 -21.597  91.326  1.00  0.00    -0.314 NA
ATOM      5  H   UNL     1     -77.216 -22.402  91.962  1.00  0.00     0.122 HD
BRANCH   4   6
ATOM      6  C   UNL     1     -77.621 -20.396  91.907  1.00  0.00     0.117 C 
BRANCH   6   7
ATOM      7  C   UNL     1     -76.586 -19.612  92.724  1.00  0.00     0.158 C 
BRANCH   7   8
ATOM      8  C   UNL     1     -76.236 -18.322  92.012  1.00  0.00    -0.018 A 
ATOM      9  C   UNL     1     -75.575 -17.158  89.970  1.00  0.00     0.020 A 
ATOM     10  C   UNL     1     -75.679 -15.926  90.642  1.00  0.00     0.121 A 
ATOM     11  C   UNL     1     -75.842 -18.349  90.664  1.00  0.00     0.016 A 
ATOM     12  C   UNL     1     -76.085 -15.897  91.983  1.00  0.00     0.047 A 
ATOM     13  C   UNL     1     -76.372 -17.083  92.660  1.00  0.00     0.010 A 
BRANCH   9  14
ATOM     14  C   UNL     1     -75.126 -17.218  88.533  1.00  0.00     0.195 C 
BRANCH  14  15
ATOM     15  O   UNL     1     -75.978 -16.447  87.731  1.00  0.00    -0.392 OA
ATOM     16  H   UNL     1     -76.111 -16.955  86.887  1.00  0.00     0.211 HD
ENDBRANCH  14  15
ENDBRANCH   9  14
BRANCH  10  17
ATOM     17  O   UNL     1     -75.385 -14.736  89.977  1.00  0.00    -0.508 OA
ATOM     18  H   UNL     1     -75.793 -13.854  90.261  1.00  0.00     0.293 HD
ENDBRANCH  10  17
ENDBRANCH   7   8
BRANCH   7  19
ATOM     19  O   UNL     1     -77.098 -19.344  94.005  1.00  0.00    -0.387 OA
ATOM     20  H   UNL     1     -76.429 -18.771  94.466  1.00  0.00     0.211 HD
ENDBRANCH   7  19
ENDBRANCH   6   7
ENDBRANCH   4   6
ENDBRANCH   3   4
ENDBRANCH   2   3
ENDBRANCH   1   2
BRANCH   1  21
ATOM     21  C   UNL     1     -80.734 -21.507  90.269  1.00  0.00     0.002 C 
BRANCH  21  22
ATOM     22  C   UNL     1     -82.244 -21.346  90.008  1.00  0.00     0.028 C 
BRANCH  22  23
ATOM     23  C   UNL     1     -82.665 -21.673  88.565  1.00  0.00     0.160 C 
BRANCH  23  24
ATOM     24  O   UNL     1     -83.692 -20.813  88.109  1.00  0.00    -0.381 OA
BRANCH  24  25
ATOM     25  C   UNL     1     -83.285 -20.067  86.974  1.00  0.00     0.160 C 
BRANCH  25  26
ATOM     26  C   UNL     1     -82.244 -20.853  86.174  1.00  0.00     0.029 C 
BRANCH  26  27
ATOM     27  C   UNL     1     -81.031 -19.982  85.811  1.00  0.00     0.007 C 
BRANCH  27  28
ATOM     28  C   UNL     1     -81.245 -19.198  84.508  1.00  0.00     0.035 C 
BRANCH  28  29
ATOM     29  C   UNL     1     -79.939 -18.776  83.883  1.00  0.00    -0.048 A 
ATOM     30  C   UNL     1     -79.896 -18.333  82.549  1.00  0.00     0.004 A 
ATOM     31  C   UNL     1     -78.754 -18.793  84.641  1.00  0.00     0.004 A 
ATOM     32  C   UNL     1     -78.684 -17.927  81.981  1.00  0.00     0.000 A 
ATOM     33  C   UNL     1     -77.546 -18.382  84.069  1.00  0.00     0.000 A 
ATOM     34  C   UNL     1     -77.510 -17.950  82.741  1.00  0.00     0.000 A 
ENDBRANCH  28  29
ENDBRANCH  27  28
ENDBRANCH  26  27
ENDBRANCH  25  26
ENDBRANCH  24  25
ENDBRANCH  23  24
ENDBRANCH  22  23
ENDBRANCH  21  22
ENDBRANCH   1  21
TORSDOF 19
ENDMDL
MODEL 11
REMARK VINA RESULT:    -7.197      1.807      7.227
REMARK INTER + INTRA:         -16.866
REMARK INTER:                 -14.740
REMARK INTRA:                  -2.126
REMARK UNBOUND:                -2.307
REMARK SMILES OCc1cc(C(O)CNCCCCCCOCCCCc2ccccc2)ccc1O
REMARK SMILES IDX 12 1 11 2 10 3 9 4 8 6 6 7 5 8 3 9 29 10 4 11 28 12 27 13
REMARK SMILES IDX 2 14 1 15 30 17 7 19 13 21 14 22 15 23 16 24 17 25 18 26
REMARK SMILES IDX 19 27 20 28 21 29 22 30 26 31 23 32 25 33 24 34
REMARK H PARENT 9 5 1 16 30 18 7 20
REMARK Flexibility Score: inf
ROOT
ATOM      1  C   UNL     1     -75.567 -18.966  92.093  1.00  0.00     0.001 C 
ENDROOT
BRANCH   1   2
ATOM      2  C   UNL     1     -76.279 -19.963  91.164  1.00  0.00     0.015 C 
BRANCH   2   3
ATOM      3  C   UNL     1     -76.724 -21.229  91.914  1.00  0.00     0.081 C 
BRANCH   3   4
ATOM      4  N   UNL     1     -77.366 -22.189  91.003  1.00  0.00    -0.314 NA
ATOM      5  H   UNL     1     -76.607 -22.735  90.531  1.00  0.00     0.122 HD
BRANCH   4   6
ATOM      6  C   UNL     1     -78.140 -21.506  89.956  1.00  0.00     0.117 C 
BRANCH   6   7
ATOM      7  C   UNL     1     -79.586 -21.292  90.422  1.00  0.00     0.158 C 
BRANCH   7   8
ATOM      8  C   UNL     1     -80.520 -21.304  89.230  1.00  0.00    -0.018 A 
ATOM      9  C   UNL     1     -82.788 -21.427  88.335  1.00  0.00     0.020 A 
ATOM     10  C   UNL     1     -82.284 -21.227  87.037  1.00  0.00     0.121 A 
ATOM     11  C   UNL     1     -81.900 -21.476  89.422  1.00  0.00     0.016 A 
ATOM     12  C   UNL     1     -80.907 -21.042  86.845  1.00  0.00     0.047 A 
ATOM     13  C   UNL     1     -80.033 -21.069  87.933  1.00  0.00     0.010 A 
BRANCH   9  14
ATOM     14  C   UNL     1     -84.261 -21.644  88.566  1.00  0.00     0.195 C 
BRANCH  14  15
ATOM     15  O   UNL     1     -84.705 -22.753  87.834  1.00  0.00    -0.392 OA
ATOM     16  H   UNL     1     -85.475 -22.443  87.287  1.00  0.00     0.211 HD
ENDBRANCH  14  15
ENDBRANCH   9  14
BRANCH  10  17
ATOM     17  O   UNL     1     -83.148 -21.209  85.942  1.00  0.00    -0.508 OA
ATOM     18  H   UNL     1     -84.012 -21.736  85.939  1.00  0.00     0.293 HD
ENDBRANCH  10  17
ENDBRANCH   7   8
BRANCH   7  19
ATOM     19  O   UNL     1     -79.942 -22.298  91.336  1.00  0.00    -0.387 OA
ATOM     20  H   UNL     1     -80.920 -22.212  91.489  1.00  0.00     0.211 HD
ENDBRANCH   7  19
ENDBRANCH   6   7
ENDBRANCH   4   6
ENDBRANCH   3   4
ENDBRANCH   2   3
ENDBRANCH   1   2
BRANCH   1  21
ATOM     21  C   UNL     1     -76.487 -18.420  93.198  1.00  0.00     0.002 C 
BRANCH  21  22
ATOM     22  C   UNL     1     -76.598 -16.884  93.250  1.00  0.00     0.028 C 
BRANCH  22  23
ATOM     23  C   UNL     1     -75.267 -16.173  93.553  1.00  0.00     0.160 C 
BRANCH  23  24
ATOM     24  O   UNL     1     -74.985 -15.159  92.607  1.00  0.00    -0.381 OA
BRANCH  24  25
ATOM     25  C   UNL     1     -75.577 -15.436  91.349  1.00  0.00     0.160 C 
BRANCH  25  26
ATOM     26  C   UNL     1     -74.670 -14.941  90.221  1.00  0.00     0.029 C 
BRANCH  26  27
ATOM     27  C   UNL     1     -75.111 -15.489  88.855  1.00  0.00     0.007 C 
BRANCH  27  28
ATOM     28  C   UNL     1     -75.544 -16.961  88.929  1.00  0.00     0.035 C 
BRANCH  28  29
ATOM     29  C   UNL     1     -76.288 -17.394  87.691  1.00  0.00    -0.048 A 
ATOM     30  C   UNL     1     -77.100 -18.542  87.711  1.00  0.00     0.004 A 
ATOM     31  C   UNL     1     -76.202 -16.632  86.512  1.00  0.00     0.004 A 
ATOM     32  C   UNL     1     -77.801 -18.928  86.564  1.00  0.00     0.000 A 
ATOM     33  C   UNL     1     -76.908 -17.020  85.369  1.00  0.00     0.000 A 
ATOM     34  C   UNL     1     -77.706 -18.167  85.395  1.00  0.00     0.000 A 
ENDBRANCH  28  29
ENDBRANCH  27  28
ENDBRANCH  26  27
ENDBRANCH  25  26
ENDBRANCH  24  25
ENDBRANCH  23  24
ENDBRANCH  22  23
ENDBRANCH  21  22
ENDBRANCH   1  21
TORSDOF 19
ENDMDL
MODEL 12
REMARK VINA RESULT:    -7.169      2.577      6.075
REMARK INTER + INTRA:         -16.810
REMARK INTER:                 -15.152
REMARK INTRA:                  -1.658
REMARK UNBOUND:                -2.307
REMARK SMILES OCc1cc(C(O)CNCCCCCCOCCCCc2ccccc2)ccc1O
REMARK SMILES IDX 12 1 11 2 10 3 9 4 8 6 6 7 5 8 3 9 29 10 4 11 28 12 27 13
REMARK SMILES IDX 2 14 1 15 30 17 7 19 13 21 14 22 15 23 16 24 17 25 18 26
REMARK SMILES IDX 19 27 20 28 21 29 22 30 26 31 23 32 25 33 24 34
REMARK H PARENT 9 5 1 16 30 18 7 20
REMARK Flexibility Score: inf
ROOT
ATOM      1  C   UNL     1     -76.041 -16.620  84.596  1.00  0.00     0.001 C 
ENDROOT
BRANCH   1   2
ATOM      2  C   UNL     1     -74.504 -16.566  84.616  1.00  0.00     0.015 C 
BRANCH   2   3
ATOM      3  C   UNL     1     -73.945 -16.637  86.046  1.00  0.00     0.081 C 
BRANCH   3   4
ATOM      4  N   UNL     1     -75.018 -16.509  87.044  1.00  0.00    -0.314 NA
ATOM      5  H   UNL     1     -75.549 -15.632  86.828  1.00  0.00     0.122 HD
BRANCH   4   6
ATOM      6  C   UNL     1     -74.477 -16.378  88.404  1.00  0.00     0.117 C 
BRANCH   6   7
ATOM      7  C   UNL     1     -75.424 -15.538  89.272  1.00  0.00     0.158 C 
BRANCH   7   8
ATOM      8  C   UNL     1     -75.765 -16.290  90.540  1.00  0.00    -0.018 A 
ATOM      9  C   UNL     1     -76.505 -16.264  92.868  1.00  0.00     0.020 A 
ATOM     10  C   UNL     1     -76.503 -17.671  92.880  1.00  0.00     0.121 A 
ATOM     11  C   UNL     1     -76.124 -15.583  91.700  1.00  0.00     0.016 A 
ATOM     12  C   UNL     1     -76.158 -18.378  91.720  1.00  0.00     0.047 A 
ATOM     13  C   UNL     1     -75.803 -17.695  90.556  1.00  0.00     0.010 A 
BRANCH   9  14
ATOM     14  C   UNL     1     -76.856 -15.481  94.106  1.00  0.00     0.195 C 
BRANCH  14  15
ATOM     15  O   UNL     1     -78.116 -14.887  93.958  1.00  0.00    -0.392 OA
ATOM     16  H   UNL     1     -78.784 -15.621  94.003  1.00  0.00     0.211 HD
ENDBRANCH  14  15
ENDBRANCH   9  14
BRANCH  10  17
ATOM     17  O   UNL     1     -76.846 -18.364  94.042  1.00  0.00    -0.508 OA
ATOM     18  H   UNL     1     -76.830 -19.375  94.081  1.00  0.00     0.293 HD
ENDBRANCH  10  17
ENDBRANCH   7   8
BRANCH   7  19
ATOM     19  O   UNL     1     -74.819 -14.307  89.577  1.00  0.00    -0.387 OA
ATOM     20  H   UNL     1     -74.027 -14.509  90.141  1.00  0.00     0.211 HD
ENDBRANCH   7  19
ENDBRANCH   6   7
ENDBRANCH   4   6
ENDBRANCH   3   4
ENDBRANCH   2   3
ENDBRANCH   1   2
BRANCH   1  21
ATOM     21  C   UNL     1     -76.593 -17.427  83.408  1.00  0.00     0.002 C 
BRANCH  21  22
ATOM     22  C   UNL     1     -77.615 -18.518  83.784  1.00  0.00     0.028 C 
BRANCH  22  23
ATOM     23  C   UNL     1     -77.342 -19.185  85.142  1.00  0.00     0.160 C 
BRANCH  23  24
ATOM     24  O   UNL     1     -77.981 -18.500  86.203  1.00  0.00    -0.381 OA
BRANCH  24  25
ATOM     25  C   UNL     1     -77.463 -18.888  87.464  1.00  0.00     0.160 C 
BRANCH  25  26
ATOM     26  C   UNL     1     -76.766 -20.245  87.352  1.00  0.00     0.029 C 
BRANCH  26  27
ATOM     27  C   UNL     1     -77.438 -21.304  88.240  1.00  0.00     0.007 C 
BRANCH  27  28
ATOM     28  C   UNL     1     -78.371 -20.680  89.287  1.00  0.00     0.035 C 
BRANCH  28  29
ATOM     29  C   UNL     1     -79.801 -21.122  89.105  1.00  0.00    -0.048 A 
ATOM     30  C   UNL     1     -80.576 -21.509  90.213  1.00  0.00     0.004 A 
ATOM     31  C   UNL     1     -80.383 -21.120  87.825  1.00  0.00     0.004 A 
ATOM     32  C   UNL     1     -81.907 -21.901  90.038  1.00  0.00     0.000 A 
ATOM     33  C   UNL     1     -81.715 -21.510  87.656  1.00  0.00     0.000 A 
ATOM     34  C   UNL     1     -82.476 -21.900  88.761  1.00  0.00     0.000 A 
ENDBRANCH  28  29
ENDBRANCH  27  28
ENDBRANCH  26  27
ENDBRANCH  25  26
ENDBRANCH  24  25
ENDBRANCH  23  24
ENDBRANCH  22  23
ENDBRANCH  21  22
ENDBRANCH   1  21
TORSDOF 19
ENDMDL
MODEL 13
REMARK VINA RESULT:    -7.139      1.487      1.954
REMARK INTER + INTRA:         -16.750
REMARK INTER:                 -14.705
REMARK INTRA:                  -2.045
REMARK UNBOUND:                -2.307
REMARK SMILES OCc1cc(C(O)CNCCCCCCOCCCCc2ccccc2)ccc1O
REMARK SMILES IDX 12 1 11 2 10 3 9 4 8 6 6 7 5 8 3 9 29 10 4 11 28 12 27 13
REMARK SMILES IDX 2 14 1 15 30 17 7 19 13 21 14 22 15 23 16 24 17 25 18 26
REMARK SMILES IDX 19 27 20 28 21 29 22 30 26 31 23 32 25 33 24 34
REMARK H PARENT 9 5 1 16 30 18 7 20
REMARK Flexibility Score: inf
ROOT
ATOM      1  C   UNL     1     -79.232 -21.840  90.667  1.00  0.00     0.001 C 
ENDROOT
BRANCH   1   2
ATOM      2  C   UNL     1     -77.945 -22.228  89.919  1.00  0.00     0.015 C 
BRANCH   2   3
ATOM      3  C   UNL     1     -76.715 -21.496  90.476  1.00  0.00     0.081 C 
BRANCH   3   4
ATOM      4  N   UNL     1     -76.444 -21.889  91.867  1.00  0.00    -0.314 NA
ATOM      5  H   UNL     1     -77.303 -21.676  92.429  1.00  0.00     0.122 HD
BRANCH   4   6
ATOM      6  C   UNL     1     -75.333 -21.117  92.441  1.00  0.00     0.117 C 
BRANCH   6   7
ATOM      7  C   UNL     1     -75.875 -19.925  93.241  1.00  0.00     0.158 C 
BRANCH   7   8
ATOM      8  C   UNL     1     -75.841 -18.673  92.390  1.00  0.00    -0.018 A 
ATOM      9  C   UNL     1     -76.446 -16.329  92.070  1.00  0.00     0.020 A 
ATOM     10  C   UNL     1     -75.705 -16.305  90.874  1.00  0.00     0.121 A 
ATOM     11  C   UNL     1     -76.518 -17.518  92.814  1.00  0.00     0.016 A 
ATOM     12  C   UNL     1     -75.017 -17.453  90.457  1.00  0.00     0.047 A 
ATOM     13  C   UNL     1     -75.074 -18.624  91.213  1.00  0.00     0.010 A 
BRANCH   9  14
ATOM     14  C   UNL     1     -77.206 -15.113  92.532  1.00  0.00     0.195 C 
BRANCH  14  15
ATOM     15  O   UNL     1     -78.157 -15.478  93.494  1.00  0.00    -0.392 OA
ATOM     16  H   UNL     1     -78.986 -14.971  93.281  1.00  0.00     0.211 HD
ENDBRANCH  14  15
ENDBRANCH   9  14
BRANCH  10  17
ATOM     17  O   UNL     1     -75.649 -15.142  90.105  1.00  0.00    -0.508 OA
ATOM     18  H   UNL     1     -76.014 -14.262  90.447  1.00  0.00     0.293 HD
ENDBRANCH  10  17
ENDBRANCH   7   8
BRANCH   7  19
ATOM     19  O   UNL     1     -77.187 -20.197  93.664  1.00  0.00    -0.387 OA
ATOM     20  H   UNL     1     -77.778 -19.551  93.195  1.00  0.00     0.211 HD
ENDBRANCH   7  19
ENDBRANCH   6   7
ENDBRANCH   4   6
ENDBRANCH   3   4
ENDBRANCH   2   3
ENDBRANCH   1   2
BRANCH   1  21
ATOM     21  C   UNL     1     -80.265 -21.152  89.757  1.00  0.00     0.002 C 
BRANCH  21  22
ATOM     22  C   UNL     1     -81.730 -21.548  90.022  1.00  0.00     0.028 C 
BRANCH  22  23
ATOM     23  C   UNL     1     -82.512 -21.930  88.755  1.00  0.00     0.160 C 
BRANCH  23  24
ATOM     24  O   UNL     1     -83.547 -21.006  88.477  1.00  0.00    -0.381 OA
BRANCH  24  25
ATOM     25  C   UNL     1     -83.200 -20.134  87.414  1.00  0.00     0.160 C 
BRANCH  25  26
ATOM     26  C   UNL     1     -82.536 -20.922  86.283  1.00  0.00     0.029 C 
BRANCH  26  27
ATOM     27  C   UNL     1     -81.324 -20.174  85.705  1.00  0.00     0.007 C 
BRANCH  27  28
ATOM     28  C   UNL     1     -79.991 -20.756  86.197  1.00  0.00     0.035 C 
BRANCH  28  29
ATOM     29  C   UNL     1     -78.911 -19.706  86.274  1.00  0.00    -0.048 A 
ATOM     30  C   UNL     1     -78.085 -19.613  87.408  1.00  0.00     0.004 A 
ATOM     31  C   UNL     1     -78.700 -18.829  85.195  1.00  0.00     0.004 A 
ATOM     32  C   UNL     1     -77.074 -18.648  87.466  1.00  0.00     0.000 A 
ATOM     33  C   UNL     1     -77.686 -17.868  85.256  1.00  0.00     0.000 A 
ATOM     34  C   UNL     1     -76.874 -17.778  86.390  1.00  0.00     0.000 A 
ENDBRANCH  28  29
ENDBRANCH  27  28
ENDBRANCH  26  27
ENDBRANCH  25  26
ENDBRANCH  24  25
ENDBRANCH  23  24
ENDBRANCH  22  23
ENDBRANCH  21  22
ENDBRANCH   1  21
TORSDOF 19
ENDMDL
MODEL 14
REMARK VINA RESULT:    -7.127      3.144      5.796
REMARK INTER + INTRA:         -16.726
REMARK INTER:                 -14.240
REMARK INTRA:                  -2.486
REMARK UNBOUND:                -2.307
REMARK SMILES OCc1cc(C(O)CNCCCCCCOCCCCc2ccccc2)ccc1O
REMARK SMILES IDX 12 1 11 2 10 3 9 4 8 6 6 7 5 8 3 9 29 10 4 11 28 12 27 13
REMARK SMILES IDX 2 14 1 15 30 17 7 19 13 21 14 22 15 23 16 24 17 25 18 26
REMARK SMILES IDX 19 27 20 28 21 29 22 30 26 31 23 32 25 33 24 34
REMARK H PARENT 9 5 1 16 30 18 7 20
REMARK Flexibility Score: inf
ROOT
ATOM      1  C   UNL     1     -82.557 -20.350  86.173  1.00  0.00     0.001 C 
ENDROOT
BRANCH   1   2
ATOM      2  C   UNL     1     -81.125 -20.068  85.688  1.00  0.00     0.015 C 
BRANCH   2   3
ATOM      3  C   UNL     1     -81.107 -19.169  84.441  1.00  0.00     0.081 C 
BRANCH   3   4
ATOM      4  N   UNL     1     -79.845 -18.420  84.343  1.00  0.00    -0.314 NA
ATOM      5  H   UNL     1     -80.086 -17.409  84.204  1.00  0.00     0.122 HD
BRANCH   4   6
ATOM      6  C   UNL     1     -79.049 -18.852  83.185  1.00  0.00     0.117 C 
BRANCH   6   7
ATOM      7  C   UNL     1     -78.110 -17.724  82.738  1.00  0.00     0.158 C 
BRANCH   7   8
ATOM      8  C   UNL     1     -76.713 -17.975  83.265  1.00  0.00    -0.018 A 
ATOM      9  C   UNL     1     -74.752 -17.189  84.489  1.00  0.00     0.020 A 
ATOM     10  C   UNL     1     -74.156 -18.455  84.341  1.00  0.00     0.121 A 
ATOM     11  C   UNL     1     -76.022 -16.954  83.938  1.00  0.00     0.016 A 
ATOM     12  C   UNL     1     -74.850 -19.479  83.682  1.00  0.00     0.047 A 
ATOM     13  C   UNL     1     -76.122 -19.245  83.157  1.00  0.00     0.010 A 
BRANCH   9  14
ATOM     14  C   UNL     1     -74.021 -16.067  85.180  1.00  0.00     0.195 C 
BRANCH  14  15
ATOM     15  O   UNL     1     -73.376 -15.259  84.235  1.00  0.00    -0.392 OA
ATOM     16  H   UNL     1     -72.529 -15.720  83.997  1.00  0.00     0.211 HD
ENDBRANCH  14  15
ENDBRANCH   9  14
BRANCH  10  17
ATOM     17  O   UNL     1     -72.881 -18.695  84.853  1.00  0.00    -0.508 OA
ATOM     18  H   UNL     1     -72.187 -19.214  84.328  1.00  0.00     0.293 HD
ENDBRANCH  10  17
ENDBRANCH   7   8
BRANCH   7  19
ATOM     19  O   UNL     1     -78.100 -17.644  81.335  1.00  0.00    -0.387 OA
ATOM     20  H   UNL     1     -77.570 -16.838  81.098  1.00  0.00     0.211 HD
ENDBRANCH   7  19
ENDBRANCH   6   7
ENDBRANCH   4   6
ENDBRANCH   3   4
ENDBRANCH   2   3
ENDBRANCH   1   2
BRANCH   1  21
ATOM     21  C   UNL     1     -82.810 -21.843  86.443  1.00  0.00     0.002 C 
BRANCH  21  22
ATOM     22  C   UNL     1     -83.240 -22.177  87.885  1.00  0.00     0.028 C 
BRANCH  22  23
ATOM     23  C   UNL     1     -83.576 -20.942  88.737  1.00  0.00     0.160 C 
BRANCH  23  24
ATOM     24  O   UNL     1     -82.483 -20.547  89.545  1.00  0.00    -0.381 OA
BRANCH  24  25
ATOM     25  C   UNL     1     -82.066 -21.591  90.409  1.00  0.00     0.160 C 
BRANCH  25  26
ATOM     26  C   UNL     1     -80.538 -21.646  90.468  1.00  0.00     0.029 C 
BRANCH  26  27
ATOM     27  C   UNL     1     -79.901 -21.148  89.161  1.00  0.00     0.007 C 
BRANCH  27  28
ATOM     28  C   UNL     1     -78.371 -21.278  89.172  1.00  0.00     0.035 C 
BRANCH  28  29
ATOM     29  C   UNL     1     -77.695 -20.024  88.677  1.00  0.00    -0.048 A 
ATOM     30  C   UNL     1     -77.946 -19.542  87.380  1.00  0.00     0.004 A 
ATOM     31  C   UNL     1     -76.831 -19.306  89.522  1.00  0.00     0.004 A 
ATOM     32  C   UNL     1     -77.329 -18.369  86.933  1.00  0.00     0.000 A 
ATOM     33  C   UNL     1     -76.219 -18.132  89.072  1.00  0.00     0.000 A 
ATOM     34  C   UNL     1     -76.468 -17.664  87.779  1.00  0.00     0.000 A 
ENDBRANCH  28  29
ENDBRANCH  27  28
ENDBRANCH  26  27
ENDBRANCH  25  26
ENDBRANCH  24  25
ENDBRANCH  23  24
ENDBRANCH  22  23
ENDBRANCH  21  22
ENDBRANCH   1  21
TORSDOF 19
ENDMDL
MODEL 15
REMARK VINA RESULT:    -7.077      2.305      7.990
REMARK INTER + INTRA:         -16.624
REMARK INTER:                 -14.350
REMARK INTRA:                  -2.274
REMARK UNBOUND:                -2.307
REMARK SMILES OCc1cc(C(O)CNCCCCCCOCCCCc2ccccc2)ccc1O
REMARK SMILES IDX 12 1 11 2 10 3 9 4 8 6 6 7 5 8 3 9 29 10 4 11 28 12 27 13
REMARK SMILES IDX 2 14 1 15 30 17 7 19 13 21 14 22 15 23 16 24 17 25 18 26
REMARK SMILES IDX 19 27 20 28 21 29 22 30 26 31 23 32 25 33 24 34
REMARK H PARENT 9 5 1 16 30 18 7 20
REMARK Flexibility Score: inf
ROOT
ATOM      1  C   UNL     1     -76.321 -18.777  87.737  1.00  0.00     0.001 C 
ENDROOT
BRANCH   1   2
ATOM      2  C   UNL     1     -76.442 -18.513  89.248  1.00  0.00     0.015 C 
BRANCH   2   3
ATOM      3  C   UNL     1     -76.555 -19.818  90.051  1.00  0.00     0.081 C 
BRANCH   3   4
ATOM      4  N   UNL     1     -76.443 -20.995  89.175  1.00  0.00    -0.314 NA
ATOM      5  H   UNL     1     -76.464 -20.654  88.184  1.00  0.00     0.122 HD
BRANCH   4   6
ATOM      6  C   UNL     1     -77.578 -21.912  89.354  1.00  0.00     0.117 C 
BRANCH   6   7
ATOM      7  C   UNL     1     -78.813 -21.138  89.832  1.00  0.00     0.158 C 
BRANCH   7   8
ATOM      8  C   UNL     1     -79.870 -21.132  88.748  1.00  0.00    -0.018 A 
ATOM      9  C   UNL     1     -82.202 -21.419  88.081  1.00  0.00     0.020 A 
ATOM     10  C   UNL     1     -81.871 -21.029  86.770  1.00  0.00     0.121 A 
ATOM     11  C   UNL     1     -81.196 -21.480  89.059  1.00  0.00     0.016 A 
ATOM     12  C   UNL     1     -80.552 -20.669  86.462  1.00  0.00     0.047 A 
ATOM     13  C   UNL     1     -79.562 -20.709  87.445  1.00  0.00     0.010 A 
BRANCH   9  14
ATOM     14  C   UNL     1     -83.609 -21.826  88.434  1.00  0.00     0.195 C 
BRANCH  14  15
ATOM     15  O   UNL     1     -84.496 -20.777  88.157  1.00  0.00    -0.392 OA
ATOM     16  H   UNL     1     -84.755 -20.868  87.202  1.00  0.00     0.211 HD
ENDBRANCH  14  15
ENDBRANCH   9  14
BRANCH  10  17
ATOM     17  O   UNL     1     -82.852 -20.995  85.778  1.00  0.00    -0.508 OA
ATOM     18  H   UNL     1     -83.474 -20.204  85.674  1.00  0.00     0.293 HD
ENDBRANCH  10  17
ENDBRANCH   7   8
BRANCH   7  19
ATOM     19  O   UNL     1     -79.315 -21.725  91.006  1.00  0.00    -0.387 OA
ATOM     20  H   UNL     1     -80.052 -21.141  91.325  1.00  0.00     0.211 HD
ENDBRANCH   7  19
ENDBRANCH   6   7
ENDBRANCH   4   6
ENDBRANCH   3   4
ENDBRANCH   2   3
ENDBRANCH   1   2
BRANCH   1  21
ATOM     21  C   UNL     1     -76.947 -17.658  86.886  1.00  0.00     0.002 C 
BRANCH  21  22
ATOM     22  C   UNL     1     -77.059 -17.973  85.382  1.00  0.00     0.028 C 
BRANCH  22  23
ATOM     23  C   UNL     1     -76.069 -17.189  84.505  1.00  0.00     0.160 C 
BRANCH  23  24
ATOM     24  O   UNL     1     -75.391 -16.189  85.242  1.00  0.00    -0.381 OA
BRANCH  24  25
ATOM     25  C   UNL     1     -74.008 -16.474  85.365  1.00  0.00     0.160 C 
BRANCH  25  26
ATOM     26  C   UNL     1     -73.366 -15.539  86.392  1.00  0.00     0.029 C 
BRANCH  26  27
ATOM     27  C   UNL     1     -73.864 -15.834  87.816  1.00  0.00     0.007 C 
BRANCH  27  28
ATOM     28  C   UNL     1     -73.514 -14.709  88.800  1.00  0.00     0.035 C 
BRANCH  28  29
ATOM     29  C   UNL     1     -74.102 -14.953  90.167  1.00  0.00    -0.048 A 
ATOM     30  C   UNL     1     -75.424 -15.413  90.305  1.00  0.00     0.004 A 
ATOM     31  C   UNL     1     -73.320 -14.752  91.319  1.00  0.00     0.004 A 
ATOM     32  C   UNL     1     -75.957 -15.653  91.575  1.00  0.00     0.000 A 
ATOM     33  C   UNL     1     -73.857 -14.997  92.587  1.00  0.00     0.000 A 
ATOM     34  C   UNL     1     -75.174 -15.447  92.715  1.00  0.00     0.000 A 
ENDBRANCH  28  29
ENDBRANCH  27  28
ENDBRANCH  26  27
ENDBRANCH  25  26
ENDBRANCH  24  25
ENDBRANCH  23  24
ENDBRANCH  22  23
ENDBRANCH  21  22
ENDBRANCH   1  21
TORSDOF 19
ENDMDL
