MODEL 1
REMARK VINA RESULT:   -10.373      0.000      0.000
REMARK INTER + INTRA:         -13.468
REMARK INTER:                 -13.102
REMARK INTRA:                  -0.366
REMARK UNBOUND:                -0.366
REMARK SMILES CC(=O)CC(c1ccccc1)c1c(O)c2ccccc2oc1=O
REMARK SMILES IDX 5 1 4 2 2 3 1 4 3 5 6 6 7 7 11 8 8 9 10 10 9 11 12 12 13 13
REMARK SMILES IDX 22 14 15 15 21 16 23 17 20 18 16 19 19 20 17 21 18 22 14 23
REMARK H PARENT 14 24
REMARK Flexibility Score: inf
ROOT
ATOM      1  C   UNL     1       7.795  76.561  -1.437  1.00  0.00     0.068 C 
ENDROOT
BRANCH   1   2
ATOM      2  C   UNL     1       7.673  76.301   0.094  1.00  0.00     0.088 C 
BRANCH   2   3
ATOM      3  C   UNL     1       6.303  76.490   0.719  1.00  0.00     0.130 C 
ATOM      4  C   UNL     1       5.257  75.430   0.558  1.00  0.00     0.087 C 
ATOM      5  O   UNL     1       6.042  77.474   1.394  1.00  0.00    -0.300 OA
ENDBRANCH   2   3
ENDBRANCH   1   2
BRANCH   1   6
ATOM      6  C   UNL     1       8.568  77.838  -1.747  1.00  0.00    -0.040 A 
ATOM      7  C   UNL     1       9.972  77.848  -1.874  1.00  0.00     0.004 A 
ATOM      8  C   UNL     1       7.868  79.052  -1.881  1.00  0.00     0.004 A 
ATOM      9  C   UNL     1      10.651  79.039  -2.144  1.00  0.00     0.000 A 
ATOM     10  C   UNL     1       8.552  80.240  -2.151  1.00  0.00     0.000 A 
ATOM     11  C   UNL     1       9.942  80.234  -2.283  1.00  0.00     0.000 A 
ENDBRANCH   1   6
BRANCH   1  12
ATOM     12  C   UNL     1       8.198  75.375  -2.337  1.00  0.00     0.088 A 
ATOM     13  C   UNL     1       9.139  74.421  -1.857  1.00  0.00     0.137 A 
ATOM     14  C   UNL     1       7.651  75.147  -3.629  1.00  0.00     0.343 A 
ATOM     15  C   UNL     1       9.509  73.337  -2.669  1.00  0.00     0.060 A 
ATOM     16  O   UNL     1       8.030  74.102  -4.355  1.00  0.00    -0.422 OA
ATOM     17  O   UNL     1       6.796  75.921  -4.128  1.00  0.00    -0.246 OA
ATOM     18  C   UNL     1       8.917  73.212  -3.941  1.00  0.00     0.142 A 
ATOM     19  C   UNL     1      10.444  72.373  -2.247  1.00  0.00     0.016 A 
ATOM     20  C   UNL     1       9.262  72.141  -4.774  1.00  0.00     0.048 A 
ATOM     21  C   UNL     1      10.783  71.307  -3.086  1.00  0.00     0.001 A 
ATOM     22  C   UNL     1      10.194  71.192  -4.347  1.00  0.00     0.004 A 
BRANCH  13  23
ATOM     23  O   UNL     1       9.715  74.516  -0.583  1.00  0.00    -0.507 OA
ATOM     24  H   UNL     1      10.423  75.187  -0.319  1.00  0.00     0.293 HD
ENDBRANCH  13  23
ENDBRANCH   1  12
TORSDOF 5
ENDMDL
MODEL 2
REMARK VINA RESULT:   -10.029      0.752      2.118
REMARK INTER + INTRA:         -13.034
REMARK INTER:                 -12.505
REMARK INTRA:                  -0.528
REMARK UNBOUND:                -0.366
REMARK SMILES CC(=O)CC(c1ccccc1)c1c(O)c2ccccc2oc1=O
REMARK SMILES IDX 5 1 4 2 2 3 1 4 3 5 6 6 7 7 11 8 8 9 10 10 9 11 12 12 13 13
REMARK SMILES IDX 22 14 15 15 21 16 23 17 20 18 16 19 19 20 17 21 18 22 14 23
REMARK H PARENT 14 24
REMARK Flexibility Score: inf
ROOT
ATOM      1  C   UNL     1       8.088  76.253  -1.315  1.00  0.00     0.068 C 
ENDROOT
BRANCH   1   2
ATOM      2  C   UNL     1       7.702  76.165   0.192  1.00  0.00     0.088 C 
BRANCH   2   3
ATOM      3  C   UNL     1       6.235  76.338   0.540  1.00  0.00     0.130 C 
ATOM      4  C   UNL     1       5.300  75.173   0.427  1.00  0.00     0.087 C 
ATOM      5  O   UNL     1       5.802  77.401   0.955  1.00  0.00    -0.300 OA
ENDBRANCH   2   3
ENDBRANCH   1   2
BRANCH   1   6
ATOM      6  C   UNL     1       8.820  77.547  -1.649  1.00  0.00    -0.040 A 
ATOM      7  C   UNL     1      10.193  77.568  -1.967  1.00  0.00     0.004 A 
ATOM      8  C   UNL     1       8.115  78.766  -1.614  1.00  0.00     0.004 A 
ATOM      9  C   UNL     1      10.836  78.776  -2.255  1.00  0.00     0.000 A 
ATOM     10  C   UNL     1       8.763  79.970  -1.902  1.00  0.00     0.000 A 
ATOM     11  C   UNL     1      10.122  79.975  -2.223  1.00  0.00     0.000 A 
ENDBRANCH   1   6
BRANCH   1  12
ATOM     12  C   UNL     1       8.728  75.009  -1.965  1.00  0.00     0.088 A 
ATOM     13  C   UNL     1       8.341  74.632  -3.282  1.00  0.00     0.137 A 
ATOM     14  C   UNL     1       9.729  74.219  -1.336  1.00  0.00     0.343 A 
ATOM     15  C   UNL     1       8.921  73.503  -3.883  1.00  0.00     0.060 A 
ATOM     16  O   UNL     1      10.250  73.164  -1.951  1.00  0.00    -0.422 OA
ATOM     17  O   UNL     1      10.152  74.488  -0.185  1.00  0.00    -0.246 OA
ATOM     18  C   UNL     1       9.893  72.780  -3.166  1.00  0.00     0.142 A 
ATOM     19  C   UNL     1       8.564  73.080  -5.177  1.00  0.00     0.016 A 
ATOM     20  C   UNL     1      10.493  71.651  -3.737  1.00  0.00     0.048 A 
ATOM     21  C   UNL     1       9.167  71.951  -5.741  1.00  0.00     0.001 A 
ATOM     22  C   UNL     1      10.130  71.238  -5.022  1.00  0.00     0.004 A 
BRANCH  13  23
ATOM     23  O   UNL     1       7.395  75.357  -4.020  1.00  0.00    -0.507 OA
ATOM     24  H   UNL     1       7.500  76.322  -4.301  1.00  0.00     0.293 HD
ENDBRANCH  13  23
ENDBRANCH   1  12
TORSDOF 5
ENDMDL
MODEL 3
REMARK VINA RESULT:    -9.517      1.745      5.452
REMARK INTER + INTRA:         -12.387
REMARK INTER:                 -11.790
REMARK INTRA:                  -0.597
REMARK UNBOUND:                -0.366
REMARK SMILES CC(=O)CC(c1ccccc1)c1c(O)c2ccccc2oc1=O
REMARK SMILES IDX 5 1 4 2 2 3 1 4 3 5 6 6 7 7 11 8 8 9 10 10 9 11 12 12 13 13
REMARK SMILES IDX 22 14 15 15 21 16 23 17 20 18 16 19 19 20 17 21 18 22 14 23
REMARK H PARENT 14 24
REMARK Flexibility Score: inf
ROOT
ATOM      1  C   UNL     1       8.576  74.550  -1.516  1.00  0.00     0.068 C 
ENDROOT
BRANCH   1   2
ATOM      2  C   UNL     1       7.024  74.601  -1.399  1.00  0.00     0.088 C 
BRANCH   2   3
ATOM      3  C   UNL     1       6.445  75.010  -0.057  1.00  0.00     0.130 C 
ATOM      4  C   UNL     1       6.451  76.453   0.349  1.00  0.00     0.087 C 
ATOM      5  O   UNL     1       5.931  74.192   0.690  1.00  0.00    -0.300 OA
ENDBRANCH   2   3
ENDBRANCH   1   2
BRANCH   1   6
ATOM      6  C   UNL     1       9.048  73.461  -2.472  1.00  0.00    -0.040 A 
ATOM      7  C   UNL     1       8.850  73.553  -3.865  1.00  0.00     0.004 A 
ATOM      8  C   UNL     1       9.674  72.312  -1.952  1.00  0.00     0.004 A 
ATOM      9  C   UNL     1       9.283  72.529  -4.711  1.00  0.00     0.000 A 
ATOM     10  C   UNL     1      10.105  71.291  -2.804  1.00  0.00     0.000 A 
ATOM     11  C   UNL     1       9.910  71.399  -4.182  1.00  0.00     0.000 A 
ENDBRANCH   1   6
BRANCH   1  12
ATOM     12  C   UNL     1       9.326  75.885  -1.700  1.00  0.00     0.088 A 
ATOM     13  C   UNL     1      10.497  76.140  -0.932  1.00  0.00     0.137 A 
ATOM     14  C   UNL     1       8.937  76.884  -2.633  1.00  0.00     0.343 A 
ATOM     15  C   UNL     1      11.188  77.352  -1.095  1.00  0.00     0.060 A 
ATOM     16  O   UNL     1       9.629  78.011  -2.753  1.00  0.00    -0.422 OA
ATOM     17  O   UNL     1       7.932  76.739  -3.372  1.00  0.00    -0.246 OA
ATOM     18  C   UNL     1      10.708  78.281  -2.038  1.00  0.00     0.142 A 
ATOM     19  C   UNL     1      12.343  77.659  -0.351  1.00  0.00     0.016 A 
ATOM     20  C   UNL     1      11.376  79.498  -2.227  1.00  0.00     0.048 A 
ATOM     21  C   UNL     1      13.003  78.876  -0.546  1.00  0.00     0.001 A 
ATOM     22  C   UNL     1      12.520  79.794  -1.482  1.00  0.00     0.004 A 
BRANCH  13  23
ATOM     23  O   UNL     1      11.003  75.214  -0.009  1.00  0.00    -0.507 OA
ATOM     24  H   UNL     1      11.428  74.330  -0.254  1.00  0.00     0.293 HD
ENDBRANCH  13  23
ENDBRANCH   1  12
TORSDOF 5
ENDMDL
MODEL 4
REMARK VINA RESULT:    -9.184      1.323      3.954
REMARK INTER + INTRA:         -11.967
REMARK INTER:                 -11.757
REMARK INTRA:                  -0.210
REMARK UNBOUND:                -0.366
REMARK SMILES CC(=O)CC(c1ccccc1)c1c(O)c2ccccc2oc1=O
REMARK SMILES IDX 5 1 4 2 2 3 1 4 3 5 6 6 7 7 11 8 8 9 10 10 9 11 12 12 13 13
REMARK SMILES IDX 22 14 15 15 21 16 23 17 20 18 16 19 19 20 17 21 18 22 14 23
REMARK H PARENT 14 24
REMARK Flexibility Score: inf
ROOT
ATOM      1  C   UNL     1       8.359  76.475  -1.570  1.00  0.00     0.068 C 
ENDROOT
BRANCH   1   2
ATOM      2  C   UNL     1       8.010  77.594  -2.595  1.00  0.00     0.088 C 
BRANCH   2   3
ATOM      3  C   UNL     1       8.234  79.028  -2.153  1.00  0.00     0.130 C 
ATOM      4  C   UNL     1       9.593  79.466  -1.700  1.00  0.00     0.087 C 
ATOM      5  O   UNL     1       7.336  79.855  -2.200  1.00  0.00    -0.300 OA
ENDBRANCH   2   3
ENDBRANCH   1   2
BRANCH   1   6
ATOM      6  C   UNL     1       7.244  76.254  -0.554  1.00  0.00    -0.040 A 
ATOM      7  C   UNL     1       6.481  75.068  -0.528  1.00  0.00     0.004 A 
ATOM      8  C   UNL     1       6.942  77.273   0.370  1.00  0.00     0.004 A 
ATOM      9  C   UNL     1       5.456  74.906   0.408  1.00  0.00     0.000 A 
ATOM     10  C   UNL     1       5.916  77.105   1.303  1.00  0.00     0.000 A 
ATOM     11  C   UNL     1       5.174  75.922   1.323  1.00  0.00     0.000 A 
ENDBRANCH   1   6
BRANCH   1  12
ATOM     12  C   UNL     1       8.950  75.159  -2.116  1.00  0.00     0.088 A 
ATOM     13  C   UNL     1       8.495  74.654  -3.367  1.00  0.00     0.137 A 
ATOM     14  C   UNL     1       9.969  74.419  -1.455  1.00  0.00     0.343 A 
ATOM     15  C   UNL     1       9.029  73.458  -3.872  1.00  0.00     0.060 A 
ATOM     16  O   UNL     1      10.445  73.297  -1.980  1.00  0.00    -0.422 OA
ATOM     17  O   UNL     1      10.450  74.798  -0.359  1.00  0.00    -0.246 OA
ATOM     18  C   UNL     1      10.025  72.795  -3.130  1.00  0.00     0.142 A 
ATOM     19  C   UNL     1       8.605  72.909  -5.098  1.00  0.00     0.016 A 
ATOM     20  C   UNL     1      10.581  71.603  -3.607  1.00  0.00     0.048 A 
ATOM     21  C   UNL     1       9.165  71.718  -5.567  1.00  0.00     0.001 A 
ATOM     22  C   UNL     1      10.151  71.066  -4.823  1.00  0.00     0.004 A 
BRANCH  13  23
ATOM     23  O   UNL     1       7.524  75.316  -4.131  1.00  0.00    -0.507 OA
ATOM     24  H   UNL     1       6.939  74.875  -4.828  1.00  0.00     0.293 HD
ENDBRANCH  13  23
ENDBRANCH   1  12
TORSDOF 5
ENDMDL
MODEL 5
REMARK VINA RESULT:    -9.177      1.467      3.501
REMARK INTER + INTRA:         -11.957
REMARK INTER:                 -11.257
REMARK INTRA:                  -0.700
REMARK UNBOUND:                -0.366
REMARK SMILES CC(=O)CC(c1ccccc1)c1c(O)c2ccccc2oc1=O
REMARK SMILES IDX 5 1 4 2 2 3 1 4 3 5 6 6 7 7 11 8 8 9 10 10 9 11 12 12 13 13
REMARK SMILES IDX 22 14 15 15 21 16 23 17 20 18 16 19 19 20 17 21 18 22 14 23
REMARK H PARENT 14 24
REMARK Flexibility Score: inf
ROOT
ATOM      1  C   UNL     1       8.988  76.941  -1.230  1.00  0.00     0.068 C 
ENDROOT
BRANCH   1   2
ATOM      2  C   UNL     1       9.375  78.278  -1.928  1.00  0.00     0.088 C 
BRANCH   2   3
ATOM      3  C   UNL     1      10.827  78.711  -1.834  1.00  0.00     0.130 C 
ATOM      4  C   UNL     1      11.826  78.186  -2.819  1.00  0.00     0.087 C 
ATOM      5  O   UNL     1      11.197  79.518  -0.996  1.00  0.00    -0.300 OA
ENDBRANCH   2   3
ENDBRANCH   1   2
BRANCH   1   6
ATOM      6  C   UNL     1       7.731  77.076  -0.378  1.00  0.00    -0.040 A 
ATOM      7  C   UNL     1       7.231  78.332   0.021  1.00  0.00     0.004 A 
ATOM      8  C   UNL     1       7.063  75.914   0.051  1.00  0.00     0.004 A 
ATOM      9  C   UNL     1       6.083  78.418   0.814  1.00  0.00     0.000 A 
ATOM     10  C   UNL     1       5.916  76.006   0.845  1.00  0.00     0.000 A 
ATOM     11  C   UNL     1       5.426  77.257   1.225  1.00  0.00     0.000 A 
ENDBRANCH   1   6
BRANCH   1  12
ATOM     12  C   UNL     1       9.008  75.655  -2.081  1.00  0.00     0.088 A 
ATOM     13  C   UNL     1       9.810  74.554  -1.665  1.00  0.00     0.137 A 
ATOM     14  C   UNL     1       8.234  75.479  -3.260  1.00  0.00     0.343 A 
ATOM     15  C   UNL     1       9.832  73.379  -2.433  1.00  0.00     0.060 A 
ATOM     16  O   UNL     1       8.285  74.344  -3.947  1.00  0.00    -0.422 OA
ATOM     17  O   UNL     1       7.478  76.385  -3.692  1.00  0.00    -0.246 OA
ATOM     18  C   UNL     1       9.037  73.314  -3.594  1.00  0.00     0.142 A 
ATOM     19  C   UNL     1      10.617  72.267  -2.073  1.00  0.00     0.016 A 
ATOM     20  C   UNL     1       9.034  72.155  -4.380  1.00  0.00     0.048 A 
ATOM     21  C   UNL     1      10.608  71.113  -2.864  1.00  0.00     0.001 A 
ATOM     22  C   UNL     1       9.819  71.058  -4.015  1.00  0.00     0.004 A 
BRANCH  13  23
ATOM     23  O   UNL     1      10.585  74.592  -0.498  1.00  0.00    -0.507 OA
ATOM     24  H   UNL     1      10.511  75.300   0.220  1.00  0.00     0.293 HD
ENDBRANCH  13  23
ENDBRANCH   1  12
TORSDOF 5
ENDMDL
MODEL 6
REMARK VINA RESULT:    -9.021      5.444      7.130
REMARK INTER + INTRA:         -11.761
REMARK INTER:                 -11.095
REMARK INTRA:                  -0.666
REMARK UNBOUND:                -0.366
REMARK SMILES CC(=O)CC(c1ccccc1)c1c(O)c2ccccc2oc1=O
REMARK SMILES IDX 5 1 4 2 2 3 1 4 3 5 6 6 7 7 11 8 8 9 10 10 9 11 12 12 13 13
REMARK SMILES IDX 22 14 15 15 21 16 23 17 20 18 16 19 19 20 17 21 18 22 14 23
REMARK H PARENT 14 24
REMARK Flexibility Score: inf
ROOT
ATOM      1  C   UNL     1      12.961  78.406  -0.581  1.00  0.00     0.068 C 
ENDROOT
BRANCH   1   2
ATOM      2  C   UNL     1      13.982  77.750   0.395  1.00  0.00     0.088 C 
BRANCH   2   3
ATOM      3  C   UNL     1      13.582  76.430   1.028  1.00  0.00     0.130 C 
ATOM      4  C   UNL     1      14.634  75.529   1.600  1.00  0.00     0.087 C 
ATOM      5  O   UNL     1      12.411  76.100   1.124  1.00  0.00    -0.300 OA
ENDBRANCH   2   3
ENDBRANCH   1   2
BRANCH   1   6
ATOM      6  C   UNL     1      12.272  79.619   0.032  1.00  0.00    -0.040 A 
ATOM      7  C   UNL     1      12.555  80.056   1.342  1.00  0.00     0.004 A 
ATOM      8  C   UNL     1      11.301  80.311  -0.717  1.00  0.00     0.004 A 
ATOM      9  C   UNL     1      11.894  81.164   1.878  1.00  0.00     0.000 A 
ATOM     10  C   UNL     1      10.642  81.418  -0.176  1.00  0.00     0.000 A 
ATOM     11  C   UNL     1      10.939  81.845   1.120  1.00  0.00     0.000 A 
ENDBRANCH   1   6
BRANCH   1  12
ATOM     12  C   UNL     1      13.408  78.635  -2.040  1.00  0.00     0.088 A 
ATOM     13  C   UNL     1      14.588  79.387  -2.300  1.00  0.00     0.137 A 
ATOM     14  C   UNL     1      12.723  78.102  -3.166  1.00  0.00     0.343 A 
ATOM     15  C   UNL     1      15.003  79.598  -3.624  1.00  0.00     0.060 A 
ATOM     16  O   UNL     1      13.161  78.325  -4.399  1.00  0.00    -0.422 OA
ATOM     17  O   UNL     1      11.685  77.405  -3.035  1.00  0.00    -0.246 OA
ATOM     18  C   UNL     1      14.243  79.037  -4.669  1.00  0.00     0.142 A 
ATOM     19  C   UNL     1      16.155  80.345  -3.936  1.00  0.00     0.016 A 
ATOM     20  C   UNL     1      14.631  79.227  -6.000  1.00  0.00     0.048 A 
ATOM     21  C   UNL     1      16.535  80.530  -5.269  1.00  0.00     0.001 A 
ATOM     22  C   UNL     1      15.775  79.972  -6.299  1.00  0.00     0.004 A 
BRANCH  13  23
ATOM     23  O   UNL     1      15.371  79.928  -1.271  1.00  0.00    -0.507 OA
ATOM     24  H   UNL     1      15.073  80.665  -0.646  1.00  0.00     0.293 HD
ENDBRANCH  13  23
ENDBRANCH   1  12
TORSDOF 5
ENDMDL
MODEL 7
REMARK VINA RESULT:    -8.835      4.488      6.890
REMARK INTER + INTRA:         -11.526
REMARK INTER:                 -10.866
REMARK INTRA:                  -0.660
REMARK UNBOUND:                -0.366
REMARK SMILES CC(=O)CC(c1ccccc1)c1c(O)c2ccccc2oc1=O
REMARK SMILES IDX 5 1 4 2 2 3 1 4 3 5 6 6 7 7 11 8 8 9 10 10 9 11 12 12 13 13
REMARK SMILES IDX 22 14 15 15 21 16 23 17 20 18 16 19 19 20 17 21 18 22 14 23
REMARK H PARENT 14 24
REMARK Flexibility Score: inf
ROOT
ATOM      1  C   UNL     1      12.024  78.353  -1.351  1.00  0.00     0.068 C 
ENDROOT
BRANCH   1   2
ATOM      2  C   UNL     1      12.393  78.483   0.157  1.00  0.00     0.088 C 
BRANCH   2   3
ATOM      3  C   UNL     1      13.567  77.659   0.654  1.00  0.00     0.130 C 
ATOM      4  C   UNL     1      13.346  76.254   1.124  1.00  0.00     0.087 C 
ATOM      5  O   UNL     1      14.705  78.101   0.639  1.00  0.00    -0.300 OA
ENDBRANCH   2   3
ENDBRANCH   1   2
BRANCH   1   6
ATOM      6  C   UNL     1      10.597  78.804  -1.637  1.00  0.00    -0.040 A 
ATOM      7  C   UNL     1      10.232  80.166  -1.649  1.00  0.00     0.004 A 
ATOM      8  C   UNL     1       9.602  77.835  -1.869  1.00  0.00     0.004 A 
ATOM      9  C   UNL     1       8.910  80.543  -1.901  1.00  0.00     0.000 A 
ATOM     10  C   UNL     1       8.282  78.218  -2.120  1.00  0.00     0.000 A 
ATOM     11  C   UNL     1       7.936  79.571  -2.137  1.00  0.00     0.000 A 
ENDBRANCH   1   6
BRANCH   1  12
ATOM     12  C   UNL     1      13.043  78.871  -2.387  1.00  0.00     0.088 A 
ATOM     13  C   UNL     1      13.222  78.161  -3.608  1.00  0.00     0.137 A 
ATOM     14  C   UNL     1      13.806  80.059  -2.215  1.00  0.00     0.343 A 
ATOM     15  C   UNL     1      14.145  78.627  -4.557  1.00  0.00     0.060 A 
ATOM     16  O   UNL     1      14.662  80.460  -3.147  1.00  0.00    -0.422 OA
ATOM     17  O   UNL     1      13.699  80.765  -1.181  1.00  0.00    -0.246 OA
ATOM     18  C   UNL     1      14.862  79.807  -4.280  1.00  0.00     0.142 A 
ATOM     19  C   UNL     1      14.369  77.955  -5.773  1.00  0.00     0.016 A 
ATOM     20  C   UNL     1      15.788  80.301  -5.207  1.00  0.00     0.048 A 
ATOM     21  C   UNL     1      15.296  78.454  -6.694  1.00  0.00     0.001 A 
ATOM     22  C   UNL     1      16.004  79.625  -6.411  1.00  0.00     0.004 A 
BRANCH  13  23
ATOM     23  O   UNL     1      12.496  77.000  -3.909  1.00  0.00    -0.507 OA
ATOM     24  H   UNL     1      11.717  76.650  -3.369  1.00  0.00     0.293 HD
ENDBRANCH  13  23
ENDBRANCH   1  12
TORSDOF 5
ENDMDL
MODEL 8
REMARK VINA RESULT:    -8.683      1.734      5.755
REMARK INTER + INTRA:         -11.333
REMARK INTER:                 -10.755
REMARK INTRA:                  -0.579
REMARK UNBOUND:                -0.366
REMARK SMILES CC(=O)CC(c1ccccc1)c1c(O)c2ccccc2oc1=O
REMARK SMILES IDX 5 1 4 2 2 3 1 4 3 5 6 6 7 7 11 8 8 9 10 10 9 11 12 12 13 13
REMARK SMILES IDX 22 14 15 15 21 16 23 17 20 18 16 19 19 20 17 21 18 22 14 23
REMARK H PARENT 14 24
REMARK Flexibility Score: inf
ROOT
ATOM      1  C   UNL     1       8.610  74.384  -1.480  1.00  0.00     0.068 C 
ENDROOT
BRANCH   1   2
ATOM      2  C   UNL     1       7.157  74.916  -1.656  1.00  0.00     0.088 C 
BRANCH   2   3
ATOM      3  C   UNL     1       6.518  75.588  -0.454  1.00  0.00     0.130 C 
ATOM      4  C   UNL     1       5.597  74.809   0.435  1.00  0.00     0.087 C 
ATOM      5  O   UNL     1       6.771  76.747  -0.165  1.00  0.00    -0.300 OA
ENDBRANCH   2   3
ENDBRANCH   1   2
BRANCH   1   6
ATOM      6  C   UNL     1       9.001  73.401  -2.577  1.00  0.00    -0.040 A 
ATOM      7  C   UNL     1       8.705  73.640  -3.934  1.00  0.00     0.004 A 
ATOM      8  C   UNL     1       9.652  72.202  -2.227  1.00  0.00     0.004 A 
ATOM      9  C   UNL     1       9.067  72.710  -4.913  1.00  0.00     0.000 A 
ATOM     10  C   UNL     1      10.011  71.275  -3.210  1.00  0.00     0.000 A 
ATOM     11  C   UNL     1       9.719  71.529  -4.552  1.00  0.00     0.000 A 
ENDBRANCH   1   6
BRANCH   1  12
ATOM     12  C   UNL     1       9.717  75.409  -1.161  1.00  0.00     0.088 A 
ATOM     13  C   UNL     1       9.921  76.513  -2.037  1.00  0.00     0.137 A 
ATOM     14  C   UNL     1      10.542  75.343  -0.005  1.00  0.00     0.343 A 
ATOM     15  C   UNL     1      10.925  77.452  -1.752  1.00  0.00     0.060 A 
ATOM     16  O   UNL     1      11.473  76.261   0.221  1.00  0.00    -0.422 OA
ATOM     17  O   UNL     1      10.420  74.419   0.838  1.00  0.00    -0.246 OA
ATOM     18  C   UNL     1      11.697  77.285  -0.586  1.00  0.00     0.142 A 
ATOM     19  C   UNL     1      11.176  78.554  -2.592  1.00  0.00     0.016 A 
ATOM     20  C   UNL     1      12.704  78.205  -0.272  1.00  0.00     0.048 A 
ATOM     21  C   UNL     1      12.184  79.469  -2.271  1.00  0.00     0.001 A 
ATOM     22  C   UNL     1      12.946  79.294  -1.114  1.00  0.00     0.004 A 
BRANCH  13  23
ATOM     23  O   UNL     1       9.143  76.709  -3.186  1.00  0.00    -0.507 OA
ATOM     24  H   UNL     1       8.297  76.200  -3.403  1.00  0.00     0.293 HD
ENDBRANCH  13  23
ENDBRANCH   1  12
TORSDOF 5
ENDMDL
MODEL 9
REMARK VINA RESULT:    -8.648      5.555      7.296
REMARK INTER + INTRA:         -11.290
REMARK INTER:                 -10.518
REMARK INTRA:                  -0.772
REMARK UNBOUND:                -0.366
REMARK SMILES CC(=O)CC(c1ccccc1)c1c(O)c2ccccc2oc1=O
REMARK SMILES IDX 5 1 4 2 2 3 1 4 3 5 6 6 7 7 11 8 8 9 10 10 9 11 12 12 13 13
REMARK SMILES IDX 22 14 15 15 21 16 23 17 20 18 16 19 19 20 17 21 18 22 14 23
REMARK H PARENT 14 24
REMARK Flexibility Score: inf
ROOT
ATOM      1  C   UNL     1      13.077  78.486  -0.428  1.00  0.00     0.068 C 
ENDROOT
BRANCH   1   2
ATOM      2  C   UNL     1      13.876  77.817   0.729  1.00  0.00     0.088 C 
BRANCH   2   3
ATOM      3  C   UNL     1      13.500  76.392   1.094  1.00  0.00     0.130 C 
ATOM      4  C   UNL     1      14.528  75.479   1.690  1.00  0.00     0.087 C 
ATOM      5  O   UNL     1      12.359  75.980   0.954  1.00  0.00    -0.300 OA
ENDBRANCH   2   3
ENDBRANCH   1   2
BRANCH   1   6
ATOM      6  C   UNL     1      12.121  79.560   0.076  1.00  0.00    -0.040 A 
ATOM      7  C   UNL     1      11.003  79.977  -0.675  1.00  0.00     0.004 A 
ATOM      8  C   UNL     1      12.372  80.180   1.315  1.00  0.00     0.004 A 
ATOM      9  C   UNL     1      10.154  80.976  -0.189  1.00  0.00     0.000 A 
ATOM     10  C   UNL     1      11.520  81.178   1.796  1.00  0.00     0.000 A 
ATOM     11  C   UNL     1      10.412  81.575   1.046  1.00  0.00     0.000 A 
ENDBRANCH   1   6
BRANCH   1  12
ATOM     12  C   UNL     1      13.858  78.913  -1.687  1.00  0.00     0.088 A 
ATOM     13  C   UNL     1      13.525  78.338  -2.946  1.00  0.00     0.137 A 
ATOM     14  C   UNL     1      14.889  79.893  -1.679  1.00  0.00     0.343 A 
ATOM     15  C   UNL     1      14.229  78.724  -4.097  1.00  0.00     0.060 A 
ATOM     16  O   UNL     1      15.521  80.226  -2.798  1.00  0.00    -0.422 OA
ATOM     17  O   UNL     1      15.238  80.472  -0.621  1.00  0.00    -0.246 OA
ATOM     18  C   UNL     1      15.244  79.693  -3.977  1.00  0.00     0.142 A 
ATOM     19  C   UNL     1      13.947  78.176  -5.364  1.00  0.00     0.016 A 
ATOM     20  C   UNL     1      15.964  80.101  -5.106  1.00  0.00     0.048 A 
ATOM     21  C   UNL     1      14.671  78.590  -6.486  1.00  0.00     0.001 A 
ATOM     22  C   UNL     1      15.677  79.550  -6.358  1.00  0.00     0.004 A 
BRANCH  13  23
ATOM     23  O   UNL     1      12.499  77.394  -3.087  1.00  0.00    -0.507 OA
ATOM     24  H   UNL     1      12.635  76.392  -3.103  1.00  0.00     0.293 HD
ENDBRANCH  13  23
ENDBRANCH   1  12
TORSDOF 5
ENDMDL
MODEL 10
REMARK VINA RESULT:    -8.546      3.139      5.077
REMARK INTER + INTRA:         -11.160
REMARK INTER:                 -10.334
REMARK INTRA:                  -0.826
REMARK UNBOUND:                -0.366
REMARK SMILES CC(=O)CC(c1ccccc1)c1c(O)c2ccccc2oc1=O
REMARK SMILES IDX 5 1 4 2 2 3 1 4 3 5 6 6 7 7 11 8 8 9 10 10 9 11 12 12 13 13
REMARK SMILES IDX 22 14 15 15 21 16 23 17 20 18 16 19 19 20 17 21 18 22 14 23
REMARK H PARENT 14 24
REMARK Flexibility Score: inf
ROOT
ATOM      1  C   UNL     1      11.538  79.769  -0.984  1.00  0.00     0.068 C 
ENDROOT
BRANCH   1   2
ATOM      2  C   UNL     1      11.993  79.688   0.503  1.00  0.00     0.088 C 
BRANCH   2   3
ATOM      3  C   UNL     1      11.591  80.835   1.413  1.00  0.00     0.130 C 
ATOM      4  C   UNL     1      10.856  82.012   0.847  1.00  0.00     0.087 C 
ATOM      5  O   UNL     1      11.813  80.803   2.613  1.00  0.00    -0.300 OA
ENDBRANCH   2   3
ENDBRANCH   1   2
BRANCH   1   6
ATOM      6  C   UNL     1      12.718  79.823  -1.947  1.00  0.00    -0.040 A 
ATOM      7  C   UNL     1      12.541  80.003  -3.334  1.00  0.00     0.004 A 
ATOM      8  C   UNL     1      14.024  79.660  -1.447  1.00  0.00     0.004 A 
ATOM      9  C   UNL     1      13.645  80.033  -4.191  1.00  0.00     0.000 A 
ATOM     10  C   UNL     1      15.124  79.690  -2.309  1.00  0.00     0.000 A 
ATOM     11  C   UNL     1      14.935  79.878  -3.679  1.00  0.00     0.000 A 
ENDBRANCH   1   6
BRANCH   1  12
ATOM     12  C   UNL     1      10.421  78.811  -1.446  1.00  0.00     0.088 A 
ATOM     13  C   UNL     1      10.589  77.408  -1.277  1.00  0.00     0.137 A 
ATOM     14  C   UNL     1       9.192  79.250  -2.009  1.00  0.00     0.343 A 
ATOM     15  C   UNL     1       9.577  76.529  -1.693  1.00  0.00     0.060 A 
ATOM     16  O   UNL     1       8.262  78.377  -2.381  1.00  0.00    -0.422 OA
ATOM     17  O   UNL     1       8.942  80.470  -2.175  1.00  0.00    -0.246 OA
ATOM     18  C   UNL     1       8.402  77.068  -2.254  1.00  0.00     0.142 A 
ATOM     19  C   UNL     1       9.699  75.133  -1.561  1.00  0.00     0.016 A 
ATOM     20  C   UNL     1       7.372  76.219  -2.676  1.00  0.00     0.048 A 
ATOM     21  C   UNL     1       8.665  74.292  -1.985  1.00  0.00     0.001 A 
ATOM     22  C   UNL     1       7.504  74.834  -2.542  1.00  0.00     0.004 A 
BRANCH  13  23
ATOM     23  O   UNL     1      11.740  76.858  -0.697  1.00  0.00    -0.507 OA
ATOM     24  H   UNL     1      11.771  75.981  -0.194  1.00  0.00     0.293 HD
ENDBRANCH  13  23
ENDBRANCH   1  12
TORSDOF 5
ENDMDL
MODEL 11
REMARK VINA RESULT:    -8.419      2.819      5.967
REMARK INTER + INTRA:         -11.000
REMARK INTER:                 -10.603
REMARK INTRA:                  -0.397
REMARK UNBOUND:                -0.366
REMARK SMILES CC(=O)CC(c1ccccc1)c1c(O)c2ccccc2oc1=O
REMARK SMILES IDX 5 1 4 2 2 3 1 4 3 5 6 6 7 7 11 8 8 9 10 10 9 11 12 12 13 13
REMARK SMILES IDX 22 14 15 15 21 16 23 17 20 18 16 19 19 20 17 21 18 22 14 23
REMARK H PARENT 14 24
REMARK Flexibility Score: inf
ROOT
ATOM      1  C   UNL     1       8.842  77.856  -1.950  1.00  0.00     0.068 C 
ENDROOT
BRANCH   1   2
ATOM      2  C   UNL     1       9.029  76.469  -2.634  1.00  0.00     0.088 C 
BRANCH   2   3
ATOM      3  C   UNL     1       7.831  75.892  -3.365  1.00  0.00     0.130 C 
ATOM      4  C   UNL     1       7.473  74.448  -3.187  1.00  0.00     0.087 C 
ATOM      5  O   UNL     1       7.117  76.592  -4.067  1.00  0.00    -0.300 OA
ENDBRANCH   2   3
ENDBRANCH   1   2
BRANCH   1   6
ATOM      6  C   UNL     1       7.819  77.810  -0.821  1.00  0.00    -0.040 A 
ATOM      7  C   UNL     1       7.453  76.601  -0.194  1.00  0.00     0.004 A 
ATOM      8  C   UNL     1       7.195  79.002  -0.408  1.00  0.00     0.004 A 
ATOM      9  C   UNL     1       6.500  76.594   0.829  1.00  0.00     0.000 A 
ATOM     10  C   UNL     1       6.243  78.989   0.614  1.00  0.00     0.000 A 
ATOM     11  C   UNL     1       5.896  77.786   1.233  1.00  0.00     0.000 A 
ENDBRANCH   1   6
BRANCH   1  12
ATOM     12  C   UNL     1      10.110  78.654  -1.586  1.00  0.00     0.088 A 
ATOM     13  C   UNL     1      11.179  78.000  -0.910  1.00  0.00     0.137 A 
ATOM     14  C   UNL     1      10.302  80.023  -1.922  1.00  0.00     0.343 A 
ATOM     15  C   UNL     1      12.338  78.719  -0.578  1.00  0.00     0.060 A 
ATOM     16  O   UNL     1      11.421  80.656  -1.590  1.00  0.00    -0.422 OA
ATOM     17  O   UNL     1       9.426  80.678  -2.538  1.00  0.00    -0.246 OA
ATOM     18  C   UNL     1      12.420  80.077  -0.944  1.00  0.00     0.142 A 
ATOM     19  C   UNL     1      13.417  78.123   0.101  1.00  0.00     0.016 A 
ATOM     20  C   UNL     1      13.563  80.821  -0.630  1.00  0.00     0.048 A 
ATOM     21  C   UNL     1      14.555  78.873   0.411  1.00  0.00     0.001 A 
ATOM     22  C   UNL     1      14.628  80.220   0.046  1.00  0.00     0.004 A 
BRANCH  13  23
ATOM     23  O   UNL     1      11.124  76.643  -0.564  1.00  0.00    -0.507 OA
ATOM     24  H   UNL     1      11.732  76.194   0.106  1.00  0.00     0.293 HD
ENDBRANCH  13  23
ENDBRANCH   1  12
TORSDOF 5
ENDMDL
MODEL 12
REMARK VINA RESULT:    -8.371      4.386      6.716
REMARK INTER + INTRA:         -10.939
REMARK INTER:                 -10.417
REMARK INTRA:                  -0.522
REMARK UNBOUND:                -0.366
REMARK SMILES CC(=O)CC(c1ccccc1)c1c(O)c2ccccc2oc1=O
REMARK SMILES IDX 5 1 4 2 2 3 1 4 3 5 6 6 7 7 11 8 8 9 10 10 9 11 12 12 13 13
REMARK SMILES IDX 22 14 15 15 21 16 23 17 20 18 16 19 19 20 17 21 18 22 14 23
REMARK H PARENT 14 24
REMARK Flexibility Score: inf
ROOT
ATOM      1  C   UNL     1      11.772  78.479  -1.552  1.00  0.00     0.068 C 
ENDROOT
BRANCH   1   2
ATOM      2  C   UNL     1      12.386  78.970  -0.208  1.00  0.00     0.088 C 
BRANCH   2   3
ATOM      3  C   UNL     1      13.486  78.119   0.400  1.00  0.00     0.130 C 
ATOM      4  C   UNL     1      13.194  76.710   0.818  1.00  0.00     0.087 C 
ATOM      5  O   UNL     1      14.625  78.543   0.519  1.00  0.00    -0.300 OA
ENDBRANCH   2   3
ENDBRANCH   1   2
BRANCH   1   6
ATOM      6  C   UNL     1      10.379  79.048  -1.793  1.00  0.00    -0.040 A 
ATOM      7  C   UNL     1      10.176  80.393  -2.167  1.00  0.00     0.004 A 
ATOM      8  C   UNL     1       9.255  78.221  -1.610  1.00  0.00     0.004 A 
ATOM      9  C   UNL     1       8.883  80.886  -2.366  1.00  0.00     0.000 A 
ATOM     10  C   UNL     1       7.965  78.719  -1.810  1.00  0.00     0.000 A 
ATOM     11  C   UNL     1       7.779  80.050  -2.188  1.00  0.00     0.000 A 
ENDBRANCH   1   6
BRANCH   1  12
ATOM     12  C   UNL     1      12.668  78.517  -2.807  1.00  0.00     0.088 A 
ATOM     13  C   UNL     1      13.563  79.608  -2.994  1.00  0.00     0.137 A 
ATOM     14  C   UNL     1      12.684  77.493  -3.794  1.00  0.00     0.343 A 
ATOM     15  C   UNL     1      14.384  79.648  -4.133  1.00  0.00     0.060 A 
ATOM     16  O   UNL     1      13.485  77.577  -4.849  1.00  0.00    -0.422 OA
ATOM     17  O   UNL     1      11.947  76.480  -3.703  1.00  0.00    -0.246 OA
ATOM     18  C   UNL     1      14.311  78.589  -5.057  1.00  0.00     0.142 A 
ATOM     19  C   UNL     1      15.277  80.710  -4.371  1.00  0.00     0.016 A 
ATOM     20  C   UNL     1      15.119  78.597  -6.201  1.00  0.00     0.048 A 
ATOM     21  C   UNL     1      16.080  80.711  -5.516  1.00  0.00     0.001 A 
ATOM     22  C   UNL     1      16.000  79.657  -6.429  1.00  0.00     0.004 A 
BRANCH  13  23
ATOM     23  O   UNL     1      13.667  80.656  -2.070  1.00  0.00    -0.507 OA
ATOM     24  H   UNL     1      12.944  80.923  -1.417  1.00  0.00     0.293 HD
ENDBRANCH  13  23
ENDBRANCH   1  12
TORSDOF 5
ENDMDL
MODEL 13
REMARK VINA RESULT:    -8.348      4.321      7.250
REMARK INTER + INTRA:         -10.910
REMARK INTER:                 -10.191
REMARK INTRA:                  -0.719
REMARK UNBOUND:                -0.366
REMARK SMILES CC(=O)CC(c1ccccc1)c1c(O)c2ccccc2oc1=O
REMARK SMILES IDX 5 1 4 2 2 3 1 4 3 5 6 6 7 7 11 8 8 9 10 10 9 11 12 12 13 13
REMARK SMILES IDX 22 14 15 15 21 16 23 17 20 18 16 19 19 20 17 21 18 22 14 23
REMARK H PARENT 14 24
REMARK Flexibility Score: inf
ROOT
ATOM      1  C   UNL     1      13.805  79.842  -2.041  1.00  0.00     0.068 C 
ENDROOT
BRANCH   1   2
ATOM      2  C   UNL     1      14.835  78.946  -1.292  1.00  0.00     0.088 C 
BRANCH   2   3
ATOM      3  C   UNL     1      14.676  78.821   0.212  1.00  0.00     0.130 C 
ATOM      4  C   UNL     1      14.314  80.025   1.027  1.00  0.00     0.087 C 
ATOM      5  O   UNL     1      14.793  77.744   0.776  1.00  0.00    -0.300 OA
ENDBRANCH   2   3
ENDBRANCH   1   2
BRANCH   1   6
ATOM      6  C   UNL     1      14.288  80.239  -3.431  1.00  0.00    -0.040 A 
ATOM      7  C   UNL     1      13.433  80.848  -4.373  1.00  0.00     0.004 A 
ATOM      8  C   UNL     1      15.618  79.967  -3.802  1.00  0.00     0.004 A 
ATOM      9  C   UNL     1      13.905  81.187  -5.644  1.00  0.00     0.000 A 
ATOM     10  C   UNL     1      16.085  80.307  -5.075  1.00  0.00     0.000 A 
ATOM     11  C   UNL     1      15.230  80.918  -5.995  1.00  0.00     0.000 A 
ENDBRANCH   1   6
BRANCH   1  12
ATOM     12  C   UNL     1      12.325  79.409  -2.015  1.00  0.00     0.088 A 
ATOM     13  C   UNL     1      11.385  80.175  -1.269  1.00  0.00     0.137 A 
ATOM     14  C   UNL     1      11.819  78.290  -2.733  1.00  0.00     0.343 A 
ATOM     15  C   UNL     1      10.035  79.790  -1.242  1.00  0.00     0.060 A 
ATOM     16  O   UNL     1      10.531  77.972  -2.679  1.00  0.00    -0.422 OA
ATOM     17  O   UNL     1      12.567  77.568  -3.437  1.00  0.00    -0.246 OA
ATOM     18  C   UNL     1       9.641  78.655  -1.977  1.00  0.00     0.142 A 
ATOM     19  C   UNL     1       9.069  80.505  -0.510  1.00  0.00     0.016 A 
ATOM     20  C   UNL     1       8.303  78.245  -1.974  1.00  0.00     0.048 A 
ATOM     21  C   UNL     1       7.734  80.090  -0.512  1.00  0.00     0.001 A 
ATOM     22  C   UNL     1       7.352  78.962  -1.242  1.00  0.00     0.004 A 
BRANCH  13  23
ATOM     23  O   UNL     1      11.756  81.323  -0.555  1.00  0.00    -0.507 OA
ATOM     24  H   UNL     1      11.456  81.539   0.385  1.00  0.00     0.293 HD
ENDBRANCH  13  23
ENDBRANCH   1  12
TORSDOF 5
ENDMDL
MODEL 14
REMARK VINA RESULT:    -8.320      3.233      5.545
REMARK INTER + INTRA:         -10.875
REMARK INTER:                 -10.096
REMARK INTRA:                  -0.779
REMARK UNBOUND:                -0.366
REMARK SMILES CC(=O)CC(c1ccccc1)c1c(O)c2ccccc2oc1=O
REMARK SMILES IDX 5 1 4 2 2 3 1 4 3 5 6 6 7 7 11 8 8 9 10 10 9 11 12 12 13 13
REMARK SMILES IDX 22 14 15 15 21 16 23 17 20 18 16 19 19 20 17 21 18 22 14 23
REMARK H PARENT 14 24
REMARK Flexibility Score: inf
ROOT
ATOM      1  C   UNL     1      12.041  79.656  -0.892  1.00  0.00     0.068 C 
ENDROOT
BRANCH   1   2
ATOM      2  C   UNL     1      12.619  80.109   0.481  1.00  0.00     0.088 C 
BRANCH   2   3
ATOM      3  C   UNL     1      11.664  80.800   1.438  1.00  0.00     0.130 C 
ATOM      4  C   UNL     1      10.419  81.446   0.912  1.00  0.00     0.087 C 
ATOM      5  O   UNL     1      11.865  80.805   2.642  1.00  0.00    -0.300 OA
ENDBRANCH   2   3
ENDBRANCH   1   2
BRANCH   1   6
ATOM      6  C   UNL     1      13.052  79.807  -2.023  1.00  0.00    -0.040 A 
ATOM      7  C   UNL     1      12.653  80.025  -3.357  1.00  0.00     0.004 A 
ATOM      8  C   UNL     1      14.426  79.697  -1.737  1.00  0.00     0.004 A 
ATOM      9  C   UNL     1      13.607  80.144  -4.372  1.00  0.00     0.000 A 
ATOM     10  C   UNL     1      15.376  79.817  -2.755  1.00  0.00     0.000 A 
ATOM     11  C   UNL     1      14.967  80.041  -4.072  1.00  0.00     0.000 A 
ENDBRANCH   1   6
BRANCH   1  12
ATOM     12  C   UNL     1      11.271  78.321  -0.943  1.00  0.00     0.088 A 
ATOM     13  C   UNL     1      10.022  78.259  -1.623  1.00  0.00     0.137 A 
ATOM     14  C   UNL     1      11.755  77.111  -0.373  1.00  0.00     0.343 A 
ATOM     15  C   UNL     1       9.316  77.046  -1.675  1.00  0.00     0.060 A 
ATOM     16  O   UNL     1      11.051  75.989  -0.456  1.00  0.00    -0.422 OA
ATOM     17  O   UNL     1      12.858  77.062   0.227  1.00  0.00    -0.246 OA
ATOM     18  C   UNL     1       9.879  75.909  -1.064  1.00  0.00     0.142 A 
ATOM     19  C   UNL     1       8.072  76.935  -2.324  1.00  0.00     0.016 A 
ATOM     20  C   UNL     1       9.202  74.684  -1.101  1.00  0.00     0.048 A 
ATOM     21  C   UNL     1       7.402  75.708  -2.356  1.00  0.00     0.001 A 
ATOM     22  C   UNL     1       7.966  74.585  -1.746  1.00  0.00     0.004 A 
BRANCH  13  23
ATOM     23  O   UNL     1       9.462  79.375  -2.260  1.00  0.00    -0.507 OA
ATOM     24  H   UNL     1       8.774  79.332  -2.998  1.00  0.00     0.293 HD
ENDBRANCH  13  23
ENDBRANCH   1  12
TORSDOF 5
ENDMDL
MODEL 15
REMARK VINA RESULT:    -8.287      4.074      7.058
REMARK INTER + INTRA:         -10.834
REMARK INTER:                  -9.899
REMARK INTRA:                  -0.935
REMARK UNBOUND:                -0.366
REMARK SMILES CC(=O)CC(c1ccccc1)c1c(O)c2ccccc2oc1=O
REMARK SMILES IDX 5 1 4 2 2 3 1 4 3 5 6 6 7 7 11 8 8 9 10 10 9 11 12 12 13 13
REMARK SMILES IDX 22 14 15 15 21 16 23 17 20 18 16 19 19 20 17 21 18 22 14 23
REMARK H PARENT 14 24
REMARK Flexibility Score: inf
ROOT
ATOM      1  C   UNL     1      11.131  78.918  -0.845  1.00  0.00     0.068 C 
ENDROOT
BRANCH   1   2
ATOM      2  C   UNL     1      10.425  80.145  -0.198  1.00  0.00     0.088 C 
BRANCH   2   3
ATOM      3  C   UNL     1      11.310  81.166   0.493  1.00  0.00     0.130 C 
ATOM      4  C   UNL     1      11.929  80.842   1.819  1.00  0.00     0.087 C 
ATOM      5  O   UNL     1      11.570  82.239  -0.029  1.00  0.00    -0.300 OA
ENDBRANCH   2   3
ENDBRANCH   1   2
BRANCH   1   6
ATOM      6  C   UNL     1      10.144  77.973  -1.521  1.00  0.00    -0.040 A 
ATOM      7  C   UNL     1      10.531  76.704  -1.997  1.00  0.00     0.004 A 
ATOM      8  C   UNL     1       8.811  78.386  -1.705  1.00  0.00     0.004 A 
ATOM      9  C   UNL     1       9.603  75.869  -2.625  1.00  0.00     0.000 A 
ATOM     10  C   UNL     1       7.887  77.547  -2.334  1.00  0.00     0.000 A 
ATOM     11  C   UNL     1       8.282  76.289  -2.793  1.00  0.00     0.000 A 
ENDBRANCH   1   6
BRANCH   1  12
ATOM     12  C   UNL     1      12.394  79.179  -1.691  1.00  0.00     0.088 A 
ATOM     13  C   UNL     1      12.284  79.914  -2.905  1.00  0.00     0.137 A 
ATOM     14  C   UNL     1      13.698  78.758  -1.309  1.00  0.00     0.343 A 
ATOM     15  C   UNL     1      13.429  80.158  -3.679  1.00  0.00     0.060 A 
ATOM     16  O   UNL     1      14.750  79.021  -2.074  1.00  0.00    -0.422 OA
ATOM     17  O   UNL     1      13.898  78.125  -0.243  1.00  0.00    -0.246 OA
ATOM     18  C   UNL     1      14.672  79.683  -3.217  1.00  0.00     0.142 A 
ATOM     19  C   UNL     1      13.372  80.868  -4.894  1.00  0.00     0.016 A 
ATOM     20  C   UNL     1      15.834  79.913  -3.963  1.00  0.00     0.048 A 
ATOM     21  C   UNL     1      14.537  81.093  -5.633  1.00  0.00     0.001 A 
ATOM     22  C   UNL     1      15.766  80.616  -5.169  1.00  0.00     0.004 A 
BRANCH  13  23
ATOM     23  O   UNL     1      11.059  80.417  -3.365  1.00  0.00    -0.507 OA
ATOM     24  H   UNL     1      10.218  79.870  -3.483  1.00  0.00     0.293 HD
ENDBRANCH  13  23
ENDBRANCH   1  12
TORSDOF 5
ENDMDL
