MODEL 1
REMARK VINA RESULT:    -6.598      0.000      0.000
REMARK INTER + INTRA:          -8.200
REMARK INTER:                  -8.141
REMARK INTRA:                  -0.059
REMARK UNBOUND:                -0.059
REMARK SMILES CCCC(C)C1(CC)C(=O)NC(=O)NC1=O
REMARK SMILES IDX 4 1 5 2 3 3 2 4 1 5 6 6 9 7 15 8 10 9 11 10 14 11 16 12
REMARK SMILES IDX 12 13 13 16 7 17 8 18
REMARK H PARENT 11 14 14 15
REMARK Flexibility Score: inf
ROOT
ATOM      1  C   UNL     1      23.527  36.691  -7.578  1.00  0.00     0.011 C 
ATOM      2  C   UNL     1      22.671  36.958  -8.838  1.00  0.00     0.009 C 
ENDROOT
BRANCH   1   3
ATOM      3  C   UNL     1      25.028  36.569  -7.979  1.00  0.00     0.004 C 
BRANCH   3   4
ATOM      4  C   UNL     1      25.506  35.108  -8.026  1.00  0.00    -0.003 C 
ATOM      5  C   UNL     1      25.715  34.550  -6.621  1.00  0.00     0.004 C 
ENDBRANCH   3   4
ENDBRANCH   1   3
BRANCH   1   6
ATOM      6  C   UNL     1      23.221  37.751  -6.435  1.00  0.00     0.131 C 
ATOM      7  C   UNL     1      21.870  37.408  -5.792  1.00  0.00     0.243 C 
ATOM      8  C   UNL     1      23.204  39.170  -7.014  1.00  0.00     0.243 C 
ATOM      9  O   UNL     1      21.582  36.206  -5.541  1.00  0.00    -0.273 OA
ATOM     10  N   UNL     1      20.939  38.421  -5.405  1.00  0.00    -0.277 N 
ATOM     11  N   UNL     1      22.193  40.120  -6.668  1.00  0.00    -0.277 N 
ATOM     12  O   UNL     1      24.154  39.556  -7.747  1.00  0.00    -0.273 OA
ATOM     13  C   UNL     1      21.096  39.767  -5.834  1.00  0.00     0.328 C 
ATOM     14  H   UNL     1      20.094  38.157  -4.849  1.00  0.00     0.174 HD
ATOM     15  H   UNL     1      22.265  41.099  -7.026  1.00  0.00     0.174 HD
ATOM     16  O   UNL     1      20.255  40.641  -5.492  1.00  0.00    -0.248 OA
BRANCH   6  17
ATOM     17  C   UNL     1      24.286  37.757  -5.289  1.00  0.00     0.024 C 
ATOM     18  C   UNL     1      23.905  38.549  -4.033  1.00  0.00     0.005 C 
ENDBRANCH   6  17
ENDBRANCH   1   6
TORSDOF 4
ENDMDL
MODEL 2
REMARK VINA RESULT:    -6.534      0.820      2.989
REMARK INTER + INTRA:          -8.120
REMARK INTER:                  -8.204
REMARK INTRA:                   0.083
REMARK UNBOUND:                -0.059
REMARK SMILES CCCC(C)C1(CC)C(=O)NC(=O)NC1=O
REMARK SMILES IDX 4 1 5 2 3 3 2 4 1 5 6 6 9 7 15 8 10 9 11 10 14 11 16 12
REMARK SMILES IDX 12 13 13 16 7 17 8 18
REMARK H PARENT 11 14 14 15
REMARK Flexibility Score: inf
ROOT
ATOM      1  C   UNL     1      24.494  37.198  -6.373  1.00  0.00     0.011 C 
ATOM      2  C   UNL     1      24.611  37.310  -4.834  1.00  0.00     0.009 C 
ENDROOT
BRANCH   1   3
ATOM      3  C   UNL     1      24.851  35.748  -6.822  1.00  0.00     0.004 C 
BRANCH   3   4
ATOM      4  C   UNL     1      26.140  35.230  -6.163  1.00  0.00    -0.003 C 
ATOM      5  C   UNL     1      26.038  33.742  -5.844  1.00  0.00     0.004 C 
ENDBRANCH   3   4
ENDBRANCH   1   3
BRANCH   1   6
ATOM      6  C   UNL     1      23.091  37.735  -6.888  1.00  0.00     0.131 C 
ATOM      7  C   UNL     1      23.179  39.257  -7.065  1.00  0.00     0.243 C 
ATOM      8  C   UNL     1      21.982  37.365  -5.896  1.00  0.00     0.243 C 
ATOM      9  O   UNL     1      24.208  39.769  -7.587  1.00  0.00    -0.273 OA
ATOM     10  N   UNL     1      22.098  40.123  -6.712  1.00  0.00    -0.277 N 
ATOM     11  N   UNL     1      20.975  38.300  -5.500  1.00  0.00    -0.277 N 
ATOM     12  O   UNL     1      21.888  36.179  -5.479  1.00  0.00    -0.273 OA
ATOM     13  C   UNL     1      21.002  39.652  -5.939  1.00  0.00     0.328 C 
ATOM     14  H   UNL     1      22.144  41.134  -6.973  1.00  0.00     0.174 HD
ATOM     15  H   UNL     1      20.194  37.981  -4.883  1.00  0.00     0.174 HD
ATOM     16  O   UNL     1      20.066  40.437  -5.628  1.00  0.00    -0.248 OA
BRANCH   6  17
ATOM     17  C   UNL     1      22.663  37.136  -8.269  1.00  0.00     0.024 C 
ATOM     18  C   UNL     1      21.407  37.751  -8.898  1.00  0.00     0.005 C 
ENDBRANCH   6  17
ENDBRANCH   1   6
TORSDOF 4
ENDMDL
MODEL 3
REMARK VINA RESULT:    -6.474      1.713      2.435
REMARK INTER + INTRA:          -8.047
REMARK INTER:                  -8.422
REMARK INTRA:                   0.375
REMARK UNBOUND:                -0.059
REMARK SMILES CCCC(C)C1(CC)C(=O)NC(=O)NC1=O
REMARK SMILES IDX 4 1 5 2 3 3 2 4 1 5 6 6 9 7 15 8 10 9 11 10 14 11 16 12
REMARK SMILES IDX 12 13 13 16 7 17 8 18
REMARK H PARENT 11 14 14 15
REMARK Flexibility Score: inf
ROOT
ATOM      1  C   UNL     1      24.134  37.127  -6.604  1.00  0.00     0.011 C 
ATOM      2  C   UNL     1      23.364  35.850  -6.188  1.00  0.00     0.009 C 
ENDROOT
BRANCH   1   3
ATOM      3  C   UNL     1      24.596  37.001  -8.087  1.00  0.00     0.004 C 
BRANCH   3   4
ATOM      4  C   UNL     1      25.344  35.685  -8.360  1.00  0.00    -0.003 C 
ATOM      5  C   UNL     1      24.830  35.010  -9.628  1.00  0.00     0.004 C 
ENDBRANCH   3   4
ENDBRANCH   1   3
BRANCH   1   6
ATOM      6  C   UNL     1      23.305  38.439  -6.267  1.00  0.00     0.131 C 
ATOM      7  C   UNL     1      23.360  38.683  -4.753  1.00  0.00     0.243 C 
ATOM      8  C   UNL     1      21.855  38.289  -6.741  1.00  0.00     0.243 C 
ATOM      9  O   UNL     1      24.447  38.525  -4.131  1.00  0.00    -0.273 OA
ATOM     10  N   UNL     1      22.225  39.150  -4.020  1.00  0.00    -0.277 N 
ATOM     11  N   UNL     1      20.746  38.685  -5.930  1.00  0.00    -0.277 N 
ATOM     12  O   UNL     1      21.620  37.895  -7.915  1.00  0.00    -0.273 OA
ATOM     13  C   UNL     1      20.928  39.156  -4.601  1.00  0.00     0.328 C 
ATOM     14  H   UNL     1      22.340  39.434  -3.020  1.00  0.00     0.174 HD
ATOM     15  H   UNL     1      19.779  38.638  -6.325  1.00  0.00     0.174 HD
ATOM     16  O   UNL     1      19.939  39.558  -3.932  1.00  0.00    -0.248 OA
BRANCH   6  17
ATOM     17  C   UNL     1      23.865  39.725  -6.960  1.00  0.00     0.024 C 
ATOM     18  C   UNL     1      22.890  40.452  -7.895  1.00  0.00     0.005 C 
ENDBRANCH   6  17
ENDBRANCH   1   6
TORSDOF 4
ENDMDL
MODEL 4
REMARK VINA RESULT:    -6.359      1.815      2.389
REMARK INTER + INTRA:          -7.904
REMARK INTER:                  -7.762
REMARK INTRA:                  -0.142
REMARK UNBOUND:                -0.059
REMARK SMILES CCCC(C)C1(CC)C(=O)NC(=O)NC1=O
REMARK SMILES IDX 4 1 5 2 3 3 2 4 1 5 6 6 9 7 15 8 10 9 11 10 14 11 16 12
REMARK SMILES IDX 12 13 13 16 7 17 8 18
REMARK H PARENT 11 14 14 15
REMARK Flexibility Score: inf
ROOT
ATOM      1  C   UNL     1      23.234  36.764  -6.001  1.00  0.00     0.011 C 
ATOM      2  C   UNL     1      21.952  36.003  -5.587  1.00  0.00     0.009 C 
ENDROOT
BRANCH   1   3
ATOM      3  C   UNL     1      24.125  35.847  -6.891  1.00  0.00     0.004 C 
BRANCH   3   4
ATOM      4  C   UNL     1      25.513  35.600  -6.275  1.00  0.00    -0.003 C 
ATOM      5  C   UNL     1      25.655  36.308  -4.931  1.00  0.00     0.004 C 
ENDBRANCH   3   4
ENDBRANCH   1   3
BRANCH   1   6
ATOM      6  C   UNL     1      22.888  38.181  -6.630  1.00  0.00     0.131 C 
ATOM      7  C   UNL     1      22.472  39.135  -5.502  1.00  0.00     0.243 C 
ATOM      8  C   UNL     1      21.768  38.044  -7.668  1.00  0.00     0.243 C 
ATOM      9  O   UNL     1      23.114  39.139  -4.416  1.00  0.00    -0.273 OA
ATOM     10  N   UNL     1      21.407  40.075  -5.662  1.00  0.00    -0.277 N 
ATOM     11  N   UNL     1      20.671  38.959  -7.726  1.00  0.00    -0.277 N 
ATOM     12  O   UNL     1      21.851  37.159  -8.563  1.00  0.00    -0.273 OA
ATOM     13  C   UNL     1      20.514  39.994  -6.764  1.00  0.00     0.328 C 
ATOM     14  H   UNL     1      21.244  40.797  -4.923  1.00  0.00     0.174 HD
ATOM     15  H   UNL     1      19.973  38.872  -8.500  1.00  0.00     0.174 HD
ATOM     16  O   UNL     1      19.574  40.825  -6.878  1.00  0.00    -0.248 OA
BRANCH   6  17
ATOM     17  C   UNL     1      24.096  38.845  -7.371  1.00  0.00     0.024 C 
ATOM     18  C   UNL     1      23.948  40.342  -7.671  1.00  0.00     0.005 C 
ENDBRANCH   6  17
ENDBRANCH   1   6
TORSDOF 4
ENDMDL
MODEL 5
REMARK VINA RESULT:    -6.306      2.088      3.476
REMARK INTER + INTRA:          -7.840
REMARK INTER:                  -7.983
REMARK INTRA:                   0.143
REMARK UNBOUND:                -0.059
REMARK SMILES CCCC(C)C1(CC)C(=O)NC(=O)NC1=O
REMARK SMILES IDX 4 1 5 2 3 3 2 4 1 5 6 6 9 7 15 8 10 9 11 10 14 11 16 12
REMARK SMILES IDX 12 13 13 16 7 17 8 18
REMARK H PARENT 11 14 14 15
REMARK Flexibility Score: inf
ROOT
ATOM      1  C   UNL     1      25.967  35.701  -5.640  1.00  0.00     0.011 C 
ATOM      2  C   UNL     1      26.918  36.551  -4.764  1.00  0.00     0.009 C 
ENDROOT
BRANCH   1   3
ATOM      3  C   UNL     1      25.859  34.262  -5.053  1.00  0.00     0.004 C 
BRANCH   3   4
ATOM      4  C   UNL     1      26.494  33.204  -5.971  1.00  0.00    -0.003 C 
ATOM      5  C   UNL     1      26.130  33.449  -7.432  1.00  0.00     0.004 C 
ENDBRANCH   3   4
ENDBRANCH   1   3
BRANCH   1   6
ATOM      6  C   UNL     1      24.580  36.439  -5.872  1.00  0.00     0.131 C 
ATOM      7  C   UNL     1      24.594  37.091  -7.262  1.00  0.00     0.243 C 
ATOM      8  C   UNL     1      24.345  37.488  -4.780  1.00  0.00     0.243 C 
ATOM      9  O   UNL     1      25.072  36.462  -8.245  1.00  0.00    -0.273 OA
ATOM     10  N   UNL     1      24.019  38.379  -7.498  1.00  0.00    -0.277 N 
ATOM     11  N   UNL     1      23.857  38.799  -5.079  1.00  0.00    -0.277 N 
ATOM     12  O   UNL     1      24.492  37.172  -3.569  1.00  0.00    -0.273 OA
ATOM     13  C   UNL     1      23.651  39.228  -6.419  1.00  0.00     0.328 C 
ATOM     14  H   UNL     1      23.927  38.728  -8.479  1.00  0.00     0.174 HD
ATOM     15  H   UNL     1      23.638  39.455  -4.295  1.00  0.00     0.174 HD
ATOM     16  O   UNL     1      23.159  40.365  -6.650  1.00  0.00    -0.248 OA
BRANCH   6  17
ATOM     17  C   UNL     1      23.347  35.476  -5.830  1.00  0.00     0.024 C 
ATOM     18  C   UNL     1      21.974  36.157  -5.811  1.00  0.00     0.005 C 
ENDBRANCH   6  17
ENDBRANCH   1   6
TORSDOF 4
ENDMDL
MODEL 6
REMARK VINA RESULT:    -6.275      1.701      2.533
REMARK INTER + INTRA:          -7.801
REMARK INTER:                  -8.119
REMARK INTRA:                   0.318
REMARK UNBOUND:                -0.059
REMARK SMILES CCCC(C)C1(CC)C(=O)NC(=O)NC1=O
REMARK SMILES IDX 4 1 5 2 3 3 2 4 1 5 6 6 9 7 15 8 10 9 11 10 14 11 16 12
REMARK SMILES IDX 12 13 13 16 7 17 8 18
REMARK H PARENT 11 14 14 15
REMARK Flexibility Score: inf
ROOT
ATOM      1  C   UNL     1      24.382  37.820  -5.533  1.00  0.00     0.011 C 
ATOM      2  C   UNL     1      24.460  37.607  -4.002  1.00  0.00     0.009 C 
ENDROOT
BRANCH   1   3
ATOM      3  C   UNL     1      24.827  36.518  -6.266  1.00  0.00     0.004 C 
BRANCH   3   4
ATOM      4  C   UNL     1      26.027  35.840  -5.582  1.00  0.00    -0.003 C 
ATOM      5  C   UNL     1      26.090  34.354  -5.925  1.00  0.00     0.004 C 
ENDBRANCH   3   4
ENDBRANCH   1   3
BRANCH   1   6
ATOM      6  C   UNL     1      22.964  38.385  -5.969  1.00  0.00     0.131 C 
ATOM      7  C   UNL     1      22.085  37.213  -6.427  1.00  0.00     0.243 C 
ATOM      8  C   UNL     1      23.123  39.417  -7.091  1.00  0.00     0.243 C 
ATOM      9  O   UNL     1      22.088  36.133  -5.773  1.00  0.00    -0.273 OA
ATOM     10  N   UNL     1      21.203  37.322  -7.547  1.00  0.00    -0.277 N 
ATOM     11  N   UNL     1      22.274  39.425  -8.241  1.00  0.00    -0.277 N 
ATOM     12  O   UNL     1      23.963  40.349  -6.967  1.00  0.00    -0.273 OA
ATOM     13  C   UNL     1      21.291  38.418  -8.447  1.00  0.00     0.328 C 
ATOM     14  H   UNL     1      20.524  36.551  -7.744  1.00  0.00     0.174 HD
ATOM     15  H   UNL     1      22.369  40.194  -8.943  1.00  0.00     0.174 HD
ATOM     16  O   UNL     1      20.514  38.486  -9.436  1.00  0.00    -0.248 OA
BRANCH   6  17
ATOM     17  C   UNL     1      22.198  39.108  -4.812  1.00  0.00     0.024 C 
ATOM     18  C   UNL     1      20.733  39.456  -5.102  1.00  0.00     0.005 C 
ENDBRANCH   6  17
ENDBRANCH   1   6
TORSDOF 4
ENDMDL
MODEL 7
REMARK VINA RESULT:    -6.262      0.983      1.794
REMARK INTER + INTRA:          -7.786
REMARK INTER:                  -8.064
REMARK INTRA:                   0.278
REMARK UNBOUND:                -0.059
REMARK SMILES CCCC(C)C1(CC)C(=O)NC(=O)NC1=O
REMARK SMILES IDX 4 1 5 2 3 3 2 4 1 5 6 6 9 7 15 8 10 9 11 10 14 11 16 12
REMARK SMILES IDX 12 13 13 16 7 17 8 18
REMARK H PARENT 11 14 14 15
REMARK Flexibility Score: inf
ROOT
ATOM      1  C   UNL     1      24.030  37.361  -7.683  1.00  0.00     0.011 C 
ATOM      2  C   UNL     1      24.816  36.191  -7.044  1.00  0.00     0.009 C 
ENDROOT
BRANCH   1   3
ATOM      3  C   UNL     1      23.046  36.806  -8.757  1.00  0.00     0.004 C 
BRANCH   3   4
ATOM      4  C   UNL     1      23.715  35.788  -9.697  1.00  0.00    -0.003 C 
ATOM      5  C   UNL     1      22.822  35.470 -10.892  1.00  0.00     0.004 C 
ENDBRANCH   3   4
ENDBRANCH   1   3
BRANCH   1   6
ATOM      6  C   UNL     1      23.364  38.285  -6.577  1.00  0.00     0.131 C 
ATOM      7  C   UNL     1      22.001  37.694  -6.193  1.00  0.00     0.243 C 
ATOM      8  C   UNL     1      23.208  39.717  -7.103  1.00  0.00     0.243 C 
ATOM      9  O   UNL     1      21.880  36.447  -6.037  1.00  0.00    -0.273 OA
ATOM     10  N   UNL     1      20.862  38.520  -5.942  1.00  0.00    -0.277 N 
ATOM     11  N   UNL     1      22.008  40.471  -6.907  1.00  0.00    -0.277 N 
ATOM     12  O   UNL     1      24.189  40.294  -7.644  1.00  0.00    -0.273 OA
ATOM     13  C   UNL     1      20.862  39.897  -6.291  1.00  0.00     0.328 C 
ATOM     14  H   UNL     1      19.992  38.091  -5.552  1.00  0.00     0.174 HD
ATOM     15  H   UNL     1      21.975  41.469  -7.214  1.00  0.00     0.174 HD
ATOM     16  O   UNL     1      19.842  40.604  -6.073  1.00  0.00    -0.248 OA
BRANCH   6  17
ATOM     17  C   UNL     1      24.206  38.389  -5.262  1.00  0.00     0.024 C 
ATOM     18  C   UNL     1      23.437  38.844  -4.016  1.00  0.00     0.005 C 
ENDBRANCH   6  17
ENDBRANCH   1   6
TORSDOF 4
ENDMDL
MODEL 8
REMARK VINA RESULT:    -6.250      2.769      4.929
REMARK INTER + INTRA:          -7.771
REMARK INTER:                  -7.763
REMARK INTRA:                  -0.007
REMARK UNBOUND:                -0.059
REMARK SMILES CCCC(C)C1(CC)C(=O)NC(=O)NC1=O
REMARK SMILES IDX 4 1 5 2 3 3 2 4 1 5 6 6 9 7 15 8 10 9 11 10 14 11 16 12
REMARK SMILES IDX 12 13 13 16 7 17 8 18
REMARK H PARENT 11 14 14 15
REMARK Flexibility Score: inf
ROOT
ATOM      1  C   UNL     1      22.284  37.580  -6.033  1.00  0.00     0.011 C 
ATOM      2  C   UNL     1      21.908  36.167  -5.528  1.00  0.00     0.009 C 
ENDROOT
BRANCH   1   3
ATOM      3  C   UNL     1      22.508  38.530  -4.818  1.00  0.00     0.004 C 
BRANCH   3   4
ATOM      4  C   UNL     1      21.195  39.137  -4.296  1.00  0.00    -0.003 C 
ATOM      5  C   UNL     1      20.471  39.913  -5.392  1.00  0.00     0.004 C 
ENDBRANCH   3   4
ENDBRANCH   1   3
BRANCH   1   6
ATOM      6  C   UNL     1      23.484  37.524  -7.072  1.00  0.00     0.131 C 
ATOM      7  C   UNL     1      22.968  36.931  -8.391  1.00  0.00     0.243 C 
ATOM      8  C   UNL     1      24.636  36.683  -6.511  1.00  0.00     0.243 C 
ATOM      9  O   UNL     1      21.844  37.288  -8.842  1.00  0.00    -0.273 OA
ATOM     10  N   UNL     1      23.752  36.024  -9.170  1.00  0.00    -0.277 N 
ATOM     11  N   UNL     1      25.328  35.717  -7.307  1.00  0.00    -0.277 N 
ATOM     12  O   UNL     1      25.058  36.903  -5.344  1.00  0.00    -0.273 OA
ATOM     13  C   UNL     1      24.924  35.422  -8.638  1.00  0.00     0.328 C 
ATOM     14  H   UNL     1      23.424  35.751 -10.124  1.00  0.00     0.174 HD
ATOM     15  H   UNL     1      26.158  35.223  -6.906  1.00  0.00     0.174 HD
ATOM     16  O   UNL     1      25.592  34.615  -9.337  1.00  0.00    -0.248 OA
BRANCH   6  17
ATOM     17  C   UNL     1      24.086  38.929  -7.405  1.00  0.00     0.024 C 
ATOM     18  C   UNL     1      23.091  39.969  -7.934  1.00  0.00     0.005 C 
ENDBRANCH   6  17
ENDBRANCH   1   6
TORSDOF 4
ENDMDL
MODEL 9
REMARK VINA RESULT:    -6.248      1.802      3.587
REMARK INTER + INTRA:          -7.768
REMARK INTER:                  -7.903
REMARK INTRA:                   0.135
REMARK UNBOUND:                -0.059
REMARK SMILES CCCC(C)C1(CC)C(=O)NC(=O)NC1=O
REMARK SMILES IDX 4 1 5 2 3 3 2 4 1 5 6 6 9 7 15 8 10 9 11 10 14 11 16 12
REMARK SMILES IDX 12 13 13 16 7 17 8 18
REMARK H PARENT 11 14 14 15
REMARK Flexibility Score: inf
ROOT
ATOM      1  C   UNL     1      23.773  38.300  -5.188  1.00  0.00     0.011 C 
ATOM      2  C   UNL     1      22.614  38.973  -4.415  1.00  0.00     0.009 C 
ENDROOT
BRANCH   1   3
ATOM      3  C   UNL     1      24.222  37.008  -4.440  1.00  0.00     0.004 C 
BRANCH   3   4
ATOM      4  C   UNL     1      25.726  37.010  -4.115  1.00  0.00    -0.003 C 
ATOM      5  C   UNL     1      26.439  35.844  -4.792  1.00  0.00     0.004 C 
ENDBRANCH   3   4
ENDBRANCH   1   3
BRANCH   1   6
ATOM      6  C   UNL     1      23.407  38.095  -6.720  1.00  0.00     0.131 C 
ATOM      7  C   UNL     1      23.272  39.473  -7.383  1.00  0.00     0.243 C 
ATOM      8  C   UNL     1      22.105  37.297  -6.855  1.00  0.00     0.243 C 
ATOM      9  O   UNL     1      24.106  40.382  -7.117  1.00  0.00    -0.273 OA
ATOM     10  N   UNL     1      22.259  39.749  -8.353  1.00  0.00    -0.277 N 
ATOM     11  N   UNL     1      21.077  37.670  -7.776  1.00  0.00    -0.277 N 
ATOM     12  O   UNL     1      21.962  36.224  -6.208  1.00  0.00    -0.273 OA
ATOM     13  C   UNL     1      21.171  38.857  -8.553  1.00  0.00     0.328 C 
ATOM     14  H   UNL     1      22.284  40.652  -8.880  1.00  0.00     0.174 HD
ATOM     15  H   UNL     1      20.242  37.051  -7.889  1.00  0.00     0.174 HD
ATOM     16  O   UNL     1      20.281  39.126  -9.404  1.00  0.00    -0.248 OA
BRANCH   6  17
ATOM     17  C   UNL     1      24.494  37.305  -7.521  1.00  0.00     0.024 C 
ATOM     18  C   UNL     1      23.968  36.424  -8.661  1.00  0.00     0.005 C 
ENDBRANCH   6  17
ENDBRANCH   1   6
TORSDOF 4
ENDMDL
MODEL 10
REMARK VINA RESULT:    -6.072      3.613      5.853
REMARK INTER + INTRA:          -7.551
REMARK INTER:                  -7.806
REMARK INTRA:                   0.255
REMARK UNBOUND:                -0.059
REMARK SMILES CCCC(C)C1(CC)C(=O)NC(=O)NC1=O
REMARK SMILES IDX 4 1 5 2 3 3 2 4 1 5 6 6 9 7 15 8 10 9 11 10 14 11 16 12
REMARK SMILES IDX 12 13 13 16 7 17 8 18
REMARK H PARENT 11 14 14 15
REMARK Flexibility Score: inf
ROOT
ATOM      1  C   UNL     1      24.363  36.894  -3.903  1.00  0.00     0.011 C 
ATOM      2  C   UNL     1      24.603  38.409  -3.699  1.00  0.00     0.009 C 
ENDROOT
BRANCH   1   3
ATOM      3  C   UNL     1      23.014  36.673  -4.651  1.00  0.00     0.004 C 
BRANCH   3   4
ATOM      4  C   UNL     1      22.109  37.916  -4.610  1.00  0.00    -0.003 C 
ATOM      5  C   UNL     1      21.679  38.333  -6.013  1.00  0.00     0.004 C 
ENDBRANCH   3   4
ENDBRANCH   1   3
BRANCH   1   6
ATOM      6  C   UNL     1      25.623  36.192  -4.569  1.00  0.00     0.131 C 
ATOM      7  C   UNL     1      25.372  36.056  -6.078  1.00  0.00     0.243 C 
ATOM      8  C   UNL     1      25.867  34.819  -3.932  1.00  0.00     0.243 C 
ATOM      9  O   UNL     1      24.853  37.013  -6.716  1.00  0.00    -0.273 OA
ATOM     10  N   UNL     1      25.767  34.892  -6.808  1.00  0.00    -0.277 N 
ATOM     11  N   UNL     1      26.167  33.661  -4.716  1.00  0.00    -0.277 N 
ATOM     12  O   UNL     1      25.900  34.711  -2.677  1.00  0.00    -0.273 OA
ATOM     13  C   UNL     1      26.165  33.704  -6.137  1.00  0.00     0.328 C 
ATOM     14  H   UNL     1      25.704  34.894  -7.851  1.00  0.00     0.174 HD
ATOM     15  H   UNL     1      26.403  32.764  -4.234  1.00  0.00     0.174 HD
ATOM     16  O   UNL     1      26.496  32.685  -6.800  1.00  0.00    -0.248 OA
BRANCH   6  17
ATOM     17  C   UNL     1      26.951  37.000  -4.396  1.00  0.00     0.024 C 
ATOM     18  C   UNL     1      28.192  36.388  -5.057  1.00  0.00     0.005 C 
ENDBRANCH   6  17
ENDBRANCH   1   6
TORSDOF 4
ENDMDL
MODEL 11
REMARK VINA RESULT:    -6.023      1.933      2.292
REMARK INTER + INTRA:          -7.491
REMARK INTER:                  -7.541
REMARK INTRA:                   0.050
REMARK UNBOUND:                -0.059
REMARK SMILES CCCC(C)C1(CC)C(=O)NC(=O)NC1=O
REMARK SMILES IDX 4 1 5 2 3 3 2 4 1 5 6 6 9 7 15 8 10 9 11 10 14 11 16 12
REMARK SMILES IDX 12 13 13 16 7 17 8 18
REMARK H PARENT 11 14 14 15
REMARK Flexibility Score: inf
ROOT
ATOM      1  C   UNL     1      23.686  36.165  -7.428  1.00  0.00     0.011 C 
ATOM      2  C   UNL     1      24.796  36.592  -8.418  1.00  0.00     0.009 C 
ENDROOT
BRANCH   1   3
ATOM      3  C   UNL     1      24.312  35.348  -6.258  1.00  0.00     0.004 C 
BRANCH   3   4
ATOM      4  C   UNL     1      25.784  34.983  -6.517  1.00  0.00    -0.003 C 
ATOM      5  C   UNL     1      26.138  33.638  -5.890  1.00  0.00     0.004 C 
ENDBRANCH   3   4
ENDBRANCH   1   3
BRANCH   1   6
ATOM      6  C   UNL     1      22.798  37.404  -6.983  1.00  0.00     0.131 C 
ATOM      7  C   UNL     1      21.951  37.860  -8.179  1.00  0.00     0.243 C 
ATOM      8  C   UNL     1      23.690  38.546  -6.481  1.00  0.00     0.243 C 
ATOM      9  O   UNL     1      21.395  37.001  -8.917  1.00  0.00    -0.273 OA
ATOM     10  N   UNL     1      21.715  39.243  -8.455  1.00  0.00    -0.277 N 
ATOM     11  N   UNL     1      23.470  39.906  -6.863  1.00  0.00    -0.277 N 
ATOM     12  O   UNL     1      24.592  38.307  -5.633  1.00  0.00    -0.273 OA
ATOM     13  C   UNL     1      22.463  40.260  -7.803  1.00  0.00     0.328 C 
ATOM     14  H   UNL     1      21.025  39.509  -9.194  1.00  0.00     0.174 HD
ATOM     15  H   UNL     1      24.054  40.659  -6.435  1.00  0.00     0.174 HD
ATOM     16  O   UNL     1      22.248  41.472  -8.072  1.00  0.00    -0.248 OA
BRANCH   6  17
ATOM     17  C   UNL     1      21.808  37.075  -5.818  1.00  0.00     0.024 C 
ATOM     18  C   UNL     1      21.303  38.281  -5.015  1.00  0.00     0.005 C 
ENDBRANCH   6  17
ENDBRANCH   1   6
TORSDOF 4
ENDMDL
MODEL 12
REMARK VINA RESULT:    -5.941      2.149      3.223
REMARK INTER + INTRA:          -7.389
REMARK INTER:                  -7.305
REMARK INTRA:                  -0.084
REMARK UNBOUND:                -0.059
REMARK SMILES CCCC(C)C1(CC)C(=O)NC(=O)NC1=O
REMARK SMILES IDX 4 1 5 2 3 3 2 4 1 5 6 6 9 7 15 8 10 9 11 10 14 11 16 12
REMARK SMILES IDX 12 13 13 16 7 17 8 18
REMARK H PARENT 11 14 14 15
REMARK Flexibility Score: inf
ROOT
ATOM      1  C   UNL     1      23.128  37.501  -4.908  1.00  0.00     0.011 C 
ATOM      2  C   UNL     1      22.734  36.010  -5.038  1.00  0.00     0.009 C 
ENDROOT
BRANCH   1   3
ATOM      3  C   UNL     1      24.540  37.615  -4.257  1.00  0.00     0.004 C 
BRANCH   3   4
ATOM      4  C   UNL     1      25.181  36.241  -3.999  1.00  0.00    -0.003 C 
ATOM      5  C   UNL     1      26.612  36.191  -4.526  1.00  0.00     0.004 C 
ENDBRANCH   3   4
ENDBRANCH   1   3
BRANCH   1   6
ATOM      6  C   UNL     1      22.961  38.267  -6.289  1.00  0.00     0.131 C 
ATOM      7  C   UNL     1      21.491  38.679  -6.451  1.00  0.00     0.243 C 
ATOM      8  C   UNL     1      23.407  37.373  -7.452  1.00  0.00     0.243 C 
ATOM      9  O   UNL     1      20.859  39.146  -5.464  1.00  0.00    -0.273 OA
ATOM     10  N   UNL     1      20.821  38.610  -7.712  1.00  0.00    -0.277 N 
ATOM     11  N   UNL     1      22.649  37.265  -8.660  1.00  0.00    -0.277 N 
ATOM     12  O   UNL     1      24.519  36.782  -7.394  1.00  0.00    -0.273 OA
ATOM     13  C   UNL     1      21.393  37.913  -8.810  1.00  0.00     0.328 C 
ATOM     14  H   UNL     1      19.867  39.026  -7.810  1.00  0.00     0.174 HD
ATOM     15  H   UNL     1      23.032  36.705  -9.456  1.00  0.00     0.174 HD
ATOM     16  O   UNL     1      20.778  37.853  -9.909  1.00  0.00    -0.248 OA
BRANCH   6  17
ATOM     17  C   UNL     1      23.817  39.573  -6.385  1.00  0.00     0.024 C 
ATOM     18  C   UNL     1      23.806  40.275  -7.748  1.00  0.00     0.005 C 
ENDBRANCH   6  17
ENDBRANCH   1   6
TORSDOF 4
ENDMDL
MODEL 13
REMARK VINA RESULT:    -5.827      2.121      4.870
REMARK INTER + INTRA:          -7.248
REMARK INTER:                  -7.258
REMARK INTRA:                   0.010
REMARK UNBOUND:                -0.059
REMARK SMILES CCCC(C)C1(CC)C(=O)NC(=O)NC1=O
REMARK SMILES IDX 4 1 5 2 3 3 2 4 1 5 6 6 9 7 15 8 10 9 11 10 14 11 16 12
REMARK SMILES IDX 12 13 13 16 7 17 8 18
REMARK H PARENT 11 14 14 15
REMARK Flexibility Score: inf
ROOT
ATOM      1  C   UNL     1      21.931  38.634  -5.368  1.00  0.00     0.011 C 
ATOM      2  C   UNL     1      23.069  38.901  -4.353  1.00  0.00     0.009 C 
ENDROOT
BRANCH   1   3
ATOM      3  C   UNL     1      21.227  39.976  -5.731  1.00  0.00     0.004 C 
BRANCH   3   4
ATOM      4  C   UNL     1      19.771  40.028  -5.237  1.00  0.00    -0.003 C 
ATOM      5  C   UNL     1      19.702  39.990  -3.714  1.00  0.00     0.004 C 
ENDBRANCH   3   4
ENDBRANCH   1   3
BRANCH   1   6
ATOM      6  C   UNL     1      22.449  37.789  -6.609  1.00  0.00     0.131 C 
ATOM      7  C   UNL     1      22.624  36.328  -6.174  1.00  0.00     0.243 C 
ATOM      8  C   UNL     1      23.771  38.364  -7.131  1.00  0.00     0.243 C 
ATOM      9  O   UNL     1      21.752  35.783  -5.441  1.00  0.00    -0.273 OA
ATOM     10  N   UNL     1      23.722  35.531  -6.624  1.00  0.00    -0.277 N 
ATOM     11  N   UNL     1      24.877  37.528  -7.480  1.00  0.00    -0.277 N 
ATOM     12  O   UNL     1      23.869  39.601  -7.353  1.00  0.00    -0.273 OA
ATOM     13  C   UNL     1      24.839  36.121  -7.275  1.00  0.00     0.328 C 
ATOM     14  H   UNL     1      23.733  34.507  -6.417  1.00  0.00     0.174 HD
ATOM     15  H   UNL     1      25.730  37.958  -7.905  1.00  0.00     0.174 HD
ATOM     16  O   UNL     1      25.803  35.402  -7.651  1.00  0.00    -0.248 OA
BRANCH   6  17
ATOM     17  C   UNL     1      21.459  37.792  -7.821  1.00  0.00     0.024 C 
ATOM     18  C   UNL     1      22.031  37.275  -9.146  1.00  0.00     0.005 C 
ENDBRANCH   6  17
ENDBRANCH   1   6
TORSDOF 4
ENDMDL
MODEL 14
REMARK VINA RESULT:    -5.787      2.557      4.777
REMARK INTER + INTRA:          -7.199
REMARK INTER:                  -7.261
REMARK INTRA:                   0.061
REMARK UNBOUND:                -0.059
REMARK SMILES CCCC(C)C1(CC)C(=O)NC(=O)NC1=O
REMARK SMILES IDX 4 1 5 2 3 3 2 4 1 5 6 6 9 7 15 8 10 9 11 10 14 11 16 12
REMARK SMILES IDX 12 13 13 16 7 17 8 18
REMARK H PARENT 11 14 14 15
REMARK Flexibility Score: inf
ROOT
ATOM      1  C   UNL     1      22.723  39.411  -6.280  1.00  0.00     0.011 C 
ATOM      2  C   UNL     1      23.782  39.981  -7.253  1.00  0.00     0.009 C 
ENDROOT
BRANCH   1   3
ATOM      3  C   UNL     1      21.301  39.574  -6.898  1.00  0.00     0.004 C 
BRANCH   3   4
ATOM      4  C   UNL     1      20.427  40.562  -6.108  1.00  0.00    -0.003 C 
ATOM      5  C   UNL     1      20.032  39.989  -4.751  1.00  0.00     0.004 C 
ENDBRANCH   3   4
ENDBRANCH   1   3
BRANCH   1   6
ATOM      6  C   UNL     1      23.091  37.936  -5.822  1.00  0.00     0.131 C 
ATOM      7  C   UNL     1      24.012  38.015  -4.596  1.00  0.00     0.243 C 
ATOM      8  C   UNL     1      23.774  37.177  -6.966  1.00  0.00     0.243 C 
ATOM      9  O   UNL     1      23.766  38.848  -3.680  1.00  0.00    -0.273 OA
ATOM     10  N   UNL     1      25.116  37.125  -4.421  1.00  0.00    -0.277 N 
ATOM     11  N   UNL     1      24.937  36.373  -6.756  1.00  0.00    -0.277 N 
ATOM     12  O   UNL     1      23.252  37.177  -8.113  1.00  0.00    -0.273 OA
ATOM     13  C   UNL     1      25.577  36.307  -5.488  1.00  0.00     0.328 C 
ATOM     14  H   UNL     1      25.634  37.121  -3.512  1.00  0.00     0.174 HD
ATOM     15  H   UNL     1      25.322  35.812  -7.550  1.00  0.00     0.174 HD
ATOM     16  O   UNL     1      26.562  35.540  -5.316  1.00  0.00    -0.248 OA
BRANCH   6  17
ATOM     17  C   UNL     1      21.848  37.082  -5.408  1.00  0.00     0.024 C 
ATOM     18  C   UNL     1      22.009  35.564  -5.547  1.00  0.00     0.005 C 
ENDBRANCH   6  17
ENDBRANCH   1   6
TORSDOF 4
ENDMDL
MODEL 15
REMARK VINA RESULT:    -5.720      2.707      4.857
REMARK INTER + INTRA:          -7.116
REMARK INTER:                  -7.305
REMARK INTRA:                   0.189
REMARK UNBOUND:                -0.059
REMARK SMILES CCCC(C)C1(CC)C(=O)NC(=O)NC1=O
REMARK SMILES IDX 4 1 5 2 3 3 2 4 1 5 6 6 9 7 15 8 10 9 11 10 14 11 16 12
REMARK SMILES IDX 12 13 13 16 7 17 8 18
REMARK H PARENT 11 14 14 15
REMARK Flexibility Score: inf
ROOT
ATOM      1  C   UNL     1      22.956  38.800  -6.433  1.00  0.00     0.011 C 
ATOM      2  C   UNL     1      23.728  39.747  -7.382  1.00  0.00     0.009 C 
ENDROOT
BRANCH   1   3
ATOM      3  C   UNL     1      21.513  39.346  -6.207  1.00  0.00     0.004 C 
BRANCH   3   4
ATOM      4  C   UNL     1      21.198  39.573  -4.719  1.00  0.00    -0.003 C 
ATOM      5  C   UNL     1      19.741  39.979  -4.518  1.00  0.00     0.004 C 
ENDBRANCH   3   4
ENDBRANCH   1   3
BRANCH   1   6
ATOM      6  C   UNL     1      23.033  37.293  -6.929  1.00  0.00     0.131 C 
ATOM      7  C   UNL     1      24.468  36.783  -6.733  1.00  0.00     0.243 C 
ATOM      8  C   UNL     1      22.616  37.194  -8.400  1.00  0.00     0.243 C 
ATOM      9  O   UNL     1      25.095  37.064  -5.675  1.00  0.00    -0.273 OA
ATOM     10  N   UNL     1      25.106  35.936  -7.692  1.00  0.00    -0.277 N 
ATOM     11  N   UNL     1      23.346  36.406  -9.345  1.00  0.00    -0.277 N 
ATOM     12  O   UNL     1      21.548  37.742  -8.784  1.00  0.00    -0.273 OA
ATOM     13  C   UNL     1      24.552  35.744  -8.987  1.00  0.00     0.328 C 
ATOM     14  H   UNL     1      26.027  35.500  -7.460  1.00  0.00     0.174 HD
ATOM     15  H   UNL     1      22.980  36.305 -10.319  1.00  0.00     0.174 HD
ATOM     16  O   UNL     1      25.139  35.005  -9.821  1.00  0.00    -0.248 OA
BRANCH   6  17
ATOM     17  C   UNL     1      22.090  36.327  -6.138  1.00  0.00     0.024 C 
ATOM     18  C   UNL     1      22.311  36.279  -4.621  1.00  0.00     0.005 C 
ENDBRANCH   6  17
ENDBRANCH   1   6
TORSDOF 4
ENDMDL
