MODEL 1
REMARK VINA RESULT:    -9.373      0.000      0.000
REMARK INTER + INTRA:         -10.799
REMARK INTER:                 -10.469
REMARK INTRA:                  -0.330
REMARK UNBOUND:                -0.330
REMARK SMILES Cc1nccn1CC1CCc2c(c3ccccc3n2C)C1=O
REMARK SMILES IDX 7 1 8 2 20 3 19 4 11 5 18 6 12 7 10 8 13 9 17 10 21 11 9 12
REMARK SMILES IDX 14 13 16 14 22 15 15 16 6 17 5 18 2 19 4 20 3 21 1 22
REMARK H PARENT
REMARK Flexibility Score: inf
ROOT
ATOM      1  C   UNL     1     -81.687 -21.925  87.884  1.00  0.00     0.135 C 
ENDROOT
BRANCH   1   2
ATOM      2  C   UNL     1     -80.716 -20.766  87.563  1.00  0.00     0.081 C 
ATOM      3  C   UNL     1     -76.115 -18.594  85.812  1.00  0.00     0.150 C 
ATOM      4  N   UNL     1     -77.452 -19.025  85.405  1.00  0.00    -0.347 N 
ATOM      5  C   UNL     1     -78.376 -19.670  86.163  1.00  0.00     0.029 A 
ATOM      6  C   UNL     1     -78.083 -18.717  84.249  1.00  0.00     0.049 A 
ATOM      7  C   UNL     1     -79.579 -19.767  85.492  1.00  0.00     0.047 A 
ATOM      8  C   UNL     1     -78.224 -20.099  87.596  1.00  0.00     0.055 C 
ATOM      9  C   UNL     1     -79.387 -19.166  84.263  1.00  0.00     0.011 A 
ATOM     10  C   UNL     1     -77.577 -18.005  83.156  1.00  0.00     0.027 A 
ATOM     11  C   UNL     1     -80.785 -20.338  86.106  1.00  0.00     0.170 C 
ATOM     12  C   UNL     1     -79.268 -21.179  87.946  1.00  0.00     0.020 C 
ATOM     13  C   UNL     1     -80.256 -18.942  83.195  1.00  0.00     0.011 A 
ATOM     14  C   UNL     1     -78.430 -17.774  82.062  1.00  0.00     0.002 A 
ATOM     15  O   UNL     1     -81.867 -20.382  85.462  1.00  0.00    -0.294 OA
ATOM     16  C   UNL     1     -79.761 -18.242  82.081  1.00  0.00     0.001 A 
ENDBRANCH   1   2
BRANCH   1  17
ATOM     17  N   UNL     1     -83.050 -21.443  88.132  1.00  0.00    -0.334 N 
ATOM     18  C   UNL     1     -83.398 -20.437  88.953  1.00  0.00     0.107 A 
ATOM     19  C   UNL     1     -84.210 -21.865  87.576  1.00  0.00     0.105 A 
ATOM     20  C   UNL     1     -84.765 -20.286  88.894  1.00  0.00     0.131 A 
ATOM     21  N   UNL     1     -85.283 -21.185  88.033  1.00  0.00    -0.242 NA
ATOM     22  C   UNL     1     -84.333 -22.995  86.600  1.00  0.00     0.087 C 
ENDBRANCH   1  17
TORSDOF 2
ENDMDL
MODEL 2
REMARK VINA RESULT:    -8.775      2.111      6.919
REMARK INTER + INTRA:         -10.131
REMARK INTER:                  -9.735
REMARK INTRA:                  -0.396
REMARK UNBOUND:                -0.330
REMARK SMILES Cc1nccn1CC1CCc2c(c3ccccc3n2C)C1=O
REMARK SMILES IDX 7 1 8 2 20 3 19 4 11 5 18 6 12 7 10 8 13 9 17 10 21 11 9 12
REMARK SMILES IDX 14 13 16 14 22 15 15 16 6 17 5 18 2 19 4 20 3 21 1 22
REMARK H PARENT
REMARK Flexibility Score: inf
ROOT
ATOM      1  C   UNL     1     -76.965 -18.380  85.468  1.00  0.00     0.135 C 
ENDROOT
BRANCH   1   2
ATOM      2  C   UNL     1     -77.466 -19.551  86.345  1.00  0.00     0.081 C 
ATOM      3  C   UNL     1     -79.932 -21.768  90.582  1.00  0.00     0.150 C 
ATOM      4  N   UNL     1     -80.130 -21.282  89.216  1.00  0.00    -0.347 N 
ATOM      5  C   UNL     1     -79.224 -20.647  88.429  1.00  0.00     0.029 A 
ATOM      6  C   UNL     1     -81.198 -21.520  88.420  1.00  0.00     0.049 A 
ATOM      7  C   UNL     1     -79.715 -20.487  87.148  1.00  0.00     0.047 A 
ATOM      8  C   UNL     1     -77.811 -20.286  88.794  1.00  0.00     0.055 C 
ATOM      9  C   UNL     1     -80.981 -21.036  87.147  1.00  0.00     0.011 A 
ATOM     10  C   UNL     1     -82.378 -22.196  88.746  1.00  0.00     0.027 A 
ATOM     11  C   UNL     1     -78.915 -19.910  86.059  1.00  0.00     0.170 C 
ATOM     12  C   UNL     1     -77.273 -19.195  87.845  1.00  0.00     0.020 C 
ATOM     13  C   UNL     1     -81.926 -21.189  86.131  1.00  0.00     0.011 A 
ATOM     14  C   UNL     1     -83.350 -22.354  87.741  1.00  0.00     0.002 A 
ATOM     15  O   UNL     1     -79.398 -19.808  84.900  1.00  0.00    -0.294 OA
ATOM     16  C   UNL     1     -83.126 -21.851  86.441  1.00  0.00     0.001 A 
ENDBRANCH   1   2
BRANCH   1  17
ATOM     17  N   UNL     1     -76.005 -18.830  84.454  1.00  0.00    -0.334 N 
ATOM     18  C   UNL     1     -74.915 -19.586  84.673  1.00  0.00     0.107 A 
ATOM     19  C   UNL     1     -76.030 -18.623  83.116  1.00  0.00     0.105 A 
ATOM     20  C   UNL     1     -74.289 -19.802  83.467  1.00  0.00     0.131 A 
ATOM     21  N   UNL     1     -74.983 -19.194  82.483  1.00  0.00    -0.242 NA
ATOM     22  C   UNL     1     -77.057 -17.809  82.392  1.00  0.00     0.087 C 
ENDBRANCH   1  17
TORSDOF 2
ENDMDL
MODEL 3
REMARK VINA RESULT:    -8.574      2.234      7.467
REMARK INTER + INTRA:          -9.906
REMARK INTER:                  -9.454
REMARK INTRA:                  -0.452
REMARK UNBOUND:                -0.330
REMARK SMILES Cc1nccn1CC1CCc2c(c3ccccc3n2C)C1=O
REMARK SMILES IDX 7 1 8 2 20 3 19 4 11 5 18 6 12 7 10 8 13 9 17 10 21 11 9 12
REMARK SMILES IDX 14 13 16 14 22 15 15 16 6 17 5 18 2 19 4 20 3 21 1 22
REMARK H PARENT
REMARK Flexibility Score: inf
ROOT
ATOM      1  C   UNL     1     -76.196 -19.334  85.399  1.00  0.00     0.135 C 
ENDROOT
BRANCH   1   2
ATOM      2  C   UNL     1     -77.673 -19.200  85.834  1.00  0.00     0.081 C 
ATOM      3  C   UNL     1     -82.806 -20.765  86.231  1.00  0.00     0.150 C 
ATOM      4  N   UNL     1     -81.493 -20.832  86.874  1.00  0.00    -0.347 N 
ATOM      5  C   UNL     1     -80.315 -20.360  86.391  1.00  0.00     0.029 A 
ATOM      6  C   UNL     1     -81.234 -21.229  88.141  1.00  0.00     0.049 A 
ATOM      7  C   UNL     1     -79.321 -20.456  87.346  1.00  0.00     0.047 A 
ATOM      8  C   UNL     1     -80.094 -19.670  85.074  1.00  0.00     0.055 C 
ATOM      9  C   UNL     1     -79.908 -21.022  88.460  1.00  0.00     0.011 A 
ATOM     10  C   UNL     1     -82.132 -21.745  89.081  1.00  0.00     0.027 A 
ATOM     11  C   UNL     1     -77.964 -19.938  87.131  1.00  0.00     0.170 C 
ATOM     12  C   UNL     1     -78.599 -19.708  84.694  1.00  0.00     0.020 C 
ATOM     13  C   UNL     1     -79.400 -21.322  89.724  1.00  0.00     0.011 A 
ATOM     14  C   UNL     1     -81.642 -22.064  90.360  1.00  0.00     0.002 A 
ATOM     15  O   UNL     1     -77.098 -20.027  88.041  1.00  0.00    -0.294 OA
ATOM     16  C   UNL     1     -80.282 -21.856  90.679  1.00  0.00     0.001 A 
ENDBRANCH   1   2
BRANCH   1  17
ATOM     17  N   UNL     1     -75.530 -18.029  85.320  1.00  0.00    -0.334 N 
ATOM     18  C   UNL     1     -74.807 -17.448  86.293  1.00  0.00     0.107 A 
ATOM     19  C   UNL     1     -75.465 -17.175  84.272  1.00  0.00     0.105 A 
ATOM     20  C   UNL     1     -74.339 -16.243  85.822  1.00  0.00     0.131 A 
ATOM     21  N   UNL     1     -74.754 -16.062  84.552  1.00  0.00    -0.242 NA
ATOM     22  C   UNL     1     -76.143 -17.382  82.952  1.00  0.00     0.087 C 
ENDBRANCH   1  17
TORSDOF 2
ENDMDL
MODEL 4
REMARK VINA RESULT:    -8.436      4.102      6.808
REMARK INTER + INTRA:          -9.753
REMARK INTER:                  -9.421
REMARK INTRA:                  -0.332
REMARK UNBOUND:                -0.330
REMARK SMILES Cc1nccn1CC1CCc2c(c3ccccc3n2C)C1=O
REMARK SMILES IDX 7 1 8 2 20 3 19 4 11 5 18 6 12 7 10 8 13 9 17 10 21 11 9 12
REMARK SMILES IDX 14 13 16 14 22 15 15 16 6 17 5 18 2 19 4 20 3 21 1 22
REMARK H PARENT
REMARK Flexibility Score: inf
ROOT
ATOM      1  C   UNL     1     -77.327 -19.043  84.852  1.00  0.00     0.135 C 
ENDROOT
BRANCH   1   2
ATOM      2  C   UNL     1     -77.585 -18.781  86.353  1.00  0.00     0.081 C 
ATOM      3  C   UNL     1     -76.643 -19.277  91.628  1.00  0.00     0.150 C 
ATOM      4  N   UNL     1     -76.322 -18.492  90.435  1.00  0.00    -0.347 N 
ATOM      5  C   UNL     1     -76.704 -18.744  89.156  1.00  0.00     0.029 A 
ATOM      6  C   UNL     1     -75.726 -17.278  90.403  1.00  0.00     0.049 A 
ATOM      7  C   UNL     1     -76.352 -17.699  88.325  1.00  0.00     0.047 A 
ATOM      8  C   UNL     1     -77.534 -19.902  88.676  1.00  0.00     0.055 C 
ATOM      9  C   UNL     1     -75.717 -16.767  89.122  1.00  0.00     0.011 A 
ATOM     10  C   UNL     1     -75.204 -16.549  91.476  1.00  0.00     0.027 A 
ATOM     11  C   UNL     1     -76.718 -17.659  86.903  1.00  0.00     0.170 C 
ATOM     12  C   UNL     1     -77.361 -20.093  87.155  1.00  0.00     0.020 C 
ATOM     13  C   UNL     1     -75.184 -15.510  88.835  1.00  0.00     0.011 A 
ATOM     14  C   UNL     1     -74.652 -15.283  91.211  1.00  0.00     0.002 A 
ATOM     15  O   UNL     1     -76.396 -16.672  86.190  1.00  0.00    -0.294 OA
ATOM     16  C   UNL     1     -74.640 -14.767  89.896  1.00  0.00     0.001 A 
ENDBRANCH   1   2
BRANCH   1  17
ATOM     17  N   UNL     1     -78.543 -18.869  84.050  1.00  0.00    -0.334 N 
ATOM     18  C   UNL     1     -79.784 -19.248  84.400  1.00  0.00     0.107 A 
ATOM     19  C   UNL     1     -78.681 -18.273  82.842  1.00  0.00     0.105 A 
ATOM     20  C   UNL     1     -80.645 -18.893  83.387  1.00  0.00     0.131 A 
ATOM     21  N   UNL     1     -79.957 -18.284  82.401  1.00  0.00    -0.242 NA
ATOM     22  C   UNL     1     -77.557 -17.703  82.032  1.00  0.00     0.087 C 
ENDBRANCH   1  17
TORSDOF 2
ENDMDL
MODEL 5
REMARK VINA RESULT:    -8.229      1.349      3.032
REMARK INTER + INTRA:          -9.520
REMARK INTER:                  -9.201
REMARK INTRA:                  -0.320
REMARK UNBOUND:                -0.330
REMARK SMILES Cc1nccn1CC1CCc2c(c3ccccc3n2C)C1=O
REMARK SMILES IDX 7 1 8 2 20 3 19 4 11 5 18 6 12 7 10 8 13 9 17 10 21 11 9 12
REMARK SMILES IDX 14 13 16 14 22 15 15 16 6 17 5 18 2 19 4 20 3 21 1 22
REMARK H PARENT
REMARK Flexibility Score: inf
ROOT
ATOM      1  C   UNL     1     -81.658 -20.890  87.534  1.00  0.00     0.135 C 
ENDROOT
BRANCH   1   2
ATOM      2  C   UNL     1     -81.007 -20.666  86.150  1.00  0.00     0.081 C 
ATOM      3  C   UNL     1     -79.296 -17.730  81.978  1.00  0.00     0.150 C 
ATOM      4  N   UNL     1     -78.909 -18.284  83.276  1.00  0.00    -0.347 N 
ATOM      5  C   UNL     1     -79.702 -18.943  84.160  1.00  0.00     0.029 A 
ATOM      6  C   UNL     1     -77.653 -18.390  83.767  1.00  0.00     0.049 A 
ATOM      7  C   UNL     1     -78.953 -19.461  85.199  1.00  0.00     0.047 A 
ATOM      8  C   UNL     1     -81.168 -19.238  84.007  1.00  0.00     0.055 C 
ATOM      9  C   UNL     1     -77.644 -19.097  84.951  1.00  0.00     0.011 A 
ATOM     10  C   UNL     1     -76.465 -17.920  83.197  1.00  0.00     0.027 A 
ATOM     11  C   UNL     1     -79.536 -20.298  86.255  1.00  0.00     0.170 C 
ATOM     12  C   UNL     1     -81.794 -19.571  85.377  1.00  0.00     0.020 C 
ATOM     13  C   UNL     1     -76.460 -19.369  85.637  1.00  0.00     0.011 A 
ATOM     14  C   UNL     1     -75.259 -18.173  83.875  1.00  0.00     0.002 A 
ATOM     15  O   UNL     1     -78.807 -20.769  87.168  1.00  0.00    -0.294 OA
ATOM     16  C   UNL     1     -75.257 -18.892  85.090  1.00  0.00     0.001 A 
ENDBRANCH   1   2
BRANCH   1  17
ATOM     17  N   UNL     1     -82.927 -21.619  87.430  1.00  0.00    -0.334 N 
ATOM     18  C   UNL     1     -83.168 -22.682  86.642  1.00  0.00     0.107 A 
ATOM     19  C   UNL     1     -84.079 -21.414  88.111  1.00  0.00     0.105 A 
ATOM     20  C   UNL     1     -84.468 -23.084  86.846  1.00  0.00     0.131 A 
ATOM     21  N   UNL     1     -85.049 -22.287  87.765  1.00  0.00    -0.242 NA
ATOM     22  C   UNL     1     -84.305 -20.315  89.103  1.00  0.00     0.087 C 
ENDBRANCH   1  17
TORSDOF 2
ENDMDL
MODEL 6
REMARK VINA RESULT:    -8.069      3.549      5.599
REMARK INTER + INTRA:          -9.343
REMARK INTER:                  -8.900
REMARK INTRA:                  -0.443
REMARK UNBOUND:                -0.330
REMARK SMILES Cc1nccn1CC1CCc2c(c3ccccc3n2C)C1=O
REMARK SMILES IDX 7 1 8 2 20 3 19 4 11 5 18 6 12 7 10 8 13 9 17 10 21 11 9 12
REMARK SMILES IDX 14 13 16 14 22 15 15 16 6 17 5 18 2 19 4 20 3 21 1 22
REMARK H PARENT
REMARK Flexibility Score: inf
ROOT
ATOM      1  C   UNL     1     -78.849 -20.721  86.460  1.00  0.00     0.135 C 
ENDROOT
BRANCH   1   2
ATOM      2  C   UNL     1     -78.511 -20.130  87.848  1.00  0.00     0.081 C 
ATOM      3  C   UNL     1     -75.524 -19.455  92.272  1.00  0.00     0.150 C 
ATOM      4  N   UNL     1     -75.764 -18.958  90.916  1.00  0.00    -0.347 N 
ATOM      5  C   UNL     1     -76.599 -19.483  89.983  1.00  0.00     0.029 A 
ATOM      6  C   UNL     1     -75.327 -17.789  90.395  1.00  0.00     0.049 A 
ATOM      7  C   UNL     1     -76.688 -18.652  88.883  1.00  0.00     0.047 A 
ATOM      8  C   UNL     1     -77.458 -20.708  90.130  1.00  0.00     0.055 C 
ATOM      9  C   UNL     1     -75.866 -17.574  89.144  1.00  0.00     0.011 A 
ATOM     10  C   UNL     1     -74.482 -16.846  90.989  1.00  0.00     0.027 A 
ATOM     11  C   UNL     1     -77.589 -18.925  87.755  1.00  0.00     0.170 C 
ATOM     12  C   UNL     1     -77.886 -21.233  88.745  1.00  0.00     0.020 C 
ATOM     13  C   UNL     1     -75.591 -16.419  88.411  1.00  0.00     0.011 A 
ATOM     14  C   UNL     1     -74.181 -15.676  90.267  1.00  0.00     0.002 A 
ATOM     15  O   UNL     1     -77.655 -18.124  86.785  1.00  0.00    -0.294 OA
ATOM     16  C   UNL     1     -74.731 -15.465  88.984  1.00  0.00     0.001 A 
ENDBRANCH   1   2
BRANCH   1  17
ATOM     17  N   UNL     1     -80.238 -20.452  86.074  1.00  0.00    -0.334 N 
ATOM     18  C   UNL     1     -81.336 -20.974  86.648  1.00  0.00     0.107 A 
ATOM     19  C   UNL     1     -80.702 -19.615  85.116  1.00  0.00     0.105 A 
ATOM     20  C   UNL     1     -82.442 -20.460  86.011  1.00  0.00     0.131 A 
ATOM     21  N   UNL     1     -82.051 -19.608  85.042  1.00  0.00    -0.242 NA
ATOM     22  C   UNL     1     -79.844 -18.814  84.186  1.00  0.00     0.087 C 
ENDBRANCH   1  17
TORSDOF 2
ENDMDL
MODEL 7
REMARK VINA RESULT:    -8.027      3.994      6.707
REMARK INTER + INTRA:          -9.295
REMARK INTER:                  -8.959
REMARK INTRA:                  -0.336
REMARK UNBOUND:                -0.330
REMARK SMILES Cc1nccn1CC1CCc2c(c3ccccc3n2C)C1=O
REMARK SMILES IDX 7 1 8 2 20 3 19 4 11 5 18 6 12 7 10 8 13 9 17 10 21 11 9 12
REMARK SMILES IDX 14 13 16 14 22 15 15 16 6 17 5 18 2 19 4 20 3 21 1 22
REMARK H PARENT
REMARK Flexibility Score: inf
ROOT
ATOM      1  C   UNL     1     -76.741 -21.293  90.847  1.00  0.00     0.135 C 
ENDROOT
BRANCH   1   2
ATOM      2  C   UNL     1     -77.639 -20.542  89.837  1.00  0.00     0.081 C 
ATOM      3  C   UNL     1     -79.951 -19.687  85.054  1.00  0.00     0.150 C 
ATOM      4  N   UNL     1     -80.107 -20.363  86.342  1.00  0.00    -0.347 N 
ATOM      5  C   UNL     1     -79.199 -20.437  87.349  1.00  0.00     0.029 A 
ATOM      6  C   UNL     1     -81.245 -20.900  86.840  1.00  0.00     0.049 A 
ATOM      7  C   UNL     1     -79.758 -21.015  88.472  1.00  0.00     0.047 A 
ATOM      8  C   UNL     1     -77.815 -19.849  87.358  1.00  0.00     0.055 C 
ATOM      9  C   UNL     1     -81.064 -21.320  88.141  1.00  0.00     0.011 A 
ATOM     10  C   UNL     1     -82.488 -21.013  86.211  1.00  0.00     0.027 A 
ATOM     11  C   UNL     1     -79.032 -21.142  89.743  1.00  0.00     0.170 C 
ATOM     12  C   UNL     1     -76.952 -20.525  88.444  1.00  0.00     0.020 C 
ATOM     13  C   UNL     1     -82.102 -21.880  88.886  1.00  0.00     0.011 A 
ATOM     14  C   UNL     1     -83.549 -21.584  86.937  1.00  0.00     0.002 A 
ATOM     15  O   UNL     1     -79.594 -21.653  90.748  1.00  0.00    -0.294 OA
ATOM     16  C   UNL     1     -83.357 -22.017  88.266  1.00  0.00     0.001 A 
ENDBRANCH   1   2
BRANCH   1  17
ATOM     17  N   UNL     1     -76.336 -20.432  91.963  1.00  0.00    -0.334 N 
ATOM     18  C   UNL     1     -76.531 -19.105  92.053  1.00  0.00     0.107 A 
ATOM     19  C   UNL     1     -75.736 -20.782  93.126  1.00  0.00     0.105 A 
ATOM     20  C   UNL     1     -76.023 -18.675  93.258  1.00  0.00     0.131 A 
ATOM     21  N   UNL     1     -75.516 -19.724  93.936  1.00  0.00    -0.242 NA
ATOM     22  C   UNL     1     -75.298 -22.169  93.482  1.00  0.00     0.087 C 
ENDBRANCH   1  17
TORSDOF 2
ENDMDL
MODEL 8
REMARK VINA RESULT:    -7.985      3.817      7.845
REMARK INTER + INTRA:          -9.249
REMARK INTER:                  -8.907
REMARK INTRA:                  -0.341
REMARK UNBOUND:                -0.330
REMARK SMILES Cc1nccn1CC1CCc2c(c3ccccc3n2C)C1=O
REMARK SMILES IDX 7 1 8 2 20 3 19 4 11 5 18 6 12 7 10 8 13 9 17 10 21 11 9 12
REMARK SMILES IDX 14 13 16 14 22 15 15 16 6 17 5 18 2 19 4 20 3 21 1 22
REMARK H PARENT
REMARK Flexibility Score: inf
ROOT
ATOM      1  C   UNL     1     -74.385 -17.411  88.845  1.00  0.00     0.135 C 
ENDROOT
BRANCH   1   2
ATOM      2  C   UNL     1     -75.708 -17.383  88.045  1.00  0.00     0.081 C 
ATOM      3  C   UNL     1     -79.047 -18.824  84.079  1.00  0.00     0.150 C 
ATOM      4  N   UNL     1     -78.616 -19.144  85.441  1.00  0.00    -0.347 N 
ATOM      5  C   UNL     1     -77.597 -18.576  86.136  1.00  0.00     0.029 A 
ATOM      6  C   UNL     1     -79.253 -19.948  86.322  1.00  0.00     0.049 A 
ATOM      7  C   UNL     1     -77.592 -19.017  87.446  1.00  0.00     0.047 A 
ATOM      8  C   UNL     1     -76.670 -17.495  85.654  1.00  0.00     0.055 C 
ATOM      9  C   UNL     1     -78.646 -19.902  87.560  1.00  0.00     0.011 A 
ATOM     10  C   UNL     1     -80.401 -20.718  86.109  1.00  0.00     0.027 A 
ATOM     11  C   UNL     1     -76.655 -18.501  88.452  1.00  0.00     0.170 C 
ATOM     12  C   UNL     1     -75.397 -17.451  86.524  1.00  0.00     0.020 C 
ATOM     13  C   UNL     1     -79.138 -20.622  88.649  1.00  0.00     0.011 A 
ATOM     14  C   UNL     1     -80.911 -21.460  87.189  1.00  0.00     0.002 A 
ATOM     15  O   UNL     1     -76.705 -18.915  89.640  1.00  0.00    -0.294 OA
ATOM     16  C   UNL     1     -80.282 -21.415  88.451  1.00  0.00     0.001 A 
ENDBRANCH   1   2
BRANCH   1  17
ATOM     17  N   UNL     1     -73.880 -16.060  89.112  1.00  0.00    -0.334 N 
ATOM     18  C   UNL     1     -72.896 -15.434  88.443  1.00  0.00     0.107 A 
ATOM     19  C   UNL     1     -74.308 -15.164  90.033  1.00  0.00     0.105 A 
ATOM     20  C   UNL     1     -72.733 -14.181  88.988  1.00  0.00     0.131 A 
ATOM     21  N   UNL     1     -73.615 -14.006  89.993  1.00  0.00    -0.242 NA
ATOM     22  C   UNL     1     -75.390 -15.417  91.038  1.00  0.00     0.087 C 
ENDBRANCH   1  17
TORSDOF 2
ENDMDL
MODEL 9
REMARK VINA RESULT:    -7.965      2.547      7.089
REMARK INTER + INTRA:          -9.226
REMARK INTER:                  -8.884
REMARK INTRA:                  -0.343
REMARK UNBOUND:                -0.330
REMARK SMILES Cc1nccn1CC1CCc2c(c3ccccc3n2C)C1=O
REMARK SMILES IDX 7 1 8 2 20 3 19 4 11 5 18 6 12 7 10 8 13 9 17 10 21 11 9 12
REMARK SMILES IDX 14 13 16 14 22 15 15 16 6 17 5 18 2 19 4 20 3 21 1 22
REMARK H PARENT
REMARK Flexibility Score: inf
ROOT
ATOM      1  C   UNL     1     -76.952 -18.869  86.223  1.00  0.00     0.135 C 
ENDROOT
BRANCH   1   2
ATOM      2  C   UNL     1     -77.653 -20.004  87.004  1.00  0.00     0.081 C 
ATOM      3  C   UNL     1     -80.813 -22.061  90.844  1.00  0.00     0.150 C 
ATOM      4  N   UNL     1     -80.794 -21.545  89.474  1.00  0.00    -0.347 N 
ATOM      5  C   UNL     1     -79.747 -20.977  88.823  1.00  0.00     0.029 A 
ATOM      6  C   UNL     1     -81.766 -21.686  88.544  1.00  0.00     0.049 A 
ATOM      7  C   UNL     1     -80.055 -20.763  87.493  1.00  0.00     0.047 A 
ATOM      8  C   UNL     1     -78.368 -20.737  89.372  1.00  0.00     0.055 C 
ATOM      9  C   UNL     1     -81.350 -21.207  87.319  1.00  0.00     0.011 A 
ATOM     10  C   UNL     1     -83.029 -22.267  88.702  1.00  0.00     0.027 A 
ATOM     11  C   UNL     1     -79.078 -20.241  86.528  1.00  0.00     0.170 C 
ATOM     12  C   UNL     1     -77.628 -19.682  88.524  1.00  0.00     0.020 C 
ATOM     13  C   UNL     1     -82.165 -21.270  86.188  1.00  0.00     0.011 A 
ATOM     14  C   UNL     1     -83.873 -22.334  87.578  1.00  0.00     0.002 A 
ATOM     15  O   UNL     1     -79.398 -20.087  85.320  1.00  0.00    -0.294 OA
ATOM     16  C   UNL     1     -83.444 -21.836  86.329  1.00  0.00     0.001 A 
ENDBRANCH   1   2
BRANCH   1  17
ATOM     17  N   UNL     1     -75.557 -18.700  86.641  1.00  0.00    -0.334 N 
ATOM     18  C   UNL     1     -74.544 -19.546  86.385  1.00  0.00     0.107 A 
ATOM     19  C   UNL     1     -74.996 -17.669  87.317  1.00  0.00     0.105 A 
ATOM     20  C   UNL     1     -73.395 -19.020  86.931  1.00  0.00     0.131 A 
ATOM     21  N   UNL     1     -73.673 -17.842  87.524  1.00  0.00    -0.242 NA
ATOM     22  C   UNL     1     -75.741 -16.479  87.841  1.00  0.00     0.087 C 
ENDBRANCH   1  17
TORSDOF 2
ENDMDL
MODEL 10
REMARK VINA RESULT:    -7.956      4.806      8.593
REMARK INTER + INTRA:          -9.217
REMARK INTER:                  -8.791
REMARK INTRA:                  -0.426
REMARK UNBOUND:                -0.330
REMARK SMILES Cc1nccn1CC1CCc2c(c3ccccc3n2C)C1=O
REMARK SMILES IDX 7 1 8 2 20 3 19 4 11 5 18 6 12 7 10 8 13 9 17 10 21 11 9 12
REMARK SMILES IDX 14 13 16 14 22 15 15 16 6 17 5 18 2 19 4 20 3 21 1 22
REMARK H PARENT
REMARK Flexibility Score: inf
ROOT
ATOM      1  C   UNL     1     -74.866 -15.056  89.298  1.00  0.00     0.135 C 
ENDROOT
BRANCH   1   2
ATOM      2  C   UNL     1     -75.090 -16.576  89.124  1.00  0.00     0.081 C 
ATOM      3  C   UNL     1     -77.710 -21.231  89.774  1.00  0.00     0.150 C 
ATOM      4  N   UNL     1     -77.580 -20.054  88.914  1.00  0.00    -0.347 N 
ATOM      5  C   UNL     1     -76.823 -18.949  89.140  1.00  0.00     0.029 A 
ATOM      6  C   UNL     1     -78.057 -19.915  87.656  1.00  0.00     0.049 A 
ATOM      7  C   UNL     1     -76.822 -18.121  88.033  1.00  0.00     0.047 A 
ATOM      8  C   UNL     1     -75.956 -18.681  90.338  1.00  0.00     0.055 C 
ATOM      9  C   UNL     1     -77.620 -18.736  87.089  1.00  0.00     0.011 A 
ATOM     10  C   UNL     1     -78.850 -20.813  86.934  1.00  0.00     0.027 A 
ATOM     11  C   UNL     1     -76.015 -16.896  87.961  1.00  0.00     0.170 C 
ATOM     12  C   UNL     1     -75.642 -17.175  90.447  1.00  0.00     0.020 C 
ATOM     13  C   UNL     1     -77.953 -18.379  85.782  1.00  0.00     0.011 A 
ATOM     14  C   UNL     1     -79.207 -20.472  85.617  1.00  0.00     0.002 A 
ATOM     15  O   UNL     1     -76.028 -16.186  86.921  1.00  0.00    -0.294 OA
ATOM     16  C   UNL     1     -78.763 -19.261  85.045  1.00  0.00     0.001 A 
ENDBRANCH   1   2
BRANCH   1  17
ATOM     17  N   UNL     1     -73.440 -14.713  89.317  1.00  0.00    -0.334 N 
ATOM     18  C   UNL     1     -72.632 -14.618  88.247  1.00  0.00     0.107 A 
ATOM     19  C   UNL     1     -72.664 -14.387  90.378  1.00  0.00     0.105 A 
ATOM     20  C   UNL     1     -71.377 -14.259  88.684  1.00  0.00     0.131 A 
ATOM     21  N   UNL     1     -71.388 -14.117  90.025  1.00  0.00    -0.242 NA
ATOM     22  C   UNL     1     -73.121 -14.372  91.804  1.00  0.00     0.087 C 
ENDBRANCH   1  17
TORSDOF 2
ENDMDL
MODEL 11
REMARK VINA RESULT:    -7.951      2.860      5.808
REMARK INTER + INTRA:          -9.210
REMARK INTER:                  -9.116
REMARK INTRA:                  -0.094
REMARK UNBOUND:                -0.330
REMARK SMILES Cc1nccn1CC1CCc2c(c3ccccc3n2C)C1=O
REMARK SMILES IDX 7 1 8 2 20 3 19 4 11 5 18 6 12 7 10 8 13 9 17 10 21 11 9 12
REMARK SMILES IDX 14 13 16 14 22 15 15 16 6 17 5 18 2 19 4 20 3 21 1 22
REMARK H PARENT
REMARK Flexibility Score: inf
ROOT
ATOM      1  C   UNL     1     -75.096 -19.601  88.234  1.00  0.00     0.135 C 
ENDROOT
BRANCH   1   2
ATOM      2  C   UNL     1     -76.314 -20.167  87.469  1.00  0.00     0.081 C 
ATOM      3  C   UNL     1     -81.474 -20.350  85.953  1.00  0.00     0.150 C 
ATOM      4  N   UNL     1     -80.163 -19.787  85.629  1.00  0.00    -0.347 N 
ATOM      5  C   UNL     1     -79.019 -19.892  86.355  1.00  0.00     0.029 A 
ATOM      6  C   UNL     1     -79.801 -19.196  84.467  1.00  0.00     0.049 A 
ATOM      7  C   UNL     1     -77.946 -19.374  85.656  1.00  0.00     0.047 A 
ATOM      8  C   UNL     1     -78.849 -20.604  87.668  1.00  0.00     0.055 C 
ATOM      9  C   UNL     1     -78.450 -18.920  84.453  1.00  0.00     0.011 A 
ATOM     10  C   UNL     1     -80.608 -18.910  83.361  1.00  0.00     0.027 A 
ATOM     11  C   UNL     1     -76.568 -19.435  86.161  1.00  0.00     0.170 C 
ATOM     12  C   UNL     1     -77.571 -20.116  88.381  1.00  0.00     0.020 C 
ATOM     13  C   UNL     1     -77.828 -18.338  83.348  1.00  0.00     0.011 A 
ATOM     14  C   UNL     1     -80.007 -18.315  82.238  1.00  0.00     0.002 A 
ATOM     15  O   UNL     1     -75.619 -18.971  85.476  1.00  0.00    -0.294 OA
ATOM     16  C   UNL     1     -78.625 -18.029  82.232  1.00  0.00     0.001 A 
ENDBRANCH   1   2
BRANCH   1  17
ATOM     17  N   UNL     1     -75.503 -18.696  89.315  1.00  0.00    -0.334 N 
ATOM     18  C   UNL     1     -75.694 -19.033  90.602  1.00  0.00     0.107 A 
ATOM     19  C   UNL     1     -75.726 -17.361  89.261  1.00  0.00     0.105 A 
ATOM     20  C   UNL     1     -76.051 -17.900  91.297  1.00  0.00     0.131 A 
ATOM     21  N   UNL     1     -76.079 -16.845  90.458  1.00  0.00    -0.242 NA
ATOM     22  C   UNL     1     -75.654 -16.529  88.018  1.00  0.00     0.087 C 
ENDBRANCH   1  17
TORSDOF 2
ENDMDL
MODEL 12
REMARK VINA RESULT:    -7.905      3.792      8.912
REMARK INTER + INTRA:          -9.159
REMARK INTER:                  -8.821
REMARK INTRA:                  -0.338
REMARK UNBOUND:                -0.330
REMARK SMILES Cc1nccn1CC1CCc2c(c3ccccc3n2C)C1=O
REMARK SMILES IDX 7 1 8 2 20 3 19 4 11 5 18 6 12 7 10 8 13 9 17 10 21 11 9 12
REMARK SMILES IDX 14 13 16 14 22 15 15 16 6 17 5 18 2 19 4 20 3 21 1 22
REMARK H PARENT
REMARK Flexibility Score: inf
ROOT
ATOM      1  C   UNL     1     -73.512 -17.561  83.288  1.00  0.00     0.135 C 
ENDROOT
BRANCH   1   2
ATOM      2  C   UNL     1     -75.045 -17.399  83.406  1.00  0.00     0.081 C 
ATOM      3  C   UNL     1     -80.180 -18.745  82.522  1.00  0.00     0.150 C 
ATOM      4  N   UNL     1     -79.042 -18.936  83.423  1.00  0.00    -0.347 N 
ATOM      5  C   UNL     1     -77.775 -18.477  83.258  1.00  0.00     0.029 A 
ATOM      6  C   UNL     1     -79.077 -19.463  84.668  1.00  0.00     0.049 A 
ATOM      7  C   UNL     1     -77.018 -18.711  84.389  1.00  0.00     0.047 A 
ATOM      8  C   UNL     1     -77.251 -17.678  82.097  1.00  0.00     0.055 C 
ATOM      9  C   UNL     1     -77.849 -19.351  85.286  1.00  0.00     0.011 A 
ATOM     10  C   UNL     1     -80.173 -20.021  85.334  1.00  0.00     0.027 A 
ATOM     11  C   UNL     1     -75.633 -18.241  84.527  1.00  0.00     0.170 C 
ATOM     12  C   UNL     1     -75.711 -17.751  82.047  1.00  0.00     0.020 C 
ATOM     13  C   UNL     1     -77.639 -19.794  86.592  1.00  0.00     0.011 A 
ATOM     14  C   UNL     1     -79.985 -20.484  86.649  1.00  0.00     0.002 A 
ATOM     15  O   UNL     1     -74.990 -18.457  85.588  1.00  0.00    -0.294 OA
ATOM     16  C   UNL     1     -78.724 -20.372  87.274  1.00  0.00     0.001 A 
ENDBRANCH   1   2
BRANCH   1  17
ATOM     17  N   UNL     1     -72.861 -16.315  82.872  1.00  0.00    -0.334 N 
ATOM     18  C   UNL     1     -72.446 -16.013  81.629  1.00  0.00     0.107 A 
ATOM     19  C   UNL     1     -72.585 -15.217  83.614  1.00  0.00     0.105 A 
ATOM     20  C   UNL     1     -71.905 -14.748  81.650  1.00  0.00     0.131 A 
ATOM     21  N   UNL     1     -71.984 -14.242  82.897  1.00  0.00    -0.242 NA
ATOM     22  C   UNL     1     -72.849 -15.084  85.083  1.00  0.00     0.087 C 
ENDBRANCH   1  17
TORSDOF 2
ENDMDL
MODEL 13
REMARK VINA RESULT:    -7.862      3.854      7.922
REMARK INTER + INTRA:          -9.111
REMARK INTER:                  -8.663
REMARK INTRA:                  -0.448
REMARK UNBOUND:                -0.330
REMARK SMILES Cc1nccn1CC1CCc2c(c3ccccc3n2C)C1=O
REMARK SMILES IDX 7 1 8 2 20 3 19 4 11 5 18 6 12 7 10 8 13 9 17 10 21 11 9 12
REMARK SMILES IDX 14 13 16 14 22 15 15 16 6 17 5 18 2 19 4 20 3 21 1 22
REMARK H PARENT
REMARK Flexibility Score: inf
ROOT
ATOM      1  C   UNL     1     -74.069 -17.089  88.155  1.00  0.00     0.135 C 
ENDROOT
BRANCH   1   2
ATOM      2  C   UNL     1     -75.456 -17.057  87.473  1.00  0.00     0.081 C 
ATOM      3  C   UNL     1     -79.108 -18.429  83.766  1.00  0.00     0.150 C 
ATOM      4  N   UNL     1     -78.556 -18.783  85.075  1.00  0.00    -0.347 N 
ATOM      5  C   UNL     1     -77.488 -18.221  85.698  1.00  0.00     0.029 A 
ATOM      6  C   UNL     1     -79.105 -19.622  85.983  1.00  0.00     0.049 A 
ATOM      7  C   UNL     1     -77.365 -18.701  86.987  1.00  0.00     0.047 A 
ATOM      8  C   UNL     1     -76.620 -17.112  85.171  1.00  0.00     0.055 C 
ATOM      9  C   UNL     1     -78.393 -19.604  87.164  1.00  0.00     0.011 A 
ATOM     10  C   UNL     1     -80.257 -20.403  85.845  1.00  0.00     0.027 A 
ATOM     11  C   UNL     1     -76.350 -18.201  87.925  1.00  0.00     0.170 C 
ATOM     12  C   UNL     1     -75.277 -17.076  85.930  1.00  0.00     0.020 C 
ATOM     13  C   UNL     1     -78.780 -20.364  88.269  1.00  0.00     0.011 A 
ATOM     14  C   UNL     1     -80.663 -21.185  86.941  1.00  0.00     0.002 A 
ATOM     15  O   UNL     1     -76.293 -18.651  89.100  1.00  0.00    -0.294 OA
ATOM     16  C   UNL     1     -79.927 -21.167  88.146  1.00  0.00     0.001 A 
ENDBRANCH   1   2
BRANCH   1  17
ATOM     17  N   UNL     1     -73.904 -15.988  89.110  1.00  0.00    -0.334 N 
ATOM     18  C   UNL     1     -74.335 -15.972  90.383  1.00  0.00     0.107 A 
ATOM     19  C   UNL     1     -73.267 -14.806  88.935  1.00  0.00     0.105 A 
ATOM     20  C   UNL     1     -73.970 -14.770  90.946  1.00  0.00     0.131 A 
ATOM     21  N   UNL     1     -73.302 -14.030  90.039  1.00  0.00    -0.242 NA
ATOM     22  C   UNL     1     -72.632 -14.354  87.656  1.00  0.00     0.087 C 
ENDBRANCH   1  17
TORSDOF 2
ENDMDL
MODEL 14
REMARK VINA RESULT:    -7.821      1.612      2.254
REMARK INTER + INTRA:          -9.065
REMARK INTER:                  -8.620
REMARK INTRA:                  -0.445
REMARK UNBOUND:                -0.330
REMARK SMILES Cc1nccn1CC1CCc2c(c3ccccc3n2C)C1=O
REMARK SMILES IDX 7 1 8 2 20 3 19 4 11 5 18 6 12 7 10 8 13 9 17 10 21 11 9 12
REMARK SMILES IDX 14 13 16 14 22 15 15 16 6 17 5 18 2 19 4 20 3 21 1 22
REMARK H PARENT
REMARK Flexibility Score: inf
ROOT
ATOM      1  C   UNL     1     -80.991 -21.186  86.529  1.00  0.00     0.135 C 
ENDROOT
BRANCH   1   2
ATOM      2  C   UNL     1     -79.850 -20.161  86.722  1.00  0.00     0.081 C 
ATOM      3  C   UNL     1     -74.727 -18.594  87.225  1.00  0.00     0.150 C 
ATOM      4  N   UNL     1     -75.801 -18.846  86.263  1.00  0.00    -0.347 N 
ATOM      5  C   UNL     1     -77.028 -19.370  86.517  1.00  0.00     0.029 A 
ATOM      6  C   UNL     1     -75.835 -18.452  84.969  1.00  0.00     0.049 A 
ATOM      7  C   UNL     1     -77.829 -19.306  85.394  1.00  0.00     0.047 A 
ATOM      8  C   UNL     1     -77.554 -19.824  87.849  1.00  0.00     0.055 C 
ATOM      9  C   UNL     1     -77.062 -18.728  84.402  1.00  0.00     0.011 A 
ATOM     10  C   UNL     1     -74.831 -17.805  84.241  1.00  0.00     0.027 A 
ATOM     11  C   UNL     1     -79.239 -19.719  85.402  1.00  0.00     0.170 C 
ATOM     12  C   UNL     1     -78.764 -20.761  87.657  1.00  0.00     0.020 C 
ATOM     13  C   UNL     1     -77.356 -18.386  83.082  1.00  0.00     0.011 A 
ATOM     14  C   UNL     1     -75.100 -17.458  82.905  1.00  0.00     0.002 A 
ATOM     15  O   UNL     1     -79.938 -19.618  84.359  1.00  0.00    -0.294 OA
ATOM     16  C   UNL     1     -76.355 -17.749  82.328  1.00  0.00     0.001 A 
ENDBRANCH   1   2
BRANCH   1  17
ATOM     17  N   UNL     1     -82.237 -20.743  87.163  1.00  0.00    -0.334 N 
ATOM     18  C   UNL     1     -83.194 -19.991  86.591  1.00  0.00     0.107 A 
ATOM     19  C   UNL     1     -82.698 -21.020  88.405  1.00  0.00     0.105 A 
ATOM     20  C   UNL     1     -84.204 -19.809  87.507  1.00  0.00     0.131 A 
ATOM     21  N   UNL     1     -83.897 -20.449  88.653  1.00  0.00    -0.242 NA
ATOM     22  C   UNL     1     -81.962 -21.819  89.436  1.00  0.00     0.087 C 
ENDBRANCH   1  17
TORSDOF 2
ENDMDL
MODEL 15
REMARK VINA RESULT:    -7.794      1.757      2.277
REMARK INTER + INTRA:          -9.036
REMARK INTER:                  -8.702
REMARK INTRA:                  -0.334
REMARK UNBOUND:                -0.330
REMARK SMILES Cc1nccn1CC1CCc2c(c3ccccc3n2C)C1=O
REMARK SMILES IDX 7 1 8 2 20 3 19 4 11 5 18 6 12 7 10 8 13 9 17 10 21 11 9 12
REMARK SMILES IDX 14 13 16 14 22 15 15 16 6 17 5 18 2 19 4 20 3 21 1 22
REMARK H PARENT
REMARK Flexibility Score: inf
ROOT
ATOM      1  C   UNL     1     -79.396 -21.685  88.549  1.00  0.00     0.135 C 
ENDROOT
BRANCH   1   2
ATOM      2  C   UNL     1     -78.908 -20.277  88.138  1.00  0.00     0.081 C 
ATOM      3  C   UNL     1     -75.269 -16.634  86.574  1.00  0.00     0.150 C 
ATOM      4  N   UNL     1     -76.238 -17.622  86.097  1.00  0.00    -0.347 N 
ATOM      5  C   UNL     1     -76.962 -18.493  86.847  1.00  0.00     0.029 A 
ATOM      6  C   UNL     1     -76.717 -17.742  84.838  1.00  0.00     0.049 A 
ATOM      7  C   UNL     1     -77.890 -19.156  86.067  1.00  0.00     0.047 A 
ATOM      8  C   UNL     1     -76.918 -18.647  88.341  1.00  0.00     0.055 C 
ATOM      9  C   UNL     1     -77.725 -18.681  84.781  1.00  0.00     0.011 A 
ATOM     10  C   UNL     1     -76.335 -17.022  83.701  1.00  0.00     0.027 A 
ATOM     11  C   UNL     1     -78.871 -20.094  86.629  1.00  0.00     0.170 C 
ATOM     12  C   UNL     1     -77.508 -20.010  88.758  1.00  0.00     0.020 C 
ATOM     13  C   UNL     1     -78.402 -18.964  83.595  1.00  0.00     0.011 A 
ATOM     14  C   UNL     1     -76.997 -17.294  82.491  1.00  0.00     0.002 A 
ATOM     15  O   UNL     1     -79.715 -20.655  85.881  1.00  0.00    -0.294 OA
ATOM     16  C   UNL     1     -78.024 -18.262  82.437  1.00  0.00     0.001 A 
ENDBRANCH   1   2
BRANCH   1  17
ATOM     17  N   UNL     1     -80.666 -21.631  89.280  1.00  0.00    -0.334 N 
ATOM     18  C   UNL     1     -80.812 -21.444  90.603  1.00  0.00     0.107 A 
ATOM     19  C   UNL     1     -81.926 -21.713  88.792  1.00  0.00     0.105 A 
ATOM     20  C   UNL     1     -82.158 -21.440  90.892  1.00  0.00     0.131 A 
ATOM     21  N   UNL     1     -82.865 -21.614  89.758  1.00  0.00    -0.242 NA
ATOM     22  C   UNL     1     -82.277 -21.945  87.354  1.00  0.00     0.087 C 
ENDBRANCH   1  17
TORSDOF 2
ENDMDL
