MODEL 1
REMARK VINA RESULT:    -7.298      0.000      0.000
REMARK INTER + INTRA:         -10.039
REMARK INTER:                  -9.431
REMARK INTRA:                  -0.608
REMARK UNBOUND:                -0.608
REMARK SMILES CN(C)CCC(c1ccc(Br)cc1)c1ccccn1
REMARK SMILES IDX 5 1 4 2 2 3 1 4 3 5 6 6 7 7 8 8 13 9 9 10 12 11 10 12 11 13
REMARK SMILES IDX 14 14 15 15 19 16 16 17 18 18 17 19
REMARK H PARENT
REMARK Flexibility Score: inf
ROOT
ATOM      1  C   UNL     1     -80.617 -20.736  89.139  1.00  0.00     0.030 C 
ENDROOT
BRANCH   1   2
ATOM      2  C   UNL     1     -79.502 -21.603  89.749  1.00  0.00     0.085 C 
BRANCH   2   3
ATOM      3  N   UNL     1     -78.187 -20.944  89.591  1.00  0.00    -0.309 NA
ATOM      4  C   UNL     1     -77.558 -20.739  90.906  1.00  0.00     0.104 C 
ATOM      5  C   UNL     1     -77.291 -21.752  88.744  1.00  0.00     0.104 C 
ENDBRANCH   2   3
ENDBRANCH   1   2
BRANCH   1   6
ATOM      6  C   UNL     1     -81.190 -21.353  87.840  1.00  0.00     0.069 C 
BRANCH   6   7
ATOM      7  C   UNL     1     -80.823 -20.586  86.578  1.00  0.00    -0.039 A 
ATOM      8  C   UNL     1     -81.796 -19.930  85.796  1.00  0.00     0.005 A 
ATOM      9  C   UNL     1     -79.484 -20.569  86.146  1.00  0.00     0.005 A 
ATOM     10  C   UNL     1     -81.430 -19.254  84.630  1.00  0.00     0.016 A 
ATOM     11  C   UNL     1     -79.122 -19.891  84.978  1.00  0.00     0.016 A 
ATOM     12  C   UNL     1     -80.093 -19.232  84.220  1.00  0.00     0.017 A 
ATOM     13  Br  UNL     1     -79.597 -18.309  82.624  1.00  0.00    -0.051 Br
ENDBRANCH   6   7
BRANCH   6  14
ATOM     14  C   UNL     1     -82.688 -21.552  87.917  1.00  0.00     0.048 A 
ATOM     15  C   UNL     1     -83.345 -22.570  87.199  1.00  0.00     0.024 A 
ATOM     16  N   UNL     1     -83.417 -20.743  88.735  1.00  0.00    -0.261 NA
ATOM     17  C   UNL     1     -84.726 -22.721  87.330  1.00  0.00     0.003 A 
ATOM     18  C   UNL     1     -84.763 -20.876  88.875  1.00  0.00     0.111 A 
ATOM     19  C   UNL     1     -85.444 -21.870  88.170  1.00  0.00     0.020 A 
ENDBRANCH   6  14
ENDBRANCH   1   6
TORSDOF 5
ENDMDL
MODEL 2
REMARK VINA RESULT:    -7.145      3.068      6.160
REMARK INTER + INTRA:          -9.841
REMARK INTER:                  -9.468
REMARK INTRA:                  -0.373
REMARK UNBOUND:                -0.608
REMARK SMILES CN(C)CCC(c1ccc(Br)cc1)c1ccccn1
REMARK SMILES IDX 5 1 4 2 2 3 1 4 3 5 6 6 7 7 8 8 13 9 9 10 12 11 10 12 11 13
REMARK SMILES IDX 14 14 15 15 19 16 16 17 18 18 17 19
REMARK H PARENT
REMARK Flexibility Score: inf
ROOT
ATOM      1  C   UNL     1     -79.543 -19.209  84.801  1.00  0.00     0.030 C 
ENDROOT
BRANCH   1   2
ATOM      2  C   UNL     1     -78.673 -19.491  83.564  1.00  0.00     0.085 C 
BRANCH   2   3
ATOM      3  N   UNL     1     -77.709 -18.390  83.346  1.00  0.00    -0.309 NA
ATOM      4  C   UNL     1     -76.330 -18.903  83.390  1.00  0.00     0.104 C 
ATOM      5  C   UNL     1     -77.942 -17.733  82.047  1.00  0.00     0.104 C 
ENDBRANCH   2   3
ENDBRANCH   1   2
BRANCH   1   6
ATOM      6  C   UNL     1     -79.473 -20.358  85.836  1.00  0.00     0.069 C 
BRANCH   6   7
ATOM      7  C   UNL     1     -80.793 -20.635  86.540  1.00  0.00    -0.039 A 
ATOM      8  C   UNL     1     -80.844 -21.222  87.822  1.00  0.00     0.005 A 
ATOM      9  C   UNL     1     -82.001 -20.347  85.880  1.00  0.00     0.005 A 
ATOM     10  C   UNL     1     -82.073 -21.486  88.432  1.00  0.00     0.016 A 
ATOM     11  C   UNL     1     -83.229 -20.613  86.494  1.00  0.00     0.016 A 
ATOM     12  C   UNL     1     -83.266 -21.180  87.770  1.00  0.00     0.017 A 
ATOM     13  Br  UNL     1     -84.944 -21.545  88.607  1.00  0.00    -0.051 Br
ENDBRANCH   6   7
BRANCH   6  14
ATOM     14  C   UNL     1     -78.371 -20.143  86.851  1.00  0.00     0.048 A 
ATOM     15  C   UNL     1     -77.859 -18.863  87.137  1.00  0.00     0.024 A 
ATOM     16  N   UNL     1     -77.887 -21.218  87.534  1.00  0.00    -0.261 NA
ATOM     17  C   UNL     1     -76.860 -18.723  88.102  1.00  0.00     0.003 A 
ATOM     18  C   UNL     1     -76.915 -21.100  88.477  1.00  0.00     0.111 A 
ATOM     19  C   UNL     1     -76.381 -19.846  88.777  1.00  0.00     0.020 A 
ENDBRANCH   6  14
ENDBRANCH   1   6
TORSDOF 5
ENDMDL
MODEL 3
REMARK VINA RESULT:    -7.122      3.177      6.388
REMARK INTER + INTRA:          -9.812
REMARK INTER:                 -10.058
REMARK INTRA:                   0.246
REMARK UNBOUND:                -0.608
REMARK SMILES CN(C)CCC(c1ccc(Br)cc1)c1ccccn1
REMARK SMILES IDX 5 1 4 2 2 3 1 4 3 5 6 6 7 7 8 8 13 9 9 10 12 11 10 12 11 13
REMARK SMILES IDX 14 14 15 15 19 16 16 17 18 18 17 19
REMARK H PARENT
REMARK Flexibility Score: inf
ROOT
ATOM      1  C   UNL     1     -80.853 -19.984  85.786  1.00  0.00     0.030 C 
ENDROOT
BRANCH   1   2
ATOM      2  C   UNL     1     -81.410 -21.340  86.252  1.00  0.00     0.085 C 
BRANCH   2   3
ATOM      3  N   UNL     1     -82.864 -21.422  85.990  1.00  0.00    -0.309 NA
ATOM      4  C   UNL     1     -83.333 -22.809  86.142  1.00  0.00     0.104 C 
ATOM      5  C   UNL     1     -83.616 -20.550  86.911  1.00  0.00     0.104 C 
ENDBRANCH   2   3
ENDBRANCH   1   2
BRANCH   1   6
ATOM      6  C   UNL     1     -79.337 -20.051  85.480  1.00  0.00     0.069 C 
BRANCH   6   7
ATOM      7  C   UNL     1     -78.454 -19.603  86.635  1.00  0.00    -0.039 A 
ATOM      8  C   UNL     1     -77.662 -18.439  86.559  1.00  0.00     0.005 A 
ATOM      9  C   UNL     1     -78.383 -20.394  87.796  1.00  0.00     0.005 A 
ATOM     10  C   UNL     1     -76.843 -18.068  87.628  1.00  0.00     0.016 A 
ATOM     11  C   UNL     1     -77.562 -20.019  88.863  1.00  0.00     0.016 A 
ATOM     12  C   UNL     1     -76.794 -18.855  88.782  1.00  0.00     0.017 A 
ATOM     13  Br  UNL     1     -75.672 -18.345  90.240  1.00  0.00    -0.051 Br
ENDBRANCH   6   7
BRANCH   6  14
ATOM     14  C   UNL     1     -78.977 -19.294  84.219  1.00  0.00     0.048 A 
ATOM     15  C   UNL     1     -79.958 -18.822  83.326  1.00  0.00     0.024 A 
ATOM     16  N   UNL     1     -77.665 -19.030  83.962  1.00  0.00    -0.261 NA
ATOM     17  C   UNL     1     -79.568 -18.108  82.192  1.00  0.00     0.003 A 
ATOM     18  C   UNL     1     -77.267 -18.336  82.863  1.00  0.00     0.111 A 
ATOM     19  C   UNL     1     -78.215 -17.862  81.955  1.00  0.00     0.020 A 
ENDBRANCH   6  14
ENDBRANCH   1   6
TORSDOF 5
ENDMDL
MODEL 4
REMARK VINA RESULT:    -6.960      3.720      7.079
REMARK INTER + INTRA:          -9.603
REMARK INTER:                  -8.857
REMARK INTRA:                  -0.745
REMARK UNBOUND:                -0.608
REMARK SMILES CN(C)CCC(c1ccc(Br)cc1)c1ccccn1
REMARK SMILES IDX 5 1 4 2 2 3 1 4 3 5 6 6 7 7 8 8 13 9 9 10 12 11 10 12 11 13
REMARK SMILES IDX 14 14 15 15 19 16 16 17 18 18 17 19
REMARK H PARENT
REMARK Flexibility Score: inf
ROOT
ATOM      1  C   UNL     1     -79.182 -19.436  84.948  1.00  0.00     0.030 C 
ENDROOT
BRANCH   1   2
ATOM      2  C   UNL     1     -78.541 -19.539  83.553  1.00  0.00     0.085 C 
BRANCH   2   3
ATOM      3  N   UNL     1     -77.972 -18.235  83.146  1.00  0.00    -0.309 NA
ATOM      4  C   UNL     1     -76.521 -18.356  82.932  1.00  0.00     0.104 C 
ATOM      5  C   UNL     1     -78.607 -17.745  81.909  1.00  0.00     0.104 C 
ENDBRANCH   2   3
ENDBRANCH   1   2
BRANCH   1   6
ATOM      6  C   UNL     1     -78.345 -20.164  86.029  1.00  0.00     0.069 C 
BRANCH   6   7
ATOM      7  C   UNL     1     -79.148 -20.584  87.250  1.00  0.00    -0.039 A 
ATOM      8  C   UNL     1     -78.551 -20.728  88.520  1.00  0.00     0.005 A 
ATOM      9  C   UNL     1     -80.515 -20.888  87.108  1.00  0.00     0.005 A 
ATOM     10  C   UNL     1     -79.311 -21.140  89.618  1.00  0.00     0.016 A 
ATOM     11  C   UNL     1     -81.271 -21.299  88.209  1.00  0.00     0.016 A 
ATOM     12  C   UNL     1     -80.671 -21.423  89.465  1.00  0.00     0.017 A 
ATOM     13  Br  UNL     1     -81.705 -21.987  90.968  1.00  0.00    -0.051 Br
ENDBRANCH   6   7
BRANCH   6  14
ATOM     14  C   UNL     1     -77.133 -19.360  86.447  1.00  0.00     0.048 A 
ATOM     15  C   UNL     1     -77.243 -18.046  86.940  1.00  0.00     0.024 A 
ATOM     16  N   UNL     1     -75.903 -19.942  86.378  1.00  0.00    -0.261 NA
ATOM     17  C   UNL     1     -76.091 -17.363  87.335  1.00  0.00     0.003 A 
ATOM     18  C   UNL     1     -74.771 -19.291  86.758  1.00  0.00     0.111 A 
ATOM     19  C   UNL     1     -74.846 -17.985  87.244  1.00  0.00     0.020 A 
ENDBRANCH   6  14
ENDBRANCH   1   6
TORSDOF 5
ENDMDL
MODEL 5
REMARK VINA RESULT:    -6.809      5.980      8.746
REMARK INTER + INTRA:          -9.408
REMARK INTER:                  -8.691
REMARK INTRA:                  -0.717
REMARK UNBOUND:                -0.608
REMARK SMILES CN(C)CCC(c1ccc(Br)cc1)c1ccccn1
REMARK SMILES IDX 5 1 4 2 2 3 1 4 3 5 6 6 7 7 8 8 13 9 9 10 12 11 10 12 11 13
REMARK SMILES IDX 14 14 15 15 19 16 16 17 18 18 17 19
REMARK H PARENT
REMARK Flexibility Score: inf
ROOT
ATOM      1  C   UNL     1     -74.554 -14.881  89.344  1.00  0.00     0.030 C 
ENDROOT
BRANCH   1   2
ATOM      2  C   UNL     1     -73.207 -14.277  89.778  1.00  0.00     0.085 C 
BRANCH   2   3
ATOM      3  N   UNL     1     -72.397 -13.915  88.595  1.00  0.00    -0.309 NA
ATOM      4  C   UNL     1     -71.022 -13.581  89.001  1.00  0.00     0.104 C 
ATOM      5  C   UNL     1     -72.362 -15.019  87.620  1.00  0.00     0.104 C 
ENDBRANCH   2   3
ENDBRANCH   1   2
BRANCH   1   6
ATOM      6  C   UNL     1     -74.785 -16.287  89.950  1.00  0.00     0.069 C 
BRANCH   6   7
ATOM      7  C   UNL     1     -75.708 -17.170  89.124  1.00  0.00    -0.039 A 
ATOM      8  C   UNL     1     -76.264 -18.357  89.644  1.00  0.00     0.005 A 
ATOM      9  C   UNL     1     -75.981 -16.825  87.788  1.00  0.00     0.005 A 
ATOM     10  C   UNL     1     -77.089 -19.160  88.852  1.00  0.00     0.016 A 
ATOM     11  C   UNL     1     -76.807 -17.631  86.999  1.00  0.00     0.016 A 
ATOM     12  C   UNL     1     -77.363 -18.797  87.531  1.00  0.00     0.017 A 
ATOM     13  Br  UNL     1     -78.490 -19.898  86.451  1.00  0.00    -0.051 Br
ENDBRANCH   6   7
BRANCH   6  14
ATOM     14  C   UNL     1     -75.268 -16.216  91.383  1.00  0.00     0.048 A 
ATOM     15  C   UNL     1     -76.456 -15.550  91.739  1.00  0.00     0.024 A 
ATOM     16  N   UNL     1     -74.548 -16.850  92.351  1.00  0.00    -0.261 NA
ATOM     17  C   UNL     1     -76.865 -15.540  93.074  1.00  0.00     0.003 A 
ATOM     18  C   UNL     1     -74.931 -16.851  93.655  1.00  0.00     0.111 A 
ATOM     19  C   UNL     1     -76.099 -16.192  94.041  1.00  0.00     0.020 A 
ENDBRANCH   6  14
ENDBRANCH   1   6
TORSDOF 5
ENDMDL
MODEL 6
REMARK VINA RESULT:    -6.766      2.982      4.868
REMARK INTER + INTRA:          -9.351
REMARK INTER:                  -8.739
REMARK INTRA:                  -0.612
REMARK UNBOUND:                -0.608
REMARK SMILES CN(C)CCC(c1ccc(Br)cc1)c1ccccn1
REMARK SMILES IDX 5 1 4 2 2 3 1 4 3 5 6 6 7 7 8 8 13 9 9 10 12 11 10 12 11 13
REMARK SMILES IDX 14 14 15 15 19 16 16 17 18 18 17 19
REMARK H PARENT
REMARK Flexibility Score: inf
ROOT
ATOM      1  C   UNL     1     -80.245 -20.393  85.399  1.00  0.00     0.030 C 
ENDROOT
BRANCH   1   2
ATOM      2  C   UNL     1     -80.761 -19.243  84.517  1.00  0.00     0.085 C 
BRANCH   2   3
ATOM      3  N   UNL     1     -79.632 -18.541  83.867  1.00  0.00    -0.309 NA
ATOM      4  C   UNL     1     -78.368 -19.245  84.141  1.00  0.00     0.104 C 
ATOM      5  C   UNL     1     -79.834 -18.453  82.410  1.00  0.00     0.104 C 
ENDBRANCH   2   3
ENDBRANCH   1   2
BRANCH   1   6
ATOM      6  C   UNL     1     -80.905 -20.396  86.799  1.00  0.00     0.069 C 
BRANCH   6   7
ATOM      7  C   UNL     1     -79.948 -20.734  87.932  1.00  0.00    -0.039 A 
ATOM      8  C   UNL     1     -80.410 -21.154  89.197  1.00  0.00     0.005 A 
ATOM      9  C   UNL     1     -78.564 -20.578  87.736  1.00  0.00     0.005 A 
ATOM     10  C   UNL     1     -79.506 -21.432  90.225  1.00  0.00     0.016 A 
ATOM     11  C   UNL     1     -77.663 -20.858  88.767  1.00  0.00     0.016 A 
ATOM     12  C   UNL     1     -78.132 -21.288  90.011  1.00  0.00     0.017 A 
ATOM     13  Br  UNL     1     -76.900 -21.669  91.419  1.00  0.00    -0.051 Br
ENDBRANCH   6   7
BRANCH   6  14
ATOM     14  C   UNL     1     -82.121 -21.296  86.853  1.00  0.00     0.048 A 
ATOM     15  C   UNL     1     -83.286 -20.936  87.557  1.00  0.00     0.024 A 
ATOM     16  N   UNL     1     -82.099 -22.473  86.167  1.00  0.00    -0.261 NA
ATOM     17  C   UNL     1     -84.386 -21.795  87.549  1.00  0.00     0.003 A 
ATOM     18  C   UNL     1     -83.161 -23.322  86.149  1.00  0.00     0.111 A 
ATOM     19  C   UNL     1     -84.327 -22.997  86.844  1.00  0.00     0.020 A 
ENDBRANCH   6  14
ENDBRANCH   1   6
TORSDOF 5
ENDMDL
MODEL 7
REMARK VINA RESULT:    -6.737      1.647      4.865
REMARK INTER + INTRA:          -9.314
REMARK INTER:                  -9.006
REMARK INTRA:                  -0.308
REMARK UNBOUND:                -0.608
REMARK SMILES CN(C)CCC(c1ccc(Br)cc1)c1ccccn1
REMARK SMILES IDX 5 1 4 2 2 3 1 4 3 5 6 6 7 7 8 8 13 9 9 10 12 11 10 12 11 13
REMARK SMILES IDX 14 14 15 15 19 16 16 17 18 18 17 19
REMARK H PARENT
REMARK Flexibility Score: inf
ROOT
ATOM      1  C   UNL     1     -81.075 -21.272  86.259  1.00  0.00     0.030 C 
ENDROOT
BRANCH   1   2
ATOM      2  C   UNL     1     -82.517 -20.737  86.291  1.00  0.00     0.085 C 
BRANCH   2   3
ATOM      3  N   UNL     1     -83.441 -21.769  86.810  1.00  0.00    -0.309 NA
ATOM      4  C   UNL     1     -83.201 -23.055  86.133  1.00  0.00     0.104 C 
ATOM      5  C   UNL     1     -83.274 -21.946  88.263  1.00  0.00     0.104 C 
ENDBRANCH   2   3
ENDBRANCH   1   2
BRANCH   1   6
ATOM      6  C   UNL     1     -80.060 -20.247  86.822  1.00  0.00     0.069 C 
BRANCH   6   7
ATOM      7  C   UNL     1     -79.162 -19.623  85.765  1.00  0.00    -0.039 A 
ATOM      8  C   UNL     1     -79.323 -19.903  84.392  1.00  0.00     0.005 A 
ATOM      9  C   UNL     1     -78.109 -18.780  86.164  1.00  0.00     0.005 A 
ATOM     10  C   UNL     1     -78.466 -19.333  83.447  1.00  0.00     0.016 A 
ATOM     11  C   UNL     1     -77.254 -18.211  85.215  1.00  0.00     0.016 A 
ATOM     12  C   UNL     1     -77.433 -18.485  83.856  1.00  0.00     0.017 A 
ATOM     13  Br  UNL     1     -76.263 -17.708  82.562  1.00  0.00    -0.051 Br
ENDBRANCH   6   7
BRANCH   6  14
ATOM     14  C   UNL     1     -79.226 -20.830  87.943  1.00  0.00     0.048 A 
ATOM     15  C   UNL     1     -79.715 -20.937  89.259  1.00  0.00     0.024 A 
ATOM     16  N   UNL     1     -77.978 -21.298  87.659  1.00  0.00    -0.261 NA
ATOM     17  C   UNL     1     -78.909 -21.507  90.246  1.00  0.00     0.003 A 
ATOM     18  C   UNL     1     -77.180 -21.855  88.608  1.00  0.00     0.111 A 
ATOM     19  C   UNL     1     -77.633 -21.969  89.923  1.00  0.00     0.020 A 
ENDBRANCH   6  14
ENDBRANCH   1   6
TORSDOF 5
ENDMDL
MODEL 8
REMARK VINA RESULT:    -6.646      3.773      6.237
REMARK INTER + INTRA:          -9.196
REMARK INTER:                  -8.881
REMARK INTRA:                  -0.315
REMARK UNBOUND:                -0.608
REMARK SMILES CN(C)CCC(c1ccc(Br)cc1)c1ccccn1
REMARK SMILES IDX 5 1 4 2 2 3 1 4 3 5 6 6 7 7 8 8 13 9 9 10 12 11 10 12 11 13
REMARK SMILES IDX 14 14 15 15 19 16 16 17 18 18 17 19
REMARK H PARENT
REMARK Flexibility Score: inf
ROOT
ATOM      1  C   UNL     1     -78.763 -20.033  87.650  1.00  0.00     0.030 C 
ENDROOT
BRANCH   1   2
ATOM      2  C   UNL     1     -78.467 -21.250  88.542  1.00  0.00     0.085 C 
BRANCH   2   3
ATOM      3  N   UNL     1     -78.820 -20.961  89.950  1.00  0.00    -0.309 NA
ATOM      4  C   UNL     1     -80.158 -21.492  90.260  1.00  0.00     0.104 C 
ATOM      5  C   UNL     1     -77.836 -21.552  90.874  1.00  0.00     0.104 C 
ENDBRANCH   2   3
ENDBRANCH   1   2
BRANCH   1   6
ATOM      6  C   UNL     1     -77.498 -19.527  86.915  1.00  0.00     0.069 C 
BRANCH   6   7
ATOM      7  C   UNL     1     -76.802 -18.367  87.612  1.00  0.00    -0.039 A 
ATOM      8  C   UNL     1     -76.442 -17.192  86.920  1.00  0.00     0.005 A 
ATOM      9  C   UNL     1     -76.461 -18.483  88.972  1.00  0.00     0.005 A 
ATOM     10  C   UNL     1     -75.782 -16.154  87.583  1.00  0.00     0.016 A 
ATOM     11  C   UNL     1     -75.800 -17.442  89.631  1.00  0.00     0.016 A 
ATOM     12  C   UNL     1     -75.462 -16.276  88.938  1.00  0.00     0.017 A 
ATOM     13  Br  UNL     1     -74.558 -14.856  89.840  1.00  0.00    -0.051 Br
ENDBRANCH   6   7
BRANCH   6  14
ATOM     14  C   UNL     1     -77.780 -19.179  85.470  1.00  0.00     0.048 A 
ATOM     15  C   UNL     1     -79.074 -18.853  85.019  1.00  0.00     0.024 A 
ATOM     16  N   UNL     1     -76.743 -19.145  84.587  1.00  0.00    -0.261 NA
ATOM     17  C   UNL     1     -79.270 -18.515  83.679  1.00  0.00     0.003 A 
ATOM     18  C   UNL     1     -76.916 -18.819  83.278  1.00  0.00     0.111 A 
ATOM     19  C   UNL     1     -78.187 -18.498  82.800  1.00  0.00     0.020 A 
ENDBRANCH   6  14
ENDBRANCH   1   6
TORSDOF 5
ENDMDL
MODEL 9
REMARK VINA RESULT:    -6.612      3.271      6.696
REMARK INTER + INTRA:          -9.153
REMARK INTER:                  -8.624
REMARK INTRA:                  -0.529
REMARK UNBOUND:                -0.608
REMARK SMILES CN(C)CCC(c1ccc(Br)cc1)c1ccccn1
REMARK SMILES IDX 5 1 4 2 2 3 1 4 3 5 6 6 7 7 8 8 13 9 9 10 12 11 10 12 11 13
REMARK SMILES IDX 14 14 15 15 19 16 16 17 18 18 17 19
REMARK H PARENT
REMARK Flexibility Score: inf
ROOT
ATOM      1  C   UNL     1     -77.545 -18.815  85.671  1.00  0.00     0.030 C 
ENDROOT
BRANCH   1   2
ATOM      2  C   UNL     1     -76.417 -18.985  84.638  1.00  0.00     0.085 C 
BRANCH   2   3
ATOM      3  N   UNL     1     -76.957 -18.901  83.263  1.00  0.00    -0.309 NA
ATOM      4  C   UNL     1     -78.419 -18.732  83.298  1.00  0.00     0.104 C 
ATOM      5  C   UNL     1     -76.354 -17.775  82.527  1.00  0.00     0.104 C 
ENDBRANCH   2   3
ENDBRANCH   1   2
BRANCH   1   6
ATOM      6  C   UNL     1     -77.508 -19.914  86.760  1.00  0.00     0.069 C 
BRANCH   6   7
ATOM      7  C   UNL     1     -78.882 -20.414  87.179  1.00  0.00    -0.039 A 
ATOM      8  C   UNL     1     -79.150 -20.837  88.497  1.00  0.00     0.005 A 
ATOM      9  C   UNL     1     -79.906 -20.505  86.218  1.00  0.00     0.005 A 
ATOM     10  C   UNL     1     -80.417 -21.314  88.845  1.00  0.00     0.016 A 
ATOM     11  C   UNL     1     -81.172 -20.983  86.570  1.00  0.00     0.016 A 
ATOM     12  C   UNL     1     -81.429 -21.385  87.884  1.00  0.00     0.017 A 
ATOM     13  Br  UNL     1     -83.158 -22.039  88.362  1.00  0.00    -0.051 Br
ENDBRANCH   6   7
BRANCH   6  14
ATOM     14  C   UNL     1     -76.712 -19.486  87.974  1.00  0.00     0.048 A 
ATOM     15  C   UNL     1     -76.656 -18.143  88.394  1.00  0.00     0.024 A 
ATOM     16  N   UNL     1     -76.060 -20.436  88.702  1.00  0.00    -0.261 NA
ATOM     17  C   UNL     1     -75.926 -17.811  89.537  1.00  0.00     0.003 A 
ATOM     18  C   UNL     1     -75.345 -20.130  89.817  1.00  0.00     0.111 A 
ATOM     19  C   UNL     1     -75.263 -18.807  90.254  1.00  0.00     0.020 A 
ENDBRANCH   6  14
ENDBRANCH   1   6
TORSDOF 5
ENDMDL
MODEL 10
REMARK VINA RESULT:    -6.558      1.139      4.514
REMARK INTER + INTRA:          -9.083
REMARK INTER:                  -9.753
REMARK INTRA:                   0.669
REMARK UNBOUND:                -0.608
REMARK SMILES CN(C)CCC(c1ccc(Br)cc1)c1ccccn1
REMARK SMILES IDX 5 1 4 2 2 3 1 4 3 5 6 6 7 7 8 8 13 9 9 10 12 11 10 12 11 13
REMARK SMILES IDX 14 14 15 15 19 16 16 17 18 18 17 19
REMARK H PARENT
REMARK Flexibility Score: inf
ROOT
ATOM      1  C   UNL     1     -82.333 -22.388  86.962  1.00  0.00     0.030 C 
ENDROOT
BRANCH   1   2
ATOM      2  C   UNL     1     -83.865 -22.248  86.953  1.00  0.00     0.085 C 
BRANCH   2   3
ATOM      3  N   UNL     1     -84.317 -21.426  88.097  1.00  0.00    -0.309 NA
ATOM      4  C   UNL     1     -84.718 -20.087  87.635  1.00  0.00     0.104 C 
ATOM      5  C   UNL     1     -85.453 -22.062  88.788  1.00  0.00     0.104 C 
ENDBRANCH   2   3
ENDBRANCH   1   2
BRANCH   1   6
ATOM      6  C   UNL     1     -81.627 -21.052  87.300  1.00  0.00     0.069 C 
BRANCH   6   7
ATOM      7  C   UNL     1     -80.993 -20.368  86.099  1.00  0.00    -0.039 A 
ATOM      8  C   UNL     1     -79.621 -20.507  85.802  1.00  0.00     0.005 A 
ATOM      9  C   UNL     1     -81.780 -19.533  85.285  1.00  0.00     0.005 A 
ATOM     10  C   UNL     1     -79.063 -19.846  84.705  1.00  0.00     0.016 A 
ATOM     11  C   UNL     1     -81.217 -18.873  84.188  1.00  0.00     0.016 A 
ATOM     12  C   UNL     1     -79.860 -19.031  83.896  1.00  0.00     0.017 A 
ATOM     13  Br  UNL     1     -79.093 -18.128  82.398  1.00  0.00    -0.051 Br
ENDBRANCH   6   7
BRANCH   6  14
ATOM     14  C   UNL     1     -80.613 -21.211  88.412  1.00  0.00     0.048 A 
ATOM     15  C   UNL     1     -79.267 -20.826  88.255  1.00  0.00     0.024 A 
ATOM     16  N   UNL     1     -81.024 -21.707  89.612  1.00  0.00    -0.261 NA
ATOM     17  C   UNL     1     -78.382 -20.972  89.324  1.00  0.00     0.003 A 
ATOM     18  C   UNL     1     -80.176 -21.856  90.664  1.00  0.00     0.111 A 
ATOM     19  C   UNL     1     -78.835 -21.491  90.537  1.00  0.00     0.020 A 
ENDBRANCH   6  14
ENDBRANCH   1   6
TORSDOF 5
ENDMDL
MODEL 11
REMARK VINA RESULT:    -6.532      4.224      6.936
REMARK INTER + INTRA:          -9.050
REMARK INTER:                  -8.420
REMARK INTRA:                  -0.630
REMARK UNBOUND:                -0.608
REMARK SMILES CN(C)CCC(c1ccc(Br)cc1)c1ccccn1
REMARK SMILES IDX 5 1 4 2 2 3 1 4 3 5 6 6 7 7 8 8 13 9 9 10 12 11 10 12 11 13
REMARK SMILES IDX 14 14 15 15 19 16 16 17 18 18 17 19
REMARK H PARENT
REMARK Flexibility Score: inf
ROOT
ATOM      1  C   UNL     1     -76.271 -17.932  87.509  1.00  0.00     0.030 C 
ENDROOT
BRANCH   1   2
ATOM      2  C   UNL     1     -75.745 -16.488  87.561  1.00  0.00     0.085 C 
BRANCH   2   3
ATOM      3  N   UNL     1     -75.733 -15.990  88.954  1.00  0.00    -0.309 NA
ATOM      4  C   UNL     1     -75.711 -17.119  89.899  1.00  0.00     0.104 C 
ATOM      5  C   UNL     1     -74.562 -15.130  89.197  1.00  0.00     0.104 C 
ENDBRANCH   2   3
ENDBRANCH   1   2
BRANCH   1   6
ATOM      6  C   UNL     1     -76.929 -18.265  86.147  1.00  0.00     0.069 C 
BRANCH   6   7
ATOM      7  C   UNL     1     -78.163 -19.148  86.258  1.00  0.00    -0.039 A 
ATOM      8  C   UNL     1     -79.169 -19.149  85.270  1.00  0.00     0.005 A 
ATOM      9  C   UNL     1     -78.335 -19.955  87.398  1.00  0.00     0.005 A 
ATOM     10  C   UNL     1     -80.302 -19.954  85.412  1.00  0.00     0.016 A 
ATOM     11  C   UNL     1     -79.470 -20.759  87.536  1.00  0.00     0.016 A 
ATOM     12  C   UNL     1     -80.453 -20.761  86.543  1.00  0.00     0.017 A 
ATOM     13  Br  UNL     1     -82.003 -21.860  86.734  1.00  0.00    -0.051 Br
ENDBRANCH   6   7
BRANCH   6  14
ATOM     14  C   UNL     1     -75.941 -18.861  85.168  1.00  0.00     0.048 A 
ATOM     15  C   UNL     1     -74.859 -19.657  85.590  1.00  0.00     0.024 A 
ATOM     16  N   UNL     1     -76.128 -18.649  83.835  1.00  0.00    -0.261 NA
ATOM     17  C   UNL     1     -73.995 -20.201  84.639  1.00  0.00     0.003 A 
ATOM     18  C   UNL     1     -75.296 -19.171  82.895  1.00  0.00     0.111 A 
ATOM     19  C   UNL     1     -74.210 -19.958  83.283  1.00  0.00     0.020 A 
ENDBRANCH   6  14
ENDBRANCH   1   6
TORSDOF 5
ENDMDL
MODEL 12
REMARK VINA RESULT:    -6.513      4.158      7.174
REMARK INTER + INTRA:          -9.024
REMARK INTER:                  -8.380
REMARK INTRA:                  -0.644
REMARK UNBOUND:                -0.608
REMARK SMILES CN(C)CCC(c1ccc(Br)cc1)c1ccccn1
REMARK SMILES IDX 5 1 4 2 2 3 1 4 3 5 6 6 7 7 8 8 13 9 9 10 12 11 10 12 11 13
REMARK SMILES IDX 14 14 15 15 19 16 16 17 18 18 17 19
REMARK H PARENT
REMARK Flexibility Score: inf
ROOT
ATOM      1  C   UNL     1     -79.034 -19.306  85.763  1.00  0.00     0.030 C 
ENDROOT
BRANCH   1   2
ATOM      2  C   UNL     1     -79.578 -20.721  86.021  1.00  0.00     0.085 C 
BRANCH   2   3
ATOM      3  N   UNL     1     -80.652 -20.687  87.038  1.00  0.00    -0.309 NA
ATOM      4  C   UNL     1     -81.765 -21.561  86.635  1.00  0.00     0.104 C 
ATOM      5  C   UNL     1     -80.147 -21.118  88.354  1.00  0.00     0.104 C 
ENDBRANCH   2   3
ENDBRANCH   1   2
BRANCH   1   6
ATOM      6  C   UNL     1     -77.488 -19.255  85.823  1.00  0.00     0.069 C 
BRANCH   6   7
ATOM      7  C   UNL     1     -76.942 -18.408  86.963  1.00  0.00    -0.039 A 
ATOM      8  C   UNL     1     -76.389 -17.130  86.742  1.00  0.00     0.005 A 
ATOM      9  C   UNL     1     -76.941 -18.929  88.270  1.00  0.00     0.005 A 
ATOM     10  C   UNL     1     -75.874 -16.387  87.807  1.00  0.00     0.016 A 
ATOM     11  C   UNL     1     -76.424 -18.182  89.333  1.00  0.00     0.016 A 
ATOM     12  C   UNL     1     -75.893 -16.910  89.103  1.00  0.00     0.017 A 
ATOM     13  Br  UNL     1     -75.186 -15.892  90.556  1.00  0.00    -0.051 Br
ENDBRANCH   6   7
BRANCH   6  14
ATOM     14  C   UNL     1     -76.881 -18.818  84.507  1.00  0.00     0.048 A 
ATOM     15  C   UNL     1     -75.581 -19.199  84.121  1.00  0.00     0.024 A 
ATOM     16  N   UNL     1     -77.632 -18.065  83.655  1.00  0.00    -0.261 NA
ATOM     17  C   UNL     1     -75.084 -18.787  82.883  1.00  0.00     0.003 A 
ATOM     18  C   UNL     1     -77.164 -17.655  82.446  1.00  0.00     0.111 A 
ATOM     19  C   UNL     1     -75.876 -18.009  82.038  1.00  0.00     0.020 A 
ENDBRANCH   6  14
ENDBRANCH   1   6
TORSDOF 5
ENDMDL
MODEL 13
REMARK VINA RESULT:    -6.437      3.223      5.747
REMARK INTER + INTRA:          -8.926
REMARK INTER:                  -9.130
REMARK INTRA:                   0.204
REMARK UNBOUND:                -0.608
REMARK SMILES CN(C)CCC(c1ccc(Br)cc1)c1ccccn1
REMARK SMILES IDX 5 1 4 2 2 3 1 4 3 5 6 6 7 7 8 8 13 9 9 10 12 11 10 12 11 13
REMARK SMILES IDX 14 14 15 15 19 16 16 17 18 18 17 19
REMARK H PARENT
REMARK Flexibility Score: inf
ROOT
ATOM      1  C   UNL     1     -79.775 -20.460  87.043  1.00  0.00     0.030 C 
ENDROOT
BRANCH   1   2
ATOM      2  C   UNL     1     -80.611 -21.565  86.375  1.00  0.00     0.085 C 
BRANCH   2   3
ATOM      3  N   UNL     1     -81.978 -21.594  86.940  1.00  0.00    -0.309 NA
ATOM      4  C   UNL     1     -82.798 -22.598  86.241  1.00  0.00     0.104 C 
ATOM      5  C   UNL     1     -81.948 -21.908  88.380  1.00  0.00     0.104 C 
ENDBRANCH   2   3
ENDBRANCH   1   2
BRANCH   1   6
ATOM      6  C   UNL     1     -78.654 -19.934  86.114  1.00  0.00     0.069 C 
BRANCH   6   7
ATOM      7  C   UNL     1     -77.740 -18.909  86.768  1.00  0.00    -0.039 A 
ATOM      8  C   UNL     1     -77.304 -17.757  86.083  1.00  0.00     0.005 A 
ATOM      9  C   UNL     1     -77.274 -19.135  88.076  1.00  0.00     0.005 A 
ATOM     10  C   UNL     1     -76.445 -16.846  86.703  1.00  0.00     0.016 A 
ATOM     11  C   UNL     1     -76.415 -18.221  88.693  1.00  0.00     0.016 A 
ATOM     12  C   UNL     1     -76.001 -17.076  88.008  1.00  0.00     0.017 A 
ATOM     13  Br  UNL     1     -74.826 -15.829  88.852  1.00  0.00    -0.051 Br
ENDBRANCH   6   7
BRANCH   6  14
ATOM     14  C   UNL     1     -79.203 -19.394  84.810  1.00  0.00     0.048 A 
ATOM     15  C   UNL     1     -78.385 -19.199  83.680  1.00  0.00     0.024 A 
ATOM     16  N   UNL     1     -80.535 -19.124  84.719  1.00  0.00    -0.261 NA
ATOM     17  C   UNL     1     -78.952 -18.722  82.497  1.00  0.00     0.003 A 
ATOM     18  C   UNL     1     -81.104 -18.659  83.576  1.00  0.00     0.111 A 
ATOM     19  C   UNL     1     -80.319 -18.448  82.441  1.00  0.00     0.020 A 
ENDBRANCH   6  14
ENDBRANCH   1   6
TORSDOF 5
ENDMDL
MODEL 14
REMARK VINA RESULT:    -6.371      2.759      5.242
REMARK INTER + INTRA:          -8.842
REMARK INTER:                  -9.015
REMARK INTRA:                   0.173
REMARK UNBOUND:                -0.608
REMARK SMILES CN(C)CCC(c1ccc(Br)cc1)c1ccccn1
REMARK SMILES IDX 5 1 4 2 2 3 1 4 3 5 6 6 7 7 8 8 13 9 9 10 12 11 10 12 11 13
REMARK SMILES IDX 14 14 15 15 19 16 16 17 18 18 17 19
REMARK H PARENT
REMARK Flexibility Score: inf
ROOT
ATOM      1  C   UNL     1     -77.631 -21.597  87.886  1.00  0.00     0.030 C 
ENDROOT
BRANCH   1   2
ATOM      2  C   UNL     1     -77.013 -21.667  89.293  1.00  0.00     0.085 C 
BRANCH   2   3
ATOM      3  N   UNL     1     -76.885 -20.311  89.872  1.00  0.00    -0.309 NA
ATOM      4  C   UNL     1     -77.082 -20.358  91.330  1.00  0.00     0.104 C 
ATOM      5  C   UNL     1     -75.560 -19.735  89.579  1.00  0.00     0.104 C 
ENDBRANCH   2   3
ENDBRANCH   1   2
BRANCH   1   6
ATOM      6  C   UNL     1     -78.647 -20.436  87.753  1.00  0.00     0.069 C 
BRANCH   6   7
ATOM      7  C   UNL     1     -80.101 -20.878  87.831  1.00  0.00    -0.039 A 
ATOM      8  C   UNL     1     -80.949 -20.850  86.704  1.00  0.00     0.005 A 
ATOM      9  C   UNL     1     -80.635 -21.280  89.069  1.00  0.00     0.005 A 
ATOM     10  C   UNL     1     -82.286 -21.239  86.813  1.00  0.00     0.016 A 
ATOM     11  C   UNL     1     -81.974 -21.669  89.173  1.00  0.00     0.016 A 
ATOM     12  C   UNL     1     -82.800 -21.651  88.046  1.00  0.00     0.017 A 
ATOM     13  Br  UNL     1     -84.629 -22.180  88.192  1.00  0.00    -0.051 Br
ENDBRANCH   6   7
BRANCH   6  14
ATOM     14  C   UNL     1     -78.413 -19.615  86.504  1.00  0.00     0.048 A 
ATOM     15  C   UNL     1     -77.661 -18.425  86.523  1.00  0.00     0.024 A 
ATOM     16  N   UNL     1     -78.915 -20.063  85.319  1.00  0.00    -0.261 NA
ATOM     17  C   UNL     1     -77.457 -17.723  85.334  1.00  0.00     0.003 A 
ATOM     18  C   UNL     1     -78.726 -19.392  84.152  1.00  0.00     0.111 A 
ATOM     19  C   UNL     1     -77.992 -18.205  84.139  1.00  0.00     0.020 A 
ENDBRANCH   6  14
ENDBRANCH   1   6
TORSDOF 5
ENDMDL
MODEL 15
REMARK VINA RESULT:    -6.328      3.125      4.738
REMARK INTER + INTRA:          -8.786
REMARK INTER:                  -8.042
REMARK INTRA:                  -0.744
REMARK UNBOUND:                -0.608
REMARK SMILES CN(C)CCC(c1ccc(Br)cc1)c1ccccn1
REMARK SMILES IDX 5 1 4 2 2 3 1 4 3 5 6 6 7 7 8 8 13 9 9 10 12 11 10 12 11 13
REMARK SMILES IDX 14 14 15 15 19 16 16 17 18 18 17 19
REMARK H PARENT
REMARK Flexibility Score: inf
ROOT
ATOM      1  C   UNL     1     -78.395 -20.774  88.293  1.00  0.00     0.030 C 
ENDROOT
BRANCH   1   2
ATOM      2  C   UNL     1     -77.477 -21.873  88.856  1.00  0.00     0.085 C 
BRANCH   2   3
ATOM      3  N   UNL     1     -77.101 -21.569  90.254  1.00  0.00    -0.309 NA
ATOM      4  C   UNL     1     -76.356 -20.300  90.318  1.00  0.00     0.104 C 
ATOM      5  C   UNL     1     -78.295 -21.475  91.113  1.00  0.00     0.104 C 
ENDBRANCH   2   3
ENDBRANCH   1   2
BRANCH   1   6
ATOM      6  C   UNL     1     -78.037 -20.407  86.832  1.00  0.00     0.069 C 
BRANCH   6   7
ATOM      7  C   UNL     1     -76.935 -19.366  86.710  1.00  0.00    -0.039 A 
ATOM      8  C   UNL     1     -75.735 -19.630  86.018  1.00  0.00     0.005 A 
ATOM      9  C   UNL     1     -77.089 -18.120  87.345  1.00  0.00     0.005 A 
ATOM     10  C   UNL     1     -74.731 -18.661  85.944  1.00  0.00     0.016 A 
ATOM     11  C   UNL     1     -76.081 -17.153  87.268  1.00  0.00     0.016 A 
ATOM     12  C   UNL     1     -74.904 -17.422  86.566  1.00  0.00     0.017 A 
ATOM     13  Br  UNL     1     -73.528 -16.101  86.465  1.00  0.00    -0.051 Br
ENDBRANCH   6   7
BRANCH   6  14
ATOM     14  C   UNL     1     -79.254 -19.980  86.039  1.00  0.00     0.048 A 
ATOM     15  C   UNL     1     -79.150 -19.176  84.887  1.00  0.00     0.024 A 
ATOM     16  N   UNL     1     -80.482 -20.420  86.431  1.00  0.00    -0.261 NA
ATOM     17  C   UNL     1     -80.304 -18.836  84.181  1.00  0.00     0.003 A 
ATOM     18  C   UNL     1     -81.617 -20.098  85.756  1.00  0.00     0.111 A 
ATOM     19  C   UNL     1     -81.548 -19.296  84.615  1.00  0.00     0.020 A 
ENDBRANCH   6  14
ENDBRANCH   1   6
TORSDOF 5
ENDMDL
