MODEL 1
REMARK VINA RESULT:    -8.423      0.000      0.000
REMARK INTER + INTRA:         -12.095
REMARK INTER:                 -11.378
REMARK INTRA:                  -0.717
REMARK UNBOUND:                -0.717
REMARK SMILES CN1CCC[C@@H]1CCO[C@](C)(c1ccccc1)c1ccc(Cl)cc1
REMARK SMILES IDX 8 1 7 2 6 3 1 4 2 5 3 6 4 7 5 8 9 9 10 10 11 11 12 12 13 13
REMARK SMILES IDX 17 14 14 15 16 16 15 17 18 18 19 19 24 20 20 21 23 22 21 23
REMARK SMILES IDX 22 24
REMARK H PARENT
REMARK Flexibility Score: inf
ROOT
ATOM      1  C   UNL     1     -79.227 -21.330  89.160  1.00  0.00     0.163 C 
ENDROOT
BRANCH   1   2
ATOM      2  C   UNL     1     -80.708 -21.518  89.533  1.00  0.00     0.047 C 
BRANCH   2   3
ATOM      3  C   UNL     1     -81.790 -21.109  88.488  1.00  0.00     0.058 C 
ATOM      4  C   UNL     1     -83.654 -21.211  90.110  1.00  0.00     0.105 C 
ATOM      5  N   UNL     1     -83.012 -20.465  89.011  1.00  0.00    -0.303 NA
ATOM      6  C   UNL     1     -83.902 -20.430  87.836  1.00  0.00     0.084 C 
ATOM      7  C   UNL     1     -83.528 -21.594  86.913  1.00  0.00     0.017 C 
ATOM      8  C   UNL     1     -82.233 -22.163  87.474  1.00  0.00     0.020 C 
ENDBRANCH   2   3
ENDBRANCH   1   2
BRANCH   1   9
ATOM      9  O   UNL     1     -79.095 -20.094  88.470  1.00  0.00    -0.366 OA
BRANCH   9  10
ATOM     10  C   UNL     1     -77.942 -20.009  87.630  1.00  0.00     0.115 C 
ATOM     11  C   UNL     1     -77.211 -21.381  87.549  1.00  0.00     0.053 C 
BRANCH  10  12
ATOM     12  C   UNL     1     -77.050 -18.854  88.122  1.00  0.00    -0.012 A 
ATOM     13  C   UNL     1     -76.588 -18.867  89.457  1.00  0.00     0.007 A 
ATOM     14  C   UNL     1     -76.732 -17.739  87.315  1.00  0.00     0.007 A 
ATOM     15  C   UNL     1     -75.831 -17.810  89.963  1.00  0.00     0.000 A 
ATOM     16  C   UNL     1     -75.954 -16.694  87.822  1.00  0.00     0.000 A 
ATOM     17  C   UNL     1     -75.509 -16.727  89.145  1.00  0.00     0.000 A 
ENDBRANCH  10  12
BRANCH  10  18
ATOM     18  C   UNL     1     -78.416 -19.681  86.207  1.00  0.00    -0.012 A 
ATOM     19  C   UNL     1     -79.796 -19.623  85.906  1.00  0.00     0.008 A 
ATOM     20  C   UNL     1     -77.499 -19.320  85.193  1.00  0.00     0.008 A 
ATOM     21  C   UNL     1     -80.242 -19.251  84.635  1.00  0.00     0.021 A 
ATOM     22  C   UNL     1     -77.949 -18.954  83.922  1.00  0.00     0.021 A 
ATOM     23  C   UNL     1     -79.319 -18.918  83.640  1.00  0.00     0.041 A 
ATOM     24  Cl  UNL     1     -79.877 -18.447  82.047  1.00  0.00    -0.084 Cl
ENDBRANCH  10  18
ENDBRANCH   9  10
ENDBRANCH   1   9
TORSDOF 6
ENDMDL
MODEL 2
REMARK VINA RESULT:    -8.351      2.890      5.856
REMARK INTER + INTRA:         -11.997
REMARK INTER:                 -10.684
REMARK INTRA:                  -1.313
REMARK UNBOUND:                -0.717
REMARK SMILES CN1CCC[C@@H]1CCO[C@](C)(c1ccccc1)c1ccc(Cl)cc1
REMARK SMILES IDX 8 1 7 2 6 3 1 4 2 5 3 6 4 7 5 8 9 9 10 10 11 11 12 12 13 13
REMARK SMILES IDX 17 14 14 15 16 16 15 17 18 18 19 19 24 20 20 21 23 22 21 23
REMARK SMILES IDX 22 24
REMARK H PARENT
REMARK Flexibility Score: inf
ROOT
ATOM      1  C   UNL     1     -76.391 -19.700  90.247  1.00  0.00     0.163 C 
ENDROOT
BRANCH   1   2
ATOM      2  C   UNL     1     -76.259 -18.437  91.116  1.00  0.00     0.047 C 
BRANCH   2   3
ATOM      3  C   UNL     1     -75.388 -17.261  90.580  1.00  0.00     0.058 C 
ATOM      4  C   UNL     1     -76.507 -15.557  91.981  1.00  0.00     0.105 C 
ATOM      5  N   UNL     1     -75.231 -16.090  91.468  1.00  0.00    -0.303 NA
ATOM      6  C   UNL     1     -74.580 -15.094  90.596  1.00  0.00     0.084 C 
ATOM      7  C   UNL     1     -74.982 -15.385  89.147  1.00  0.00     0.017 C 
ATOM      8  C   UNL     1     -75.695 -16.729  89.180  1.00  0.00     0.020 C 
ENDBRANCH   2   3
ENDBRANCH   1   2
BRANCH   1   9
ATOM      9  O   UNL     1     -77.649 -19.656  89.586  1.00  0.00    -0.366 OA
BRANCH   9  10
ATOM     10  C   UNL     1     -77.723 -20.459  88.406  1.00  0.00     0.115 C 
ATOM     11  C   UNL     1     -77.024 -21.833  88.625  1.00  0.00     0.053 C 
BRANCH  10  12
ATOM     12  C   UNL     1     -77.161 -19.655  87.220  1.00  0.00    -0.012 A 
ATOM     13  C   UNL     1     -76.043 -20.159  86.519  1.00  0.00     0.007 A 
ATOM     14  C   UNL     1     -77.672 -18.392  86.844  1.00  0.00     0.007 A 
ATOM     15  C   UNL     1     -75.462 -19.432  85.479  1.00  0.00     0.000 A 
ATOM     16  C   UNL     1     -77.099 -17.680  85.786  1.00  0.00     0.000 A 
ATOM     17  C   UNL     1     -75.993 -18.196  85.108  1.00  0.00     0.000 A 
ENDBRANCH  10  12
BRANCH  10  18
ATOM     18  C   UNL     1     -79.202 -20.759  88.129  1.00  0.00    -0.012 A 
ATOM     19  C   UNL     1     -79.704 -20.733  86.807  1.00  0.00     0.008 A 
ATOM     20  C   UNL     1     -80.073 -21.174  89.162  1.00  0.00     0.008 A 
ATOM     21  C   UNL     1     -81.031 -21.078  86.532  1.00  0.00     0.021 A 
ATOM     22  C   UNL     1     -81.400 -21.513  88.884  1.00  0.00     0.021 A 
ATOM     23  C   UNL     1     -81.881 -21.467  87.571  1.00  0.00     0.041 A 
ATOM     24  Cl  UNL     1     -83.542 -21.904  87.227  1.00  0.00    -0.084 Cl
ENDBRANCH  10  18
ENDBRANCH   9  10
ENDBRANCH   1   9
TORSDOF 6
ENDMDL
MODEL 3
REMARK VINA RESULT:    -8.326      2.775      4.553
REMARK INTER + INTRA:         -11.964
REMARK INTER:                 -10.723
REMARK INTRA:                  -1.241
REMARK UNBOUND:                -0.717
REMARK SMILES CN1CCC[C@@H]1CCO[C@](C)(c1ccccc1)c1ccc(Cl)cc1
REMARK SMILES IDX 8 1 7 2 6 3 1 4 2 5 3 6 4 7 5 8 9 9 10 10 11 11 12 12 13 13
REMARK SMILES IDX 17 14 14 15 16 16 15 17 18 18 19 19 24 20 20 21 23 22 21 23
REMARK SMILES IDX 22 24
REMARK H PARENT
REMARK Flexibility Score: inf
ROOT
ATOM      1  C   UNL     1     -79.210 -20.203  86.116  1.00  0.00     0.163 C 
ENDROOT
BRANCH   1   2
ATOM      2  C   UNL     1     -79.944 -20.837  87.311  1.00  0.00     0.047 C 
BRANCH   2   3
ATOM      3  C   UNL     1     -81.499 -20.930  87.256  1.00  0.00     0.058 C 
ATOM      4  C   UNL     1     -81.701 -21.895  89.525  1.00  0.00     0.105 C 
ATOM      5  N   UNL     1     -82.213 -20.913  88.549  1.00  0.00    -0.303 NA
ATOM      6  C   UNL     1     -83.599 -21.251  88.172  1.00  0.00     0.084 C 
ATOM      7  C   UNL     1     -83.558 -22.103  86.899  1.00  0.00     0.017 C 
ATOM      8  C   UNL     1     -82.116 -22.046  86.413  1.00  0.00     0.020 C 
ENDBRANCH   2   3
ENDBRANCH   1   2
BRANCH   1   9
ATOM      9  O   UNL     1     -77.830 -20.105  86.443  1.00  0.00    -0.366 OA
BRANCH   9  10
ATOM     10  C   UNL     1     -77.195 -18.916  85.968  1.00  0.00     0.115 C 
ATOM     11  C   UNL     1     -78.204 -18.021  85.190  1.00  0.00     0.053 C 
BRANCH  10  12
ATOM     12  C   UNL     1     -75.949 -19.307  85.153  1.00  0.00    -0.012 A 
ATOM     13  C   UNL     1     -75.978 -19.162  83.748  1.00  0.00     0.007 A 
ATOM     14  C   UNL     1     -74.799 -19.877  85.743  1.00  0.00     0.007 A 
ATOM     15  C   UNL     1     -74.895 -19.564  82.965  1.00  0.00     0.000 A 
ATOM     16  C   UNL     1     -73.710 -20.257  84.955  1.00  0.00     0.000 A 
ATOM     17  C   UNL     1     -73.759 -20.105  83.567  1.00  0.00     0.000 A 
ENDBRANCH  10  12
BRANCH  10  18
ATOM     18  C   UNL     1     -76.739 -18.103  87.188  1.00  0.00    -0.012 A 
ATOM     19  C   UNL     1     -76.755 -18.678  88.480  1.00  0.00     0.008 A 
ATOM     20  C   UNL     1     -76.188 -16.809  87.043  1.00  0.00     0.008 A 
ATOM     21  C   UNL     1     -76.271 -17.975  89.588  1.00  0.00     0.021 A 
ATOM     22  C   UNL     1     -75.711 -16.108  88.153  1.00  0.00     0.021 A 
ATOM     23  C   UNL     1     -75.750 -16.689  89.426  1.00  0.00     0.041 A 
ATOM     24  Cl  UNL     1     -75.139 -15.810  90.812  1.00  0.00    -0.084 Cl
ENDBRANCH  10  18
ENDBRANCH   9  10
ENDBRANCH   1   9
TORSDOF 6
ENDMDL
MODEL 4
REMARK VINA RESULT:    -8.279      3.173      6.903
REMARK INTER + INTRA:         -11.900
REMARK INTER:                 -11.767
REMARK INTRA:                  -0.133
REMARK UNBOUND:                -0.717
REMARK SMILES CN1CCC[C@@H]1CCO[C@](C)(c1ccccc1)c1ccc(Cl)cc1
REMARK SMILES IDX 8 1 7 2 6 3 1 4 2 5 3 6 4 7 5 8 9 9 10 10 11 11 12 12 13 13
REMARK SMILES IDX 17 14 14 15 16 16 15 17 18 18 19 19 24 20 20 21 23 22 21 23
REMARK SMILES IDX 22 24
REMARK H PARENT
REMARK Flexibility Score: inf
ROOT
ATOM      1  C   UNL     1     -76.102 -17.923  87.851  1.00  0.00     0.163 C 
ENDROOT
BRANCH   1   2
ATOM      2  C   UNL     1     -75.715 -16.465  87.548  1.00  0.00     0.047 C 
BRANCH   2   3
ATOM      3  C   UNL     1     -75.317 -15.544  88.741  1.00  0.00     0.058 C 
ATOM      4  C   UNL     1     -72.900 -16.031  88.544  1.00  0.00     0.105 C 
ATOM      5  N   UNL     1     -73.942 -15.004  88.736  1.00  0.00    -0.303 NA
ATOM      6  C   UNL     1     -73.815 -14.397  90.074  1.00  0.00     0.084 C 
ATOM      7  C   UNL     1     -74.746 -15.146  91.033  1.00  0.00     0.017 C 
ATOM      8  C   UNL     1     -75.598 -16.051  90.156  1.00  0.00     0.020 C 
ENDBRANCH   2   3
ENDBRANCH   1   2
BRANCH   1   9
ATOM      9  O   UNL     1     -77.408 -18.153  87.340  1.00  0.00    -0.366 OA
BRANCH   9  10
ATOM     10  C   UNL     1     -77.540 -19.355  86.578  1.00  0.00     0.115 C 
ATOM     11  C   UNL     1     -76.279 -20.255  86.738  1.00  0.00     0.053 C 
BRANCH  10  12
ATOM     12  C   UNL     1     -77.864 -18.989  85.119  1.00  0.00    -0.012 A 
ATOM     13  C   UNL     1     -76.810 -18.911  84.182  1.00  0.00     0.007 A 
ATOM     14  C   UNL     1     -79.167 -18.654  84.688  1.00  0.00     0.007 A 
ATOM     15  C   UNL     1     -77.050 -18.520  82.864  1.00  0.00     0.000 A 
ATOM     16  C   UNL     1     -79.405 -18.284  83.361  1.00  0.00     0.000 A 
ATOM     17  C   UNL     1     -78.347 -18.213  82.452  1.00  0.00     0.000 A 
ENDBRANCH  10  12
BRANCH  10  18
ATOM     18  C   UNL     1     -78.721 -20.151  87.150  1.00  0.00    -0.012 A 
ATOM     19  C   UNL     1     -78.762 -20.486  88.524  1.00  0.00     0.008 A 
ATOM     20  C   UNL     1     -79.844 -20.472  86.354  1.00  0.00     0.008 A 
ATOM     21  C   UNL     1     -79.867 -21.144  89.073  1.00  0.00     0.021 A 
ATOM     22  C   UNL     1     -80.944 -21.135  86.906  1.00  0.00     0.021 A 
ATOM     23  C   UNL     1     -80.958 -21.471  88.264  1.00  0.00     0.041 A 
ATOM     24  Cl  UNL     1     -82.346 -22.291  88.952  1.00  0.00    -0.084 Cl
ENDBRANCH  10  18
ENDBRANCH   9  10
ENDBRANCH   1   9
TORSDOF 6
ENDMDL
MODEL 5
REMARK VINA RESULT:    -8.253      1.216      1.635
REMARK INTER + INTRA:         -11.865
REMARK INTER:                 -10.956
REMARK INTRA:                  -0.908
REMARK UNBOUND:                -0.717
REMARK SMILES CN1CCC[C@@H]1CCO[C@](C)(c1ccccc1)c1ccc(Cl)cc1
REMARK SMILES IDX 8 1 7 2 6 3 1 4 2 5 3 6 4 7 5 8 9 9 10 10 11 11 12 12 13 13
REMARK SMILES IDX 17 14 14 15 16 16 15 17 18 18 19 19 24 20 20 21 23 22 21 23
REMARK SMILES IDX 22 24
REMARK H PARENT
REMARK Flexibility Score: inf
ROOT
ATOM      1  C   UNL     1     -79.562 -21.258  88.576  1.00  0.00     0.163 C 
ENDROOT
BRANCH   1   2
ATOM      2  C   UNL     1     -81.070 -21.136  88.858  1.00  0.00     0.047 C 
BRANCH   2   3
ATOM      3  C   UNL     1     -82.052 -22.000  88.011  1.00  0.00     0.058 C 
ATOM      4  C   UNL     1     -82.190 -20.358  86.166  1.00  0.00     0.105 C 
ATOM      5  N   UNL     1     -82.047 -21.775  86.551  1.00  0.00    -0.303 NA
ATOM      6  C   UNL     1     -83.217 -22.546  86.089  1.00  0.00     0.084 C 
ATOM      7  C   UNL     1     -84.234 -22.609  87.233  1.00  0.00     0.017 C 
ATOM      8  C   UNL     1     -83.514 -22.058  88.454  1.00  0.00     0.020 C 
ENDBRANCH   2   3
ENDBRANCH   1   2
BRANCH   1   9
ATOM      9  O   UNL     1     -79.099 -20.009  88.081  1.00  0.00    -0.366 OA
BRANCH   9  10
ATOM     10  C   UNL     1     -77.733 -20.011  87.662  1.00  0.00     0.115 C 
ATOM     11  C   UNL     1     -77.153 -21.456  87.665  1.00  0.00     0.053 C 
BRANCH  10  12
ATOM     12  C   UNL     1     -76.942 -19.019  88.534  1.00  0.00    -0.012 A 
ATOM     13  C   UNL     1     -76.728 -19.324  89.896  1.00  0.00     0.007 A 
ATOM     14  C   UNL     1     -76.480 -17.776  88.047  1.00  0.00     0.007 A 
ATOM     15  C   UNL     1     -76.072 -18.425  90.737  1.00  0.00     0.000 A 
ATOM     16  C   UNL     1     -75.804 -16.889  88.890  1.00  0.00     0.000 A 
ATOM     17  C   UNL     1     -75.605 -17.211  90.234  1.00  0.00     0.000 A 
ENDBRANCH  10  12
BRANCH  10  18
ATOM     18  C   UNL     1     -77.683 -19.522  86.208  1.00  0.00    -0.012 A 
ATOM     19  C   UNL     1     -78.852 -19.043  85.571  1.00  0.00     0.008 A 
ATOM     20  C   UNL     1     -76.459 -19.432  85.505  1.00  0.00     0.008 A 
ATOM     21  C   UNL     1     -78.805 -18.525  84.274  1.00  0.00     0.021 A 
ATOM     22  C   UNL     1     -76.419 -18.919  84.206  1.00  0.00     0.021 A 
ATOM     23  C   UNL     1     -77.589 -18.464  83.589  1.00  0.00     0.041 A 
ATOM     24  Cl  UNL     1     -77.529 -17.810  81.965  1.00  0.00    -0.084 Cl
ENDBRANCH  10  18
ENDBRANCH   9  10
ENDBRANCH   1   9
TORSDOF 6
ENDMDL
MODEL 6
REMARK VINA RESULT:    -8.227      2.816      6.030
REMARK INTER + INTRA:         -11.830
REMARK INTER:                 -11.411
REMARK INTRA:                  -0.419
REMARK UNBOUND:                -0.717
REMARK SMILES CN1CCC[C@@H]1CCO[C@](C)(c1ccccc1)c1ccc(Cl)cc1
REMARK SMILES IDX 8 1 7 2 6 3 1 4 2 5 3 6 4 7 5 8 9 9 10 10 11 11 12 12 13 13
REMARK SMILES IDX 17 14 14 15 16 16 15 17 18 18 19 19 24 20 20 21 23 22 21 23
REMARK SMILES IDX 22 24
REMARK H PARENT
REMARK Flexibility Score: inf
ROOT
ATOM      1  C   UNL     1     -76.492 -20.354  90.140  1.00  0.00     0.163 C 
ENDROOT
BRANCH   1   2
ATOM      2  C   UNL     1     -76.002 -19.370  91.217  1.00  0.00     0.047 C 
BRANCH   2   3
ATOM      3  C   UNL     1     -76.083 -17.843  90.912  1.00  0.00     0.058 C 
ATOM      4  C   UNL     1     -73.658 -17.618  90.480  1.00  0.00     0.105 C 
ATOM      5  N   UNL     1     -75.027 -17.280  90.046  1.00  0.00    -0.303 NA
ATOM      6  C   UNL     1     -75.247 -15.825  90.153  1.00  0.00     0.084 C 
ATOM      7  C   UNL     1     -75.887 -15.533  91.514  1.00  0.00     0.017 C 
ATOM      8  C   UNL     1     -76.254 -16.890  92.096  1.00  0.00     0.020 C 
ENDBRANCH   2   3
ENDBRANCH   1   2
BRANCH   1   9
ATOM      9  O   UNL     1     -77.646 -19.801  89.523  1.00  0.00    -0.366 OA
BRANCH   9  10
ATOM     10  C   UNL     1     -78.001 -20.414  88.281  1.00  0.00     0.115 C 
ATOM     11  C   UNL     1     -77.217 -21.743  88.074  1.00  0.00     0.053 C 
BRANCH  10  12
ATOM     12  C   UNL     1     -77.809 -19.391  87.147  1.00  0.00    -0.012 A 
ATOM     13  C   UNL     1     -78.289 -19.703  85.856  1.00  0.00     0.007 A 
ATOM     14  C   UNL     1     -77.105 -18.180  87.323  1.00  0.00     0.007 A 
ATOM     15  C   UNL     1     -78.080 -18.834  84.784  1.00  0.00     0.000 A 
ATOM     16  C   UNL     1     -76.918 -17.303  86.251  1.00  0.00     0.000 A 
ATOM     17  C   UNL     1     -77.400 -17.632  84.982  1.00  0.00     0.000 A 
ENDBRANCH  10  12
BRANCH  10  18
ATOM     18  C   UNL     1     -79.488 -20.789  88.347  1.00  0.00    -0.012 A 
ATOM     19  C   UNL     1     -80.263 -20.860  87.165  1.00  0.00     0.008 A 
ATOM     20  C   UNL     1     -80.094 -21.180  89.562  1.00  0.00     0.008 A 
ATOM     21  C   UNL     1     -81.598 -21.274  87.202  1.00  0.00     0.021 A 
ATOM     22  C   UNL     1     -81.431 -21.587  89.595  1.00  0.00     0.021 A 
ATOM     23  C   UNL     1     -82.184 -21.636  88.417  1.00  0.00     0.041 A 
ATOM     24  Cl  UNL     1     -83.855 -22.159  88.463  1.00  0.00    -0.084 Cl
ENDBRANCH  10  18
ENDBRANCH   9  10
ENDBRANCH   1   9
TORSDOF 6
ENDMDL
MODEL 7
REMARK VINA RESULT:    -8.074      3.453      7.027
REMARK INTER + INTRA:         -11.623
REMARK INTER:                 -10.463
REMARK INTRA:                  -1.160
REMARK UNBOUND:                -0.717
REMARK SMILES CN1CCC[C@@H]1CCO[C@](C)(c1ccccc1)c1ccc(Cl)cc1
REMARK SMILES IDX 8 1 7 2 6 3 1 4 2 5 3 6 4 7 5 8 9 9 10 10 11 11 12 12 13 13
REMARK SMILES IDX 17 14 14 15 16 16 15 17 18 18 19 19 24 20 20 21 23 22 21 23
REMARK SMILES IDX 22 24
REMARK H PARENT
REMARK Flexibility Score: inf
ROOT
ATOM      1  C   UNL     1     -75.390 -16.725  87.507  1.00  0.00     0.163 C 
ENDROOT
BRANCH   1   2
ATOM      2  C   UNL     1     -75.736 -16.234  88.923  1.00  0.00     0.047 C 
BRANCH   2   3
ATOM      3  C   UNL     1     -74.571 -15.772  89.850  1.00  0.00     0.058 C 
ATOM      4  C   UNL     1     -76.029 -15.443  91.821  1.00  0.00     0.105 C 
ATOM      5  N   UNL     1     -74.754 -15.974  91.302  1.00  0.00    -0.303 NA
ATOM      6  C   UNL     1     -73.621 -15.234  91.889  1.00  0.00     0.084 C 
ATOM      7  C   UNL     1     -73.237 -14.102  90.931  1.00  0.00     0.017 C 
ATOM      8  C   UNL     1     -74.027 -14.356  89.655  1.00  0.00     0.020 C 
ENDBRANCH   2   3
ENDBRANCH   1   2
BRANCH   1   9
ATOM      9  O   UNL     1     -75.884 -18.050  87.362  1.00  0.00    -0.366 OA
BRANCH   9  10
ATOM     10  C   UNL     1     -76.619 -18.277  86.158  1.00  0.00     0.115 C 
ATOM     11  C   UNL     1     -77.040 -16.929  85.502  1.00  0.00     0.053 C 
BRANCH  10  12
ATOM     12  C   UNL     1     -77.798 -19.219  86.463  1.00  0.00    -0.012 A 
ATOM     13  C   UNL     1     -78.834 -19.348  85.512  1.00  0.00     0.007 A 
ATOM     14  C   UNL     1     -77.927 -19.907  87.690  1.00  0.00     0.007 A 
ATOM     15  C   UNL     1     -79.952 -20.141  85.774  1.00  0.00     0.000 A 
ATOM     16  C   UNL     1     -79.039 -20.716  87.937  1.00  0.00     0.000 A 
ATOM     17  C   UNL     1     -80.053 -20.829  86.983  1.00  0.00     0.000 A 
ENDBRANCH  10  12
BRANCH  10  18
ATOM     18  C   UNL     1     -75.687 -18.978  85.159  1.00  0.00    -0.012 A 
ATOM     19  C   UNL     1     -75.846 -18.777  83.768  1.00  0.00     0.008 A 
ATOM     20  C   UNL     1     -74.585 -19.746  85.598  1.00  0.00     0.008 A 
ATOM     21  C   UNL     1     -74.958 -19.348  82.851  1.00  0.00     0.021 A 
ATOM     22  C   UNL     1     -73.704 -20.320  84.678  1.00  0.00     0.021 A 
ATOM     23  C   UNL     1     -73.887 -20.122  83.305  1.00  0.00     0.041 A 
ATOM     24  Cl  UNL     1     -72.771 -20.834  82.157  1.00  0.00    -0.084 Cl
ENDBRANCH  10  18
ENDBRANCH   9  10
ENDBRANCH   1   9
TORSDOF 6
ENDMDL
MODEL 8
REMARK VINA RESULT:    -7.985      3.429      6.851
REMARK INTER + INTRA:         -11.503
REMARK INTER:                 -10.271
REMARK INTRA:                  -1.232
REMARK UNBOUND:                -0.717
REMARK SMILES CN1CCC[C@@H]1CCO[C@](C)(c1ccccc1)c1ccc(Cl)cc1
REMARK SMILES IDX 8 1 7 2 6 3 1 4 2 5 3 6 4 7 5 8 9 9 10 10 11 11 12 12 13 13
REMARK SMILES IDX 17 14 14 15 16 16 15 17 18 18 19 19 24 20 20 21 23 22 21 23
REMARK SMILES IDX 22 24
REMARK H PARENT
REMARK Flexibility Score: inf
ROOT
ATOM      1  C   UNL     1     -75.684 -16.723  88.051  1.00  0.00     0.163 C 
ENDROOT
BRANCH   1   2
ATOM      2  C   UNL     1     -75.873 -16.839  89.574  1.00  0.00     0.047 C 
BRANCH   2   3
ATOM      3  C   UNL     1     -74.790 -16.209  90.502  1.00  0.00     0.058 C 
ATOM      4  C   UNL     1     -76.430 -15.396  92.165  1.00  0.00     0.105 C 
ATOM      5  N   UNL     1     -75.138 -16.068  91.931  1.00  0.00    -0.303 NA
ATOM      6  C   UNL     1     -74.036 -15.245  92.464  1.00  0.00     0.084 C 
ATOM      7  C   UNL     1     -73.491 -14.374  91.328  1.00  0.00     0.017 C 
ATOM      8  C   UNL     1     -74.153 -14.892  90.059  1.00  0.00     0.020 C 
ENDBRANCH   2   3
ENDBRANCH   1   2
BRANCH   1   9
ATOM      9  O   UNL     1     -75.802 -18.023  87.488  1.00  0.00    -0.366 OA
BRANCH   9  10
ATOM     10  C   UNL     1     -76.487 -18.062  86.234  1.00  0.00     0.115 C 
ATOM     11  C   UNL     1     -76.811 -16.623  85.733  1.00  0.00     0.053 C 
BRANCH  10  12
ATOM     12  C   UNL     1     -77.723 -18.969  86.369  1.00  0.00    -0.012 A 
ATOM     13  C   UNL     1     -77.862 -19.770  87.524  1.00  0.00     0.007 A 
ATOM     14  C   UNL     1     -78.693 -19.092  85.350  1.00  0.00     0.007 A 
ATOM     15  C   UNL     1     -78.933 -20.654  87.658  1.00  0.00     0.000 A 
ATOM     16  C   UNL     1     -79.776 -19.963  85.500  1.00  0.00     0.000 A 
ATOM     17  C   UNL     1     -79.893 -20.747  86.651  1.00  0.00     0.000 A 
ENDBRANCH  10  12
BRANCH  10  18
ATOM     18  C   UNL     1     -75.542 -18.684  85.197  1.00  0.00    -0.012 A 
ATOM     19  C   UNL     1     -74.626 -19.694  85.576  1.00  0.00     0.008 A 
ATOM     20  C   UNL     1     -75.634 -18.351  83.826  1.00  0.00     0.008 A 
ATOM     21  C   UNL     1     -73.813 -20.322  84.627  1.00  0.00     0.021 A 
ATOM     22  C   UNL     1     -74.815 -18.977  82.883  1.00  0.00     0.021 A 
ATOM     23  C   UNL     1     -73.906 -19.964  83.280  1.00  0.00     0.041 A 
ATOM     24  Cl  UNL     1     -72.891 -20.754  82.090  1.00  0.00    -0.084 Cl
ENDBRANCH  10  18
ENDBRANCH   9  10
ENDBRANCH   1   9
TORSDOF 6
ENDMDL
MODEL 9
REMARK VINA RESULT:    -7.905      4.685      8.388
REMARK INTER + INTRA:         -11.394
REMARK INTER:                  -9.582
REMARK INTRA:                  -1.812
REMARK UNBOUND:                -0.717
REMARK SMILES CN1CCC[C@@H]1CCO[C@](C)(c1ccccc1)c1ccc(Cl)cc1
REMARK SMILES IDX 8 1 7 2 6 3 1 4 2 5 3 6 4 7 5 8 9 9 10 10 11 11 12 12 13 13
REMARK SMILES IDX 17 14 14 15 16 16 15 17 18 18 19 19 24 20 20 21 23 22 21 23
REMARK SMILES IDX 22 24
REMARK H PARENT
REMARK Flexibility Score: inf
ROOT
ATOM      1  C   UNL     1     -74.850 -17.775  82.009  1.00  0.00     0.163 C 
ENDROOT
BRANCH   1   2
ATOM      2  C   UNL     1     -73.598 -16.958  82.374  1.00  0.00     0.047 C 
BRANCH   2   3
ATOM      3  C   UNL     1     -73.438 -16.471  83.846  1.00  0.00     0.058 C 
ATOM      4  C   UNL     1     -72.077 -14.499  83.235  1.00  0.00     0.105 C 
ATOM      5  N   UNL     1     -73.188 -15.029  84.047  1.00  0.00    -0.303 NA
ATOM      6  C   UNL     1     -72.854 -14.943  85.481  1.00  0.00     0.084 C 
ATOM      7  C   UNL     1     -72.245 -16.281  85.915  1.00  0.00     0.017 C 
ATOM      8  C   UNL     1     -72.459 -17.229  84.744  1.00  0.00     0.020 C 
ENDBRANCH   2   3
ENDBRANCH   1   2
BRANCH   1   9
ATOM      9  O   UNL     1     -75.901 -17.395  82.886  1.00  0.00    -0.366 OA
BRANCH   9  10
ATOM     10  C   UNL     1     -76.337 -18.431  83.768  1.00  0.00     0.115 C 
ATOM     11  C   UNL     1     -75.494 -19.724  83.565  1.00  0.00     0.053 C 
BRANCH  10  12
ATOM     12  C   UNL     1     -77.852 -18.638  83.586  1.00  0.00    -0.012 A 
ATOM     13  C   UNL     1     -78.468 -18.174  82.403  1.00  0.00     0.007 A 
ATOM     14  C   UNL     1     -78.669 -19.210  84.586  1.00  0.00     0.007 A 
ATOM     15  C   UNL     1     -79.848 -18.283  82.224  1.00  0.00     0.000 A 
ATOM     16  C   UNL     1     -80.048 -19.337  84.391  1.00  0.00     0.000 A 
ATOM     17  C   UNL     1     -80.637 -18.869  83.214  1.00  0.00     0.000 A 
ENDBRANCH  10  12
BRANCH  10  18
ATOM     18  C   UNL     1     -76.084 -17.965  85.209  1.00  0.00    -0.012 A 
ATOM     19  C   UNL     1     -76.487 -16.675  85.626  1.00  0.00     0.008 A 
ATOM     20  C   UNL     1     -75.548 -18.841  86.180  1.00  0.00     0.008 A 
ATOM     21  C   UNL     1     -76.331 -16.266  86.954  1.00  0.00     0.021 A 
ATOM     22  C   UNL     1     -75.388 -18.425  87.505  1.00  0.00     0.021 A 
ATOM     23  C   UNL     1     -75.780 -17.140  87.895  1.00  0.00     0.041 A 
ATOM     24  Cl  UNL     1     -75.589 -16.630  89.560  1.00  0.00    -0.084 Cl
ENDBRANCH  10  18
ENDBRANCH   9  10
ENDBRANCH   1   9
TORSDOF 6
ENDMDL
MODEL 10
REMARK VINA RESULT:    -7.861      4.132      7.914
REMARK INTER + INTRA:         -11.335
REMARK INTER:                  -9.828
REMARK INTRA:                  -1.507
REMARK UNBOUND:                -0.717
REMARK SMILES CN1CCC[C@@H]1CCO[C@](C)(c1ccccc1)c1ccc(Cl)cc1
REMARK SMILES IDX 8 1 7 2 6 3 1 4 2 5 3 6 4 7 5 8 9 9 10 10 11 11 12 12 13 13
REMARK SMILES IDX 17 14 14 15 16 16 15 17 18 18 19 19 24 20 20 21 23 22 21 23
REMARK SMILES IDX 22 24
REMARK H PARENT
REMARK Flexibility Score: inf
ROOT
ATOM      1  C   UNL     1     -75.099 -18.680  84.031  1.00  0.00     0.163 C 
ENDROOT
BRANCH   1   2
ATOM      2  C   UNL     1     -73.793 -17.869  83.962  1.00  0.00     0.047 C 
BRANCH   2   3
ATOM      3  C   UNL     1     -73.519 -16.814  85.076  1.00  0.00     0.058 C 
ATOM      4  C   UNL     1     -72.338 -15.256  83.562  1.00  0.00     0.105 C 
ATOM      5  N   UNL     1     -73.334 -15.416  84.638  1.00  0.00    -0.303 NA
ATOM      6  C   UNL     1     -72.867 -14.740  85.864  1.00  0.00     0.084 C 
ATOM      7  C   UNL     1     -72.144 -15.771  86.737  1.00  0.00     0.017 C 
ATOM      8  C   UNL     1     -72.417 -17.121  86.090  1.00  0.00     0.020 C 
ENDBRANCH   2   3
ENDBRANCH   1   2
BRANCH   1   9
ATOM      9  O   UNL     1     -75.994 -18.008  84.906  1.00  0.00    -0.366 OA
BRANCH   9  10
ATOM     10  C   UNL     1     -76.461 -18.804  85.997  1.00  0.00     0.115 C 
ATOM     11  C   UNL     1     -75.573 -20.071  86.179  1.00  0.00     0.053 C 
BRANCH  10  12
ATOM     12  C   UNL     1     -77.954 -19.114  85.786  1.00  0.00    -0.012 A 
ATOM     13  C   UNL     1     -78.557 -20.133  86.555  1.00  0.00     0.007 A 
ATOM     14  C   UNL     1     -78.735 -18.469  84.801  1.00  0.00     0.007 A 
ATOM     15  C   UNL     1     -79.891 -20.490  86.352  1.00  0.00     0.000 A 
ATOM     16  C   UNL     1     -80.077 -18.816  84.618  1.00  0.00     0.000 A 
ATOM     17  C   UNL     1     -80.652 -19.828  85.389  1.00  0.00     0.000 A 
ENDBRANCH  10  12
BRANCH  10  18
ATOM     18  C   UNL     1     -76.316 -17.979  87.283  1.00  0.00    -0.012 A 
ATOM     19  C   UNL     1     -76.393 -18.604  88.549  1.00  0.00     0.008 A 
ATOM     20  C   UNL     1     -75.992 -16.603  87.239  1.00  0.00     0.008 A 
ATOM     21  C   UNL     1     -76.186 -17.877  89.726  1.00  0.00     0.021 A 
ATOM     22  C   UNL     1     -75.793 -15.880  88.418  1.00  0.00     0.021 A 
ATOM     23  C   UNL     1     -75.888 -16.514  89.662  1.00  0.00     0.041 A 
ATOM     24  Cl  UNL     1     -75.625 -15.603  91.135  1.00  0.00    -0.084 Cl
ENDBRANCH  10  18
ENDBRANCH   9  10
ENDBRANCH   1   9
TORSDOF 6
ENDMDL
MODEL 11
REMARK VINA RESULT:    -7.812      1.804      2.781
REMARK INTER + INTRA:         -11.269
REMARK INTER:                 -10.246
REMARK INTRA:                  -1.024
REMARK UNBOUND:                -0.717
REMARK SMILES CN1CCC[C@@H]1CCO[C@](C)(c1ccccc1)c1ccc(Cl)cc1
REMARK SMILES IDX 8 1 7 2 6 3 1 4 2 5 3 6 4 7 5 8 9 9 10 10 11 11 12 12 13 13
REMARK SMILES IDX 17 14 14 15 16 16 15 17 18 18 19 19 24 20 20 21 23 22 21 23
REMARK SMILES IDX 22 24
REMARK H PARENT
REMARK Flexibility Score: inf
ROOT
ATOM      1  C   UNL     1     -78.987 -20.604  87.072  1.00  0.00     0.163 C 
ENDROOT
BRANCH   1   2
ATOM      2  C   UNL     1     -80.280 -20.591  86.238  1.00  0.00     0.047 C 
BRANCH   2   3
ATOM      3  C   UNL     1     -81.457 -21.508  86.687  1.00  0.00     0.058 C 
ATOM      4  C   UNL     1     -83.191 -19.800  86.251  1.00  0.00     0.105 C 
ATOM      5  N   UNL     1     -82.787 -21.212  86.116  1.00  0.00    -0.303 NA
ATOM      6  C   UNL     1     -83.689 -22.074  86.904  1.00  0.00     0.084 C 
ATOM      7  C   UNL     1     -83.060 -22.297  88.282  1.00  0.00     0.017 C 
ATOM      8  C   UNL     1     -81.649 -21.736  88.186  1.00  0.00     0.020 C 
ENDBRANCH   2   3
ENDBRANCH   1   2
BRANCH   1   9
ATOM      9  O   UNL     1     -78.431 -19.296  87.052  1.00  0.00    -0.366 OA
BRANCH   9  10
ATOM     10  C   UNL     1     -77.003 -19.261  87.080  1.00  0.00     0.115 C 
ATOM     11  C   UNL     1     -76.418 -20.687  87.307  1.00  0.00     0.053 C 
BRANCH  10  12
ATOM     12  C   UNL     1     -76.549 -18.227  88.126  1.00  0.00    -0.012 A 
ATOM     13  C   UNL     1     -76.134 -16.949  87.689  1.00  0.00     0.007 A 
ATOM     14  C   UNL     1     -76.458 -18.524  89.504  1.00  0.00     0.007 A 
ATOM     15  C   UNL     1     -75.654 -16.003  88.596  1.00  0.00     0.000 A 
ATOM     16  C   UNL     1     -75.998 -17.564  90.410  1.00  0.00     0.000 A 
ATOM     17  C   UNL     1     -75.592 -16.308  89.956  1.00  0.00     0.000 A 
ENDBRANCH  10  12
BRANCH  10  18
ATOM     18  C   UNL     1     -76.513 -18.801  85.701  1.00  0.00    -0.012 A 
ATOM     19  C   UNL     1     -75.201 -19.105  85.267  1.00  0.00     0.008 A 
ATOM     20  C   UNL     1     -77.384 -18.164  84.787  1.00  0.00     0.008 A 
ATOM     21  C   UNL     1     -74.768 -18.758  83.984  1.00  0.00     0.021 A 
ATOM     22  C   UNL     1     -76.944 -17.813  83.508  1.00  0.00     0.021 A 
ATOM     23  C   UNL     1     -75.638 -18.110  83.104  1.00  0.00     0.041 A 
ATOM     24  Cl  UNL     1     -75.097 -17.679  81.494  1.00  0.00    -0.084 Cl
ENDBRANCH  10  18
ENDBRANCH   9  10
ENDBRANCH   1   9
TORSDOF 6
ENDMDL
MODEL 12
REMARK VINA RESULT:    -7.798      3.163      7.053
REMARK INTER + INTRA:         -11.251
REMARK INTER:                 -10.124
REMARK INTRA:                  -1.127
REMARK UNBOUND:                -0.717
REMARK SMILES CN1CCC[C@@H]1CCO[C@](C)(c1ccccc1)c1ccc(Cl)cc1
REMARK SMILES IDX 8 1 7 2 6 3 1 4 2 5 3 6 4 7 5 8 9 9 10 10 11 11 12 12 13 13
REMARK SMILES IDX 17 14 14 15 16 16 15 17 18 18 19 19 24 20 20 21 23 22 21 23
REMARK SMILES IDX 22 24
REMARK H PARENT
REMARK Flexibility Score: inf
ROOT
ATOM      1  C   UNL     1     -80.879 -19.624  84.679  1.00  0.00     0.163 C 
ENDROOT
BRANCH   1   2
ATOM      2  C   UNL     1     -79.852 -18.497  84.470  1.00  0.00     0.047 C 
BRANCH   2   3
ATOM      3  C   UNL     1     -78.429 -18.880  83.963  1.00  0.00     0.058 C 
ATOM      4  C   UNL     1     -77.261 -17.719  85.808  1.00  0.00     0.105 C 
ATOM      5  N   UNL     1     -77.353 -18.932  84.973  1.00  0.00    -0.303 NA
ATOM      6  C   UNL     1     -76.133 -19.077  84.156  1.00  0.00     0.084 C 
ATOM      7  C   UNL     1     -76.389 -18.434  82.789  1.00  0.00     0.017 C 
ATOM      8  C   UNL     1     -77.878 -18.124  82.753  1.00  0.00     0.020 C 
ENDBRANCH   2   3
ENDBRANCH   1   2
BRANCH   1   9
ATOM      9  O   UNL     1     -81.278 -19.617  86.043  1.00  0.00    -0.366 OA
BRANCH   9  10
ATOM     10  C   UNL     1     -81.346 -20.911  86.644  1.00  0.00     0.115 C 
ATOM     11  C   UNL     1     -80.838 -22.007  85.661  1.00  0.00     0.053 C 
BRANCH  10  12
ATOM     12  C   UNL     1     -82.778 -21.148  87.158  1.00  0.00    -0.012 A 
ATOM     13  C   UNL     1     -83.517 -20.052  87.655  1.00  0.00     0.007 A 
ATOM     14  C   UNL     1     -83.362 -22.433  87.223  1.00  0.00     0.007 A 
ATOM     15  C   UNL     1     -84.793 -20.232  88.190  1.00  0.00     0.000 A 
ATOM     16  C   UNL     1     -84.650 -22.603  87.739  1.00  0.00     0.000 A 
ATOM     17  C   UNL     1     -85.362 -21.505  88.226  1.00  0.00     0.000 A 
ENDBRANCH  10  12
BRANCH  10  18
ATOM     18  C   UNL     1     -80.393 -20.926  87.847  1.00  0.00    -0.012 A 
ATOM     19  C   UNL     1     -80.856 -21.315  89.125  1.00  0.00     0.008 A 
ATOM     20  C   UNL     1     -79.012 -20.662  87.693  1.00  0.00     0.008 A 
ATOM     21  C   UNL     1     -79.982 -21.406  90.212  1.00  0.00     0.021 A 
ATOM     22  C   UNL     1     -78.143 -20.749  88.783  1.00  0.00     0.021 A 
ATOM     23  C   UNL     1     -78.625 -21.121  90.043  1.00  0.00     0.041 A 
ATOM     24  Cl  UNL     1     -77.527 -21.239  91.404  1.00  0.00    -0.084 Cl
ENDBRANCH  10  18
ENDBRANCH   9  10
ENDBRANCH   1   9
TORSDOF 6
ENDMDL
MODEL 13
REMARK VINA RESULT:    -7.787      3.035      6.401
REMARK INTER + INTRA:         -11.235
REMARK INTER:                 -10.136
REMARK INTRA:                  -1.099
REMARK UNBOUND:                -0.717
REMARK SMILES CN1CCC[C@@H]1CCO[C@](C)(c1ccccc1)c1ccc(Cl)cc1
REMARK SMILES IDX 8 1 7 2 6 3 1 4 2 5 3 6 4 7 5 8 9 9 10 10 11 11 12 12 13 13
REMARK SMILES IDX 17 14 14 15 16 16 15 17 18 18 19 19 24 20 20 21 23 22 21 23
REMARK SMILES IDX 22 24
REMARK H PARENT
REMARK Flexibility Score: inf
ROOT
ATOM      1  C   UNL     1     -76.090 -17.934  88.765  1.00  0.00     0.163 C 
ENDROOT
BRANCH   1   2
ATOM      2  C   UNL     1     -75.806 -16.437  88.980  1.00  0.00     0.047 C 
BRANCH   2   3
ATOM      3  C   UNL     1     -74.737 -16.034  90.041  1.00  0.00     0.058 C 
ATOM      4  C   UNL     1     -76.402 -15.599  91.817  1.00  0.00     0.105 C 
ATOM      5  N   UNL     1     -75.107 -16.210  91.460  1.00  0.00    -0.303 NA
ATOM      6  C   UNL     1     -74.012 -15.531  92.179  1.00  0.00     0.084 C 
ATOM      7  C   UNL     1     -73.447 -14.434  91.271  1.00  0.00     0.017 C 
ATOM      8  C   UNL     1     -74.089 -14.655  89.909  1.00  0.00     0.020 C 
ENDBRANCH   2   3
ENDBRANCH   1   2
BRANCH   1   9
ATOM      9  O   UNL     1     -77.155 -18.055  87.831  1.00  0.00    -0.366 OA
BRANCH   9  10
ATOM     10  C   UNL     1     -77.019 -19.148  86.921  1.00  0.00     0.115 C 
ATOM     11  C   UNL     1     -76.141 -20.277  87.536  1.00  0.00     0.053 C 
BRANCH  10  12
ATOM     12  C   UNL     1     -76.496 -18.614  85.574  1.00  0.00    -0.012 A 
ATOM     13  C   UNL     1     -75.800 -19.491  84.714  1.00  0.00     0.007 A 
ATOM     14  C   UNL     1     -76.619 -17.260  85.192  1.00  0.00     0.007 A 
ATOM     15  C   UNL     1     -75.254 -19.034  83.514  1.00  0.00     0.000 A 
ATOM     16  C   UNL     1     -76.089 -16.813  83.978  1.00  0.00     0.000 A 
ATOM     17  C   UNL     1     -75.403 -17.698  83.143  1.00  0.00     0.000 A 
ENDBRANCH  10  12
BRANCH  10  18
ATOM     18  C   UNL     1     -78.412 -19.751  86.693  1.00  0.00    -0.012 A 
ATOM     19  C   UNL     1     -79.011 -20.567  87.681  1.00  0.00     0.008 A 
ATOM     20  C   UNL     1     -79.177 -19.422  85.550  1.00  0.00     0.008 A 
ATOM     21  C   UNL     1     -80.309 -21.060  87.519  1.00  0.00     0.021 A 
ATOM     22  C   UNL     1     -80.472 -19.922  85.390  1.00  0.00     0.021 A 
ATOM     23  C   UNL     1     -81.040 -20.740  86.373  1.00  0.00     0.041 A 
ATOM     24  Cl  UNL     1     -82.669 -21.353  86.171  1.00  0.00    -0.084 Cl
ENDBRANCH  10  18
ENDBRANCH   9  10
ENDBRANCH   1   9
TORSDOF 6
ENDMDL
MODEL 14
REMARK VINA RESULT:    -7.560      4.033      7.378
REMARK INTER + INTRA:         -10.929
REMARK INTER:                  -9.992
REMARK INTRA:                  -0.938
REMARK UNBOUND:                -0.717
REMARK SMILES CN1CCC[C@@H]1CCO[C@](C)(c1ccccc1)c1ccc(Cl)cc1
REMARK SMILES IDX 8 1 7 2 6 3 1 4 2 5 3 6 4 7 5 8 9 9 10 10 11 11 12 12 13 13
REMARK SMILES IDX 17 14 14 15 16 16 15 17 18 18 19 19 24 20 20 21 23 22 21 23
REMARK SMILES IDX 22 24
REMARK H PARENT
REMARK Flexibility Score: inf
ROOT
ATOM      1  C   UNL     1     -75.184 -16.669  85.746  1.00  0.00     0.163 C 
ENDROOT
BRANCH   1   2
ATOM      2  C   UNL     1     -74.262 -16.692  86.978  1.00  0.00     0.047 C 
BRANCH   2   3
ATOM      3  C   UNL     1     -74.550 -15.687  88.135  1.00  0.00     0.058 C 
ATOM      4  C   UNL     1     -72.164 -15.386  88.709  1.00  0.00     0.105 C 
ATOM      5  N   UNL     1     -73.470 -14.740  88.479  1.00  0.00    -0.303 NA
ATOM      6  C   UNL     1     -73.954 -14.119  89.727  1.00  0.00     0.084 C 
ATOM      7  C   UNL     1     -74.868 -15.120  90.440  1.00  0.00     0.017 C 
ATOM      8  C   UNL     1     -75.093 -16.252  89.448  1.00  0.00     0.020 C 
ENDBRANCH   2   3
ENDBRANCH   1   2
BRANCH   1   9
ATOM      9  O   UNL     1     -76.441 -17.217  86.121  1.00  0.00    -0.366 OA
BRANCH   9  10
ATOM     10  C   UNL     1     -76.648 -18.564  85.691  1.00  0.00     0.115 C 
ATOM     11  C   UNL     1     -75.364 -19.137  85.023  1.00  0.00     0.053 C 
BRANCH  10  12
ATOM     12  C   UNL     1     -77.896 -18.614  84.790  1.00  0.00    -0.012 A 
ATOM     13  C   UNL     1     -79.133 -18.993  85.355  1.00  0.00     0.007 A 
ATOM     14  C   UNL     1     -77.843 -18.366  83.400  1.00  0.00     0.007 A 
ATOM     15  C   UNL     1     -80.276 -19.113  84.562  1.00  0.00     0.000 A 
ATOM     16  C   UNL     1     -78.996 -18.467  82.616  1.00  0.00     0.000 A 
ATOM     17  C   UNL     1     -80.209 -18.844  83.195  1.00  0.00     0.000 A 
ENDBRANCH  10  12
BRANCH  10  18
ATOM     18  C   UNL     1     -76.916 -19.423  86.934  1.00  0.00    -0.012 A 
ATOM     19  C   UNL     1     -77.086 -18.817  88.202  1.00  0.00     0.008 A 
ATOM     20  C   UNL     1     -77.112 -20.819  86.834  1.00  0.00     0.008 A 
ATOM     21  C   UNL     1     -77.405 -19.581  89.328  1.00  0.00     0.021 A 
ATOM     22  C   UNL     1     -77.425 -21.579  87.964  1.00  0.00     0.021 A 
ATOM     23  C   UNL     1     -77.574 -20.963  89.211  1.00  0.00     0.041 A 
ATOM     24  Cl  UNL     1     -77.979 -21.920  90.622  1.00  0.00    -0.084 Cl
ENDBRANCH  10  18
ENDBRANCH   9  10
ENDBRANCH   1   9
TORSDOF 6
ENDMDL
MODEL 15
REMARK VINA RESULT:    -7.542      4.682      8.227
REMARK INTER + INTRA:         -10.904
REMARK INTER:                  -9.776
REMARK INTRA:                  -1.127
REMARK UNBOUND:                -0.717
REMARK SMILES CN1CCC[C@@H]1CCO[C@](C)(c1ccccc1)c1ccc(Cl)cc1
REMARK SMILES IDX 8 1 7 2 6 3 1 4 2 5 3 6 4 7 5 8 9 9 10 10 11 11 12 12 13 13
REMARK SMILES IDX 17 14 14 15 16 16 15 17 18 18 19 19 24 20 20 21 23 22 21 23
REMARK SMILES IDX 22 24
REMARK H PARENT
REMARK Flexibility Score: inf
ROOT
ATOM      1  C   UNL     1     -74.741 -18.689  84.280  1.00  0.00     0.163 C 
ENDROOT
BRANCH   1   2
ATOM      2  C   UNL     1     -75.011 -18.385  82.796  1.00  0.00     0.047 C 
BRANCH   2   3
ATOM      3  C   UNL     1     -73.921 -17.617  81.990  1.00  0.00     0.058 C 
ATOM      4  C   UNL     1     -72.402 -19.563  81.842  1.00  0.00     0.105 C 
ATOM      5  N   UNL     1     -73.028 -18.428  81.137  1.00  0.00    -0.303 NA
ATOM      6  C   UNL     1     -71.995 -17.461  80.719  1.00  0.00     0.084 C 
ATOM      7  C   UNL     1     -71.875 -16.385  81.802  1.00  0.00     0.017 C 
ATOM      8  C   UNL     1     -73.042 -16.624  82.750  1.00  0.00     0.020 C 
ENDBRANCH   2   3
ENDBRANCH   1   2
BRANCH   1   9
ATOM      9  O   UNL     1     -75.702 -17.990  85.060  1.00  0.00    -0.366 OA
BRANCH   9  10
ATOM     10  C   UNL     1     -76.223 -18.736  86.162  1.00  0.00     0.115 C 
ATOM     11  C   UNL     1     -75.361 -20.005  86.430  1.00  0.00     0.053 C 
BRANCH  10  12
ATOM     12  C   UNL     1     -77.711 -19.036  85.902  1.00  0.00    -0.012 A 
ATOM     13  C   UNL     1     -78.328 -20.094  86.605  1.00  0.00     0.007 A 
ATOM     14  C   UNL     1     -78.471 -18.343  84.934  1.00  0.00     0.007 A 
ATOM     15  C   UNL     1     -79.657 -20.441  86.354  1.00  0.00     0.000 A 
ATOM     16  C   UNL     1     -79.807 -18.682  84.703  1.00  0.00     0.000 A 
ATOM     17  C   UNL     1     -80.398 -19.732  85.409  1.00  0.00     0.000 A 
ENDBRANCH  10  12
BRANCH  10  18
ATOM     18  C   UNL     1     -76.119 -17.861  87.418  1.00  0.00    -0.012 A 
ATOM     19  C   UNL     1     -76.255 -18.435  88.704  1.00  0.00     0.008 A 
ATOM     20  C   UNL     1     -75.776 -16.493  87.334  1.00  0.00     0.008 A 
ATOM     21  C   UNL     1     -76.086 -17.664  89.859  1.00  0.00     0.021 A 
ATOM     22  C   UNL     1     -75.614 -15.725  88.490  1.00  0.00     0.021 A 
ATOM     23  C   UNL     1     -75.768 -16.308  89.753  1.00  0.00     0.041 A 
ATOM     24  Cl  UNL     1     -75.552 -15.342  91.199  1.00  0.00    -0.084 Cl
ENDBRANCH  10  18
ENDBRANCH   9  10
ENDBRANCH   1   9
TORSDOF 6
ENDMDL
