MODEL 1
REMARK VINA RESULT:    -8.290      0.000      0.000
REMARK INTER + INTRA:         -12.338
REMARK INTER:                 -11.441
REMARK INTRA:                  -0.897
REMARK UNBOUND:                -0.897
REMARK SMILES CN1CCCN=C1COC(=O)C(O)(c1ccccc1)C1CCCCC1
REMARK SMILES IDX 10 1 11 2 9 3 8 4 7 5 1 6 2 7 3 8 4 9 6 10 5 11 12 12 13 13
REMARK SMILES IDX 20 15 21 16 25 17 22 18 24 19 23 20 14 21 15 22 19 23 16 24
REMARK SMILES IDX 18 25 17 26
REMARK H PARENT 13 14
REMARK Flexibility Score: inf
ROOT
ATOM      1  C   UNL     1      16.531  34.110  10.727  1.00  0.00     0.343 C 
ATOM      2  O   UNL     1      16.793  35.345  10.742  1.00  0.00    -0.248 OA
ENDROOT
BRANCH   1   3
ATOM      3  O   UNL     1      16.092  33.505   9.544  1.00  0.00    -0.455 OA
BRANCH   3   4
ATOM      4  C   UNL     1      16.959  32.840   8.628  1.00  0.00     0.307 C 
BRANCH   4   5
ATOM      5  C   UNL     1      16.333  31.545   8.176  1.00  0.00     0.137 C 
ATOM      6  C   UNL     1      18.322  30.904   6.735  1.00  0.00     0.145 C 
ATOM      7  N   UNL     1      16.928  30.717   7.144  1.00  0.00    -0.360 N 
ATOM      8  C   UNL     1      16.205  29.547   6.619  1.00  0.00     0.119 C 
ATOM      9  C   UNL     1      14.701  29.650   6.872  1.00  0.00     0.045 C 
ATOM     10  N   UNL     1      15.179  31.225   8.686  1.00  0.00    -0.269 NA
ATOM     11  C   UNL     1      14.456  30.007   8.334  1.00  0.00     0.146 C 
ENDBRANCH   4   5
ENDBRANCH   3   4
ENDBRANCH   1   3
BRANCH   1  12
ATOM     12  C   UNL     1      16.664  33.285  12.006  1.00  0.00     0.190 C 
BRANCH  12  13
ATOM     13  O   UNL     1      16.357  31.940  11.710  1.00  0.00    -0.374 OA
ATOM     14  H   UNL     1      15.517  31.702  12.186  1.00  0.00     0.212 HD
ENDBRANCH  12  13
BRANCH  12  15
ATOM     15  C   UNL     1      18.155  33.317  12.505  1.00  0.00     0.037 C 
ATOM     16  C   UNL     1      19.205  33.044  11.383  1.00  0.00     0.007 C 
ATOM     17  C   UNL     1      18.388  32.402  13.732  1.00  0.00     0.007 C 
ATOM     18  C   UNL     1      20.494  32.377  11.893  1.00  0.00     0.000 C 
ATOM     19  C   UNL     1      19.794  32.591  14.332  1.00  0.00     0.000 C 
ATOM     20  C   UNL     1      20.877  32.899  13.280  1.00  0.00     0.000 C 
ENDBRANCH  12  15
BRANCH  12  21
ATOM     21  C   UNL     1      15.707  33.756  13.121  1.00  0.00    -0.005 A 
ATOM     22  C   UNL     1      14.353  33.349  13.194  1.00  0.00     0.007 A 
ATOM     23  C   UNL     1      16.208  34.573  14.157  1.00  0.00     0.007 A 
ATOM     24  C   UNL     1      13.530  33.790  14.234  1.00  0.00     0.000 A 
ATOM     25  C   UNL     1      15.379  35.009  15.194  1.00  0.00     0.000 A 
ATOM     26  C   UNL     1      14.040  34.624  15.229  1.00  0.00     0.000 A 
ENDBRANCH  12  21
ENDBRANCH   1  12
TORSDOF 7
ENDMDL
MODEL 2
REMARK VINA RESULT:    -7.951      0.816      3.984
REMARK INTER + INTRA:         -11.869
REMARK INTER:                 -11.686
REMARK INTRA:                  -0.183
REMARK UNBOUND:                -0.897
REMARK SMILES CN1CCCN=C1COC(=O)C(O)(c1ccccc1)C1CCCCC1
REMARK SMILES IDX 10 1 11 2 9 3 8 4 7 5 1 6 2 7 3 8 4 9 6 10 5 11 12 12 13 13
REMARK SMILES IDX 20 15 21 16 25 17 22 18 24 19 23 20 14 21 15 22 19 23 16 24
REMARK SMILES IDX 18 25 17 26
REMARK H PARENT 13 14
REMARK Flexibility Score: inf
ROOT
ATOM      1  C   UNL     1      16.245  32.412  11.319  1.00  0.00     0.343 C 
ATOM      2  O   UNL     1      15.282  31.690  11.698  1.00  0.00    -0.248 OA
ENDROOT
BRANCH   1   3
ATOM      3  O   UNL     1      16.810  32.213  10.053  1.00  0.00    -0.455 OA
BRANCH   3   4
ATOM      4  C   UNL     1      16.106  32.424   8.832  1.00  0.00     0.307 C 
BRANCH   4   5
ATOM      5  C   UNL     1      15.776  31.100   8.194  1.00  0.00     0.137 C 
ATOM      6  C   UNL     1      18.051  30.886   7.089  1.00  0.00     0.145 C 
ATOM      7  N   UNL     1      16.656  30.463   7.231  1.00  0.00    -0.360 N 
ATOM      8  C   UNL     1      16.224  29.253   6.512  1.00  0.00     0.119 C 
ATOM      9  C   UNL     1      14.701  29.115   6.501  1.00  0.00     0.045 C 
ATOM     10  N   UNL     1      14.618  30.571   8.469  1.00  0.00    -0.269 NA
ATOM     11  C   UNL     1      14.166  29.298   7.918  1.00  0.00     0.146 C 
ENDBRANCH   4   5
ENDBRANCH   3   4
ENDBRANCH   1   3
BRANCH   1  12
ATOM     12  C   UNL     1      16.813  33.480  12.252  1.00  0.00     0.190 C 
BRANCH  12  13
ATOM     13  O   UNL     1      16.715  34.736  11.613  1.00  0.00    -0.374 OA
ATOM     14  H   UNL     1      16.566  34.579  10.642  1.00  0.00     0.212 HD
ENDBRANCH  12  13
BRANCH  12  15
ATOM     15  C   UNL     1      15.942  33.560  13.558  1.00  0.00     0.037 C 
ATOM     16  C   UNL     1      14.404  33.532  13.298  1.00  0.00     0.007 C 
ATOM     17  C   UNL     1      16.341  34.751  14.464  1.00  0.00     0.007 C 
ATOM     18  C   UNL     1      13.585  34.292  14.355  1.00  0.00     0.000 C 
ATOM     19  C   UNL     1      15.623  34.705  15.826  1.00  0.00     0.000 C 
ATOM     20  C   UNL     1      14.194  34.132  15.750  1.00  0.00     0.000 C 
ENDBRANCH  12  15
BRANCH  12  21
ATOM     21  C   UNL     1      18.297  33.241  12.600  1.00  0.00    -0.005 A 
ATOM     22  C   UNL     1      19.360  33.883  11.921  1.00  0.00     0.007 A 
ATOM     23  C   UNL     1      18.620  32.397  13.685  1.00  0.00     0.007 A 
ATOM     24  C   UNL     1      20.688  33.645  12.284  1.00  0.00     0.000 A 
ATOM     25  C   UNL     1      19.950  32.165  14.044  1.00  0.00     0.000 A 
ATOM     26  C   UNL     1      20.984  32.782  13.340  1.00  0.00     0.000 A 
ENDBRANCH  12  21
ENDBRANCH   1  12
TORSDOF 7
ENDMDL
MODEL 3
REMARK VINA RESULT:    -7.743      4.020      7.162
REMARK INTER + INTRA:         -11.583
REMARK INTER:                 -10.454
REMARK INTRA:                  -1.128
REMARK UNBOUND:                -0.897
REMARK SMILES CN1CCCN=C1COC(=O)C(O)(c1ccccc1)C1CCCCC1
REMARK SMILES IDX 10 1 11 2 9 3 8 4 7 5 1 6 2 7 3 8 4 9 6 10 5 11 12 12 13 13
REMARK SMILES IDX 20 15 21 16 25 17 22 18 24 19 23 20 14 21 15 22 19 23 16 24
REMARK SMILES IDX 18 25 17 26
REMARK H PARENT 13 14
REMARK Flexibility Score: inf
ROOT
ATOM      1  C   UNL     1      20.357  32.771  13.207  1.00  0.00     0.343 C 
ATOM      2  O   UNL     1      20.826  31.999  14.089  1.00  0.00    -0.248 OA
ENDROOT
BRANCH   1   3
ATOM      3  O   UNL     1      21.218  33.391  12.293  1.00  0.00    -0.455 OA
BRANCH   3   4
ATOM      4  C   UNL     1      22.636  33.404  12.429  1.00  0.00     0.307 C 
BRANCH   4   5
ATOM      5  C   UNL     1      23.125  34.823  12.570  1.00  0.00     0.137 C 
ATOM      6  C   UNL     1      23.405  34.644  15.086  1.00  0.00     0.145 C 
ATOM      7  N   UNL     1      23.328  35.448  13.864  1.00  0.00    -0.360 N 
ATOM      8  C   UNL     1      23.651  36.880  13.957  1.00  0.00     0.119 C 
ATOM      9  C   UNL     1      23.231  37.639  12.698  1.00  0.00     0.045 C 
ATOM     10  N   UNL     1      23.284  35.515  11.479  1.00  0.00    -0.269 NA
ATOM     11  C   UNL     1      23.745  36.900  11.467  1.00  0.00     0.146 C 
ENDBRANCH   4   5
ENDBRANCH   3   4
ENDBRANCH   1   3
BRANCH   1  12
ATOM     12  C   UNL     1      18.856  33.053  13.159  1.00  0.00     0.190 C 
BRANCH  12  13
ATOM     13  O   UNL     1      18.178  31.994  13.800  1.00  0.00    -0.374 OA
ATOM     14  H   UNL     1      17.278  31.906  13.385  1.00  0.00     0.212 HD
ENDBRANCH  12  13
BRANCH  12  15
ATOM     15  C   UNL     1      18.536  34.361  13.970  1.00  0.00     0.037 C 
ATOM     16  C   UNL     1      19.803  35.144  14.436  1.00  0.00     0.007 C 
ATOM     17  C   UNL     1      17.564  34.105  15.148  1.00  0.00     0.007 C 
ATOM     18  C   UNL     1      19.596  35.933  15.741  1.00  0.00     0.000 C 
ATOM     19  C   UNL     1      17.102  35.417  15.809  1.00  0.00     0.000 C 
ATOM     20  C   UNL     1      18.182  36.516  15.819  1.00  0.00     0.000 C 
ENDBRANCH  12  15
BRANCH  12  21
ATOM     21  C   UNL     1      18.315  33.159  11.718  1.00  0.00    -0.005 A 
ATOM     22  C   UNL     1      18.596  32.197  10.719  1.00  0.00     0.007 A 
ATOM     23  C   UNL     1      17.446  34.221  11.387  1.00  0.00     0.007 A 
ATOM     24  C   UNL     1      18.068  32.329   9.431  1.00  0.00     0.000 A 
ATOM     25  C   UNL     1      16.921  34.346  10.098  1.00  0.00     0.000 A 
ATOM     26  C   UNL     1      17.238  33.405   9.119  1.00  0.00     0.000 A 
ENDBRANCH  12  21
ENDBRANCH   1  12
TORSDOF 7
ENDMDL
MODEL 4
REMARK VINA RESULT:    -7.732      3.702      7.130
REMARK INTER + INTRA:         -11.568
REMARK INTER:                 -10.979
REMARK INTRA:                  -0.588
REMARK UNBOUND:                -0.897
REMARK SMILES CN1CCCN=C1COC(=O)C(O)(c1ccccc1)C1CCCCC1
REMARK SMILES IDX 10 1 11 2 9 3 8 4 7 5 1 6 2 7 3 8 4 9 6 10 5 11 12 12 13 13
REMARK SMILES IDX 20 15 21 16 25 17 22 18 24 19 23 20 14 21 15 22 19 23 16 24
REMARK SMILES IDX 18 25 17 26
REMARK H PARENT 13 14
REMARK Flexibility Score: inf
ROOT
ATOM      1  C   UNL     1      18.858  34.512  13.705  1.00  0.00     0.343 C 
ATOM      2  O   UNL     1      18.830  35.472  14.525  1.00  0.00    -0.248 OA
ENDROOT
BRANCH   1   3
ATOM      3  O   UNL     1      20.051  34.192  13.046  1.00  0.00    -0.455 OA
BRANCH   3   4
ATOM      4  C   UNL     1      21.292  33.989  13.716  1.00  0.00     0.307 C 
BRANCH   4   5
ATOM      5  C   UNL     1      22.318  34.966  13.203  1.00  0.00     0.137 C 
ATOM      6  C   UNL     1      21.998  36.565  15.149  1.00  0.00     0.145 C 
ATOM      7  N   UNL     1      22.521  36.268  13.813  1.00  0.00    -0.360 N 
ATOM      8  C   UNL     1      23.416  37.253  13.187  1.00  0.00     0.119 C 
ATOM      9  C   UNL     1      23.625  36.963  11.700  1.00  0.00     0.045 C 
ATOM     10  N   UNL     1      22.973  34.641  12.126  1.00  0.00    -0.269 NA
ATOM     11  C   UNL     1      23.989  35.494  11.517  1.00  0.00     0.146 C 
ENDBRANCH   4   5
ENDBRANCH   3   4
ENDBRANCH   1   3
BRANCH   1  12
ATOM     12  C   UNL     1      17.583  33.723  13.410  1.00  0.00     0.190 C 
BRANCH  12  13
ATOM     13  O   UNL     1      17.794  32.375  13.772  1.00  0.00    -0.374 OA
ATOM     14  H   UNL     1      17.010  32.070  14.303  1.00  0.00     0.212 HD
ENDBRANCH  12  13
BRANCH  12  15
ATOM     15  C   UNL     1      16.407  34.261  14.303  1.00  0.00     0.037 C 
ATOM     16  C   UNL     1      16.665  34.130  15.837  1.00  0.00     0.007 C 
ATOM     17  C   UNL     1      15.038  33.657  13.906  1.00  0.00     0.007 C 
ATOM     18  C   UNL     1      15.381  33.953  16.666  1.00  0.00     0.000 C 
ATOM     19  C   UNL     1      13.872  34.335  14.650  1.00  0.00     0.000 C 
ATOM     20  C   UNL     1      14.227  34.774  16.084  1.00  0.00     0.000 C 
ENDBRANCH  12  15
BRANCH  12  21
ATOM     21  C   UNL     1      17.193  33.757  11.917  1.00  0.00    -0.005 A 
ATOM     22  C   UNL     1      16.641  34.900  11.292  1.00  0.00     0.007 A 
ATOM     23  C   UNL     1      17.457  32.626  11.113  1.00  0.00     0.007 A 
ATOM     24  C   UNL     1      16.319  34.886   9.932  1.00  0.00     0.000 A 
ATOM     25  C   UNL     1      17.134  32.620   9.753  1.00  0.00     0.000 A 
ATOM     26  C   UNL     1      16.559  33.746   9.165  1.00  0.00     0.000 A 
ENDBRANCH  12  21
ENDBRANCH   1  12
TORSDOF 7
ENDMDL
MODEL 5
REMARK VINA RESULT:    -7.729      5.103      7.846
REMARK INTER + INTRA:         -11.563
REMARK INTER:                  -9.843
REMARK INTRA:                  -1.720
REMARK UNBOUND:                -0.897
REMARK SMILES CN1CCCN=C1COC(=O)C(O)(c1ccccc1)C1CCCCC1
REMARK SMILES IDX 10 1 11 2 9 3 8 4 7 5 1 6 2 7 3 8 4 9 6 10 5 11 12 12 13 13
REMARK SMILES IDX 20 15 21 16 25 17 22 18 24 19 23 20 14 21 15 22 19 23 16 24
REMARK SMILES IDX 18 25 17 26
REMARK H PARENT 13 14
REMARK Flexibility Score: inf
ROOT
ATOM      1  C   UNL     1      19.788  36.231  16.300  1.00  0.00     0.343 C 
ATOM      2  O   UNL     1      19.397  37.229  15.632  1.00  0.00    -0.248 OA
ENDROOT
BRANCH   1   3
ATOM      3  O   UNL     1      21.066  36.232  16.871  1.00  0.00    -0.455 OA
BRANCH   3   4
ATOM      4  C   UNL     1      22.271  36.285  16.111  1.00  0.00     0.307 C 
BRANCH   4   5
ATOM      5  C   UNL     1      22.338  35.107  15.173  1.00  0.00     0.137 C 
ATOM      6  C   UNL     1      22.884  33.460  17.026  1.00  0.00     0.145 C 
ATOM      7  N   UNL     1      22.795  33.799  15.603  1.00  0.00    -0.360 N 
ATOM      8  C   UNL     1      22.998  32.720  14.622  1.00  0.00     0.119 C 
ATOM      9  C   UNL     1      23.186  33.270  13.208  1.00  0.00     0.045 C 
ATOM     10  N   UNL     1      22.049  35.319  13.921  1.00  0.00    -0.269 NA
ATOM     11  C   UNL     1      22.079  34.274  12.903  1.00  0.00     0.146 C 
ENDBRANCH   4   5
ENDBRANCH   3   4
ENDBRANCH   1   3
BRANCH   1  12
ATOM     12  C   UNL     1      18.879  35.013  16.456  1.00  0.00     0.190 C 
BRANCH  12  13
ATOM     13  O   UNL     1      19.381  34.208  17.501  1.00  0.00    -0.374 OA
ATOM     14  H   UNL     1      18.608  33.841  18.009  1.00  0.00     0.212 HD
ENDBRANCH  12  13
BRANCH  12  15
ATOM     15  C   UNL     1      17.440  35.477  16.883  1.00  0.00     0.037 C 
ATOM     16  C   UNL     1      17.417  36.391  18.148  1.00  0.00     0.007 C 
ATOM     17  C   UNL     1      16.453  34.292  17.024  1.00  0.00     0.007 C 
ATOM     18  C   UNL     1      16.126  36.267  18.976  1.00  0.00     0.000 C 
ATOM     19  C   UNL     1      15.006  34.771  17.246  1.00  0.00     0.000 C 
ATOM     20  C   UNL     1      14.905  36.067  18.074  1.00  0.00     0.000 C 
ENDBRANCH  12  15
BRANCH  12  21
ATOM     21  C   UNL     1      18.817  34.148  15.180  1.00  0.00    -0.005 A 
ATOM     22  C   UNL     1      18.281  34.618  13.957  1.00  0.00     0.007 A 
ATOM     23  C   UNL     1      19.377  32.852  15.201  1.00  0.00     0.007 A 
ATOM     24  C   UNL     1      18.262  33.801  12.824  1.00  0.00     0.000 A 
ATOM     25  C   UNL     1      19.357  32.041  14.063  1.00  0.00     0.000 A 
ATOM     26  C   UNL     1      18.793  32.512  12.878  1.00  0.00     0.000 A 
ENDBRANCH  12  21
ENDBRANCH   1  12
TORSDOF 7
ENDMDL
MODEL 6
REMARK VINA RESULT:    -7.677      4.728      7.510
REMARK INTER + INTRA:         -11.491
REMARK INTER:                 -10.247
REMARK INTRA:                  -1.244
REMARK UNBOUND:                -0.897
REMARK SMILES CN1CCCN=C1COC(=O)C(O)(c1ccccc1)C1CCCCC1
REMARK SMILES IDX 10 1 11 2 9 3 8 4 7 5 1 6 2 7 3 8 4 9 6 10 5 11 12 12 13 13
REMARK SMILES IDX 20 15 21 16 25 17 22 18 24 19 23 20 14 21 15 22 19 23 16 24
REMARK SMILES IDX 18 25 17 26
REMARK H PARENT 13 14
REMARK Flexibility Score: inf
ROOT
ATOM      1  C   UNL     1      19.372  35.783  16.089  1.00  0.00     0.343 C 
ATOM      2  O   UNL     1      19.217  36.835  15.407  1.00  0.00    -0.248 OA
ENDROOT
BRANCH   1   3
ATOM      3  O   UNL     1      20.565  35.578  16.793  1.00  0.00    -0.455 OA
BRANCH   3   4
ATOM      4  C   UNL     1      21.848  35.949  16.297  1.00  0.00     0.307 C 
BRANCH   4   5
ATOM      5  C   UNL     1      22.241  35.043  15.159  1.00  0.00     0.137 C 
ATOM      6  C   UNL     1      22.892  36.971  13.641  1.00  0.00     0.145 C 
ATOM      7  N   UNL     1      22.578  35.554  13.843  1.00  0.00    -0.360 N 
ATOM      8  C   UNL     1      22.800  34.630  12.719  1.00  0.00     0.119 C 
ATOM      9  C   UNL     1      22.145  33.270  12.967  1.00  0.00     0.045 C 
ATOM     10  N   UNL     1      22.188  33.759  15.367  1.00  0.00    -0.269 NA
ATOM     11  C   UNL     1      22.533  32.767  14.353  1.00  0.00     0.146 C 
ENDBRANCH   4   5
ENDBRANCH   3   4
ENDBRANCH   1   3
BRANCH   1  12
ATOM     12  C   UNL     1      18.272  34.724  16.119  1.00  0.00     0.190 C 
BRANCH  12  13
ATOM     13  O   UNL     1      18.679  33.675  16.973  1.00  0.00    -0.374 OA
ATOM     14  H   UNL     1      19.649  33.516  16.827  1.00  0.00     0.212 HD
ENDBRANCH  12  13
BRANCH  12  15
ATOM     15  C   UNL     1      16.962  35.337  16.736  1.00  0.00     0.037 C 
ATOM     16  C   UNL     1      17.217  36.295  17.941  1.00  0.00     0.007 C 
ATOM     17  C   UNL     1      15.910  34.256  17.086  1.00  0.00     0.007 C 
ATOM     18  C   UNL     1      16.065  36.325  18.961  1.00  0.00     0.000 C 
ATOM     19  C   UNL     1      14.563  34.876  17.500  1.00  0.00     0.000 C 
ATOM     20  C   UNL     1      14.706  36.206  18.266  1.00  0.00     0.000 C 
ENDBRANCH  12  15
BRANCH  12  21
ATOM     21  C   UNL     1      17.988  34.119  14.728  1.00  0.00    -0.005 A 
ATOM     22  C   UNL     1      18.733  33.042  14.191  1.00  0.00     0.007 A 
ATOM     23  C   UNL     1      16.897  34.608  13.976  1.00  0.00     0.007 A 
ATOM     24  C   UNL     1      18.426  32.519  12.932  1.00  0.00     0.000 A 
ATOM     25  C   UNL     1      16.596  34.078  12.719  1.00  0.00     0.000 A 
ATOM     26  C   UNL     1      17.364  33.040  12.194  1.00  0.00     0.000 A 
ENDBRANCH  12  21
ENDBRANCH   1  12
TORSDOF 7
ENDMDL
MODEL 7
REMARK VINA RESULT:    -7.663      3.630      6.775
REMARK INTER + INTRA:         -11.472
REMARK INTER:                  -9.895
REMARK INTRA:                  -1.577
REMARK UNBOUND:                -0.897
REMARK SMILES CN1CCCN=C1COC(=O)C(O)(c1ccccc1)C1CCCCC1
REMARK SMILES IDX 10 1 11 2 9 3 8 4 7 5 1 6 2 7 3 8 4 9 6 10 5 11 12 12 13 13
REMARK SMILES IDX 20 15 21 16 25 17 22 18 24 19 23 20 14 21 15 22 19 23 16 24
REMARK SMILES IDX 18 25 17 26
REMARK H PARENT 13 14
REMARK Flexibility Score: inf
ROOT
ATOM      1  C   UNL     1      20.163  32.422  12.661  1.00  0.00     0.343 C 
ATOM      2  O   UNL     1      19.866  31.599  13.571  1.00  0.00    -0.248 OA
ENDROOT
BRANCH   1   3
ATOM      3  O   UNL     1      21.372  32.289  11.968  1.00  0.00    -0.455 OA
BRANCH   3   4
ATOM      4  C   UNL     1      22.652  32.389  12.588  1.00  0.00     0.307 C 
BRANCH   4   5
ATOM      5  C   UNL     1      22.868  33.792  13.095  1.00  0.00     0.137 C 
ATOM      6  C   UNL     1      22.948  33.068  15.527  1.00  0.00     0.145 C 
ATOM      7  N   UNL     1      22.840  34.116  14.510  1.00  0.00    -0.360 N 
ATOM      8  C   UNL     1      22.895  35.518  14.954  1.00  0.00     0.119 C 
ATOM      9  C   UNL     1      22.462  36.480  13.847  1.00  0.00     0.045 C 
ATOM     10  N   UNL     1      22.999  34.738  12.211  1.00  0.00    -0.269 NA
ATOM     11  C   UNL     1      23.207  36.140  12.561  1.00  0.00     0.146 C 
ENDBRANCH   4   5
ENDBRANCH   3   4
ENDBRANCH   1   3
BRANCH   1  12
ATOM     12  C   UNL     1      19.218  33.578  12.338  1.00  0.00     0.190 C 
BRANCH  12  13
ATOM     13  O   UNL     1      19.965  34.620  11.747  1.00  0.00    -0.374 OA
ATOM     14  H   UNL     1      19.785  35.456  12.254  1.00  0.00     0.212 HD
ENDBRANCH  12  13
BRANCH  12  15
ATOM     15  C   UNL     1      18.156  33.114  11.276  1.00  0.00     0.037 C 
ATOM     16  C   UNL     1      18.645  31.955  10.354  1.00  0.00     0.007 C 
ATOM     17  C   UNL     1      17.590  34.295  10.449  1.00  0.00     0.007 C 
ATOM     18  C   UNL     1      18.010  31.971   8.952  1.00  0.00     0.000 C 
ATOM     19  C   UNL     1      16.413  33.861   9.556  1.00  0.00     0.000 C 
ATOM     20  C   UNL     1      16.550  32.426   9.010  1.00  0.00     0.000 C 
ENDBRANCH  12  15
BRANCH  12  21
ATOM     21  C   UNL     1      18.523  34.147  13.593  1.00  0.00    -0.005 A 
ATOM     22  C   UNL     1      19.161  35.036  14.490  1.00  0.00     0.007 A 
ATOM     23  C   UNL     1      17.168  33.828  13.831  1.00  0.00     0.007 A 
ATOM     24  C   UNL     1      18.483  35.536  15.604  1.00  0.00     0.000 A 
ATOM     25  C   UNL     1      16.495  34.334  14.946  1.00  0.00     0.000 A 
ATOM     26  C   UNL     1      17.154  35.182  15.836  1.00  0.00     0.000 A 
ENDBRANCH  12  21
ENDBRANCH   1  12
TORSDOF 7
ENDMDL
MODEL 8
REMARK VINA RESULT:    -7.652      4.040      7.176
REMARK INTER + INTRA:         -11.456
REMARK INTER:                 -10.731
REMARK INTRA:                  -0.725
REMARK UNBOUND:                -0.897
REMARK SMILES CN1CCCN=C1COC(=O)C(O)(c1ccccc1)C1CCCCC1
REMARK SMILES IDX 10 1 11 2 9 3 8 4 7 5 1 6 2 7 3 8 4 9 6 10 5 11 12 12 13 13
REMARK SMILES IDX 20 15 21 16 25 17 22 18 24 19 23 20 14 21 15 22 19 23 16 24
REMARK SMILES IDX 18 25 17 26
REMARK H PARENT 13 14
REMARK Flexibility Score: inf
ROOT
ATOM      1  C   UNL     1      20.718  33.208  12.965  1.00  0.00     0.343 C 
ATOM      2  O   UNL     1      21.399  32.433  13.691  1.00  0.00    -0.248 OA
ENDROOT
BRANCH   1   3
ATOM      3  O   UNL     1      21.363  34.100  12.100  1.00  0.00    -0.455 OA
BRANCH   3   4
ATOM      4  C   UNL     1      22.496  34.880  12.472  1.00  0.00     0.307 C 
BRANCH   4   5
ATOM      5  C   UNL     1      23.734  34.021  12.469  1.00  0.00     0.137 C 
ATOM      6  C   UNL     1      24.215  34.430  14.927  1.00  0.00     0.145 C 
ATOM      7  N   UNL     1      24.632  33.953  13.607  1.00  0.00    -0.360 N 
ATOM      8  C   UNL     1      25.911  33.231  13.505  1.00  0.00     0.119 C 
ATOM      9  C   UNL     1      26.358  33.074  12.051  1.00  0.00     0.045 C 
ATOM     10  N   UNL     1      24.028  33.394  11.367  1.00  0.00    -0.269 NA
ATOM     11  C   UNL     1      25.199  32.535  11.220  1.00  0.00     0.146 C 
ENDBRANCH   4   5
ENDBRANCH   3   4
ENDBRANCH   1   3
BRANCH   1  12
ATOM     12  C   UNL     1      19.192  33.194  13.054  1.00  0.00     0.190 C 
BRANCH  12  13
ATOM     13  O   UNL     1      18.790  32.014  13.715  1.00  0.00    -0.374 OA
ATOM     14  H   UNL     1      19.561  31.386  13.725  1.00  0.00     0.212 HD
ENDBRANCH  12  13
BRANCH  12  15
ATOM     15  C   UNL     1      18.701  34.403  13.931  1.00  0.00     0.037 C 
ATOM     16  C   UNL     1      19.807  35.012  14.847  1.00  0.00     0.007 C 
ATOM     17  C   UNL     1      17.421  34.069  14.735  1.00  0.00     0.007 C 
ATOM     18  C   UNL     1      19.261  35.632  16.146  1.00  0.00     0.000 C 
ATOM     19  C   UNL     1      16.837  35.313  15.431  1.00  0.00     0.000 C 
ATOM     20  C   UNL     1      17.909  36.311  15.911  1.00  0.00     0.000 C 
ENDBRANCH  12  15
BRANCH  12  21
ATOM     21  C   UNL     1      18.514  33.215  11.668  1.00  0.00    -0.005 A 
ATOM     22  C   UNL     1      18.712  32.202  10.700  1.00  0.00     0.007 A 
ATOM     23  C   UNL     1      17.602  34.249  11.365  1.00  0.00     0.007 A 
ATOM     24  C   UNL     1      18.061  32.258   9.464  1.00  0.00     0.000 A 
ATOM     25  C   UNL     1      16.954  34.298  10.129  1.00  0.00     0.000 A 
ATOM     26  C   UNL     1      17.189  33.307   9.176  1.00  0.00     0.000 A 
ENDBRANCH  12  21
ENDBRANCH   1  12
TORSDOF 7
ENDMDL
MODEL 9
REMARK VINA RESULT:    -7.618      4.878      7.478
REMARK INTER + INTRA:         -11.410
REMARK INTER:                  -9.941
REMARK INTRA:                  -1.469
REMARK UNBOUND:                -0.897
REMARK SMILES CN1CCCN=C1COC(=O)C(O)(c1ccccc1)C1CCCCC1
REMARK SMILES IDX 10 1 11 2 9 3 8 4 7 5 1 6 2 7 3 8 4 9 6 10 5 11 12 12 13 13
REMARK SMILES IDX 20 15 21 16 25 17 22 18 24 19 23 20 14 21 15 22 19 23 16 24
REMARK SMILES IDX 18 25 17 26
REMARK H PARENT 13 14
REMARK Flexibility Score: inf
ROOT
ATOM      1  C   UNL     1      19.356  35.812  15.717  1.00  0.00     0.343 C 
ATOM      2  O   UNL     1      18.662  36.866  15.704  1.00  0.00    -0.248 OA
ENDROOT
BRANCH   1   3
ATOM      3  O   UNL     1      20.751  35.896  15.798  1.00  0.00    -0.455 OA
BRANCH   3   4
ATOM      4  C   UNL     1      21.548  36.674  14.909  1.00  0.00     0.307 C 
BRANCH   4   5
ATOM      5  C   UNL     1      22.441  35.771  14.097  1.00  0.00     0.137 C 
ATOM      6  C   UNL     1      23.258  37.657  12.607  1.00  0.00     0.145 C 
ATOM      7  N   UNL     1      23.120  36.228  12.899  1.00  0.00    -0.360 N 
ATOM      8  C   UNL     1      23.852  35.276  12.048  1.00  0.00     0.119 C 
ATOM      9  C   UNL     1      23.375  33.840  12.265  1.00  0.00     0.045 C 
ATOM     10  N   UNL     1      22.523  34.523  14.458  1.00  0.00    -0.269 NA
ATOM     11  C   UNL     1      23.343  33.538  13.760  1.00  0.00     0.146 C 
ENDBRANCH   4   5
ENDBRANCH   3   4
ENDBRANCH   1   3
BRANCH   1  12
ATOM     12  C   UNL     1      18.675  34.448  15.612  1.00  0.00     0.190 C 
BRANCH  12  13
ATOM     13  O   UNL     1      19.031  33.678  16.741  1.00  0.00    -0.374 OA
ATOM     14  H   UNL     1      18.648  34.115  17.548  1.00  0.00     0.212 HD
ENDBRANCH  12  13
BRANCH  12  15
ATOM     15  C   UNL     1      17.115  34.630  15.654  1.00  0.00     0.037 C 
ATOM     16  C   UNL     1      16.476  34.315  17.042  1.00  0.00     0.007 C 
ATOM     17  C   UNL     1      16.399  33.864  14.514  1.00  0.00     0.007 C 
ATOM     18  C   UNL     1      15.032  33.792  16.953  1.00  0.00     0.000 C 
ATOM     19  C   UNL     1      14.899  34.206  14.443  1.00  0.00     0.000 C 
ATOM     20  C   UNL     1      14.262  34.477  15.820  1.00  0.00     0.000 C 
ENDBRANCH  12  15
BRANCH  12  21
ATOM     21  C   UNL     1      19.100  33.665  14.352  1.00  0.00    -0.005 A 
ATOM     22  C   UNL     1      19.116  34.239  13.059  1.00  0.00     0.007 A 
ATOM     23  C   UNL     1      19.560  32.337  14.491  1.00  0.00     0.007 A 
ATOM     24  C   UNL     1      19.524  33.493  11.950  1.00  0.00     0.000 A 
ATOM     25  C   UNL     1      19.969  31.598  13.379  1.00  0.00     0.000 A 
ATOM     26  C   UNL     1      19.944  32.172  12.108  1.00  0.00     0.000 A 
ENDBRANCH  12  21
ENDBRANCH   1  12
TORSDOF 7
ENDMDL
MODEL 10
REMARK VINA RESULT:    -7.600      3.288      6.643
REMARK INTER + INTRA:         -11.384
REMARK INTER:                 -10.516
REMARK INTRA:                  -0.869
REMARK UNBOUND:                -0.897
REMARK SMILES CN1CCCN=C1COC(=O)C(O)(c1ccccc1)C1CCCCC1
REMARK SMILES IDX 10 1 11 2 9 3 8 4 7 5 1 6 2 7 3 8 4 9 6 10 5 11 12 12 13 13
REMARK SMILES IDX 20 15 21 16 25 17 22 18 24 19 23 20 14 21 15 22 19 23 16 24
REMARK SMILES IDX 18 25 17 26
REMARK H PARENT 13 14
REMARK Flexibility Score: inf
ROOT
ATOM      1  C   UNL     1      19.534  33.274  11.953  1.00  0.00     0.343 C 
ATOM      2  O   UNL     1      20.140  34.242  11.416  1.00  0.00    -0.248 OA
ENDROOT
BRANCH   1   3
ATOM      3  O   UNL     1      20.257  32.171  12.422  1.00  0.00    -0.455 OA
BRANCH   3   4
ATOM      4  C   UNL     1      21.126  32.218  13.550  1.00  0.00     0.307 C 
BRANCH   4   5
ATOM      5  C   UNL     1      22.418  32.898  13.175  1.00  0.00     0.137 C 
ATOM      6  C   UNL     1      22.259  34.589  15.062  1.00  0.00     0.145 C 
ATOM      7  N   UNL     1      22.856  34.130  13.806  1.00  0.00    -0.360 N 
ATOM      8  C   UNL     1      24.039  34.846  13.301  1.00  0.00     0.119 C 
ATOM      9  C   UNL     1      24.356  34.466  11.854  1.00  0.00     0.045 C 
ATOM     10  N   UNL     1      23.103  32.389  12.193  1.00  0.00    -0.269 NA
ATOM     11  C   UNL     1      24.366  32.947  11.720  1.00  0.00     0.146 C 
ENDBRANCH   4   5
ENDBRANCH   3   4
ENDBRANCH   1   3
BRANCH   1  12
ATOM     12  C   UNL     1      18.010  33.294  12.063  1.00  0.00     0.190 C 
BRANCH  12  13
ATOM     13  O   UNL     1      17.570  32.014  12.463  1.00  0.00    -0.374 OA
ATOM     14  H   UNL     1      18.360  31.411  12.499  1.00  0.00     0.212 HD
ENDBRANCH  12  13
BRANCH  12  15
ATOM     15  C   UNL     1      17.572  34.302  13.186  1.00  0.00     0.037 C 
ATOM     16  C   UNL     1      18.704  34.652  14.201  1.00  0.00     0.007 C 
ATOM     17  C   UNL     1      16.279  33.856  13.912  1.00  0.00     0.007 C 
ATOM     18  C   UNL     1      18.187  34.996  15.609  1.00  0.00     0.000 C 
ATOM     19  C   UNL     1      15.751  34.942  14.868  1.00  0.00     0.000 C 
ATOM     20  C   UNL     1      16.865  35.766  15.541  1.00  0.00     0.000 C 
ENDBRANCH  12  15
BRANCH  12  21
ATOM     21  C   UNL     1      17.320  33.635  10.725  1.00  0.00    -0.005 A 
ATOM     22  C   UNL     1      16.515  34.785  10.546  1.00  0.00     0.007 A 
ATOM     23  C   UNL     1      17.550  32.807   9.604  1.00  0.00     0.007 A 
ATOM     24  C   UNL     1      15.925  35.058   9.309  1.00  0.00     0.000 A 
ATOM     25  C   UNL     1      16.958  33.088   8.370  1.00  0.00     0.000 A 
ATOM     26  C   UNL     1      16.141  34.208   8.224  1.00  0.00     0.000 A 
ENDBRANCH  12  21
ENDBRANCH   1  12
TORSDOF 7
ENDMDL
MODEL 11
REMARK VINA RESULT:    -7.578      2.508      4.081
REMARK INTER + INTRA:         -11.355
REMARK INTER:                 -10.392
REMARK INTRA:                  -0.963
REMARK UNBOUND:                -0.897
REMARK SMILES CN1CCCN=C1COC(=O)C(O)(c1ccccc1)C1CCCCC1
REMARK SMILES IDX 10 1 11 2 9 3 8 4 7 5 1 6 2 7 3 8 4 9 6 10 5 11 12 12 13 13
REMARK SMILES IDX 20 15 21 16 25 17 22 18 24 19 23 20 14 21 15 22 19 23 16 24
REMARK SMILES IDX 18 25 17 26
REMARK H PARENT 13 14
REMARK Flexibility Score: inf
ROOT
ATOM      1  C   UNL     1      19.712  32.864  12.335  1.00  0.00     0.343 C 
ATOM      2  O   UNL     1      20.278  33.596  11.476  1.00  0.00    -0.248 OA
ENDROOT
BRANCH   1   3
ATOM      3  O   UNL     1      18.562  32.144  11.988  1.00  0.00    -0.455 OA
BRANCH   3   4
ATOM      4  C   UNL     1      17.334  32.756  11.603  1.00  0.00     0.307 C 
BRANCH   4   5
ATOM      5  C   UNL     1      17.212  32.760  10.101  1.00  0.00     0.137 C 
ATOM      6  C   UNL     1      16.154  35.067  10.037  1.00  0.00     0.145 C 
ATOM      7  N   UNL     1      16.494  33.800   9.386  1.00  0.00    -0.360 N 
ATOM      8  C   UNL     1      16.261  33.683   7.937  1.00  0.00     0.119 C 
ATOM      9  C   UNL     1      16.364  32.233   7.463  1.00  0.00     0.045 C 
ATOM     10  N   UNL     1      17.703  31.743   9.454  1.00  0.00    -0.269 NA
ATOM     11  C   UNL     1      17.649  31.614   8.001  1.00  0.00     0.146 C 
ENDBRANCH   4   5
ENDBRANCH   3   4
ENDBRANCH   1   3
BRANCH   1  12
ATOM     12  C   UNL     1      20.263  32.789  13.758  1.00  0.00     0.190 C 
BRANCH  12  13
ATOM     13  O   UNL     1      20.251  31.440  14.176  1.00  0.00    -0.374 OA
ATOM     14  H   UNL     1      21.091  31.264  14.679  1.00  0.00     0.212 HD
ENDBRANCH  12  13
BRANCH  12  15
ATOM     15  C   UNL     1      21.763  33.260  13.770  1.00  0.00     0.037 C 
ATOM     16  C   UNL     1      22.694  32.390  14.670  1.00  0.00     0.007 C 
ATOM     17  C   UNL     1      21.907  34.767  14.098  1.00  0.00     0.007 C 
ATOM     18  C   UNL     1      23.882  33.166  15.264  1.00  0.00     0.000 C 
ATOM     19  C   UNL     1      23.354  35.261  13.913  1.00  0.00     0.000 C 
ATOM     20  C   UNL     1      24.417  34.204  14.273  1.00  0.00     0.000 C 
ENDBRANCH  12  15
BRANCH  12  21
ATOM     21  C   UNL     1      19.426  33.605  14.765  1.00  0.00    -0.005 A 
ATOM     22  C   UNL     1      18.582  34.672  14.377  1.00  0.00     0.007 A 
ATOM     23  C   UNL     1      19.443  33.237  16.128  1.00  0.00     0.007 A 
ATOM     24  C   UNL     1      17.831  35.370  15.327  1.00  0.00     0.000 A 
ATOM     25  C   UNL     1      18.688  33.938  17.072  1.00  0.00     0.000 A 
ATOM     26  C   UNL     1      17.888  35.009  16.673  1.00  0.00     0.000 A 
ENDBRANCH  12  21
ENDBRANCH   1  12
TORSDOF 7
ENDMDL
MODEL 12
REMARK VINA RESULT:    -7.520      4.181      7.726
REMARK INTER + INTRA:         -11.275
REMARK INTER:                 -10.178
REMARK INTRA:                  -1.097
REMARK UNBOUND:                -0.897
REMARK SMILES CN1CCCN=C1COC(=O)C(O)(c1ccccc1)C1CCCCC1
REMARK SMILES IDX 10 1 11 2 9 3 8 4 7 5 1 6 2 7 3 8 4 9 6 10 5 11 12 12 13 13
REMARK SMILES IDX 20 15 21 16 25 17 22 18 24 19 23 20 14 21 15 22 19 23 16 24
REMARK SMILES IDX 18 25 17 26
REMARK H PARENT 13 14
REMARK Flexibility Score: inf
ROOT
ATOM      1  C   UNL     1      20.341  33.238  15.936  1.00  0.00     0.343 C 
ATOM      2  O   UNL     1      21.170  33.137  16.883  1.00  0.00    -0.248 OA
ENDROOT
BRANCH   1   3
ATOM      3  O   UNL     1      18.979  33.398  16.215  1.00  0.00    -0.455 OA
BRANCH   3   4
ATOM      4  C   UNL     1      18.464  34.403  17.084  1.00  0.00     0.307 C 
BRANCH   4   5
ATOM      5  C   UNL     1      17.018  34.673  16.757  1.00  0.00     0.137 C 
ATOM      6  C   UNL     1      16.673  36.158  18.786  1.00  0.00     0.145 C 
ATOM      7  N   UNL     1      16.136  35.377  17.669  1.00  0.00    -0.360 N 
ATOM      8  C   UNL     1      14.695  35.479  17.384  1.00  0.00     0.119 C 
ATOM      9  C   UNL     1      14.232  34.390  16.415  1.00  0.00     0.045 C 
ATOM     10  N   UNL     1      16.548  34.176  15.649  1.00  0.00    -0.269 NA
ATOM     11  C   UNL     1      15.168  34.352  15.212  1.00  0.00     0.146 C 
ENDBRANCH   4   5
ENDBRANCH   3   4
ENDBRANCH   1   3
BRANCH   1  12
ATOM     12  C   UNL     1      20.823  33.155  14.488  1.00  0.00     0.190 C 
BRANCH  12  13
ATOM     13  O   UNL     1      21.699  32.054  14.366  1.00  0.00    -0.374 OA
ATOM     14  H   UNL     1      22.169  32.128  13.493  1.00  0.00     0.212 HD
ENDBRANCH  12  13
BRANCH  12  15
ATOM     15  C   UNL     1      19.601  32.876  13.539  1.00  0.00     0.037 C 
ATOM     16  C   UNL     1      19.928  31.923  12.347  1.00  0.00     0.007 C 
ATOM     17  C   UNL     1      18.921  34.179  13.050  1.00  0.00     0.007 C 
ATOM     18  C   UNL     1      19.078  32.188  11.093  1.00  0.00     0.000 C 
ATOM     19  C   UNL     1      17.613  33.895  12.287  1.00  0.00     0.000 C 
ATOM     20  C   UNL     1      17.649  32.592  11.466  1.00  0.00     0.000 C 
ENDBRANCH  12  15
BRANCH  12  21
ATOM     21  C   UNL     1      21.585  34.419  14.039  1.00  0.00    -0.005 A 
ATOM     22  C   UNL     1      21.480  35.659  14.712  1.00  0.00     0.007 A 
ATOM     23  C   UNL     1      22.482  34.330  12.952  1.00  0.00     0.007 A 
ATOM     24  C   UNL     1      22.204  36.772  14.275  1.00  0.00     0.000 A 
ATOM     25  C   UNL     1      23.204  35.447  12.523  1.00  0.00     0.000 A 
ATOM     26  C   UNL     1      23.060  36.669  13.179  1.00  0.00     0.000 A 
ENDBRANCH  12  21
ENDBRANCH   1  12
TORSDOF 7
ENDMDL
MODEL 13
REMARK VINA RESULT:    -7.520      4.421      6.944
REMARK INTER + INTRA:         -11.274
REMARK INTER:                 -10.226
REMARK INTRA:                  -1.048
REMARK UNBOUND:                -0.897
REMARK SMILES CN1CCCN=C1COC(=O)C(O)(c1ccccc1)C1CCCCC1
REMARK SMILES IDX 10 1 11 2 9 3 8 4 7 5 1 6 2 7 3 8 4 9 6 10 5 11 12 12 13 13
REMARK SMILES IDX 20 15 21 16 25 17 22 18 24 19 23 20 14 21 15 22 19 23 16 24
REMARK SMILES IDX 18 25 17 26
REMARK H PARENT 13 14
REMARK Flexibility Score: inf
ROOT
ATOM      1  C   UNL     1      19.432  34.135  16.455  1.00  0.00     0.343 C 
ATOM      2  O   UNL     1      19.210  33.087  17.123  1.00  0.00    -0.248 OA
ENDROOT
BRANCH   1   3
ATOM      3  O   UNL     1      20.733  34.646  16.371  1.00  0.00    -0.455 OA
BRANCH   3   4
ATOM      4  C   UNL     1      21.771  34.042  15.604  1.00  0.00     0.307 C 
BRANCH   4   5
ATOM      5  C   UNL     1      22.152  34.942  14.456  1.00  0.00     0.137 C 
ATOM      6  C   UNL     1      22.490  33.008  12.846  1.00  0.00     0.145 C 
ATOM      7  N   UNL     1      22.652  34.421  13.197  1.00  0.00    -0.360 N 
ATOM      8  C   UNL     1      23.164  35.336  12.163  1.00  0.00     0.119 C 
ATOM      9  C   UNL     1      23.572  36.686  12.754  1.00  0.00     0.045 C 
ATOM     10  N   UNL     1      22.099  36.227  14.657  1.00  0.00    -0.269 NA
ATOM     11  C   UNL     1      22.446  37.213  13.638  1.00  0.00     0.146 C 
ENDBRANCH   4   5
ENDBRANCH   3   4
ENDBRANCH   1   3
BRANCH   1  12
ATOM     12  C   UNL     1      18.278  34.860  15.765  1.00  0.00     0.190 C 
BRANCH  12  13
ATOM     13  O   UNL     1      18.788  36.004  15.114  1.00  0.00    -0.374 OA
ATOM     14  H   UNL     1      18.712  36.775  15.738  1.00  0.00     0.212 HD
ENDBRANCH  12  13
BRANCH  12  15
ATOM     15  C   UNL     1      17.660  33.936  14.654  1.00  0.00     0.037 C 
ATOM     16  C   UNL     1      18.716  33.104  13.861  1.00  0.00     0.007 C 
ATOM     17  C   UNL     1      16.716  34.708  13.699  1.00  0.00     0.007 C 
ATOM     18  C   UNL     1      18.297  32.793  12.414  1.00  0.00     0.000 C 
ATOM     19  C   UNL     1      15.965  33.762  12.743  1.00  0.00     0.000 C 
ATOM     20  C   UNL     1      16.792  32.534  12.315  1.00  0.00     0.000 C 
ENDBRANCH  12  15
BRANCH  12  21
ATOM     21  C   UNL     1      17.189  35.324  16.755  1.00  0.00    -0.005 A 
ATOM     22  C   UNL     1      15.841  34.903  16.669  1.00  0.00     0.007 A 
ATOM     23  C   UNL     1      17.555  36.151  17.840  1.00  0.00     0.007 A 
ATOM     24  C   UNL     1      14.895  35.339  17.600  1.00  0.00     0.000 A 
ATOM     25  C   UNL     1      16.604  36.581  18.768  1.00  0.00     0.000 A 
ATOM     26  C   UNL     1      15.274  36.182  18.645  1.00  0.00     0.000 A 
ENDBRANCH  12  21
ENDBRANCH   1  12
TORSDOF 7
ENDMDL
MODEL 14
REMARK VINA RESULT:    -7.444      4.267      7.526
REMARK INTER + INTRA:         -11.170
REMARK INTER:                  -9.403
REMARK INTRA:                  -1.767
REMARK UNBOUND:                -0.897
REMARK SMILES CN1CCCN=C1COC(=O)C(O)(c1ccccc1)C1CCCCC1
REMARK SMILES IDX 10 1 11 2 9 3 8 4 7 5 1 6 2 7 3 8 4 9 6 10 5 11 12 12 13 13
REMARK SMILES IDX 20 15 21 16 25 17 22 18 24 19 23 20 14 21 15 22 19 23 16 24
REMARK SMILES IDX 18 25 17 26
REMARK H PARENT 13 14
REMARK Flexibility Score: inf
ROOT
ATOM      1  C   UNL     1      21.084  32.349  12.336  1.00  0.00     0.343 C 
ATOM      2  O   UNL     1      20.501  31.236  12.463  1.00  0.00    -0.248 OA
ENDROOT
BRANCH   1   3
ATOM      3  O   UNL     1      22.397  32.398  11.853  1.00  0.00    -0.455 OA
BRANCH   3   4
ATOM      4  C   UNL     1      23.541  32.540  12.692  1.00  0.00     0.307 C 
BRANCH   4   5
ATOM      5  C   UNL     1      23.969  33.984  12.737  1.00  0.00     0.137 C 
ATOM      6  C   UNL     1      24.628  33.876  15.186  1.00  0.00     0.145 C 
ATOM      7  N   UNL     1      24.328  34.647  13.977  1.00  0.00    -0.360 N 
ATOM      8  C   UNL     1      24.584  36.096  14.001  1.00  0.00     0.119 C 
ATOM      9  C   UNL     1      23.942  36.804  12.807  1.00  0.00     0.045 C 
ATOM     10  N   UNL     1      23.927  34.659  11.624  1.00  0.00    -0.269 NA
ATOM     11  C   UNL     1      24.306  36.065  11.524  1.00  0.00     0.146 C 
ENDBRANCH   4   5
ENDBRANCH   3   4
ENDBRANCH   1   3
BRANCH   1  12
ATOM     12  C   UNL     1      20.366  33.637  12.738  1.00  0.00     0.190 C 
BRANCH  12  13
ATOM     13  O   UNL     1      20.816  34.683  11.904  1.00  0.00    -0.374 OA
ATOM     14  H   UNL     1      21.541  35.170  12.381  1.00  0.00     0.212 HD
ENDBRANCH  12  13
BRANCH  12  15
ATOM     15  C   UNL     1      18.822  33.483  12.489  1.00  0.00     0.037 C 
ATOM     16  C   UNL     1      18.370  33.868  11.046  1.00  0.00     0.007 C 
ATOM     17  C   UNL     1      17.973  34.211  13.561  1.00  0.00     0.007 C 
ATOM     18  C   UNL     1      16.932  34.411  10.973  1.00  0.00     0.000 C 
ATOM     19  C   UNL     1      16.473  33.891  13.424  1.00  0.00     0.000 C 
ATOM     20  C   UNL     1      16.016  33.690  11.966  1.00  0.00     0.000 C 
ENDBRANCH  12  15
BRANCH  12  21
ATOM     21  C   UNL     1      20.645  34.043  14.200  1.00  0.00    -0.005 A 
ATOM     22  C   UNL     1      20.727  33.105  15.257  1.00  0.00     0.007 A 
ATOM     23  C   UNL     1      20.899  35.399  14.500  1.00  0.00     0.007 A 
ATOM     24  C   UNL     1      20.998  33.522  16.563  1.00  0.00     0.000 A 
ATOM     25  C   UNL     1      21.172  35.808  15.807  1.00  0.00     0.000 A 
ATOM     26  C   UNL     1      21.214  34.871  16.840  1.00  0.00     0.000 A 
ENDBRANCH  12  21
ENDBRANCH   1  12
TORSDOF 7
ENDMDL
MODEL 15
REMARK VINA RESULT:    -7.348      4.697      7.589
REMARK INTER + INTRA:         -11.037
REMARK INTER:                  -9.589
REMARK INTRA:                  -1.449
REMARK UNBOUND:                -0.897
REMARK SMILES CN1CCCN=C1COC(=O)C(O)(c1ccccc1)C1CCCCC1
REMARK SMILES IDX 10 1 11 2 9 3 8 4 7 5 1 6 2 7 3 8 4 9 6 10 5 11 12 12 13 13
REMARK SMILES IDX 20 15 21 16 25 17 22 18 24 19 23 20 14 21 15 22 19 23 16 24
REMARK SMILES IDX 18 25 17 26
REMARK H PARENT 13 14
REMARK Flexibility Score: inf
ROOT
ATOM      1  C   UNL     1      21.497  33.349  12.561  1.00  0.00     0.343 C 
ATOM      2  O   UNL     1      22.125  32.348  12.115  1.00  0.00    -0.248 OA
ENDROOT
BRANCH   1   3
ATOM      3  O   UNL     1      21.919  34.642  12.231  1.00  0.00    -0.455 OA
BRANCH   3   4
ATOM      4  C   UNL     1      23.285  35.048  12.222  1.00  0.00     0.307 C 
BRANCH   4   5
ATOM      5  C   UNL     1      23.762  35.279  13.633  1.00  0.00     0.137 C 
ATOM      6  C   UNL     1      25.250  33.222  13.634  1.00  0.00     0.145 C 
ATOM      7  N   UNL     1      24.569  34.306  14.346  1.00  0.00    -0.360 N 
ATOM      8  C   UNL     1      24.878  34.496  15.772  1.00  0.00     0.119 C 
ATOM      9  C   UNL     1      23.881  35.440  16.447  1.00  0.00     0.045 C 
ATOM     10  N   UNL     1      23.353  36.356  14.238  1.00  0.00    -0.269 NA
ATOM     11  C   UNL     1      23.730  36.702  15.604  1.00  0.00     0.146 C 
ENDBRANCH   4   5
ENDBRANCH   3   4
ENDBRANCH   1   3
BRANCH   1  12
ATOM     12  C   UNL     1      20.297  33.146  13.485  1.00  0.00     0.190 C 
BRANCH  12  13
ATOM     13  O   UNL     1      20.268  31.797  13.899  1.00  0.00    -0.374 OA
ATOM     14  H   UNL     1      21.076  31.344  13.537  1.00  0.00     0.212 HD
ENDBRANCH  12  13
BRANCH  12  15
ATOM     15  C   UNL     1      20.472  34.020  14.780  1.00  0.00     0.037 C 
ATOM     16  C   UNL     1      20.164  33.258  16.106  1.00  0.00     0.007 C 
ATOM     17  C   UNL     1      19.694  35.357  14.703  1.00  0.00     0.007 C 
ATOM     18  C   UNL     1      19.634  34.164  17.231  1.00  0.00     0.000 C 
ATOM     19  C   UNL     1      20.029  36.288  15.883  1.00  0.00     0.000 C 
ATOM     20  C   UNL     1      20.307  35.539  17.200  1.00  0.00     0.000 C 
ENDBRANCH  12  15
BRANCH  12  21
ATOM     21  C   UNL     1      18.953  33.459  12.794  1.00  0.00    -0.005 A 
ATOM     22  C   UNL     1      18.863  33.913  11.457  1.00  0.00     0.007 A 
ATOM     23  C   UNL     1      17.750  33.220  13.494  1.00  0.00     0.007 A 
ATOM     24  C   UNL     1      17.620  34.167  10.871  1.00  0.00     0.000 A 
ATOM     25  C   UNL     1      16.511  33.474  12.900  1.00  0.00     0.000 A 
ATOM     26  C   UNL     1      16.446  33.954  11.593  1.00  0.00     0.000 A 
ENDBRANCH  12  21
ENDBRANCH   1  12
TORSDOF 7
ENDMDL
