MODEL 1
REMARK VINA RESULT:   -12.062      0.000      0.000
REMARK INTER + INTRA:         -16.114
REMARK INTER:                 -16.293
REMARK INTRA:                   0.179
REMARK UNBOUND:                 0.179
REMARK SMILES CNC(=O)c1cc(Oc2ccc(NC(=O)Nc3ccc(Cl)c(C(F)(F)F)c3)cc2)ccn1
REMARK SMILES IDX 9 1 10 2 11 3 12 4 28 5 29 6 8 7 7 8 5 9 32 10 6 11 31 12
REMARK SMILES IDX 30 13 3 14 1 15 2 16 4 18 13 19 14 20 15 22 16 23 17 25
REMARK SMILES IDX 27 26 18 27 22 28 19 29 20 30 21 31 23 32 24 33 25 34 26 35
REMARK H PARENT 2 17 13 21 16 24
REMARK Flexibility Score: inf
ROOT
ATOM      1  C   UNL     1      21.029  24.104  39.430  1.00  0.00     0.127 A 
ATOM      2  C   UNL     1      21.087  23.539  38.151  1.00  0.00     0.049 A 
ATOM      3  C   UNL     1      22.306  23.098  37.626  1.00  0.00     0.030 A 
ATOM      4  C   UNL     1      23.481  23.188  38.384  1.00  0.00     0.043 A 
ATOM      5  C   UNL     1      23.424  23.757  39.668  1.00  0.00     0.030 A 
ATOM      6  C   UNL     1      22.207  24.199  40.193  1.00  0.00     0.049 A 
ENDROOT
BRANCH   1   7
ATOM      7  O   UNL     1      19.785  24.518  39.928  1.00  0.00    -0.457 OA
BRANCH   7   8
ATOM      8  C   UNL     1      19.396  25.848  40.140  1.00  0.00     0.131 A 
ATOM      9  C   UNL     1      17.680  27.432  40.800  1.00  0.00     0.131 A 
ATOM     10  N   UNL     1      18.543  28.451  40.538  1.00  0.00    -0.251 NA
ATOM     11  C   UNL     1      18.100  26.106  40.595  1.00  0.00     0.081 A 
ATOM     12  C   UNL     1      19.803  28.230  40.079  1.00  0.00     0.116 A 
ATOM     13  C   UNL     1      20.251  26.927  39.865  1.00  0.00     0.067 A 
BRANCH   9  14
ATOM     14  C   UNL     1      16.318  27.733  41.294  1.00  0.00     0.269 C 
ATOM     15  C   UNL     1      14.573  29.413  42.012  1.00  0.00     0.143 C 
ATOM     16  N   UNL     1      15.905  29.089  41.519  1.00  0.00    -0.354 N 
ATOM     17  H   UNL     1      16.567  29.877  41.330  1.00  0.00     0.163 HD
ATOM     18  O   UNL     1      15.510  26.791  41.521  1.00  0.00    -0.268 OA
ENDBRANCH   9  14
ENDBRANCH   7   8
ENDBRANCH   1   7
BRANCH   4  19
ATOM     19  N   UNL     1      24.725  22.750  37.810  1.00  0.00    -0.308 N 
ATOM     20  C   UNL     1      24.975  22.655  36.399  1.00  0.00     0.323 C 
ATOM     21  H   UNL     1      25.530  22.575  38.455  1.00  0.00     0.171 HD
ATOM     22  O   UNL     1      24.161  23.152  35.574  1.00  0.00    -0.248 OA
ATOM     23  N   UNL     1      26.161  21.991  35.938  1.00  0.00    -0.308 N 
ATOM     24  H   UNL     1      26.662  21.372  36.614  1.00  0.00     0.171 HD
BRANCH  23  25
ATOM     25  C   UNL     1      26.622  22.018  34.576  1.00  0.00     0.043 A 
ATOM     26  C   UNL     1      26.484  23.167  33.777  1.00  0.00     0.040 A 
ATOM     27  C   UNL     1      27.278  20.897  34.053  1.00  0.00     0.028 A 
ATOM     28  C   UNL     1      26.958  23.187  32.449  1.00  0.00     0.076 A 
ATOM     29  C   UNL     1      27.753  20.903  32.742  1.00  0.00     0.023 A 
ATOM     30  C   UNL     1      27.594  22.034  31.935  1.00  0.00     0.053 A 
ATOM     31  Cl  UNL     1      28.219  21.970  30.289  1.00  0.00    -0.084 Cl
BRANCH  28  32
ATOM     32  C   UNL     1      26.798  24.426  31.595  1.00  0.00     0.417 C 
ATOM     33  F   UNL     1      26.304  25.462  32.366  1.00  0.00    -0.166 F 
ATOM     34  F   UNL     1      25.915  24.166  30.562  1.00  0.00    -0.166 F 
ATOM     35  F   UNL     1      28.001  24.833  31.043  1.00  0.00    -0.166 F 
ENDBRANCH  28  32
ENDBRANCH  23  25
ENDBRANCH   4  19
TORSDOF 6
ENDMDL
MODEL 2
REMARK VINA RESULT:   -11.620      1.694      2.201
REMARK INTER + INTRA:         -15.517
REMARK INTER:                 -15.764
REMARK INTRA:                   0.247
REMARK UNBOUND:                 0.179
REMARK SMILES CNC(=O)c1cc(Oc2ccc(NC(=O)Nc3ccc(Cl)c(C(F)(F)F)c3)cc2)ccn1
REMARK SMILES IDX 9 1 10 2 11 3 12 4 28 5 29 6 8 7 7 8 5 9 32 10 6 11 31 12
REMARK SMILES IDX 30 13 3 14 1 15 2 16 4 18 13 19 14 20 15 22 16 23 17 25
REMARK SMILES IDX 27 26 18 27 22 28 19 29 20 30 21 31 23 32 24 33 25 34 26 35
REMARK H PARENT 2 17 13 21 16 24
REMARK Flexibility Score: inf
ROOT
ATOM      1  C   UNL     1      21.008  24.175  39.641  1.00  0.00     0.127 A 
ATOM      2  C   UNL     1      21.048  23.730  38.315  1.00  0.00     0.049 A 
ATOM      3  C   UNL     1      22.250  23.293  37.751  1.00  0.00     0.030 A 
ATOM      4  C   UNL     1      23.426  23.265  38.514  1.00  0.00     0.043 A 
ATOM      5  C   UNL     1      23.386  23.714  39.846  1.00  0.00     0.030 A 
ATOM      6  C   UNL     1      22.185  24.153  40.409  1.00  0.00     0.049 A 
ENDROOT
BRANCH   1   7
ATOM      7  O   UNL     1      19.779  24.590  40.176  1.00  0.00    -0.457 OA
BRANCH   7   8
ATOM      8  C   UNL     1      19.349  25.920  40.291  1.00  0.00     0.131 A 
ATOM      9  C   UNL     1      17.592  27.495  40.859  1.00  0.00     0.131 A 
ATOM     10  N   UNL     1      18.418  28.517  40.501  1.00  0.00    -0.251 NA
ATOM     11  C   UNL     1      18.053  26.171  40.748  1.00  0.00     0.081 A 
ATOM     12  C   UNL     1      19.676  28.302  40.036  1.00  0.00     0.116 A 
ATOM     13  C   UNL     1      20.164  27.000  39.917  1.00  0.00     0.067 A 
BRANCH   9  14
ATOM     14  C   UNL     1      16.230  27.791  41.353  1.00  0.00     0.269 C 
ATOM     15  C   UNL     1      14.473  29.464  42.058  1.00  0.00     0.143 C 
ATOM     16  N   UNL     1      15.807  29.146  41.564  1.00  0.00    -0.354 N 
ATOM     17  H   UNL     1      16.461  29.936  41.365  1.00  0.00     0.163 HD
ATOM     18  O   UNL     1      15.430  26.844  41.592  1.00  0.00    -0.268 OA
ENDBRANCH   9  14
ENDBRANCH   7   8
ENDBRANCH   1   7
BRANCH   4  19
ATOM     19  N   UNL     1      24.653  22.834  37.902  1.00  0.00    -0.308 N 
ATOM     20  C   UNL     1      24.862  22.747  36.484  1.00  0.00     0.323 C 
ATOM     21  H   UNL     1      25.477  22.658  38.522  1.00  0.00     0.171 HD
ATOM     22  O   UNL     1      24.023  23.246  35.685  1.00  0.00    -0.248 OA
ATOM     23  N   UNL     1      26.036  22.089  35.985  1.00  0.00    -0.308 N 
ATOM     24  H   UNL     1      26.558  21.467  36.643  1.00  0.00     0.171 HD
BRANCH  23  25
ATOM     25  C   UNL     1      26.457  22.124  34.610  1.00  0.00     0.043 A 
ATOM     26  C   UNL     1      27.035  21.001  33.991  1.00  0.00     0.040 A 
ATOM     27  C   UNL     1      26.230  23.280  33.854  1.00  0.00     0.028 A 
ATOM     28  C   UNL     1      27.425  21.041  32.637  1.00  0.00     0.076 A 
ATOM     29  C   UNL     1      26.611  23.334  32.513  1.00  0.00     0.023 A 
ATOM     30  C   UNL     1      27.210  22.229  31.901  1.00  0.00     0.053 A 
ATOM     31  Cl  UNL     1      27.664  22.369  30.204  1.00  0.00    -0.084 Cl
BRANCH  28  32
ATOM     32  C   UNL     1      28.053  19.830  31.981  1.00  0.00     0.417 C 
ATOM     33  F   UNL     1      28.317  18.868  32.939  1.00  0.00    -0.166 F 
ATOM     34  F   UNL     1      29.237  20.197  31.366  1.00  0.00    -0.166 F 
ATOM     35  F   UNL     1      27.223  19.272  31.024  1.00  0.00    -0.166 F 
ENDBRANCH  28  32
ENDBRANCH  23  25
ENDBRANCH   4  19
TORSDOF 6
ENDMDL
MODEL 3
REMARK VINA RESULT:   -10.614      6.205     11.785
REMARK INTER + INTRA:         -14.158
REMARK INTER:                 -13.695
REMARK INTRA:                  -0.464
REMARK UNBOUND:                 0.179
REMARK SMILES CNC(=O)c1cc(Oc2ccc(NC(=O)Nc3ccc(Cl)c(C(F)(F)F)c3)cc2)ccn1
REMARK SMILES IDX 9 1 10 2 11 3 12 4 28 5 29 6 8 7 7 8 5 9 32 10 6 11 31 12
REMARK SMILES IDX 30 13 3 14 1 15 2 16 4 18 13 19 14 20 15 22 16 23 17 25
REMARK SMILES IDX 27 26 18 27 22 28 19 29 20 30 21 31 23 32 24 33 25 34 26 35
REMARK H PARENT 2 17 13 21 16 24
REMARK Flexibility Score: inf
ROOT
ATOM      1  C   UNL     1      24.750  23.435  37.256  1.00  0.00     0.127 A 
ATOM      2  C   UNL     1      23.532  23.426  36.570  1.00  0.00     0.049 A 
ATOM      3  C   UNL     1      22.323  23.449  37.273  1.00  0.00     0.030 A 
ATOM      4  C   UNL     1      22.315  23.513  38.673  1.00  0.00     0.043 A 
ATOM      5  C   UNL     1      23.540  23.522  39.364  1.00  0.00     0.030 A 
ATOM      6  C   UNL     1      24.748  23.496  38.661  1.00  0.00     0.049 A 
ENDROOT
BRANCH   1   7
ATOM      7  O   UNL     1      25.941  23.429  36.515  1.00  0.00    -0.457 OA
BRANCH   7   8
ATOM      8  C   UNL     1      26.133  22.776  35.289  1.00  0.00     0.131 A 
ATOM      9  C   UNL     1      26.183  22.880  32.865  1.00  0.00     0.131 A 
ATOM     10  N   UNL     1      26.452  21.545  32.831  1.00  0.00    -0.251 NA
ATOM     11  C   UNL     1      26.011  23.514  34.108  1.00  0.00     0.081 A 
ATOM     12  C   UNL     1      26.558  20.800  33.962  1.00  0.00     0.116 A 
ATOM     13  C   UNL     1      26.395  21.399  35.212  1.00  0.00     0.067 A 
BRANCH   9  14
ATOM     14  C   UNL     1      26.074  23.638  31.600  1.00  0.00     0.269 C 
ATOM     15  C   UNL     1      26.478  25.750  30.273  1.00  0.00     0.143 C 
ATOM     16  N   UNL     1      26.580  24.978  31.505  1.00  0.00    -0.354 N 
ATOM     17  H   UNL     1      27.035  25.427  32.332  1.00  0.00     0.163 HD
ATOM     18  O   UNL     1      25.532  23.105  30.593  1.00  0.00    -0.268 OA
ENDBRANCH   9  14
ENDBRANCH   7   8
ENDBRANCH   1   7
BRANCH   4  19
ATOM     19  N   UNL     1      21.058  23.511  39.371  1.00  0.00    -0.308 N 
ATOM     20  C   UNL     1      20.311  24.695  39.692  1.00  0.00     0.323 C 
ATOM     21  H   UNL     1      20.612  22.589  39.579  1.00  0.00     0.171 HD
ATOM     22  O   UNL     1      20.633  25.807  39.192  1.00  0.00    -0.248 OA
ATOM     23  N   UNL     1      19.193  24.600  40.588  1.00  0.00    -0.308 N 
ATOM     24  H   UNL     1      19.120  23.743  41.180  1.00  0.00     0.171 HD
BRANCH  23  25
ATOM     25  C   UNL     1      18.250  25.662  40.816  1.00  0.00     0.043 A 
ATOM     26  C   UNL     1      16.864  25.422  40.831  1.00  0.00     0.040 A 
ATOM     27  C   UNL     1      18.723  26.951  41.090  1.00  0.00     0.028 A 
ATOM     28  C   UNL     1      15.951  26.468  41.077  1.00  0.00     0.076 A 
ATOM     29  C   UNL     1      17.832  27.994  41.335  1.00  0.00     0.023 A 
ATOM     30  C   UNL     1      16.452  27.766  41.325  1.00  0.00     0.053 A 
ATOM     31  Cl  UNL     1      15.386  29.132  41.642  1.00  0.00    -0.084 Cl
BRANCH  28  32
ATOM     32  C   UNL     1      14.461  26.201  41.084  1.00  0.00     0.417 C 
ATOM     33  F   UNL     1      14.220  24.900  40.683  1.00  0.00    -0.166 F 
ATOM     34  F   UNL     1      13.830  27.070  40.212  1.00  0.00    -0.166 F 
ATOM     35  F   UNL     1      13.911  26.375  42.343  1.00  0.00    -0.166 F 
ENDBRANCH  28  32
ENDBRANCH  23  25
ENDBRANCH   4  19
TORSDOF 6
ENDMDL
MODEL 4
REMARK VINA RESULT:   -10.562      5.784     11.730
REMARK INTER + INTRA:         -14.087
REMARK INTER:                 -13.893
REMARK INTRA:                  -0.194
REMARK UNBOUND:                 0.179
REMARK SMILES CNC(=O)c1cc(Oc2ccc(NC(=O)Nc3ccc(Cl)c(C(F)(F)F)c3)cc2)ccn1
REMARK SMILES IDX 9 1 10 2 11 3 12 4 28 5 29 6 8 7 7 8 5 9 32 10 6 11 31 12
REMARK SMILES IDX 30 13 3 14 1 15 2 16 4 18 13 19 14 20 15 22 16 23 17 25
REMARK SMILES IDX 27 26 18 27 22 28 19 29 20 30 21 31 23 32 24 33 25 34 26 35
REMARK H PARENT 2 17 13 21 16 24
REMARK Flexibility Score: inf
ROOT
ATOM      1  C   UNL     1      26.028  22.763  35.973  1.00  0.00     0.127 A 
ATOM      2  C   UNL     1      24.682  22.989  35.667  1.00  0.00     0.049 A 
ATOM      3  C   UNL     1      23.756  23.237  36.685  1.00  0.00     0.030 A 
ATOM      4  C   UNL     1      24.168  23.293  38.024  1.00  0.00     0.043 A 
ATOM      5  C   UNL     1      25.521  23.064  38.333  1.00  0.00     0.030 A 
ATOM      6  C   UNL     1      26.446  22.814  37.315  1.00  0.00     0.049 A 
ENDROOT
BRANCH   1   7
ATOM      7  O   UNL     1      26.929  22.534  34.923  1.00  0.00    -0.457 OA
BRANCH   7   8
ATOM      8  C   UNL     1      26.621  22.609  33.557  1.00  0.00     0.131 A 
ATOM      9  C   UNL     1      26.412  21.498  31.410  1.00  0.00     0.131 A 
ATOM     10  N   UNL     1      26.073  22.690  30.845  1.00  0.00    -0.251 NA
ATOM     11  C   UNL     1      26.700  21.447  32.784  1.00  0.00     0.081 A 
ATOM     12  C   UNL     1      26.006  23.838  31.569  1.00  0.00     0.116 A 
ATOM     13  C   UNL     1      26.284  23.822  32.935  1.00  0.00     0.067 A 
BRANCH   9  14
ATOM     14  C   UNL     1      26.473  20.281  30.571  1.00  0.00     0.269 C 
ATOM     15  C   UNL     1      27.732  18.250  29.751  1.00  0.00     0.143 C 
ATOM     16  N   UNL     1      27.644  19.450  30.573  1.00  0.00    -0.354 N 
ATOM     17  H   UNL     1      28.462  19.699  31.173  1.00  0.00     0.163 HD
ATOM     18  O   UNL     1      25.488  19.967  29.847  1.00  0.00    -0.268 OA
ENDBRANCH   9  14
ENDBRANCH   7   8
ENDBRANCH   1   7
BRANCH   4  19
ATOM     19  N   UNL     1      23.191  23.526  39.053  1.00  0.00    -0.308 N 
ATOM     20  C   UNL     1      22.246  24.607  39.040  1.00  0.00     0.323 C 
ATOM     21  H   UNL     1      23.099  22.814  39.814  1.00  0.00     0.171 HD
ATOM     22  O   UNL     1      22.095  25.307  38.002  1.00  0.00    -0.248 OA
ATOM     23  N   UNL     1      21.475  24.882  40.219  1.00  0.00    -0.308 N 
ATOM     24  H   UNL     1      21.809  24.471  41.121  1.00  0.00     0.171 HD
BRANCH  23  25
ATOM     25  C   UNL     1      20.361  25.790  40.261  1.00  0.00     0.043 A 
ATOM     26  C   UNL     1      19.046  25.329  40.448  1.00  0.00     0.040 A 
ATOM     27  C   UNL     1      20.597  27.167  40.175  1.00  0.00     0.028 A 
ATOM     28  C   UNL     1      17.964  26.231  40.507  1.00  0.00     0.076 A 
ATOM     29  C   UNL     1      19.537  28.071  40.233  1.00  0.00     0.023 A 
ATOM     30  C   UNL     1      18.224  27.616  40.392  1.00  0.00     0.053 A 
ATOM     31  Cl  UNL     1      16.935  28.815  40.456  1.00  0.00    -0.084 Cl
BRANCH  28  32
ATOM     32  C   UNL     1      16.550  25.725  40.701  1.00  0.00     0.417 C 
ATOM     33  F   UNL     1      15.942  26.425  41.727  1.00  0.00    -0.166 F 
ATOM     34  F   UNL     1      16.580  24.380  41.024  1.00  0.00    -0.166 F 
ATOM     35  F   UNL     1      15.785  25.879  39.558  1.00  0.00    -0.166 F 
ENDBRANCH  28  32
ENDBRANCH  23  25
ENDBRANCH   4  19
TORSDOF 6
ENDMDL
MODEL 5
REMARK VINA RESULT:   -10.329      6.150     12.850
REMARK INTER + INTRA:         -13.773
REMARK INTER:                 -12.876
REMARK INTRA:                  -0.896
REMARK UNBOUND:                 0.179
REMARK SMILES CNC(=O)c1cc(Oc2ccc(NC(=O)Nc3ccc(Cl)c(C(F)(F)F)c3)cc2)ccn1
REMARK SMILES IDX 9 1 10 2 11 3 12 4 28 5 29 6 8 7 7 8 5 9 32 10 6 11 31 12
REMARK SMILES IDX 30 13 3 14 1 15 2 16 4 18 13 19 14 20 15 22 16 23 17 25
REMARK SMILES IDX 27 26 18 27 22 28 19 29 20 30 21 31 23 32 24 33 25 34 26 35
REMARK H PARENT 2 17 13 21 16 24
REMARK Flexibility Score: inf
ROOT
ATOM      1  C   UNL     1      28.093  20.083  30.451  1.00  0.00     0.127 A 
ATOM      2  C   UNL     1      28.937  20.823  31.286  1.00  0.00     0.049 A 
ATOM      3  C   UNL     1      28.407  21.750  32.187  1.00  0.00     0.030 A 
ATOM      4  C   UNL     1      27.020  21.930  32.290  1.00  0.00     0.043 A 
ATOM      5  C   UNL     1      26.171  21.187  31.451  1.00  0.00     0.030 A 
ATOM      6  C   UNL     1      26.702  20.261  30.548  1.00  0.00     0.049 A 
ENDROOT
BRANCH   1   7
ATOM      7  O   UNL     1      28.663  19.150  29.572  1.00  0.00    -0.457 OA
BRANCH   7   8
ATOM      8  C   UNL     1      29.497  18.085  29.944  1.00  0.00     0.131 A 
ATOM      9  C   UNL     1      30.137  16.424  31.594  1.00  0.00     0.131 A 
ATOM     10  N   UNL     1      31.133  16.010  30.764  1.00  0.00    -0.251 NA
ATOM     11  C   UNL     1      29.305  17.483  31.191  1.00  0.00     0.081 A 
ATOM     12  C   UNL     1      31.354  16.588  29.554  1.00  0.00     0.116 A 
ATOM     13  C   UNL     1      30.546  17.640  29.124  1.00  0.00     0.067 A 
BRANCH   9  14
ATOM     14  C   UNL     1      29.947  15.760  32.901  1.00  0.00     0.269 C 
ATOM     15  C   UNL     1      28.441  14.614  34.575  1.00  0.00     0.143 C 
ATOM     16  N   UNL     1      28.656  15.265  33.290  1.00  0.00    -0.354 N 
ATOM     17  H   UNL     1      27.840  15.369  32.646  1.00  0.00     0.163 HD
ATOM     18  O   UNL     1      30.927  15.625  33.685  1.00  0.00    -0.268 OA
ENDBRANCH   9  14
ENDBRANCH   7   8
ENDBRANCH   1   7
BRANCH   4  19
ATOM     19  N   UNL     1      26.502  22.907  33.208  1.00  0.00    -0.308 N 
ATOM     20  C   UNL     1      25.862  22.587  34.453  1.00  0.00     0.323 C 
ATOM     21  H   UNL     1      26.682  23.917  33.005  1.00  0.00     0.171 HD
ATOM     22  O   UNL     1      25.900  21.410  34.904  1.00  0.00    -0.248 OA
ATOM     23  N   UNL     1      25.180  23.620  35.180  1.00  0.00    -0.308 N 
ATOM     24  H   UNL     1      24.941  24.496  34.664  1.00  0.00     0.171 HD
BRANCH  23  25
ATOM     25  C   UNL     1      24.689  23.471  36.524  1.00  0.00     0.043 A 
ATOM     26  C   UNL     1      23.322  23.277  36.788  1.00  0.00     0.040 A 
ATOM     27  C   UNL     1      25.599  23.457  37.587  1.00  0.00     0.028 A 
ATOM     28  C   UNL     1      22.855  23.112  38.108  1.00  0.00     0.076 A 
ATOM     29  C   UNL     1      25.153  23.295  38.898  1.00  0.00     0.023 A 
ATOM     30  C   UNL     1      23.791  23.128  39.168  1.00  0.00     0.053 A 
ATOM     31  Cl  UNL     1      23.299  22.928  40.848  1.00  0.00    -0.084 Cl
BRANCH  28  32
ATOM     32  C   UNL     1      21.380  22.911  38.383  1.00  0.00     0.417 C 
ATOM     33  F   UNL     1      20.668  23.022  37.203  1.00  0.00    -0.166 F 
ATOM     34  F   UNL     1      20.940  23.875  39.273  1.00  0.00    -0.166 F 
ATOM     35  F   UNL     1      21.122  21.666  38.930  1.00  0.00    -0.166 F 
ENDBRANCH  28  32
ENDBRANCH  23  25
ENDBRANCH   4  19
TORSDOF 6
ENDMDL
MODEL 6
REMARK VINA RESULT:   -10.275      6.202     12.096
REMARK INTER + INTRA:         -13.700
REMARK INTER:                 -12.698
REMARK INTRA:                  -1.002
REMARK UNBOUND:                 0.179
REMARK SMILES CNC(=O)c1cc(Oc2ccc(NC(=O)Nc3ccc(Cl)c(C(F)(F)F)c3)cc2)ccn1
REMARK SMILES IDX 9 1 10 2 11 3 12 4 28 5 29 6 8 7 7 8 5 9 32 10 6 11 31 12
REMARK SMILES IDX 30 13 3 14 1 15 2 16 4 18 13 19 14 20 15 22 16 23 17 25
REMARK SMILES IDX 27 26 18 27 22 28 19 29 20 30 21 31 23 32 24 33 25 34 26 35
REMARK H PARENT 2 17 13 21 16 24
REMARK Flexibility Score: inf
ROOT
ATOM      1  C   UNL     1      27.425  18.843  30.683  1.00  0.00     0.127 A 
ATOM      2  C   UNL     1      26.523  19.891  30.474  1.00  0.00     0.049 A 
ATOM      3  C   UNL     1      26.408  20.924  31.409  1.00  0.00     0.030 A 
ATOM      4  C   UNL     1      27.215  20.940  32.555  1.00  0.00     0.043 A 
ATOM      5  C   UNL     1      28.121  19.886  32.767  1.00  0.00     0.030 A 
ATOM      6  C   UNL     1      28.235  18.852  31.833  1.00  0.00     0.049 A 
ENDROOT
BRANCH   1   7
ATOM      7  O   UNL     1      27.524  17.835  29.713  1.00  0.00    -0.457 OA
BRANCH   7   8
ATOM      8  C   UNL     1      26.976  16.548  29.818  1.00  0.00     0.131 A 
ATOM      9  C   UNL     1      25.285  15.079  30.752  1.00  0.00     0.131 A 
ATOM     10  N   UNL     1      25.868  14.029  30.110  1.00  0.00    -0.251 NA
ATOM     11  C   UNL     1      25.844  16.362  30.617  1.00  0.00     0.081 A 
ATOM     12  C   UNL     1      26.978  14.178  29.341  1.00  0.00     0.116 A 
ATOM     13  C   UNL     1      27.557  15.438  29.186  1.00  0.00     0.067 A 
BRANCH   9  14
ATOM     14  C   UNL     1      24.079  14.855  31.579  1.00  0.00     0.269 C 
ATOM     15  C   UNL     1      21.565  14.853  31.827  1.00  0.00     0.143 C 
ATOM     16  N   UNL     1      22.768  15.059  31.031  1.00  0.00    -0.354 N 
ATOM     17  H   UNL     1      22.657  15.365  30.038  1.00  0.00     0.163 HD
ATOM     18  O   UNL     1      24.202  14.480  32.778  1.00  0.00    -0.268 OA
ENDBRANCH   9  14
ENDBRANCH   7   8
ENDBRANCH   1   7
BRANCH   4  19
ATOM     19  N   UNL     1      27.059  22.001  33.513  1.00  0.00    -0.308 N 
ATOM     20  C   UNL     1      26.182  21.942  34.649  1.00  0.00     0.323 C 
ATOM     21  H   UNL     1      27.688  22.832  33.432  1.00  0.00     0.171 HD
ATOM     22  O   UNL     1      25.640  20.852  34.978  1.00  0.00    -0.248 OA
ATOM     23  N   UNL     1      25.930  23.135  35.406  1.00  0.00    -0.308 N 
ATOM     24  H   UNL     1      26.170  24.049  34.960  1.00  0.00     0.171 HD
BRANCH  23  25
ATOM     25  C   UNL     1      25.248  23.158  36.672  1.00  0.00     0.043 A 
ATOM     26  C   UNL     1      23.845  23.115  36.750  1.00  0.00     0.040 A 
ATOM     27  C   UNL     1      25.999  23.160  37.854  1.00  0.00     0.028 A 
ATOM     28  C   UNL     1      23.189  23.117  37.998  1.00  0.00     0.076 A 
ATOM     29  C   UNL     1      25.363  23.162  39.095  1.00  0.00     0.023 A 
ATOM     30  C   UNL     1      23.967  23.147  39.177  1.00  0.00     0.053 A 
ATOM     31  Cl  UNL     1      23.234  23.150  40.779  1.00  0.00    -0.084 Cl
BRANCH  28  32
ATOM     32  C   UNL     1      21.677  23.078  38.072  1.00  0.00     0.417 C 
ATOM     33  F   UNL     1      21.273  21.933  38.732  1.00  0.00    -0.166 F 
ATOM     34  F   UNL     1      21.151  23.076  36.792  1.00  0.00    -0.166 F 
ATOM     35  F   UNL     1      21.165  24.172  38.749  1.00  0.00    -0.166 F 
ENDBRANCH  28  32
ENDBRANCH  23  25
ENDBRANCH   4  19
TORSDOF 6
ENDMDL
MODEL 7
REMARK VINA RESULT:   -10.262      6.232     11.986
REMARK INTER + INTRA:         -13.683
REMARK INTER:                 -13.204
REMARK INTRA:                  -0.478
REMARK UNBOUND:                 0.179
REMARK SMILES CNC(=O)c1cc(Oc2ccc(NC(=O)Nc3ccc(Cl)c(C(F)(F)F)c3)cc2)ccn1
REMARK SMILES IDX 9 1 10 2 11 3 12 4 28 5 29 6 8 7 7 8 5 9 32 10 6 11 31 12
REMARK SMILES IDX 30 13 3 14 1 15 2 16 4 18 13 19 14 20 15 22 16 23 17 25
REMARK SMILES IDX 27 26 18 27 22 28 19 29 20 30 21 31 23 32 24 33 25 34 26 35
REMARK H PARENT 2 17 13 21 16 24
REMARK Flexibility Score: inf
ROOT
ATOM      1  C   UNL     1      24.731  23.348  37.281  1.00  0.00     0.127 A 
ATOM      2  C   UNL     1      23.529  23.363  36.567  1.00  0.00     0.049 A 
ATOM      3  C   UNL     1      22.305  23.405  37.241  1.00  0.00     0.030 A 
ATOM      4  C   UNL     1      22.265  23.462  38.641  1.00  0.00     0.043 A 
ATOM      5  C   UNL     1      23.474  23.446  39.360  1.00  0.00     0.030 A 
ATOM      6  C   UNL     1      24.697  23.402  38.686  1.00  0.00     0.049 A 
ENDROOT
BRANCH   1   7
ATOM      7  O   UNL     1      25.939  23.323  36.567  1.00  0.00    -0.457 OA
BRANCH   7   8
ATOM      8  C   UNL     1      26.108  22.812  35.273  1.00  0.00     0.131 A 
ATOM      9  C   UNL     1      26.480  20.901  33.824  1.00  0.00     0.131 A 
ATOM     10  N   UNL     1      26.494  21.739  32.751  1.00  0.00    -0.251 NA
ATOM     11  C   UNL     1      26.293  21.436  35.110  1.00  0.00     0.081 A 
ATOM     12  C   UNL     1      26.334  23.082  32.881  1.00  0.00     0.116 A 
ATOM     13  C   UNL     1      26.145  23.645  34.143  1.00  0.00     0.067 A 
BRANCH   9  14
ATOM     14  C   UNL     1      26.664  19.447  33.621  1.00  0.00     0.269 C 
ATOM     15  C   UNL     1      25.969  17.066  34.100  1.00  0.00     0.143 C 
ATOM     16  N   UNL     1      25.804  18.503  34.276  1.00  0.00    -0.354 N 
ATOM     17  H   UNL     1      25.035  18.839  34.900  1.00  0.00     0.163 HD
ATOM     18  O   UNL     1      27.585  19.030  32.866  1.00  0.00    -0.268 OA
ENDBRANCH   9  14
ENDBRANCH   7   8
ENDBRANCH   1   7
BRANCH   4  19
ATOM     19  N   UNL     1      20.993  23.480  39.310  1.00  0.00    -0.308 N 
ATOM     20  C   UNL     1      20.281  24.678  39.660  1.00  0.00     0.323 C 
ATOM     21  H   UNL     1      20.509  22.568  39.471  1.00  0.00     0.171 HD
ATOM     22  O   UNL     1      20.655  25.795  39.212  1.00  0.00    -0.248 OA
ATOM     23  N   UNL     1      19.139  24.589  40.525  1.00  0.00    -0.308 N 
ATOM     24  H   UNL     1      19.021  23.713  41.082  1.00  0.00     0.171 HD
BRANCH  23  25
ATOM     25  C   UNL     1      18.230  25.676  40.774  1.00  0.00     0.043 A 
ATOM     26  C   UNL     1      16.840  25.471  40.830  1.00  0.00     0.040 A 
ATOM     27  C   UNL     1      18.743  26.954  41.027  1.00  0.00     0.028 A 
ATOM     28  C   UNL     1      15.960  26.540  41.095  1.00  0.00     0.076 A 
ATOM     29  C   UNL     1      17.885  28.021  41.290  1.00  0.00     0.023 A 
ATOM     30  C   UNL     1      16.500  27.827  41.321  1.00  0.00     0.053 A 
ATOM     31  Cl  UNL     1      15.477  29.221  41.660  1.00  0.00    -0.084 Cl
BRANCH  28  32
ATOM     32  C   UNL     1      14.464  26.311  41.146  1.00  0.00     0.417 C 
ATOM     33  F   UNL     1      14.198  24.958  41.049  1.00  0.00    -0.166 F 
ATOM     34  F   UNL     1      13.858  26.971  40.092  1.00  0.00    -0.166 F 
ATOM     35  F   UNL     1      13.910  26.778  42.326  1.00  0.00    -0.166 F 
ENDBRANCH  28  32
ENDBRANCH  23  25
ENDBRANCH   4  19
TORSDOF 6
ENDMDL
MODEL 8
REMARK VINA RESULT:    -9.970     10.657     13.827
REMARK INTER + INTRA:         -13.289
REMARK INTER:                 -12.771
REMARK INTRA:                  -0.518
REMARK UNBOUND:                 0.179
REMARK SMILES CNC(=O)c1cc(Oc2ccc(NC(=O)Nc3ccc(Cl)c(C(F)(F)F)c3)cc2)ccn1
REMARK SMILES IDX 9 1 10 2 11 3 12 4 28 5 29 6 8 7 7 8 5 9 32 10 6 11 31 12
REMARK SMILES IDX 30 13 3 14 1 15 2 16 4 18 13 19 14 20 15 22 16 23 17 25
REMARK SMILES IDX 27 26 18 27 22 28 19 29 20 30 21 31 23 32 24 33 25 34 26 35
REMARK H PARENT 2 17 13 21 16 24
REMARK Flexibility Score: inf
ROOT
ATOM      1  C   UNL     1      12.076  20.697  35.296  1.00  0.00     0.127 A 
ATOM      2  C   UNL     1      13.436  20.898  35.553  1.00  0.00     0.049 A 
ATOM      3  C   UNL     1      13.856  21.414  36.783  1.00  0.00     0.030 A 
ATOM      4  C   UNL     1      12.923  21.707  37.787  1.00  0.00     0.043 A 
ATOM      5  C   UNL     1      11.556  21.506  37.530  1.00  0.00     0.030 A 
ATOM      6  C   UNL     1      11.136  20.993  36.299  1.00  0.00     0.049 A 
ENDROOT
BRANCH   1   7
ATOM      7  O   UNL     1      11.696  20.162  34.056  1.00  0.00    -0.457 OA
BRANCH   7   8
ATOM      8  C   UNL     1      10.426  19.657  33.743  1.00  0.00     0.131 A 
ATOM      9  C   UNL     1       8.535  19.582  32.223  1.00  0.00     0.131 A 
ATOM     10  N   UNL     1       7.901  18.736  33.081  1.00  0.00    -0.251 NA
ATOM     11  C   UNL     1       9.815  20.062  32.553  1.00  0.00     0.081 A 
ATOM     12  C   UNL     1       8.464  18.339  34.253  1.00  0.00     0.116 A 
ATOM     13  C   UNL     1       9.733  18.796  34.609  1.00  0.00     0.067 A 
BRANCH   9  14
ATOM     14  C   UNL     1       7.871  19.983  30.964  1.00  0.00     0.269 C 
ATOM     15  C   UNL     1       7.880  20.153  28.443  1.00  0.00     0.143 C 
ATOM     16  N   UNL     1       8.509  19.761  29.697  1.00  0.00    -0.354 N 
ATOM     17  H   UNL     1       9.450  19.308  29.657  1.00  0.00     0.163 HD
ATOM     18  O   UNL     1       6.732  20.526  31.000  1.00  0.00    -0.268 OA
ENDBRANCH   9  14
ENDBRANCH   7   8
ENDBRANCH   1   7
BRANCH   4  19
ATOM     19  N   UNL     1      13.380  22.258  39.034  1.00  0.00    -0.308 N 
ATOM     20  C   UNL     1      13.846  23.607  39.199  1.00  0.00     0.323 C 
ATOM     21  H   UNL     1      13.283  21.674  39.895  1.00  0.00     0.171 HD
ATOM     22  O   UNL     1      13.687  24.452  38.277  1.00  0.00    -0.248 OA
ATOM     23  N   UNL     1      14.492  23.983  40.424  1.00  0.00    -0.308 N 
ATOM     24  H   UNL     1      14.841  23.216  41.042  1.00  0.00     0.171 HD
BRANCH  23  25
ATOM     25  C   UNL     1      14.807  25.339  40.787  1.00  0.00     0.043 A 
ATOM     26  C   UNL     1      16.090  25.875  40.576  1.00  0.00     0.040 A 
ATOM     27  C   UNL     1      13.799  26.162  41.303  1.00  0.00     0.028 A 
ATOM     28  C   UNL     1      16.381  27.212  40.917  1.00  0.00     0.076 A 
ATOM     29  C   UNL     1      14.072  27.486  41.644  1.00  0.00     0.023 A 
ATOM     30  C   UNL     1      15.353  28.016  41.461  1.00  0.00     0.053 A 
ATOM     31  Cl  UNL     1      15.625  29.697  41.914  1.00  0.00    -0.084 Cl
BRANCH  28  32
ATOM     32  C   UNL     1      17.767  27.778  40.693  1.00  0.00     0.417 C 
ATOM     33  F   UNL     1      18.615  26.774  40.264  1.00  0.00    -0.166 F 
ATOM     34  F   UNL     1      18.248  28.306  41.878  1.00  0.00    -0.166 F 
ATOM     35  F   UNL     1      17.767  28.782  39.740  1.00  0.00    -0.166 F 
ENDBRANCH  28  32
ENDBRANCH  23  25
ENDBRANCH   4  19
TORSDOF 6
ENDMDL
MODEL 9
REMARK VINA RESULT:    -9.860      9.169     12.580
REMARK INTER + INTRA:         -13.140
REMARK INTER:                 -12.875
REMARK INTRA:                  -0.265
REMARK UNBOUND:                 0.179
REMARK SMILES CNC(=O)c1cc(Oc2ccc(NC(=O)Nc3ccc(Cl)c(C(F)(F)F)c3)cc2)ccn1
REMARK SMILES IDX 9 1 10 2 11 3 12 4 28 5 29 6 8 7 7 8 5 9 32 10 6 11 31 12
REMARK SMILES IDX 30 13 3 14 1 15 2 16 4 18 13 19 14 20 15 22 16 23 17 25
REMARK SMILES IDX 27 26 18 27 22 28 19 29 20 30 21 31 23 32 24 33 25 34 26 35
REMARK H PARENT 2 17 13 21 16 24
REMARK Flexibility Score: inf
ROOT
ATOM      1  C   UNL     1      10.536  21.712  38.181  1.00  0.00     0.127 A 
ATOM      2  C   UNL     1      11.803  21.346  38.647  1.00  0.00     0.049 A 
ATOM      3  C   UNL     1      12.530  22.208  39.474  1.00  0.00     0.030 A 
ATOM      4  C   UNL     1      11.987  23.437  39.873  1.00  0.00     0.043 A 
ATOM      5  C   UNL     1      10.714  23.807  39.404  1.00  0.00     0.030 A 
ATOM      6  C   UNL     1       9.989  22.946  38.575  1.00  0.00     0.049 A 
ENDROOT
BRANCH   1   7
ATOM      7  O   UNL     1       9.831  20.813  37.367  1.00  0.00    -0.457 OA
BRANCH   7   8
ATOM      8  C   UNL     1      10.243  20.366  36.103  1.00  0.00     0.131 A 
ATOM      9  C   UNL     1       9.737  20.021  33.754  1.00  0.00     0.131 A 
ATOM     10  N   UNL     1      10.969  19.464  33.589  1.00  0.00    -0.251 NA
ATOM     11  C   UNL     1       9.355  20.476  35.028  1.00  0.00     0.081 A 
ATOM     12  C   UNL     1      11.845  19.329  34.619  1.00  0.00     0.116 A 
ATOM     13  C   UNL     1      11.497  19.772  35.896  1.00  0.00     0.067 A 
BRANCH   9  14
ATOM     14  C   UNL     1       8.824  20.137  32.597  1.00  0.00     0.269 C 
ATOM     15  C   UNL     1       7.317  19.055  30.882  1.00  0.00     0.143 C 
ATOM     16  N   UNL     1       8.214  18.969  32.026  1.00  0.00    -0.354 N 
ATOM     17  H   UNL     1       8.411  18.025  32.430  1.00  0.00     0.163 HD
ATOM     18  O   UNL     1       8.575  21.272  32.105  1.00  0.00    -0.268 OA
ENDBRANCH   9  14
ENDBRANCH   7   8
ENDBRANCH   1   7
BRANCH   4  19
ATOM     19  N   UNL     1      12.766  24.314  40.705  1.00  0.00    -0.308 N 
ATOM     20  C   UNL     1      14.088  24.773  40.381  1.00  0.00     0.323 C 
ATOM     21  H   UNL     1      12.310  24.719  41.555  1.00  0.00     0.171 HD
ATOM     22  O   UNL     1      14.564  24.580  39.229  1.00  0.00    -0.248 OA
ATOM     23  N   UNL     1      14.861  25.454  41.380  1.00  0.00    -0.308 N 
ATOM     24  H   UNL     1      14.554  25.360  42.375  1.00  0.00     0.171 HD
BRANCH  23  25
ATOM     25  C   UNL     1      16.098  26.138  41.115  1.00  0.00     0.043 A 
ATOM     26  C   UNL     1      17.244  25.443  40.690  1.00  0.00     0.040 A 
ATOM     27  C   UNL     1      16.146  27.533  41.224  1.00  0.00     0.028 A 
ATOM     28  C   UNL     1      18.445  26.127  40.414  1.00  0.00     0.076 A 
ATOM     29  C   UNL     1      17.327  28.223  40.954  1.00  0.00     0.023 A 
ATOM     30  C   UNL     1      18.476  27.534  40.556  1.00  0.00     0.053 A 
ATOM     31  Cl  UNL     1      19.932  28.471  40.231  1.00  0.00    -0.084 Cl
BRANCH  28  32
ATOM     32  C   UNL     1      19.676  25.370  39.963  1.00  0.00     0.417 C 
ATOM     33  F   UNL     1      19.437  24.010  40.036  1.00  0.00    -0.166 F 
ATOM     34  F   UNL     1      20.743  25.689  40.784  1.00  0.00    -0.166 F 
ATOM     35  F   UNL     1      20.025  25.679  38.659  1.00  0.00    -0.166 F 
ENDBRANCH  28  32
ENDBRANCH  23  25
ENDBRANCH   4  19
TORSDOF 6
ENDMDL
MODEL 10
REMARK VINA RESULT:    -9.828      6.699     12.639
REMARK INTER + INTRA:         -13.096
REMARK INTER:                 -12.607
REMARK INTRA:                  -0.489
REMARK UNBOUND:                 0.179
REMARK SMILES CNC(=O)c1cc(Oc2ccc(NC(=O)Nc3ccc(Cl)c(C(F)(F)F)c3)cc2)ccn1
REMARK SMILES IDX 9 1 10 2 11 3 12 4 28 5 29 6 8 7 7 8 5 9 32 10 6 11 31 12
REMARK SMILES IDX 30 13 3 14 1 15 2 16 4 18 13 19 14 20 15 22 16 23 17 25
REMARK SMILES IDX 27 26 18 27 22 28 19 29 20 30 21 31 23 32 24 33 25 34 26 35
REMARK H PARENT 2 17 13 21 16 24
REMARK Flexibility Score: inf
ROOT
ATOM      1  C   UNL     1      21.811  23.698  39.151  1.00  0.00     0.127 A 
ATOM      2  C   UNL     1      21.981  24.508  40.279  1.00  0.00     0.049 A 
ATOM      3  C   UNL     1      21.093  25.557  40.538  1.00  0.00     0.030 A 
ATOM      4  C   UNL     1      20.004  25.793  39.688  1.00  0.00     0.043 A 
ATOM      5  C   UNL     1      19.833  24.980  38.554  1.00  0.00     0.030 A 
ATOM      6  C   UNL     1      20.722  23.933  38.294  1.00  0.00     0.049 A 
ENDROOT
BRANCH   1   7
ATOM      7  O   UNL     1      22.713  22.645  38.936  1.00  0.00    -0.457 OA
BRANCH   7   8
ATOM      8  C   UNL     1      24.045  22.787  38.521  1.00  0.00     0.131 A 
ATOM      9  C   UNL     1      25.681  22.740  36.729  1.00  0.00     0.131 A 
ATOM     10  N   UNL     1      26.658  23.008  37.638  1.00  0.00    -0.251 NA
ATOM     11  C   UNL     1      24.351  22.618  37.168  1.00  0.00     0.081 A 
ATOM     12  C   UNL     1      26.392  23.160  38.962  1.00  0.00     0.116 A 
ATOM     13  C   UNL     1      25.083  23.046  39.430  1.00  0.00     0.067 A 
BRANCH   9  14
ATOM     14  C   UNL     1      26.031  22.580  35.301  1.00  0.00     0.269 C 
ATOM     15  C   UNL     1      27.359  21.423  33.490  1.00  0.00     0.143 C 
ATOM     16  N   UNL     1      26.991  21.595  34.889  1.00  0.00    -0.354 N 
ATOM     17  H   UNL     1      27.447  20.979  35.600  1.00  0.00     0.163 HD
ATOM     18  O   UNL     1      25.482  23.315  34.434  1.00  0.00    -0.268 OA
ENDBRANCH   9  14
ENDBRANCH   7   8
ENDBRANCH   1   7
BRANCH   4  19
ATOM     19  N   UNL     1      19.120  26.893  39.964  1.00  0.00    -0.308 N 
ATOM     20  C   UNL     1      17.790  26.750  40.486  1.00  0.00     0.323 C 
ATOM     21  H   UNL     1      19.498  27.864  39.868  1.00  0.00     0.171 HD
ATOM     22  O   UNL     1      17.394  25.635  40.922  1.00  0.00    -0.248 OA
ATOM     23  N   UNL     1      16.916  27.888  40.507  1.00  0.00    -0.308 N 
ATOM     24  H   UNL     1      17.172  28.705  39.907  1.00  0.00     0.171 HD
BRANCH  23  25
ATOM     25  C   UNL     1      15.651  27.921  41.190  1.00  0.00     0.043 A 
ATOM     26  C   UNL     1      14.752  26.842  41.122  1.00  0.00     0.040 A 
ATOM     27  C   UNL     1      15.333  29.026  41.990  1.00  0.00     0.028 A 
ATOM     28  C   UNL     1      13.524  26.878  41.813  1.00  0.00     0.076 A 
ATOM     29  C   UNL     1      14.122  29.075  42.679  1.00  0.00     0.023 A 
ATOM     30  C   UNL     1      13.213  28.015  42.593  1.00  0.00     0.053 A 
ATOM     31  Cl  UNL     1      11.703  28.146  43.491  1.00  0.00    -0.084 Cl
BRANCH  28  32
ATOM     32  C   UNL     1      12.559  25.713  41.728  1.00  0.00     0.417 C 
ATOM     33  F   UNL     1      12.411  25.141  42.978  1.00  0.00    -0.166 F 
ATOM     34  F   UNL     1      13.054  24.766  40.850  1.00  0.00    -0.166 F 
ATOM     35  F   UNL     1      11.310  26.109  41.281  1.00  0.00    -0.166 F 
ENDBRANCH  28  32
ENDBRANCH  23  25
ENDBRANCH   4  19
TORSDOF 6
ENDMDL
MODEL 11
REMARK VINA RESULT:    -9.780      7.378     13.581
REMARK INTER + INTRA:         -13.031
REMARK INTER:                 -12.876
REMARK INTRA:                  -0.155
REMARK UNBOUND:                 0.179
REMARK SMILES CNC(=O)c1cc(Oc2ccc(NC(=O)Nc3ccc(Cl)c(C(F)(F)F)c3)cc2)ccn1
REMARK SMILES IDX 9 1 10 2 11 3 12 4 28 5 29 6 8 7 7 8 5 9 32 10 6 11 31 12
REMARK SMILES IDX 30 13 3 14 1 15 2 16 4 18 13 19 14 20 15 22 16 23 17 25
REMARK SMILES IDX 27 26 18 27 22 28 19 29 20 30 21 31 23 32 24 33 25 34 26 35
REMARK H PARENT 2 17 13 21 16 24
REMARK Flexibility Score: inf
ROOT
ATOM      1  C   UNL     1      19.909  25.598  39.619  1.00  0.00     0.127 A 
ATOM      2  C   UNL     1      18.633  25.277  40.096  1.00  0.00     0.049 A 
ATOM      3  C   UNL     1      17.811  26.267  40.643  1.00  0.00     0.030 A 
ATOM      4  C   UNL     1      18.241  27.600  40.694  1.00  0.00     0.043 A 
ATOM      5  C   UNL     1      19.523  27.924  40.216  1.00  0.00     0.030 A 
ATOM      6  C   UNL     1      20.345  26.934  39.671  1.00  0.00     0.049 A 
ENDROOT
BRANCH   1   7
ATOM      7  O   UNL     1      20.697  24.580  39.063  1.00  0.00    -0.457 OA
BRANCH   7   8
ATOM      8  C   UNL     1      21.985  24.225  39.486  1.00  0.00     0.131 A 
ATOM      9  C   UNL     1      24.222  23.469  38.925  1.00  0.00     0.131 A 
ATOM     10  N   UNL     1      24.535  23.469  40.251  1.00  0.00    -0.251 NA
ATOM     11  C   UNL     1      22.928  23.843  38.526  1.00  0.00     0.081 A 
ATOM     12  C   UNL     1      23.634  23.819  41.206  1.00  0.00     0.116 A 
ATOM     13  C   UNL     1      22.342  24.197  40.843  1.00  0.00     0.067 A 
BRANCH   9  14
ATOM     14  C   UNL     1      25.243  23.074  37.931  1.00  0.00     0.269 C 
ATOM     15  C   UNL     1      25.846  22.304  35.601  1.00  0.00     0.143 C 
ATOM     16  N   UNL     1      24.861  22.705  36.597  1.00  0.00    -0.354 N 
ATOM     17  H   UNL     1      23.853  22.717  36.319  1.00  0.00     0.163 HD
ATOM     18  O   UNL     1      26.463  23.060  38.255  1.00  0.00    -0.268 OA
ENDBRANCH   9  14
ENDBRANCH   7   8
ENDBRANCH   1   7
BRANCH   4  19
ATOM     19  N   UNL     1      17.385  28.594  41.283  1.00  0.00    -0.308 N 
ATOM     20  C   UNL     1      15.986  28.403  41.546  1.00  0.00     0.323 C 
ATOM     21  H   UNL     1      17.823  29.479  41.627  1.00  0.00     0.171 HD
ATOM     22  O   UNL     1      15.472  27.255  41.450  1.00  0.00    -0.248 OA
ATOM     23  N   UNL     1      15.179  29.530  41.919  1.00  0.00    -0.308 N 
ATOM     24  H   UNL     1      15.564  30.483  41.730  1.00  0.00     0.171 HD
BRANCH  23  25
ATOM     25  C   UNL     1      13.830  29.430  42.407  1.00  0.00     0.043 A 
ATOM     26  C   UNL     1      12.753  29.179  41.539  1.00  0.00     0.040 A 
ATOM     27  C   UNL     1      13.591  29.524  43.783  1.00  0.00     0.028 A 
ATOM     28  C   UNL     1      11.437  29.063  42.032  1.00  0.00     0.076 A 
ATOM     29  C   UNL     1      12.295  29.411  44.285  1.00  0.00     0.023 A 
ATOM     30  C   UNL     1      11.218  29.187  43.423  1.00  0.00     0.053 A 
ATOM     31  Cl  UNL     1       9.608  29.055  44.128  1.00  0.00    -0.084 Cl
BRANCH  28  32
ATOM     32  C   UNL     1      10.283  28.799  41.089  1.00  0.00     0.417 C 
ATOM     33  F   UNL     1      10.765  28.604  39.807  1.00  0.00    -0.166 F 
ATOM     34  F   UNL     1       9.425  29.884  41.092  1.00  0.00    -0.166 F 
ATOM     35  F   UNL     1       9.562  27.675  41.456  1.00  0.00    -0.166 F 
ENDBRANCH  28  32
ENDBRANCH  23  25
ENDBRANCH   4  19
TORSDOF 6
ENDMDL
MODEL 12
REMARK VINA RESULT:    -9.759      7.922     13.913
REMARK INTER + INTRA:         -13.002
REMARK INTER:                 -12.766
REMARK INTRA:                  -0.236
REMARK UNBOUND:                 0.179
REMARK SMILES CNC(=O)c1cc(Oc2ccc(NC(=O)Nc3ccc(Cl)c(C(F)(F)F)c3)cc2)ccn1
REMARK SMILES IDX 9 1 10 2 11 3 12 4 28 5 29 6 8 7 7 8 5 9 32 10 6 11 31 12
REMARK SMILES IDX 30 13 3 14 1 15 2 16 4 18 13 19 14 20 15 22 16 23 17 25
REMARK SMILES IDX 27 26 18 27 22 28 19 29 20 30 21 31 23 32 24 33 25 34 26 35
REMARK H PARENT 2 17 13 21 16 24
REMARK Flexibility Score: inf
ROOT
ATOM      1  C   UNL     1      19.912  25.548  39.635  1.00  0.00     0.127 A 
ATOM      2  C   UNL     1      18.678  25.223  40.208  1.00  0.00     0.049 A 
ATOM      3  C   UNL     1      17.862  26.222  40.746  1.00  0.00     0.030 A 
ATOM      4  C   UNL     1      18.253  27.567  40.692  1.00  0.00     0.043 A 
ATOM      5  C   UNL     1      19.494  27.894  40.118  1.00  0.00     0.030 A 
ATOM      6  C   UNL     1      20.311  26.895  39.582  1.00  0.00     0.049 A 
ENDROOT
BRANCH   1   7
ATOM      7  O   UNL     1      20.695  24.519  39.091  1.00  0.00    -0.457 OA
BRANCH   7   8
ATOM      8  C   UNL     1      21.994  24.183  39.499  1.00  0.00     0.131 A 
ATOM      9  C   UNL     1      24.233  23.454  38.912  1.00  0.00     0.131 A 
ATOM     10  N   UNL     1      24.563  23.462  40.233  1.00  0.00    -0.251 NA
ATOM     11  C   UNL     1      22.929  23.811  38.528  1.00  0.00     0.081 A 
ATOM     12  C   UNL     1      23.670  23.803  41.199  1.00  0.00     0.116 A 
ATOM     13  C   UNL     1      22.368  24.163  40.852  1.00  0.00     0.067 A 
BRANCH   9  14
ATOM     14  C   UNL     1      25.247  23.070  37.906  1.00  0.00     0.269 C 
ATOM     15  C   UNL     1      25.828  22.259  35.585  1.00  0.00     0.143 C 
ATOM     16  N   UNL     1      24.850  22.649  36.592  1.00  0.00    -0.354 N 
ATOM     17  H   UNL     1      23.837  22.615  36.336  1.00  0.00     0.163 HD
ATOM     18  O   UNL     1      26.473  23.113  38.202  1.00  0.00    -0.268 OA
ENDBRANCH   9  14
ENDBRANCH   7   8
ENDBRANCH   1   7
BRANCH   4  19
ATOM     19  N   UNL     1      17.405  28.572  41.274  1.00  0.00    -0.308 N 
ATOM     20  C   UNL     1      16.012  28.382  41.568  1.00  0.00     0.323 C 
ATOM     21  H   UNL     1      17.847  29.465  41.589  1.00  0.00     0.171 HD
ATOM     22  O   UNL     1      15.500  27.231  41.508  1.00  0.00    -0.248 OA
ATOM     23  N   UNL     1      15.209  29.516  41.930  1.00  0.00    -0.308 N 
ATOM     24  H   UNL     1      15.587  30.465  41.712  1.00  0.00     0.171 HD
BRANCH  23  25
ATOM     25  C   UNL     1      13.870  29.423  42.445  1.00  0.00     0.043 A 
ATOM     26  C   UNL     1      13.612  29.462  43.827  1.00  0.00     0.040 A 
ATOM     27  C   UNL     1      12.795  29.355  41.551  1.00  0.00     0.028 A 
ATOM     28  C   UNL     1      12.292  29.391  44.320  1.00  0.00     0.076 A 
ATOM     29  C   UNL     1      11.485  29.284  42.024  1.00  0.00     0.023 A 
ATOM     30  C   UNL     1      11.225  29.296  43.398  1.00  0.00     0.053 A 
ATOM     31  Cl  UNL     1       9.546  29.205  43.922  1.00  0.00    -0.084 Cl
BRANCH  28  32
ATOM     32  C   UNL     1      12.025  29.427  45.809  1.00  0.00     0.417 C 
ATOM     33  F   UNL     1      13.217  29.581  46.492  1.00  0.00    -0.166 F 
ATOM     34  F   UNL     1      11.425  28.243  46.201  1.00  0.00    -0.166 F 
ATOM     35  F   UNL     1      11.187  30.473  46.159  1.00  0.00    -0.166 F 
ENDBRANCH  28  32
ENDBRANCH  23  25
ENDBRANCH   4  19
TORSDOF 6
ENDMDL
MODEL 13
REMARK VINA RESULT:    -9.713      7.379     13.184
REMARK INTER + INTRA:         -12.941
REMARK INTER:                 -13.211
REMARK INTRA:                   0.271
REMARK UNBOUND:                 0.179
REMARK SMILES CNC(=O)c1cc(Oc2ccc(NC(=O)Nc3ccc(Cl)c(C(F)(F)F)c3)cc2)ccn1
REMARK SMILES IDX 9 1 10 2 11 3 12 4 28 5 29 6 8 7 7 8 5 9 32 10 6 11 31 12
REMARK SMILES IDX 30 13 3 14 1 15 2 16 4 18 13 19 14 20 15 22 16 23 17 25
REMARK SMILES IDX 27 26 18 27 22 28 19 29 20 30 21 31 23 32 24 33 25 34 26 35
REMARK H PARENT 2 17 13 21 16 24
REMARK Flexibility Score: inf
ROOT
ATOM      1  C   UNL     1      20.227  26.683  39.955  1.00  0.00     0.127 A 
ATOM      2  C   UNL     1      19.350  25.697  40.419  1.00  0.00     0.049 A 
ATOM      3  C   UNL     1      18.105  26.049  40.948  1.00  0.00     0.030 A 
ATOM      4  C   UNL     1      17.705  27.392  40.994  1.00  0.00     0.043 A 
ATOM      5  C   UNL     1      18.586  28.384  40.529  1.00  0.00     0.030 A 
ATOM      6  C   UNL     1      19.832  28.032  40.002  1.00  0.00     0.049 A 
ENDROOT
BRANCH   1   7
ATOM      7  O   UNL     1      21.461  26.289  39.416  1.00  0.00    -0.457 OA
BRANCH   7   8
ATOM      8  C   UNL     1      21.702  25.090  38.729  1.00  0.00     0.131 A 
ATOM      9  C   UNL     1      23.275  23.608  37.624  1.00  0.00     0.131 A 
ATOM     10  N   UNL     1      22.247  22.764  37.332  1.00  0.00    -0.251 NA
ATOM     11  C   UNL     1      23.008  24.796  38.327  1.00  0.00     0.081 A 
ATOM     12  C   UNL     1      20.965  23.033  37.696  1.00  0.00     0.116 A 
ATOM     13  C   UNL     1      20.668  24.202  38.395  1.00  0.00     0.067 A 
BRANCH   9  14
ATOM     14  C   UNL     1      24.649  23.266  37.198  1.00  0.00     0.269 C 
ATOM     15  C   UNL     1      26.236  22.344  35.462  1.00  0.00     0.143 C 
ATOM     16  N   UNL     1      24.893  22.698  35.902  1.00  0.00    -0.354 N 
ATOM     17  H   UNL     1      24.096  22.526  35.247  1.00  0.00     0.163 HD
ATOM     18  O   UNL     1      25.618  23.473  37.979  1.00  0.00    -0.268 OA
ENDBRANCH   9  14
ENDBRANCH   7   8
ENDBRANCH   1   7
BRANCH   4  19
ATOM     19  N   UNL     1      16.429  27.728  41.565  1.00  0.00    -0.308 N 
ATOM     20  C   UNL     1      15.228  26.964  41.367  1.00  0.00     0.323 C 
ATOM     21  H   UNL     1      16.387  28.524  42.242  1.00  0.00     0.171 HD
ATOM     22  O   UNL     1      15.280  25.825  40.829  1.00  0.00    -0.248 OA
ATOM     23  N   UNL     1      13.970  27.510  41.789  1.00  0.00    -0.308 N 
ATOM     24  H   UNL     1      13.928  28.537  41.977  1.00  0.00     0.171 HD
BRANCH  23  25
ATOM     25  C   UNL     1      12.742  26.763  41.837  1.00  0.00     0.043 A 
ATOM     26  C   UNL     1      11.863  26.726  40.740  1.00  0.00     0.040 A 
ATOM     27  C   UNL     1      12.445  26.007  42.977  1.00  0.00     0.028 A 
ATOM     28  C   UNL     1      10.672  25.973  40.792  1.00  0.00     0.076 A 
ATOM     29  C   UNL     1      11.271  25.257  43.042  1.00  0.00     0.023 A 
ATOM     30  C   UNL     1      10.381  25.238  41.964  1.00  0.00     0.053 A 
ATOM     31  Cl  UNL     1       8.918  24.268  42.117  1.00  0.00    -0.084 Cl
BRANCH  28  32
ATOM     32  C   UNL     1       9.728  25.945  39.609  1.00  0.00     0.417 C 
ATOM     33  F   UNL     1      10.261  26.686  38.571  1.00  0.00    -0.166 F 
ATOM     34  F   UNL     1       8.509  26.487  39.976  1.00  0.00    -0.166 F 
ATOM     35  F   UNL     1       9.509  24.656  39.153  1.00  0.00    -0.166 F 
ENDBRANCH  28  32
ENDBRANCH  23  25
ENDBRANCH   4  19
TORSDOF 6
ENDMDL
MODEL 14
REMARK VINA RESULT:    -9.695      4.307      6.770
REMARK INTER + INTRA:         -12.916
REMARK INTER:                 -12.776
REMARK INTRA:                  -0.141
REMARK UNBOUND:                 0.179
REMARK SMILES CNC(=O)c1cc(Oc2ccc(NC(=O)Nc3ccc(Cl)c(C(F)(F)F)c3)cc2)ccn1
REMARK SMILES IDX 9 1 10 2 11 3 12 4 28 5 29 6 8 7 7 8 5 9 32 10 6 11 31 12
REMARK SMILES IDX 30 13 3 14 1 15 2 16 4 18 13 19 14 20 15 22 16 23 17 25
REMARK SMILES IDX 27 26 18 27 22 28 19 29 20 30 21 31 23 32 24 33 25 34 26 35
REMARK H PARENT 2 17 13 21 16 24
REMARK Flexibility Score: inf
ROOT
ATOM      1  C   UNL     1      16.447  28.021  41.206  1.00  0.00     0.127 A 
ATOM      2  C   UNL     1      15.935  26.732  41.027  1.00  0.00     0.049 A 
ATOM      3  C   UNL     1      16.795  25.653  40.798  1.00  0.00     0.030 A 
ATOM      4  C   UNL     1      18.183  25.843  40.776  1.00  0.00     0.043 A 
ATOM      5  C   UNL     1      18.699  27.139  40.955  1.00  0.00     0.030 A 
ATOM      6  C   UNL     1      17.839  28.217  41.181  1.00  0.00     0.049 A 
ENDROOT
BRANCH   1   7
ATOM      7  O   UNL     1      15.552  29.074  41.450  1.00  0.00    -0.457 OA
BRANCH   7   8
ATOM      8  C   UNL     1      14.287  28.946  42.040  1.00  0.00     0.131 A 
ATOM      9  C   UNL     1      11.902  28.574  41.786  1.00  0.00     0.131 A 
ATOM     10  N   UNL     1      11.753  28.726  43.131  1.00  0.00    -0.251 NA
ATOM     11  C   UNL     1      13.184  28.691  41.220  1.00  0.00     0.081 A 
ATOM     12  C   UNL     1      12.804  28.990  43.949  1.00  0.00     0.116 A 
ATOM     13  C   UNL     1      14.089  29.112  43.420  1.00  0.00     0.067 A 
BRANCH   9  14
ATOM     14  C   UNL     1      10.720  28.291  40.944  1.00  0.00     0.269 C 
ATOM     15  C   UNL     1       9.624  28.203  38.669  1.00  0.00     0.143 C 
ATOM     16  N   UNL     1      10.777  28.466  39.520  1.00  0.00    -0.354 N 
ATOM     17  H   UNL     1      11.661  28.792  39.067  1.00  0.00     0.163 HD
ATOM     18  O   UNL     1       9.649  27.892  41.479  1.00  0.00    -0.268 OA
ENDBRANCH   9  14
ENDBRANCH   7   8
ENDBRANCH   1   7
BRANCH   4  19
ATOM     19  N   UNL     1      19.044  24.721  40.515  1.00  0.00    -0.308 N 
ATOM     20  C   UNL     1      20.232  24.784  39.711  1.00  0.00     0.323 C 
ATOM     21  H   UNL     1      18.847  23.824  41.014  1.00  0.00     0.171 HD
ATOM     22  O   UNL     1      20.696  25.899  39.347  1.00  0.00    -0.248 OA
ATOM     23  N   UNL     1      20.887  23.566  39.327  1.00  0.00    -0.308 N 
ATOM     24  H   UNL     1      20.343  22.678  39.412  1.00  0.00     0.171 HD
BRANCH  23  25
ATOM     25  C   UNL     1      22.185  23.507  38.710  1.00  0.00     0.043 A 
ATOM     26  C   UNL     1      23.350  23.303  39.470  1.00  0.00     0.040 A 
ATOM     27  C   UNL     1      22.285  23.594  37.316  1.00  0.00     0.028 A 
ATOM     28  C   UNL     1      24.615  23.228  38.851  1.00  0.00     0.076 A 
ATOM     29  C   UNL     1      23.529  23.521  36.690  1.00  0.00     0.023 A 
ATOM     30  C   UNL     1      24.693  23.345  37.445  1.00  0.00     0.053 A 
ATOM     31  Cl  UNL     1      26.230  23.260  36.587  1.00  0.00    -0.084 Cl
BRANCH  28  32
ATOM     32  C   UNL     1      25.864  23.015  39.679  1.00  0.00     0.417 C 
ATOM     33  F   UNL     1      26.198  21.673  39.680  1.00  0.00    -0.166 F 
ATOM     34  F   UNL     1      25.634  23.428  40.980  1.00  0.00    -0.166 F 
ATOM     35  F   UNL     1      26.941  23.729  39.182  1.00  0.00    -0.166 F 
ENDBRANCH  28  32
ENDBRANCH  23  25
ENDBRANCH   4  19
TORSDOF 6
ENDMDL
MODEL 15
REMARK VINA RESULT:    -9.688      8.807     12.419
REMARK INTER + INTRA:         -12.907
REMARK INTER:                 -12.250
REMARK INTRA:                  -0.657
REMARK UNBOUND:                 0.179
REMARK SMILES CNC(=O)c1cc(Oc2ccc(NC(=O)Nc3ccc(Cl)c(C(F)(F)F)c3)cc2)ccn1
REMARK SMILES IDX 9 1 10 2 11 3 12 4 28 5 29 6 8 7 7 8 5 9 32 10 6 11 31 12
REMARK SMILES IDX 30 13 3 14 1 15 2 16 4 18 13 19 14 20 15 22 16 23 17 25
REMARK SMILES IDX 27 26 18 27 22 28 19 29 20 30 21 31 23 32 24 33 25 34 26 35
REMARK H PARENT 2 17 13 21 16 24
REMARK Flexibility Score: inf
ROOT
ATOM      1  C   UNL     1      10.128  22.620  38.540  1.00  0.00     0.127 A 
ATOM      2  C   UNL     1       9.826  23.926  38.937  1.00  0.00     0.049 A 
ATOM      3  C   UNL     1      10.741  24.668  39.691  1.00  0.00     0.030 A 
ATOM      4  C   UNL     1      11.987  24.124  40.033  1.00  0.00     0.043 A 
ATOM      5  C   UNL     1      12.291  22.810  39.636  1.00  0.00     0.030 A 
ATOM      6  C   UNL     1      11.375  22.068  38.884  1.00  0.00     0.049 A 
ENDROOT
BRANCH   1   7
ATOM      7  O   UNL     1       9.191  21.915  37.771  1.00  0.00    -0.457 OA
BRANCH   7   8
ATOM      8  C   UNL     1       9.489  20.881  36.871  1.00  0.00     0.131 A 
ATOM      9  C   UNL     1       9.686  18.503  36.429  1.00  0.00     0.131 A 
ATOM     10  N   UNL     1      10.104  18.791  35.165  1.00  0.00    -0.251 NA
ATOM     11  C   UNL     1       9.378  19.557  37.306  1.00  0.00     0.081 A 
ATOM     12  C   UNL     1      10.238  20.069  34.721  1.00  0.00     0.116 A 
ATOM     13  C   UNL     1       9.939  21.137  35.567  1.00  0.00     0.067 A 
BRANCH   9  14
ATOM     14  C   UNL     1       9.564  17.093  36.857  1.00  0.00     0.269 C 
ATOM     15  C   UNL     1      10.625  14.968  37.718  1.00  0.00     0.143 C 
ATOM     16  N   UNL     1      10.717  16.360  37.298  1.00  0.00    -0.354 N 
ATOM     17  H   UNL     1      11.654  16.823  37.323  1.00  0.00     0.163 HD
ATOM     18  O   UNL     1       8.437  16.526  36.836  1.00  0.00    -0.268 OA
ENDBRANCH   9  14
ENDBRANCH   7   8
ENDBRANCH   1   7
BRANCH   4  19
ATOM     19  N   UNL     1      12.899  24.899  40.829  1.00  0.00    -0.308 N 
ATOM     20  C   UNL     1      14.238  25.232  40.429  1.00  0.00     0.323 C 
ATOM     21  H   UNL     1      12.540  25.327  41.713  1.00  0.00     0.171 HD
ATOM     22  O   UNL     1      14.620  25.021  39.246  1.00  0.00    -0.248 OA
ATOM     23  N   UNL     1      15.136  25.809  41.389  1.00  0.00    -0.308 N 
ATOM     24  H   UNL     1      14.884  25.722  42.399  1.00  0.00     0.171 HD
BRANCH  23  25
ATOM     25  C   UNL     1      16.417  26.373  41.058  1.00  0.00     0.043 A 
ATOM     26  C   UNL     1      17.477  25.569  40.602  1.00  0.00     0.040 A 
ATOM     27  C   UNL     1      16.594  27.760  41.132  1.00  0.00     0.028 A 
ATOM     28  C   UNL     1      18.721  26.137  40.260  1.00  0.00     0.076 A 
ATOM     29  C   UNL     1      17.819  28.335  40.798  1.00  0.00     0.023 A 
ATOM     30  C   UNL     1      18.884  27.537  40.369  1.00  0.00     0.053 A 
ATOM     31  Cl  UNL     1      20.403  28.333  39.963  1.00  0.00    -0.084 Cl
BRANCH  28  32
ATOM     32  C   UNL     1      19.859  25.262  39.777  1.00  0.00     0.417 C 
ATOM     33  F   UNL     1      19.506  23.931  39.901  1.00  0.00    -0.166 F 
ATOM     34  F   UNL     1      20.987  25.507  40.539  1.00  0.00    -0.166 F 
ATOM     35  F   UNL     1      20.170  25.506  38.450  1.00  0.00    -0.166 F 
ENDBRANCH  28  32
ENDBRANCH  23  25
ENDBRANCH   4  19
TORSDOF 6
ENDMDL
