MODEL 1
REMARK VINA RESULT:    -6.763      0.000      0.000
REMARK INTER + INTRA:         -11.049
REMARK INTER:                 -10.124
REMARK INTRA:                  -0.925
REMARK UNBOUND:                -0.925
REMARK SMILES C=CCc1ccccc1OCC(O)CNC(C)C
REMARK SMILES IDX 11 1 12 2 14 3 15 4 16 6 17 7 18 8 13 9 10 11 9 12 8 13 4 14
REMARK SMILES IDX 7 15 5 16 6 17 3 18 2 19 1 20
REMARK H PARENT 15 5 13 10
REMARK Flexibility Score: inf
ROOT
ATOM      1  C   UNL     1      12.106   7.888  16.095  1.00  0.00     0.262 C 
ENDROOT
BRANCH   1   2
ATOM      2  C   UNL     1      11.902   7.473  17.566  1.00  0.00     0.165 C 
BRANCH   2   3
ATOM      3  C   UNL     1      11.053   8.478  18.366  1.00  0.00     0.116 C 
BRANCH   3   4
ATOM      4  N   UNL     1       9.849   8.844  17.600  1.00  0.00    -0.312 NA
ATOM      5  H   UNL     1       9.021   8.330  17.986  1.00  0.00     0.123 HD
BRANCH   4   6
ATOM      6  C   UNL     1       9.581  10.296  17.610  1.00  0.00     0.047 C 
ATOM      7  C   UNL     1       8.139  10.532  18.061  1.00  0.00     0.024 C 
ATOM      8  C   UNL     1      10.557  11.048  18.531  1.00  0.00     0.024 C 
ENDBRANCH   4   6
ENDBRANCH   3   4
ENDBRANCH   2   3
BRANCH   2   9
ATOM      9  O   UNL     1      11.358   6.180  17.644  1.00  0.00    -0.388 OA
ATOM     10  H   UNL     1      10.498   6.186  17.149  1.00  0.00     0.211 HD
ENDBRANCH   2   9
ENDBRANCH   1   2
BRANCH   1  11
ATOM     11  O   UNL     1      13.336   8.597  15.907  1.00  0.00    -0.491 OA
BRANCH  11  12
ATOM     12  C   UNL     1      13.629   9.899  16.356  1.00  0.00     0.122 A 
ATOM     13  C   UNL     1      14.572  10.152  17.374  1.00  0.00     0.047 A 
ATOM     14  C   UNL     1      12.952  10.987  15.763  1.00  0.00    -0.002 A 
ATOM     15  C   UNL     1      14.822  11.459  17.799  1.00  0.00     0.004 A 
ATOM     16  C   UNL     1      13.210  12.295  16.207  1.00  0.00     0.008 A 
ATOM     17  C   UNL     1      14.142  12.528  17.218  1.00  0.00     0.001 A 
BRANCH  14  18
ATOM     18  C   UNL     1      11.899  10.759  14.705  1.00  0.00     0.066 C 
BRANCH  18  19
ATOM     19  C   UNL     1      11.039  11.980  14.516  1.00  0.00    -0.030 C 
ATOM     20  C   UNL     1      10.970  12.623  13.347  1.00  0.00     0.004 C 
ENDBRANCH  18  19
ENDBRANCH  14  18
ENDBRANCH  11  12
ENDBRANCH   1  11
TORSDOF 9
ENDMDL
MODEL 2
REMARK VINA RESULT:    -6.735      2.091      3.944
REMARK INTER + INTRA:         -11.007
REMARK INTER:                  -9.904
REMARK INTRA:                  -1.103
REMARK UNBOUND:                -0.925
REMARK SMILES C=CCc1ccccc1OCC(O)CNC(C)C
REMARK SMILES IDX 11 1 12 2 14 3 15 4 16 6 17 7 18 8 13 9 10 11 9 12 8 13 4 14
REMARK SMILES IDX 7 15 5 16 6 17 3 18 2 19 1 20
REMARK H PARENT 15 5 13 10
REMARK Flexibility Score: inf
ROOT
ATOM      1  C   UNL     1      12.167   7.548  16.477  1.00  0.00     0.262 C 
ENDROOT
BRANCH   1   2
ATOM      2  C   UNL     1      11.424   7.662  17.824  1.00  0.00     0.165 C 
BRANCH   2   3
ATOM      3  C   UNL     1      12.277   8.304  18.932  1.00  0.00     0.116 C 
BRANCH   3   4
ATOM      4  N   UNL     1      13.543   7.567  19.086  1.00  0.00    -0.312 NA
ATOM      5  H   UNL     1      14.122   7.684  18.220  1.00  0.00     0.123 HD
BRANCH   4   6
ATOM      6  C   UNL     1      14.321   8.001  20.264  1.00  0.00     0.047 C 
ATOM      7  C   UNL     1      14.015   9.472  20.548  1.00  0.00     0.024 C 
ATOM      8  C   UNL     1      14.004   7.143  21.501  1.00  0.00     0.024 C 
ENDBRANCH   4   6
ENDBRANCH   3   4
ENDBRANCH   2   3
BRANCH   2   9
ATOM      9  O   UNL     1      10.208   8.348  17.661  1.00  0.00    -0.388 OA
ATOM     10  H   UNL     1      10.001   8.797  18.521  1.00  0.00     0.211 HD
ENDBRANCH   2   9
ENDBRANCH   1   2
BRANCH   1  11
ATOM     11  O   UNL     1      13.077   8.636  16.277  1.00  0.00    -0.491 OA
BRANCH  11  12
ATOM     12  C   UNL     1      12.749   9.931  15.830  1.00  0.00     0.122 A 
ATOM     13  C   UNL     1      11.706  10.171  14.911  1.00  0.00     0.047 A 
ATOM     14  C   UNL     1      13.494  11.024  16.323  1.00  0.00    -0.002 A 
ATOM     15  C   UNL     1      11.423  11.470  14.484  1.00  0.00     0.004 A 
ATOM     16  C   UNL     1      13.201  12.325  15.878  1.00  0.00     0.008 A 
ATOM     17  C   UNL     1      12.169  12.545  14.965  1.00  0.00     0.001 A 
BRANCH  14  18
ATOM     18  C   UNL     1      14.650  10.809  17.270  1.00  0.00     0.066 C 
BRANCH  18  19
ATOM     19  C   UNL     1      15.039  12.090  17.958  1.00  0.00    -0.030 C 
ATOM     20  C   UNL     1      16.317  12.429  18.152  1.00  0.00     0.004 C 
ENDBRANCH  18  19
ENDBRANCH  14  18
ENDBRANCH  11  12
ENDBRANCH   1  11
TORSDOF 9
ENDMDL
MODEL 3
REMARK VINA RESULT:    -6.732      0.949      2.860
REMARK INTER + INTRA:         -11.001
REMARK INTER:                 -10.084
REMARK INTRA:                  -0.917
REMARK UNBOUND:                -0.925
REMARK SMILES C=CCc1ccccc1OCC(O)CNC(C)C
REMARK SMILES IDX 11 1 12 2 14 3 15 4 16 6 17 7 18 8 13 9 10 11 9 12 8 13 4 14
REMARK SMILES IDX 7 15 5 16 6 17 3 18 2 19 1 20
REMARK H PARENT 15 5 13 10
REMARK Flexibility Score: inf
ROOT
ATOM      1  C   UNL     1      13.135   7.906  17.793  1.00  0.00     0.262 C 
ENDROOT
BRANCH   1   2
ATOM      2  C   UNL     1      11.662   7.512  18.030  1.00  0.00     0.165 C 
BRANCH   2   3
ATOM      3  C   UNL     1      10.806   8.674  18.565  1.00  0.00     0.116 C 
BRANCH   3   4
ATOM      4  N   UNL     1       9.698   8.956  17.635  1.00  0.00    -0.312 NA
ATOM      5  H   UNL     1       8.871   8.364  17.890  1.00  0.00     0.123 HD
BRANCH   4   6
ATOM      6  C   UNL     1       9.306  10.379  17.623  1.00  0.00     0.047 C 
ATOM      7  C   UNL     1       7.927  10.520  18.270  1.00  0.00     0.024 C 
ATOM      8  C   UNL     1      10.332  11.258  18.359  1.00  0.00     0.024 C 
ENDBRANCH   4   6
ENDBRANCH   3   4
ENDBRANCH   2   3
BRANCH   2   9
ATOM      9  O   UNL     1      11.101   6.968  16.863  1.00  0.00    -0.388 OA
ATOM     10  H   UNL     1      11.682   7.228  16.103  1.00  0.00     0.211 HD
ENDBRANCH   2   9
ENDBRANCH   1   2
BRANCH   1  11
ATOM     11  O   UNL     1      13.342   8.424  16.474  1.00  0.00    -0.491 OA
BRANCH  11  12
ATOM     12  C   UNL     1      12.947   9.691  16.000  1.00  0.00     0.122 A 
ATOM     13  C   UNL     1      11.922   9.854  15.045  1.00  0.00     0.047 A 
ATOM     14  C   UNL     1      13.605  10.835  16.502  1.00  0.00    -0.002 A 
ATOM     15  C   UNL     1      11.572  11.128  14.592  1.00  0.00     0.004 A 
ATOM     16  C   UNL     1      13.245  12.109  16.030  1.00  0.00     0.008 A 
ATOM     17  C   UNL     1      12.232  12.253  15.083  1.00  0.00     0.001 A 
BRANCH  14  18
ATOM     18  C   UNL     1      14.741  10.704  17.488  1.00  0.00     0.066 C 
BRANCH  18  19
ATOM     19  C   UNL     1      15.156  12.047  18.026  1.00  0.00    -0.030 C 
ATOM     20  C   UNL     1      16.437  12.424  18.079  1.00  0.00     0.004 C 
ENDBRANCH  18  19
ENDBRANCH  14  18
ENDBRANCH  11  12
ENDBRANCH   1  11
TORSDOF 9
ENDMDL
MODEL 4
REMARK VINA RESULT:    -6.681      1.744      3.440
REMARK INTER + INTRA:         -10.926
REMARK INTER:                  -9.415
REMARK INTRA:                  -1.511
REMARK UNBOUND:                -0.925
REMARK SMILES C=CCc1ccccc1OCC(O)CNC(C)C
REMARK SMILES IDX 11 1 12 2 14 3 15 4 16 6 17 7 18 8 13 9 10 11 9 12 8 13 4 14
REMARK SMILES IDX 7 15 5 16 6 17 3 18 2 19 1 20
REMARK H PARENT 15 5 13 10
REMARK Flexibility Score: inf
ROOT
ATOM      1  C   UNL     1      12.860   7.543  18.628  1.00  0.00     0.262 C 
ENDROOT
BRANCH   1   2
ATOM      2  C   UNL     1      13.290   8.180  19.966  1.00  0.00     0.165 C 
BRANCH   2   3
ATOM      3  C   UNL     1      12.471   9.432  20.329  1.00  0.00     0.116 C 
BRANCH   3   4
ATOM      4  N   UNL     1      11.122   9.341  19.745  1.00  0.00    -0.312 NA
ATOM      5  H   UNL     1      10.490   8.828  20.406  1.00  0.00     0.123 HD
BRANCH   4   6
ATOM      6  C   UNL     1      10.542  10.661  19.428  1.00  0.00     0.047 C 
ATOM      7  C   UNL     1      11.663  11.701  19.395  1.00  0.00     0.024 C 
ATOM      8  C   UNL     1       9.790  10.645  18.086  1.00  0.00     0.024 C 
ENDBRANCH   4   6
ENDBRANCH   3   4
ENDBRANCH   2   3
BRANCH   2   9
ATOM      9  O   UNL     1      13.246   7.232  21.001  1.00  0.00    -0.388 OA
ATOM     10  H   UNL     1      13.344   6.335  20.590  1.00  0.00     0.211 HD
ENDBRANCH   2   9
ENDBRANCH   1   2
BRANCH   1  11
ATOM     11  O   UNL     1      13.575   8.099  17.519  1.00  0.00    -0.491 OA
BRANCH  11  12
ATOM     12  C   UNL     1      13.133   9.136  16.674  1.00  0.00     0.122 A 
ATOM     13  C   UNL     1      12.097   8.954  15.734  1.00  0.00     0.047 A 
ATOM     14  C   UNL     1      13.754  10.400  16.774  1.00  0.00    -0.002 A 
ATOM     15  C   UNL     1      11.700  10.006  14.905  1.00  0.00     0.004 A 
ATOM     16  C   UNL     1      13.347  11.445  15.927  1.00  0.00     0.008 A 
ATOM     17  C   UNL     1      12.324  11.248  15.000  1.00  0.00     0.001 A 
BRANCH  14  18
ATOM     18  C   UNL     1      14.900  10.625  17.731  1.00  0.00     0.066 C 
BRANCH  18  19
ATOM     19  C   UNL     1      15.254  12.085  17.827  1.00  0.00    -0.030 C 
ATOM     20  C   UNL     1      16.472  12.497  18.190  1.00  0.00     0.004 C 
ENDBRANCH  18  19
ENDBRANCH  14  18
ENDBRANCH  11  12
ENDBRANCH   1  11
TORSDOF 9
ENDMDL
MODEL 5
REMARK VINA RESULT:    -6.399      2.250      4.248
REMARK INTER + INTRA:         -10.503
REMARK INTER:                  -9.513
REMARK INTRA:                  -0.990
REMARK UNBOUND:                -0.925
REMARK SMILES C=CCc1ccccc1OCC(O)CNC(C)C
REMARK SMILES IDX 11 1 12 2 14 3 15 4 16 6 17 7 18 8 13 9 10 11 9 12 8 13 4 14
REMARK SMILES IDX 7 15 5 16 6 17 3 18 2 19 1 20
REMARK H PARENT 15 5 13 10
REMARK Flexibility Score: inf
ROOT
ATOM      1  C   UNL     1      13.417   8.356  16.498  1.00  0.00     0.262 C 
ENDROOT
BRANCH   1   2
ATOM      2  C   UNL     1      12.061   8.646  15.824  1.00  0.00     0.165 C 
BRANCH   2   3
ATOM      3  C   UNL     1      11.168   9.593  16.647  1.00  0.00     0.116 C 
BRANCH   3   4
ATOM      4  N   UNL     1      10.195   8.814  17.433  1.00  0.00    -0.312 NA
ATOM      5  H   UNL     1      10.670   7.973  17.840  1.00  0.00     0.123 HD
BRANCH   4   6
ATOM      6  C   UNL     1       9.569   9.601  18.514  1.00  0.00     0.047 C 
ATOM      7  C   UNL     1      10.510  10.741  18.908  1.00  0.00     0.024 C 
ATOM      8  C   UNL     1       8.202  10.163  18.089  1.00  0.00     0.024 C 
ENDBRANCH   4   6
ENDBRANCH   3   4
ENDBRANCH   2   3
BRANCH   2   9
ATOM      9  O   UNL     1      12.250   9.136  14.522  1.00  0.00    -0.388 OA
ATOM     10  H   UNL     1      11.361   9.394  14.167  1.00  0.00     0.211 HD
ENDBRANCH   2   9
ENDBRANCH   1   2
BRANCH   1  11
ATOM     11  O   UNL     1      13.446   8.810  17.856  1.00  0.00    -0.491 OA
BRANCH  11  12
ATOM     12  C   UNL     1      14.142   9.931  18.349  1.00  0.00     0.122 A 
ATOM     13  C   UNL     1      14.844  10.816  17.504  1.00  0.00     0.047 A 
ATOM     14  C   UNL     1      14.133  10.174  19.740  1.00  0.00    -0.002 A 
ATOM     15  C   UNL     1      15.532  11.909  18.036  1.00  0.00     0.004 A 
ATOM     16  C   UNL     1      14.836  11.274  20.260  1.00  0.00     0.008 A 
ATOM     17  C   UNL     1      15.529  12.137  19.411  1.00  0.00     0.001 A 
BRANCH  14  18
ATOM     18  C   UNL     1      13.436   9.226  20.686  1.00  0.00     0.066 C 
BRANCH  18  19
ATOM     19  C   UNL     1      14.400   8.641  21.683  1.00  0.00    -0.030 C 
ATOM     20  C   UNL     1      14.668   7.333  21.725  1.00  0.00     0.004 C 
ENDBRANCH  18  19
ENDBRANCH  14  18
ENDBRANCH  11  12
ENDBRANCH   1  11
TORSDOF 9
ENDMDL
MODEL 6
REMARK VINA RESULT:    -6.382      1.510      2.249
REMARK INTER + INTRA:         -10.478
REMARK INTER:                  -9.469
REMARK INTRA:                  -1.009
REMARK UNBOUND:                -0.925
REMARK SMILES C=CCc1ccccc1OCC(O)CNC(C)C
REMARK SMILES IDX 11 1 12 2 14 3 15 4 16 6 17 7 18 8 13 9 10 11 9 12 8 13 4 14
REMARK SMILES IDX 7 15 5 16 6 17 3 18 2 19 1 20
REMARK H PARENT 15 5 13 10
REMARK Flexibility Score: inf
ROOT
ATOM      1  C   UNL     1      12.642   8.261  19.031  1.00  0.00     0.262 C 
ENDROOT
BRANCH   1   2
ATOM      2  C   UNL     1      11.583   7.624  18.107  1.00  0.00     0.165 C 
BRANCH   2   3
ATOM      3  C   UNL     1      10.611   8.654  17.505  1.00  0.00     0.116 C 
BRANCH   3   4
ATOM      4  N   UNL     1       9.561   8.991  18.483  1.00  0.00    -0.312 NA
ATOM      5  H   UNL     1      10.007   9.293  19.382  1.00  0.00     0.123 HD
BRANCH   4   6
ATOM      6  C   UNL     1       8.646  10.046  18.004  1.00  0.00     0.047 C 
ATOM      7  C   UNL     1       7.676  10.410  19.128  1.00  0.00     0.024 C 
ATOM      8  C   UNL     1       9.414  11.295  17.538  1.00  0.00     0.024 C 
ENDBRANCH   4   6
ENDBRANCH   3   4
ENDBRANCH   2   3
BRANCH   2   9
ATOM      9  O   UNL     1      12.199   6.863  17.100  1.00  0.00    -0.388 OA
ATOM     10  H   UNL     1      12.256   5.928  17.424  1.00  0.00     0.211 HD
ENDBRANCH   2   9
ENDBRANCH   1   2
BRANCH   1  11
ATOM     11  O   UNL     1      12.620   9.691  18.963  1.00  0.00    -0.491 OA
BRANCH  11  12
ATOM     12  C   UNL     1      13.737  10.548  18.984  1.00  0.00     0.122 A 
ATOM     13  C   UNL     1      14.221  11.129  20.175  1.00  0.00     0.047 A 
ATOM     14  C   UNL     1      14.393  10.833  17.766  1.00  0.00    -0.002 A 
ATOM     15  C   UNL     1      15.325  11.984  20.148  1.00  0.00     0.004 A 
ATOM     16  C   UNL     1      15.497  11.702  17.756  1.00  0.00     0.008 A 
ATOM     17  C   UNL     1      15.961  12.271  18.942  1.00  0.00     0.001 A 
BRANCH  14  18
ATOM     18  C   UNL     1      13.879  10.273  16.461  1.00  0.00     0.066 C 
BRANCH  18  19
ATOM     19  C   UNL     1      13.078  11.298  15.704  1.00  0.00    -0.030 C 
ATOM     20  C   UNL     1      12.056  10.956  14.914  1.00  0.00     0.004 C 
ENDBRANCH  18  19
ENDBRANCH  14  18
ENDBRANCH  11  12
ENDBRANCH   1  11
TORSDOF 9
ENDMDL
MODEL 7
REMARK VINA RESULT:    -6.375      2.069      4.040
REMARK INTER + INTRA:         -10.468
REMARK INTER:                  -9.163
REMARK INTRA:                  -1.305
REMARK UNBOUND:                -0.925
REMARK SMILES C=CCc1ccccc1OCC(O)CNC(C)C
REMARK SMILES IDX 11 1 12 2 14 3 15 4 16 6 17 7 18 8 13 9 10 11 9 12 8 13 4 14
REMARK SMILES IDX 7 15 5 16 6 17 3 18 2 19 1 20
REMARK H PARENT 15 5 13 10
REMARK Flexibility Score: inf
ROOT
ATOM      1  C   UNL     1      10.233  11.022  18.325  1.00  0.00     0.262 C 
ENDROOT
BRANCH   1   2
ATOM      2  C   UNL     1      10.249   9.566  17.816  1.00  0.00     0.165 C 
BRANCH   2   3
ATOM      3  C   UNL     1      11.213   8.661  18.604  1.00  0.00     0.116 C 
BRANCH   3   4
ATOM      4  N   UNL     1      11.575   9.300  19.881  1.00  0.00    -0.312 NA
ATOM      5  H   UNL     1      10.948   8.941  20.640  1.00  0.00     0.123 HD
BRANCH   4   6
ATOM      6  C   UNL     1      12.986   9.076  20.256  1.00  0.00     0.047 C 
ATOM      7  C   UNL     1      13.424   7.703  19.745  1.00  0.00     0.024 C 
ATOM      8  C   UNL     1      13.905  10.172  19.691  1.00  0.00     0.024 C 
ENDBRANCH   4   6
ENDBRANCH   3   4
ENDBRANCH   2   3
BRANCH   2   9
ATOM      9  O   UNL     1       8.950   9.031  17.805  1.00  0.00    -0.388 OA
ATOM     10  H   UNL     1       8.793   8.611  18.690  1.00  0.00     0.211 HD
ENDBRANCH   2   9
ENDBRANCH   1   2
BRANCH   1  11
ATOM     11  O   UNL     1      11.215  11.829  17.666  1.00  0.00    -0.491 OA
BRANCH  11  12
ATOM     12  C   UNL     1      11.220  12.199  16.307  1.00  0.00     0.122 A 
ATOM     13  C   UNL     1      10.178  12.952  15.726  1.00  0.00     0.047 A 
ATOM     14  C   UNL     1      12.309  11.799  15.502  1.00  0.00    -0.002 A 
ATOM     15  C   UNL     1      10.217  13.286  14.371  1.00  0.00     0.004 A 
ATOM     16  C   UNL     1      12.328  12.137  14.138  1.00  0.00     0.008 A 
ATOM     17  C   UNL     1      11.288  12.879  13.578  1.00  0.00     0.001 A 
BRANCH  14  18
ATOM     18  C   UNL     1      13.420  10.950  16.070  1.00  0.00     0.066 C 
BRANCH  18  19
ATOM     19  C   UNL     1      13.277   9.511  15.654  1.00  0.00    -0.030 C 
ATOM     20  C   UNL     1      14.049   8.546  16.162  1.00  0.00     0.004 C 
ENDBRANCH  18  19
ENDBRANCH  14  18
ENDBRANCH  11  12
ENDBRANCH   1  11
TORSDOF 9
ENDMDL
MODEL 8
REMARK VINA RESULT:    -6.323      1.927      4.169
REMARK INTER + INTRA:         -10.389
REMARK INTER:                  -9.479
REMARK INTRA:                  -0.910
REMARK UNBOUND:                -0.925
REMARK SMILES C=CCc1ccccc1OCC(O)CNC(C)C
REMARK SMILES IDX 11 1 12 2 14 3 15 4 16 6 17 7 18 8 13 9 10 11 9 12 8 13 4 14
REMARK SMILES IDX 7 15 5 16 6 17 3 18 2 19 1 20
REMARK H PARENT 15 5 13 10
REMARK Flexibility Score: inf
ROOT
ATOM      1  C   UNL     1      11.889   8.303  18.597  1.00  0.00     0.262 C 
ENDROOT
BRANCH   1   2
ATOM      2  C   UNL     1      13.391   8.186  18.268  1.00  0.00     0.165 C 
BRANCH   2   3
ATOM      3  C   UNL     1      14.218   9.375  18.789  1.00  0.00     0.116 C 
BRANCH   3   4
ATOM      4  N   UNL     1      15.036   9.938  17.701  1.00  0.00    -0.312 NA
ATOM      5  H   UNL     1      14.768   9.486  16.794  1.00  0.00     0.123 HD
BRANCH   4   6
ATOM      6  C   UNL     1      14.906  11.404  17.583  1.00  0.00     0.047 C 
ATOM      7  C   UNL     1      13.625  11.847  18.291  1.00  0.00     0.024 C 
ATOM      8  C   UNL     1      16.123  12.132  18.179  1.00  0.00     0.024 C 
ENDBRANCH   4   6
ENDBRANCH   3   4
ENDBRANCH   2   3
BRANCH   2   9
ATOM      9  O   UNL     1      13.907   6.967  18.739  1.00  0.00    -0.388 OA
ATOM     10  H   UNL     1      13.140   6.411  19.033  1.00  0.00     0.211 HD
ENDBRANCH   2   9
ENDBRANCH   1   2
BRANCH   1  11
ATOM     11  O   UNL     1      11.101   8.534  17.423  1.00  0.00    -0.491 OA
BRANCH  11  12
ATOM     12  C   UNL     1      11.172   9.655  16.575  1.00  0.00     0.122 A 
ATOM     13  C   UNL     1      11.941   9.661  15.392  1.00  0.00     0.047 A 
ATOM     14  C   UNL     1      10.445  10.814  16.925  1.00  0.00    -0.002 A 
ATOM     15  C   UNL     1      11.994  10.801  14.587  1.00  0.00     0.004 A 
ATOM     16  C   UNL     1      10.515  11.955  16.107  1.00  0.00     0.008 A 
ATOM     17  C   UNL     1      11.283  11.946  14.944  1.00  0.00     0.001 A 
BRANCH  14  18
ATOM     18  C   UNL     1       9.648  10.869  18.207  1.00  0.00     0.066 C 
BRANCH  18  19
ATOM     19  C   UNL     1       8.224  10.434  17.984  1.00  0.00    -0.030 C 
ATOM     20  C   UNL     1       7.351  10.329  18.990  1.00  0.00     0.004 C 
ENDBRANCH  18  19
ENDBRANCH  14  18
ENDBRANCH  11  12
ENDBRANCH   1  11
TORSDOF 9
ENDMDL
MODEL 9
REMARK VINA RESULT:    -6.298      2.038      2.742
REMARK INTER + INTRA:         -10.353
REMARK INTER:                  -9.687
REMARK INTRA:                  -0.666
REMARK UNBOUND:                -0.925
REMARK SMILES C=CCc1ccccc1OCC(O)CNC(C)C
REMARK SMILES IDX 11 1 12 2 14 3 15 4 16 6 17 7 18 8 13 9 10 11 9 12 8 13 4 14
REMARK SMILES IDX 7 15 5 16 6 17 3 18 2 19 1 20
REMARK H PARENT 15 5 13 10
REMARK Flexibility Score: inf
ROOT
ATOM      1  C   UNL     1      11.996   8.291  16.198  1.00  0.00     0.262 C 
ENDROOT
BRANCH   1   2
ATOM      2  C   UNL     1      12.242   7.091  17.136  1.00  0.00     0.165 C 
BRANCH   2   3
ATOM      3  C   UNL     1      12.430   7.504  18.607  1.00  0.00     0.116 C 
BRANCH   3   4
ATOM      4  N   UNL     1      13.788   7.156  19.059  1.00  0.00    -0.312 NA
ATOM      5  H   UNL     1      14.463   7.283  18.267  1.00  0.00     0.123 HD
BRANCH   4   6
ATOM      6  C   UNL     1      14.230   7.957  20.219  1.00  0.00     0.047 C 
ATOM      7  C   UNL     1      13.096   8.895  20.636  1.00  0.00     0.024 C 
ATOM      8  C   UNL     1      14.644   7.063  21.401  1.00  0.00     0.024 C 
ENDBRANCH   4   6
ENDBRANCH   3   4
ENDBRANCH   2   3
BRANCH   2   9
ATOM      9  O   UNL     1      11.214   6.143  17.005  1.00  0.00    -0.388 OA
ATOM     10  H   UNL     1      10.410   6.509  17.456  1.00  0.00     0.211 HD
ENDBRANCH   2   9
ENDBRANCH   1   2
BRANCH   1  11
ATOM     11  O   UNL     1      13.213   8.973  15.874  1.00  0.00    -0.491 OA
BRANCH  11  12
ATOM     12  C   UNL     1      13.642  10.210  16.393  1.00  0.00     0.122 A 
ATOM     13  C   UNL     1      14.586  10.304  17.437  1.00  0.00     0.047 A 
ATOM     14  C   UNL     1      13.106  11.396  15.845  1.00  0.00    -0.002 A 
ATOM     15  C   UNL     1      14.974  11.551  17.932  1.00  0.00     0.004 A 
ATOM     16  C   UNL     1      13.502  12.642  16.359  1.00  0.00     0.008 A 
ATOM     17  C   UNL     1      14.433  12.718  17.395  1.00  0.00     0.001 A 
BRANCH  14  18
ATOM     18  C   UNL     1      12.057  11.341  14.760  1.00  0.00     0.066 C 
BRANCH  18  19
ATOM     19  C   UNL     1      11.066  12.465  14.901  1.00  0.00    -0.030 C 
ATOM     20  C   UNL     1      10.624  13.156  13.846  1.00  0.00     0.004 C 
ENDBRANCH  18  19
ENDBRANCH  14  18
ENDBRANCH  11  12
ENDBRANCH   1  11
TORSDOF 9
ENDMDL
MODEL 10
REMARK VINA RESULT:    -6.242     13.110     15.807
REMARK INTER + INTRA:         -10.269
REMARK INTER:                  -9.718
REMARK INTRA:                  -0.550
REMARK UNBOUND:                -0.925
REMARK SMILES C=CCc1ccccc1OCC(O)CNC(C)C
REMARK SMILES IDX 11 1 12 2 14 3 15 4 16 6 17 7 18 8 13 9 10 11 9 12 8 13 4 14
REMARK SMILES IDX 7 15 5 16 6 17 3 18 2 19 1 20
REMARK H PARENT 15 5 13 10
REMARK Flexibility Score: inf
ROOT
ATOM      1  C   UNL     1      18.480  14.227   2.529  1.00  0.00     0.262 C 
ENDROOT
BRANCH   1   2
ATOM      2  C   UNL     1      19.580  13.437   3.267  1.00  0.00     0.165 C 
BRANCH   2   3
ATOM      3  C   UNL     1      20.451  14.321   4.177  1.00  0.00     0.116 C 
BRANCH   3   4
ATOM      4  N   UNL     1      21.821  13.783   4.244  1.00  0.00    -0.312 NA
ATOM      5  H   UNL     1      22.419  14.263   3.530  1.00  0.00     0.123 HD
BRANCH   4   6
ATOM      6  C   UNL     1      22.431  13.927   5.581  1.00  0.00     0.047 C 
ATOM      7  C   UNL     1      21.678  15.009   6.356  1.00  0.00     0.024 C 
ATOM      8  C   UNL     1      22.411  12.602   6.361  1.00  0.00     0.024 C 
ENDBRANCH   4   6
ENDBRANCH   3   4
ENDBRANCH   2   3
BRANCH   2   9
ATOM      9  O   UNL     1      19.023  12.367   3.986  1.00  0.00    -0.388 OA
ATOM     10  H   UNL     1      18.124  12.651   4.295  1.00  0.00     0.211 HD
ENDBRANCH   2   9
ENDBRANCH   1   2
BRANCH   1  11
ATOM     11  O   UNL     1      17.169  13.768   2.876  1.00  0.00    -0.491 OA
BRANCH  11  12
ATOM     12  C   UNL     1      16.299  13.024   2.057  1.00  0.00     0.122 A 
ATOM     13  C   UNL     1      16.116  13.314   0.688  1.00  0.00     0.047 A 
ATOM     14  C   UNL     1      15.585  11.949   2.631  1.00  0.00    -0.002 A 
ATOM     15  C   UNL     1      15.232  12.558  -0.085  1.00  0.00     0.004 A 
ATOM     16  C   UNL     1      14.693  11.203   1.840  1.00  0.00     0.008 A 
ATOM     17  C   UNL     1      14.521  11.506   0.490  1.00  0.00     0.001 A 
BRANCH  14  18
ATOM     18  C   UNL     1      15.712  11.634   4.102  1.00  0.00     0.066 C 
BRANCH  18  19
ATOM     19  C   UNL     1      14.846  12.542   4.932  1.00  0.00    -0.030 C 
ATOM     20  C   UNL     1      15.353  13.325   5.889  1.00  0.00     0.004 C 
ENDBRANCH  18  19
ENDBRANCH  14  18
ENDBRANCH  11  12
ENDBRANCH   1  11
TORSDOF 9
ENDMDL
MODEL 11
REMARK VINA RESULT:    -6.224      1.934      4.066
REMARK INTER + INTRA:         -10.241
REMARK INTER:                  -9.352
REMARK INTRA:                  -0.890
REMARK UNBOUND:                -0.925
REMARK SMILES C=CCc1ccccc1OCC(O)CNC(C)C
REMARK SMILES IDX 11 1 12 2 14 3 15 4 16 6 17 7 18 8 13 9 10 11 9 12 8 13 4 14
REMARK SMILES IDX 7 15 5 16 6 17 3 18 2 19 1 20
REMARK H PARENT 15 5 13 10
REMARK Flexibility Score: inf
ROOT
ATOM      1  C   UNL     1      11.417   7.705  18.175  1.00  0.00     0.262 C 
ENDROOT
BRANCH   1   2
ATOM      2  C   UNL     1      12.911   8.003  17.939  1.00  0.00     0.165 C 
BRANCH   2   3
ATOM      3  C   UNL     1      13.385   9.295  18.630  1.00  0.00     0.116 C 
BRANCH   3   4
ATOM      4  N   UNL     1      14.795   9.560  18.294  1.00  0.00    -0.312 NA
ATOM      5  H   UNL     1      14.985   9.242  17.313  1.00  0.00     0.123 HD
BRANCH   4   6
ATOM      6  C   UNL     1      15.162  10.984  18.434  1.00  0.00     0.047 C 
ATOM      7  C   UNL     1      14.407  11.797  17.381  1.00  0.00     0.024 C 
ATOM      8  C   UNL     1      14.848  11.515  19.843  1.00  0.00     0.024 C 
ENDBRANCH   4   6
ENDBRANCH   3   4
ENDBRANCH   2   3
BRANCH   2   9
ATOM      9  O   UNL     1      13.701   6.907  18.323  1.00  0.00    -0.388 OA
ATOM     10  H   UNL     1      14.357   7.231  18.993  1.00  0.00     0.211 HD
ENDBRANCH   2   9
ENDBRANCH   1   2
BRANCH   1  11
ATOM     11  O   UNL     1      10.577   8.439  17.276  1.00  0.00    -0.491 OA
BRANCH  11  12
ATOM     12  C   UNL     1       9.913   9.650  17.551  1.00  0.00     0.122 A 
ATOM     13  C   UNL     1       8.904   9.752  18.531  1.00  0.00     0.047 A 
ATOM     14  C   UNL     1      10.274  10.801  16.817  1.00  0.00    -0.002 A 
ATOM     15  C   UNL     1       8.261  10.970  18.762  1.00  0.00     0.004 A 
ATOM     16  C   UNL     1       9.612  12.017  17.057  1.00  0.00     0.008 A 
ATOM     17  C   UNL     1       8.613  12.100  18.026  1.00  0.00     0.001 A 
BRANCH  14  18
ATOM     18  C   UNL     1      11.314  10.726  15.724  1.00  0.00     0.066 C 
BRANCH  18  19
ATOM     19  C   UNL     1      11.064  11.760  14.659  1.00  0.00    -0.030 C 
ATOM     20  C   UNL     1      12.053  12.272  13.922  1.00  0.00     0.004 C 
ENDBRANCH  18  19
ENDBRANCH  14  18
ENDBRANCH  11  12
ENDBRANCH   1  11
TORSDOF 9
ENDMDL
MODEL 12
REMARK VINA RESULT:    -6.203      2.846      4.741
REMARK INTER + INTRA:         -10.209
REMARK INTER:                  -9.227
REMARK INTRA:                  -0.983
REMARK UNBOUND:                -0.925
REMARK SMILES C=CCc1ccccc1OCC(O)CNC(C)C
REMARK SMILES IDX 11 1 12 2 14 3 15 4 16 6 17 7 18 8 13 9 10 11 9 12 8 13 4 14
REMARK SMILES IDX 7 15 5 16 6 17 3 18 2 19 1 20
REMARK H PARENT 15 5 13 10
REMARK Flexibility Score: inf
ROOT
ATOM      1  C   UNL     1      11.016  11.597  19.307  1.00  0.00     0.262 C 
ENDROOT
BRANCH   1   2
ATOM      2  C   UNL     1      11.201  10.298  20.118  1.00  0.00     0.165 C 
BRANCH   2   3
ATOM      3  C   UNL     1      12.501  10.280  20.942  1.00  0.00     0.116 C 
BRANCH   3   4
ATOM      4  N   UNL     1      12.672   8.968  21.589  1.00  0.00    -0.312 NA
ATOM      5  H   UNL     1      11.868   8.346  21.332  1.00  0.00     0.123 HD
BRANCH   4   6
ATOM      6  C   UNL     1      13.943   8.309  21.227  1.00  0.00     0.047 C 
ATOM      7  C   UNL     1      14.139   7.084  22.120  1.00  0.00     0.024 C 
ATOM      8  C   UNL     1      13.969   7.898  19.745  1.00  0.00     0.024 C 
ENDBRANCH   4   6
ENDBRANCH   3   4
ENDBRANCH   2   3
BRANCH   2   9
ATOM      9  O   UNL     1      10.083  10.063  20.936  1.00  0.00    -0.388 OA
ATOM     10  H   UNL     1      10.313  10.366  21.852  1.00  0.00     0.211 HD
ENDBRANCH   2   9
ENDBRANCH   1   2
BRANCH   1  11
ATOM     11  O   UNL     1      11.128  11.367  17.898  1.00  0.00    -0.491 OA
BRANCH  11  12
ATOM     12  C   UNL     1      11.847  10.330  17.274  1.00  0.00     0.122 A 
ATOM     13  C   UNL     1      11.275   9.067  17.009  1.00  0.00     0.047 A 
ATOM     14  C   UNL     1      13.188  10.566  16.901  1.00  0.00    -0.002 A 
ATOM     15  C   UNL     1      12.029   8.062  16.399  1.00  0.00     0.004 A 
ATOM     16  C   UNL     1      13.935   9.541  16.296  1.00  0.00     0.008 A 
ATOM     17  C   UNL     1      13.356   8.297  16.045  1.00  0.00     0.001 A 
BRANCH  14  18
ATOM     18  C   UNL     1      13.855  11.885  17.210  1.00  0.00     0.066 C 
BRANCH  18  19
ATOM     19  C   UNL     1      15.247  11.681  17.746  1.00  0.00    -0.030 C 
ATOM     20  C   UNL     1      15.488  11.519  19.050  1.00  0.00     0.004 C 
ENDBRANCH  18  19
ENDBRANCH  14  18
ENDBRANCH  11  12
ENDBRANCH   1  11
TORSDOF 9
ENDMDL
MODEL 13
REMARK VINA RESULT:    -6.180      3.190      6.012
REMARK INTER + INTRA:         -10.175
REMARK INTER:                  -9.228
REMARK INTRA:                  -0.947
REMARK UNBOUND:                -0.925
REMARK SMILES C=CCc1ccccc1OCC(O)CNC(C)C
REMARK SMILES IDX 11 1 12 2 14 3 15 4 16 6 17 7 18 8 13 9 10 11 9 12 8 13 4 14
REMARK SMILES IDX 7 15 5 16 6 17 3 18 2 19 1 20
REMARK H PARENT 15 5 13 10
REMARK Flexibility Score: inf
ROOT
ATOM      1  C   UNL     1      10.792  12.926  15.113  1.00  0.00     0.262 C 
ENDROOT
BRANCH   1   2
ATOM      2  C   UNL     1      10.680  14.161  14.196  1.00  0.00     0.165 C 
BRANCH   2   3
ATOM      3  C   UNL     1      10.529  13.797  12.708  1.00  0.00     0.116 C 
BRANCH   3   4
ATOM      4  N   UNL     1      11.304  12.581  12.404  1.00  0.00    -0.312 NA
ATOM      5  H   UNL     1      10.650  11.816  12.112  1.00  0.00     0.123 HD
BRANCH   4   6
ATOM      6  C   UNL     1      12.319  12.795  11.354  1.00  0.00     0.047 C 
ATOM      7  C   UNL     1      11.697  13.609  10.219  1.00  0.00     0.024 C 
ATOM      8  C   UNL     1      13.563  13.513  11.904  1.00  0.00     0.024 C 
ENDBRANCH   4   6
ENDBRANCH   3   4
ENDBRANCH   2   3
BRANCH   2   9
ATOM      9  O   UNL     1       9.634  14.998  14.619  1.00  0.00    -0.388 OA
ATOM     10  H   UNL     1       8.843  14.796  14.057  1.00  0.00     0.211 HD
ENDBRANCH   2   9
ENDBRANCH   1   2
BRANCH   1  11
ATOM     11  O   UNL     1      12.156  12.572  15.367  1.00  0.00    -0.491 OA
BRANCH  11  12
ATOM     12  C   UNL     1      12.654  11.277  15.611  1.00  0.00     0.122 A 
ATOM     13  C   UNL     1      12.126  10.133  14.977  1.00  0.00     0.047 A 
ATOM     14  C   UNL     1      13.719  11.124  16.526  1.00  0.00    -0.002 A 
ATOM     15  C   UNL     1      12.640   8.866  15.260  1.00  0.00     0.004 A 
ATOM     16  C   UNL     1      14.220   9.841  16.804  1.00  0.00     0.008 A 
ATOM     17  C   UNL     1      13.684   8.720  16.172  1.00  0.00     0.001 A 
BRANCH  14  18
ATOM     18  C   UNL     1      14.281  12.315  17.265  1.00  0.00     0.066 C 
BRANCH  18  19
ATOM     19  C   UNL     1      15.545  11.956  17.999  1.00  0.00    -0.030 C 
ATOM     20  C   UNL     1      16.600  12.775  18.036  1.00  0.00     0.004 C 
ENDBRANCH  18  19
ENDBRANCH  14  18
ENDBRANCH  11  12
ENDBRANCH   1  11
TORSDOF 9
ENDMDL
MODEL 14
REMARK VINA RESULT:    -6.122      1.912      3.491
REMARK INTER + INTRA:         -10.088
REMARK INTER:                  -8.442
REMARK INTRA:                  -1.646
REMARK UNBOUND:                -0.925
REMARK SMILES C=CCc1ccccc1OCC(O)CNC(C)C
REMARK SMILES IDX 11 1 12 2 14 3 15 4 16 6 17 7 18 8 13 9 10 11 9 12 8 13 4 14
REMARK SMILES IDX 7 15 5 16 6 17 3 18 2 19 1 20
REMARK H PARENT 15 5 13 10
REMARK Flexibility Score: inf
ROOT
ATOM      1  C   UNL     1      14.524  10.701  19.269  1.00  0.00     0.262 C 
ENDROOT
BRANCH   1   2
ATOM      2  C   UNL     1      13.784   9.581  20.029  1.00  0.00     0.165 C 
BRANCH   2   3
ATOM      3  C   UNL     1      12.252   9.709  19.950  1.00  0.00     0.116 C 
BRANCH   3   4
ATOM      4  N   UNL     1      11.856  11.123  20.067  1.00  0.00    -0.312 NA
ATOM      5  H   UNL     1      12.630  11.732  19.710  1.00  0.00     0.123 HD
BRANCH   4   6
ATOM      6  C   UNL     1      10.606  11.432  19.345  1.00  0.00     0.047 C 
ATOM      7  C   UNL     1      10.688  12.857  18.797  1.00  0.00     0.024 C 
ATOM      8  C   UNL     1      10.350  10.436  18.201  1.00  0.00     0.024 C 
ENDBRANCH   4   6
ENDBRANCH   3   4
ENDBRANCH   2   3
BRANCH   2   9
ATOM      9  O   UNL     1      14.209   8.318  19.585  1.00  0.00    -0.388 OA
ATOM     10  H   UNL     1      13.493   7.667  19.806  1.00  0.00     0.211 HD
ENDBRANCH   2   9
ENDBRANCH   1   2
BRANCH   1  11
ATOM     11  O   UNL     1      14.682  10.389  17.880  1.00  0.00    -0.491 OA
BRANCH  11  12
ATOM     12  C   UNL     1      13.866  10.839  16.824  1.00  0.00     0.122 A 
ATOM     13  C   UNL     1      13.654  12.209  16.564  1.00  0.00     0.047 A 
ATOM     14  C   UNL     1      13.240   9.879  15.998  1.00  0.00    -0.002 A 
ATOM     15  C   UNL     1      12.826  12.611  15.513  1.00  0.00     0.004 A 
ATOM     16  C   UNL     1      12.404  10.301  14.950  1.00  0.00     0.008 A 
ATOM     17  C   UNL     1      12.201  11.659  14.709  1.00  0.00     0.001 A 
BRANCH  14  18
ATOM     18  C   UNL     1      13.400   8.403  16.271  1.00  0.00     0.066 C 
BRANCH  18  19
ATOM     19  C   UNL     1      12.063   7.715  16.358  1.00  0.00    -0.030 C 
ATOM     20  C   UNL     1      11.674   7.061  17.456  1.00  0.00     0.004 C 
ENDBRANCH  18  19
ENDBRANCH  14  18
ENDBRANCH  11  12
ENDBRANCH   1  11
TORSDOF 9
ENDMDL
MODEL 15
REMARK VINA RESULT:    -6.116      2.032      2.914
REMARK INTER + INTRA:         -10.080
REMARK INTER:                  -8.635
REMARK INTRA:                  -1.445
REMARK UNBOUND:                -0.925
REMARK SMILES C=CCc1ccccc1OCC(O)CNC(C)C
REMARK SMILES IDX 11 1 12 2 14 3 15 4 16 6 17 7 18 8 13 9 10 11 9 12 8 13 4 14
REMARK SMILES IDX 7 15 5 16 6 17 3 18 2 19 1 20
REMARK H PARENT 15 5 13 10
REMARK Flexibility Score: inf
ROOT
ATOM      1  C   UNL     1      10.880   9.494  19.507  1.00  0.00     0.262 C 
ENDROOT
BRANCH   1   2
ATOM      2  C   UNL     1       9.457   9.448  18.915  1.00  0.00     0.165 C 
BRANCH   2   3
ATOM      3  C   UNL     1       8.710  10.788  19.034  1.00  0.00     0.116 C 
BRANCH   3   4
ATOM      4  N   UNL     1       9.641  11.850  19.454  1.00  0.00    -0.312 NA
ATOM      5  H   UNL     1      10.598  11.444  19.581  1.00  0.00     0.123 HD
BRANCH   4   6
ATOM      6  C   UNL     1       9.701  12.973  18.498  1.00  0.00     0.047 C 
ATOM      7  C   UNL     1      11.167  13.303  18.211  1.00  0.00     0.024 C 
ATOM      8  C   UNL     1       8.963  12.645  17.189  1.00  0.00     0.024 C 
ENDBRANCH   4   6
ENDBRANCH   3   4
ENDBRANCH   2   3
BRANCH   2   9
ATOM      9  O   UNL     1       9.489   9.004  17.583  1.00  0.00    -0.388 OA
ATOM     10  H   UNL     1      10.304   9.380  17.162  1.00  0.00     0.211 HD
ENDBRANCH   2   9
ENDBRANCH   1   2
BRANCH   1  11
ATOM     11  O   UNL     1      11.873   9.687  18.493  1.00  0.00    -0.491 OA
BRANCH  11  12
ATOM     12  C   UNL     1      13.105  10.353  18.644  1.00  0.00     0.122 A 
ATOM     13  C   UNL     1      13.568  10.810  19.895  1.00  0.00     0.047 A 
ATOM     14  C   UNL     1      13.901  10.569  17.497  1.00  0.00    -0.002 A 
ATOM     15  C   UNL     1      14.790  11.479  19.997  1.00  0.00     0.004 A 
ATOM     16  C   UNL     1      15.124  11.250  17.616  1.00  0.00     0.008 A 
ATOM     17  C   UNL     1      15.566  11.700  18.861  1.00  0.00     0.001 A 
BRANCH  14  18
ATOM     18  C   UNL     1      13.421  10.141  16.131  1.00  0.00     0.066 C 
BRANCH  18  19
ATOM     19  C   UNL     1      12.686  11.255  15.435  1.00  0.00    -0.030 C 
ATOM     20  C   UNL     1      11.486  11.072  14.878  1.00  0.00     0.004 C 
ENDBRANCH  18  19
ENDBRANCH  14  18
ENDBRANCH  11  12
ENDBRANCH   1  11
TORSDOF 9
ENDMDL
