MODEL 1
REMARK VINA RESULT:    -6.681      0.000      0.000
REMARK INTER + INTRA:          -9.814
REMARK INTER:                  -8.829
REMARK INTRA:                  -0.985
REMARK UNBOUND:                -0.985
REMARK SMILES OC(CCN1CCCCC1)(c1ccccc1)C1CCCC1
REMARK SMILES IDX 3 1 2 2 1 3 17 5 18 6 21 7 19 8 20 9 11 10 12 11 16 12 13 13
REMARK SMILES IDX 15 14 14 15 4 16 5 17 6 18 10 19 7 20 9 21 8 22
REMARK H PARENT 1 4
REMARK Flexibility Score: inf
ROOT
ATOM      1  C   UNL     1      29.870  23.899   5.777  1.00  0.00     0.056 C 
ENDROOT
BRANCH   1   2
ATOM      2  C   UNL     1      28.523  23.483   6.470  1.00  0.00     0.094 C 
BRANCH   2   3
ATOM      3  O   UNL     1      27.796  22.680   5.564  1.00  0.00    -0.385 OA
ATOM      4  H   UNL     1      27.430  21.899   6.058  1.00  0.00     0.211 HD
ENDBRANCH   2   3
BRANCH   2   5
ATOM      5  C   UNL     1      27.588  24.679   6.891  1.00  0.00     0.025 C 
ATOM      6  C   UNL     1      26.580  24.413   8.014  1.00  0.00     0.007 C 
ATOM      7  C   UNL     1      28.304  25.986   7.277  1.00  0.00     0.007 C 
ATOM      8  C   UNL     1      26.226  25.789   8.544  1.00  0.00     0.000 C 
ATOM      9  C   UNL     1      27.503  26.606   8.421  1.00  0.00     0.000 C 
ENDBRANCH   2   5
BRANCH   2  10
ATOM     10  C   UNL     1      28.829  22.661   7.740  1.00  0.00    -0.016 A 
ATOM     11  C   UNL     1      29.855  23.061   8.627  1.00  0.00     0.007 A 
ATOM     12  C   UNL     1      28.173  21.436   7.997  1.00  0.00     0.007 A 
ATOM     13  C   UNL     1      30.165  22.297   9.756  1.00  0.00     0.000 A 
ATOM     14  C   UNL     1      28.490  20.676   9.128  1.00  0.00     0.000 A 
ATOM     15  C   UNL     1      29.479  21.110  10.009  1.00  0.00     0.000 A 
ENDBRANCH   2  10
ENDBRANCH   1   2
BRANCH   1  16
ATOM     16  C   UNL     1      30.655  22.729   5.136  1.00  0.00     0.088 C 
BRANCH  16  17
ATOM     17  N   UNL     1      32.014  23.090   4.672  1.00  0.00    -0.303 NA
ATOM     18  C   UNL     1      32.578  22.118   3.707  1.00  0.00     0.084 C 
ATOM     19  C   UNL     1      32.952  23.421   5.759  1.00  0.00     0.084 C 
ATOM     20  C   UNL     1      34.075  22.369   3.426  1.00  0.00     0.016 C 
ATOM     21  C   UNL     1      34.169  24.179   5.198  1.00  0.00     0.016 C 
ATOM     22  C   UNL     1      34.463  23.818   3.730  1.00  0.00     0.003 C 
ENDBRANCH  16  17
ENDBRANCH   1  16
TORSDOF 6
ENDMDL
MODEL 2
REMARK VINA RESULT:    -6.651      3.556      7.713
REMARK INTER + INTRA:          -9.775
REMARK INTER:                  -8.237
REMARK INTRA:                  -1.537
REMARK UNBOUND:                -0.985
REMARK SMILES OC(CCN1CCCCC1)(c1ccccc1)C1CCCC1
REMARK SMILES IDX 3 1 2 2 1 3 17 5 18 6 21 7 19 8 20 9 11 10 12 11 16 12 13 13
REMARK SMILES IDX 15 14 14 15 4 16 5 17 6 18 10 19 7 20 9 21 8 22
REMARK H PARENT 1 4
REMARK Flexibility Score: inf
ROOT
ATOM      1  C   UNL     1      27.230  22.591   9.698  1.00  0.00     0.056 C 
ENDROOT
BRANCH   1   2
ATOM      2  C   UNL     1      27.380  21.798   8.350  1.00  0.00     0.094 C 
BRANCH   2   3
ATOM      3  O   UNL     1      26.150  21.873   7.661  1.00  0.00    -0.385 OA
ATOM      4  H   UNL     1      26.037  22.800   7.320  1.00  0.00     0.211 HD
ENDBRANCH   2   3
BRANCH   2   5
ATOM      5  C   UNL     1      27.736  20.271   8.507  1.00  0.00     0.025 C 
ATOM      6  C   UNL     1      28.345  19.832   9.843  1.00  0.00     0.007 C 
ATOM      7  C   UNL     1      26.588  19.283   8.230  1.00  0.00     0.007 C 
ATOM      8  C   UNL     1      28.092  18.339   9.907  1.00  0.00     0.000 C 
ATOM      9  C   UNL     1      26.751  18.131   9.221  1.00  0.00     0.000 C 
ENDBRANCH   2   5
BRANCH   2  10
ATOM     10  C   UNL     1      28.484  22.449   7.489  1.00  0.00    -0.016 A 
ATOM     11  C   UNL     1      29.846  22.317   7.844  1.00  0.00     0.007 A 
ATOM     12  C   UNL     1      28.163  23.280   6.392  1.00  0.00     0.007 A 
ATOM     13  C   UNL     1      30.846  22.941   7.092  1.00  0.00     0.000 A 
ATOM     14  C   UNL     1      29.169  23.901   5.645  1.00  0.00     0.000 A 
ATOM     15  C   UNL     1      30.509  23.726   5.991  1.00  0.00     0.000 A 
ENDBRANCH   2  10
ENDBRANCH   1   2
BRANCH   1  16
ATOM     16  C   UNL     1      25.820  23.180   9.948  1.00  0.00     0.088 C 
BRANCH  16  17
ATOM     17  N   UNL     1      24.849  22.217  10.514  1.00  0.00    -0.303 NA
ATOM     18  C   UNL     1      23.628  22.864  11.046  1.00  0.00     0.084 C 
ATOM     19  C   UNL     1      25.441  21.253  11.460  1.00  0.00     0.084 C 
ATOM     20  C   UNL     1      22.746  21.885  11.851  1.00  0.00     0.016 C 
ATOM     21  C   UNL     1      24.492  20.058  11.662  1.00  0.00     0.016 C 
ATOM     22  C   UNL     1      23.015  20.433  11.447  1.00  0.00     0.003 C 
ENDBRANCH  16  17
ENDBRANCH   1  16
TORSDOF 6
ENDMDL
MODEL 3
REMARK VINA RESULT:    -6.651      2.404      6.285
REMARK INTER + INTRA:          -9.774
REMARK INTER:                  -8.707
REMARK INTRA:                  -1.067
REMARK UNBOUND:                -0.985
REMARK SMILES OC(CCN1CCCCC1)(c1ccccc1)C1CCCC1
REMARK SMILES IDX 3 1 2 2 1 3 17 5 18 6 21 7 19 8 20 9 11 10 12 11 16 12 13 13
REMARK SMILES IDX 15 14 14 15 4 16 5 17 6 18 10 19 7 20 9 21 8 22
REMARK H PARENT 1 4
REMARK Flexibility Score: inf
ROOT
ATOM      1  C   UNL     1      30.362  22.001   8.161  1.00  0.00     0.056 C 
ENDROOT
BRANCH   1   2
ATOM      2  C   UNL     1      30.371  22.745   6.777  1.00  0.00     0.094 C 
BRANCH   2   3
ATOM      3  O   UNL     1      29.109  22.556   6.172  1.00  0.00    -0.385 OA
ATOM      4  H   UNL     1      28.928  21.580   6.120  1.00  0.00     0.211 HD
ENDBRANCH   2   3
BRANCH   2   5
ATOM      5  C   UNL     1      31.460  22.245   5.755  1.00  0.00     0.025 C 
ATOM      6  C   UNL     1      31.048  22.169   4.281  1.00  0.00     0.007 C 
ATOM      7  C   UNL     1      32.798  23.009   5.773  1.00  0.00     0.007 C 
ATOM      8  C   UNL     1      32.358  22.186   3.517  1.00  0.00     0.000 C 
ATOM      9  C   UNL     1      33.282  23.081   4.326  1.00  0.00     0.000 C 
ENDBRANCH   2   5
BRANCH   2  10
ATOM     10  C   UNL     1      30.602  24.254   7.005  1.00  0.00    -0.016 A 
ATOM     11  C   UNL     1      31.269  24.715   8.163  1.00  0.00     0.007 A 
ATOM     12  C   UNL     1      30.063  25.220   6.124  1.00  0.00     0.007 A 
ATOM     13  C   UNL     1      31.443  26.083   8.394  1.00  0.00     0.000 A 
ATOM     14  C   UNL     1      30.240  26.587   6.363  1.00  0.00     0.000 A 
ATOM     15  C   UNL     1      30.935  27.016   7.493  1.00  0.00     0.000 A 
ENDBRANCH   2  10
ENDBRANCH   1   2
BRANCH   1  16
ATOM     16  C   UNL     1      28.957  21.813   8.784  1.00  0.00     0.088 C 
BRANCH  16  17
ATOM     17  N   UNL     1      28.419  20.439   8.668  1.00  0.00    -0.303 NA
ATOM     18  C   UNL     1      27.068  20.391   8.064  1.00  0.00     0.084 C 
ATOM     19  C   UNL     1      28.516  19.648   9.908  1.00  0.00     0.084 C 
ATOM     20  C   UNL     1      26.421  18.993   8.176  1.00  0.00     0.016 C 
ATOM     21  C   UNL     1      28.343  18.150   9.597  1.00  0.00     0.016 C 
ATOM     22  C   UNL     1      27.482  17.902   8.345  1.00  0.00     0.003 C 
ENDBRANCH  16  17
ENDBRANCH   1  16
TORSDOF 6
ENDMDL
MODEL 4
REMARK VINA RESULT:    -6.627      2.072      5.847
REMARK INTER + INTRA:          -9.743
REMARK INTER:                  -8.091
REMARK INTRA:                  -1.653
REMARK UNBOUND:                -0.985
REMARK SMILES OC(CCN1CCCCC1)(c1ccccc1)C1CCCC1
REMARK SMILES IDX 3 1 2 2 1 3 17 5 18 6 21 7 19 8 20 9 11 10 12 11 16 12 13 13
REMARK SMILES IDX 15 14 14 15 4 16 5 17 6 18 10 19 7 20 9 21 8 22
REMARK H PARENT 1 4
REMARK Flexibility Score: inf
ROOT
ATOM      1  C   UNL     1      29.420  23.446   5.674  1.00  0.00     0.056 C 
ENDROOT
BRANCH   1   2
ATOM      2  C   UNL     1      30.789  23.066   6.344  1.00  0.00     0.094 C 
BRANCH   2   3
ATOM      3  O   UNL     1      30.575  21.939   7.167  1.00  0.00    -0.385 OA
ATOM      4  H   UNL     1      30.170  21.218   6.614  1.00  0.00     0.211 HD
ENDBRANCH   2   3
BRANCH   2   5
ATOM      5  C   UNL     1      31.427  24.189   7.247  1.00  0.00     0.025 C 
ATOM      6  C   UNL     1      31.200  25.642   6.814  1.00  0.00     0.007 C 
ATOM      7  C   UNL     1      31.058  24.139   8.741  1.00  0.00     0.007 C 
ATOM      8  C   UNL     1      31.437  26.456   8.071  1.00  0.00     0.000 C 
ATOM      9  C   UNL     1      30.933  25.587   9.212  1.00  0.00     0.000 C 
ENDBRANCH   2   5
BRANCH   2  10
ATOM     10  C   UNL     1      31.817  22.707   5.250  1.00  0.00    -0.016 A 
ATOM     11  C   UNL     1      33.198  22.934   5.456  1.00  0.00     0.007 A 
ATOM     12  C   UNL     1      31.405  22.245   3.980  1.00  0.00     0.007 A 
ATOM     13  C   UNL     1      34.128  22.650   4.452  1.00  0.00     0.000 A 
ATOM     14  C   UNL     1      32.342  21.964   2.980  1.00  0.00     0.000 A 
ATOM     15  C   UNL     1      33.702  22.159   3.219  1.00  0.00     0.000 A 
ENDBRANCH   2  10
ENDBRANCH   1   2
BRANCH   1  16
ATOM     16  C   UNL     1      28.168  23.063   6.500  1.00  0.00     0.088 C 
BRANCH  16  17
ATOM     17  N   UNL     1      27.733  24.101   7.461  1.00  0.00    -0.303 NA
ATOM     18  C   UNL     1      26.537  23.708   8.242  1.00  0.00     0.084 C 
ATOM     19  C   UNL     1      27.613  25.449   6.877  1.00  0.00     0.084 C 
ATOM     20  C   UNL     1      25.951  24.885   9.053  1.00  0.00     0.016 C 
ATOM     21  C   UNL     1      27.581  26.510   7.992  1.00  0.00     0.016 C 
ATOM     22  C   UNL     1      27.006  25.963   9.312  1.00  0.00     0.003 C 
ENDBRANCH  16  17
ENDBRANCH   1  16
TORSDOF 6
ENDMDL
MODEL 5
REMARK VINA RESULT:    -6.612      1.595      5.826
REMARK INTER + INTRA:          -9.723
REMARK INTER:                  -7.984
REMARK INTRA:                  -1.739
REMARK UNBOUND:                -0.985
REMARK SMILES OC(CCN1CCCCC1)(c1ccccc1)C1CCCC1
REMARK SMILES IDX 3 1 2 2 1 3 17 5 18 6 21 7 19 8 20 9 11 10 12 11 16 12 13 13
REMARK SMILES IDX 15 14 14 15 4 16 5 17 6 18 10 19 7 20 9 21 8 22
REMARK H PARENT 1 4
REMARK Flexibility Score: inf
ROOT
ATOM      1  C   UNL     1      30.117  24.943   6.101  1.00  0.00     0.056 C 
ENDROOT
BRANCH   1   2
ATOM      2  C   UNL     1      30.282  23.382   6.177  1.00  0.00     0.094 C 
BRANCH   2   3
ATOM      3  O   UNL     1      29.105  22.794   5.664  1.00  0.00    -0.385 OA
ATOM      4  H   UNL     1      29.334  22.313   4.824  1.00  0.00     0.211 HD
ENDBRANCH   2   3
BRANCH   2   5
ATOM      5  C   UNL     1      30.503  22.802   7.625  1.00  0.00     0.025 C 
ATOM      6  C   UNL     1      30.843  23.804   8.733  1.00  0.00     0.007 C 
ATOM      7  C   UNL     1      29.355  21.940   8.184  1.00  0.00     0.007 C 
ATOM      8  C   UNL     1      30.483  23.089  10.020  1.00  0.00     0.000 C 
ATOM      9  C   UNL     1      29.268  22.240   9.679  1.00  0.00     0.000 C 
ENDBRANCH   2   5
BRANCH   2  10
ATOM     10  C   UNL     1      31.484  22.948   5.311  1.00  0.00    -0.016 A 
ATOM     11  C   UNL     1      32.787  23.416   5.600  1.00  0.00     0.007 A 
ATOM     12  C   UNL     1      31.305  22.165   4.149  1.00  0.00     0.007 A 
ATOM     13  C   UNL     1      33.872  23.059   4.794  1.00  0.00     0.000 A 
ATOM     14  C   UNL     1      32.396  21.813   3.346  1.00  0.00     0.000 A 
ATOM     15  C   UNL     1      33.677  22.255   3.672  1.00  0.00     0.000 A 
ENDBRANCH   2  10
ENDBRANCH   1   2
BRANCH   1  16
ATOM     16  C   UNL     1      28.654  25.444   6.186  1.00  0.00     0.088 C 
BRANCH  16  17
ATOM     17  N   UNL     1      28.058  25.351   7.538  1.00  0.00    -0.303 NA
ATOM     18  C   UNL     1      26.783  24.599   7.562  1.00  0.00     0.084 C 
ATOM     19  C   UNL     1      27.970  26.641   8.246  1.00  0.00     0.084 C 
ATOM     20  C   UNL     1      26.051  24.723   8.916  1.00  0.00     0.016 C 
ATOM     21  C   UNL     1      27.751  26.407   9.751  1.00  0.00     0.016 C 
ATOM     22  C   UNL     1      27.024  25.082  10.043  1.00  0.00     0.003 C 
ENDBRANCH  16  17
ENDBRANCH   1  16
TORSDOF 6
ENDMDL
MODEL 6
REMARK VINA RESULT:    -6.509      1.686      2.338
REMARK INTER + INTRA:          -9.587
REMARK INTER:                  -8.467
REMARK INTRA:                  -1.120
REMARK UNBOUND:                -0.985
REMARK SMILES OC(CCN1CCCCC1)(c1ccccc1)C1CCCC1
REMARK SMILES IDX 3 1 2 2 1 3 17 5 18 6 21 7 19 8 20 9 11 10 12 11 16 12 13 13
REMARK SMILES IDX 15 14 14 15 4 16 5 17 6 18 10 19 7 20 9 21 8 22
REMARK H PARENT 1 4
REMARK Flexibility Score: inf
ROOT
ATOM      1  C   UNL     1      31.123  22.321   6.033  1.00  0.00     0.056 C 
ENDROOT
BRANCH   1   2
ATOM      2  C   UNL     1      29.808  23.038   6.507  1.00  0.00     0.094 C 
BRANCH   2   3
ATOM      3  O   UNL     1      28.897  23.036   5.428  1.00  0.00    -0.385 OA
ATOM      4  H   UNL     1      28.111  23.592   5.679  1.00  0.00     0.211 HD
ENDBRANCH   2   3
BRANCH   2   5
ATOM      5  C   UNL     1      29.989  24.534   6.966  1.00  0.00     0.025 C 
ATOM      6  C   UNL     1      31.396  24.967   7.393  1.00  0.00     0.007 C 
ATOM      7  C   UNL     1      29.513  25.605   5.965  1.00  0.00     0.007 C 
ATOM      8  C   UNL     1      31.388  26.477   7.263  1.00  0.00     0.000 C 
ATOM      9  C   UNL     1      30.493  26.771   6.069  1.00  0.00     0.000 C 
ENDBRANCH   2   5
BRANCH   2  10
ATOM     10  C   UNL     1      29.194  22.259   7.690  1.00  0.00    -0.016 A 
ATOM     11  C   UNL     1      27.811  21.965   7.719  1.00  0.00     0.007 A 
ATOM     12  C   UNL     1      29.967  21.913   8.821  1.00  0.00     0.007 A 
ATOM     13  C   UNL     1      27.243  21.297   8.808  1.00  0.00     0.000 A 
ATOM     14  C   UNL     1      29.391  21.246   9.907  1.00  0.00     0.000 A 
ATOM     15  C   UNL     1      28.033  20.933   9.897  1.00  0.00     0.000 A 
ENDBRANCH   2  10
ENDBRANCH   1   2
BRANCH   1  16
ATOM     16  C   UNL     1      31.326  22.294   4.498  1.00  0.00     0.088 C 
BRANCH  16  17
ATOM     17  N   UNL     1      32.568  22.954   4.037  1.00  0.00    -0.303 NA
ATOM     18  C   UNL     1      33.146  22.328   2.825  1.00  0.00     0.084 C 
ATOM     19  C   UNL     1      33.568  23.164   5.099  1.00  0.00     0.084 C 
ATOM     20  C   UNL     1      34.559  22.861   2.503  1.00  0.00     0.016 C 
ATOM     21  C   UNL     1      34.608  24.206   4.651  1.00  0.00     0.016 C 
ATOM     22  C   UNL     1      34.786  24.243   3.122  1.00  0.00     0.003 C 
ENDBRANCH  16  17
ENDBRANCH   1  16
TORSDOF 6
ENDMDL
MODEL 7
REMARK VINA RESULT:    -6.481      1.107      1.820
REMARK INTER + INTRA:          -9.549
REMARK INTER:                  -8.576
REMARK INTRA:                  -0.973
REMARK UNBOUND:                -0.985
REMARK SMILES OC(CCN1CCCCC1)(c1ccccc1)C1CCCC1
REMARK SMILES IDX 3 1 2 2 1 3 17 5 18 6 21 7 19 8 20 9 11 10 12 11 16 12 13 13
REMARK SMILES IDX 15 14 14 15 4 16 5 17 6 18 10 19 7 20 9 21 8 22
REMARK H PARENT 1 4
REMARK Flexibility Score: inf
ROOT
ATOM      1  C   UNL     1      29.446  23.835   7.181  1.00  0.00     0.056 C 
ENDROOT
BRANCH   1   2
ATOM      2  C   UNL     1      28.058  23.099   7.175  1.00  0.00     0.094 C 
BRANCH   2   3
ATOM      3  O   UNL     1      27.781  22.703   5.848  1.00  0.00    -0.385 OA
ATOM      4  H   UNL     1      28.265  23.313   5.230  1.00  0.00     0.211 HD
ENDBRANCH   2   3
BRANCH   2   5
ATOM      5  C   UNL     1      26.839  23.963   7.671  1.00  0.00     0.025 C 
ATOM      6  C   UNL     1      26.535  23.942   9.174  1.00  0.00     0.007 C 
ATOM      7  C   UNL     1      26.866  25.452   7.275  1.00  0.00     0.007 C 
ATOM      8  C   UNL     1      25.722  25.198   9.417  1.00  0.00     0.000 C 
ATOM      9  C   UNL     1      26.282  26.231   8.452  1.00  0.00     0.000 C 
ENDBRANCH   2   5
BRANCH   2  10
ATOM     10  C   UNL     1      28.137  21.844   8.071  1.00  0.00    -0.016 A 
ATOM     11  C   UNL     1      27.113  20.870   8.037  1.00  0.00     0.007 A 
ATOM     12  C   UNL     1      29.169  21.687   9.024  1.00  0.00     0.007 A 
ATOM     13  C   UNL     1      27.158  19.753   8.878  1.00  0.00     0.000 A 
ATOM     14  C   UNL     1      29.206  20.568   9.862  1.00  0.00     0.000 A 
ATOM     15  C   UNL     1      28.206  19.599   9.784  1.00  0.00     0.000 A 
ENDBRANCH   2  10
ENDBRANCH   1   2
BRANCH   1  16
ATOM     16  C   UNL     1      29.982  24.217   5.779  1.00  0.00     0.088 C 
BRANCH  16  17
ATOM     17  N   UNL     1      31.320  23.666   5.469  1.00  0.00    -0.303 NA
ATOM     18  C   UNL     1      31.391  22.193   5.606  1.00  0.00     0.084 C 
ATOM     19  C   UNL     1      32.427  24.355   6.156  1.00  0.00     0.084 C 
ATOM     20  C   UNL     1      32.839  21.663   5.525  1.00  0.00     0.016 C 
ATOM     21  C   UNL     1      33.766  24.021   5.473  1.00  0.00     0.016 C 
ATOM     22  C   UNL     1      33.750  22.645   4.784  1.00  0.00     0.003 C 
ENDBRANCH  16  17
ENDBRANCH   1  16
TORSDOF 6
ENDMDL
MODEL 8
REMARK VINA RESULT:    -6.460      1.810      6.030
REMARK INTER + INTRA:          -9.522
REMARK INTER:                  -7.619
REMARK INTRA:                  -1.903
REMARK UNBOUND:                -0.985
REMARK SMILES OC(CCN1CCCCC1)(c1ccccc1)C1CCCC1
REMARK SMILES IDX 3 1 2 2 1 3 17 5 18 6 21 7 19 8 20 9 11 10 12 11 16 12 13 13
REMARK SMILES IDX 15 14 14 15 4 16 5 17 6 18 10 19 7 20 9 21 8 22
REMARK H PARENT 1 4
REMARK Flexibility Score: inf
ROOT
ATOM      1  C   UNL     1      30.748  25.357   7.363  1.00  0.00     0.056 C 
ENDROOT
BRANCH   1   2
ATOM      2  C   UNL     1      30.638  23.925   6.725  1.00  0.00     0.094 C 
BRANCH   2   3
ATOM      3  O   UNL     1      29.569  23.940   5.802  1.00  0.00    -0.385 OA
ATOM      4  H   UNL     1      28.782  23.504   6.225  1.00  0.00     0.211 HD
ENDBRANCH   2   3
BRANCH   2   5
ATOM      5  C   UNL     1      30.360  22.757   7.745  1.00  0.00     0.025 C 
ATOM      6  C   UNL     1      30.561  23.069   9.232  1.00  0.00     0.007 C 
ATOM      7  C   UNL     1      28.972  22.095   7.645  1.00  0.00     0.007 C 
ATOM      8  C   UNL     1      29.751  22.013   9.958  1.00  0.00     0.000 C 
ATOM      9  C   UNL     1      28.543  21.756   9.071  1.00  0.00     0.000 C 
ENDBRANCH   2   5
BRANCH   2  10
ATOM     10  C   UNL     1      31.947  23.591   5.979  1.00  0.00    -0.016 A 
ATOM     11  C   UNL     1      32.209  22.272   5.539  1.00  0.00     0.007 A 
ATOM     12  C   UNL     1      32.962  24.559   5.810  1.00  0.00     0.007 A 
ATOM     13  C   UNL     1      33.412  21.956   4.901  1.00  0.00     0.000 A 
ATOM     14  C   UNL     1      34.164  24.234   5.171  1.00  0.00     0.000 A 
ATOM     15  C   UNL     1      34.385  22.936   4.711  1.00  0.00     0.000 A 
ENDBRANCH   2  10
ENDBRANCH   1   2
BRANCH   1  16
ATOM     16  C   UNL     1      29.457  26.206   7.272  1.00  0.00     0.088 C 
BRANCH  16  17
ATOM     17  N   UNL     1      28.338  25.702   8.100  1.00  0.00    -0.303 NA
ATOM     18  C   UNL     1      27.006  26.046   7.551  1.00  0.00     0.084 C 
ATOM     19  C   UNL     1      28.461  26.020   9.534  1.00  0.00     0.084 C 
ATOM     20  C   UNL     1      25.863  25.737   8.542  1.00  0.00     0.016 C 
ATOM     21  C   UNL     1      27.520  25.123  10.358  1.00  0.00     0.016 C 
ATOM     22  C   UNL     1      26.282  24.674   9.560  1.00  0.00     0.003 C 
ENDBRANCH  16  17
ENDBRANCH   1  16
TORSDOF 6
ENDMDL
MODEL 9
REMARK VINA RESULT:    -6.423      2.354      5.729
REMARK INTER + INTRA:          -9.473
REMARK INTER:                  -8.480
REMARK INTRA:                  -0.993
REMARK UNBOUND:                -0.985
REMARK SMILES OC(CCN1CCCCC1)(c1ccccc1)C1CCCC1
REMARK SMILES IDX 3 1 2 2 1 3 17 5 18 6 21 7 19 8 20 9 11 10 12 11 16 12 13 13
REMARK SMILES IDX 15 14 14 15 4 16 5 17 6 18 10 19 7 20 9 21 8 22
REMARK H PARENT 1 4
REMARK Flexibility Score: inf
ROOT
ATOM      1  C   UNL     1      29.565  22.269   7.660  1.00  0.00     0.056 C 
ENDROOT
BRANCH   1   2
ATOM      2  C   UNL     1      30.386  23.584   7.914  1.00  0.00     0.094 C 
BRANCH   2   3
ATOM      3  O   UNL     1      30.949  23.503   9.206  1.00  0.00    -0.385 OA
ATOM      4  H   UNL     1      30.500  24.173   9.788  1.00  0.00     0.211 HD
ENDBRANCH   2   3
BRANCH   2   5
ATOM      5  C   UNL     1      29.552  24.918   7.848  1.00  0.00     0.025 C 
ATOM      6  C   UNL     1      28.435  24.991   6.801  1.00  0.00     0.007 C 
ATOM      7  C   UNL     1      28.909  25.373   9.172  1.00  0.00     0.007 C 
ATOM      8  C   UNL     1      27.514  26.087   7.300  1.00  0.00     0.000 C 
ATOM      9  C   UNL     1      27.556  25.986   8.816  1.00  0.00     0.000 C 
ENDBRANCH   2   5
BRANCH   2  10
ATOM     10  C   UNL     1      31.522  23.692   6.873  1.00  0.00    -0.016 A 
ATOM     11  C   UNL     1      31.935  22.557   6.138  1.00  0.00     0.007 A 
ATOM     12  C   UNL     1      32.250  24.891   6.704  1.00  0.00     0.007 A 
ATOM     13  C   UNL     1      32.991  22.640   5.225  1.00  0.00     0.000 A 
ATOM     14  C   UNL     1      33.306  24.966   5.791  1.00  0.00     0.000 A 
ATOM     15  C   UNL     1      33.671  23.844   5.048  1.00  0.00     0.000 A 
ENDBRANCH   2  10
ENDBRANCH   1   2
BRANCH   1  16
ATOM     16  C   UNL     1      29.108  21.534   8.944  1.00  0.00     0.088 C 
BRANCH  16  17
ATOM     17  N   UNL     1      28.442  20.235   8.697  1.00  0.00    -0.303 NA
ATOM     18  C   UNL     1      27.132  20.372   8.019  1.00  0.00     0.084 C 
ATOM     19  C   UNL     1      28.382  19.356   9.878  1.00  0.00     0.084 C 
ATOM     20  C   UNL     1      26.342  19.045   7.993  1.00  0.00     0.016 C 
ATOM     21  C   UNL     1      28.079  17.909   9.449  1.00  0.00     0.016 C 
ATOM     22  C   UNL     1      27.274  17.839   8.137  1.00  0.00     0.003 C 
ENDBRANCH  16  17
ENDBRANCH   1  16
TORSDOF 6
ENDMDL
MODEL 10
REMARK VINA RESULT:    -6.420      2.025      5.914
REMARK INTER + INTRA:          -9.470
REMARK INTER:                  -7.561
REMARK INTRA:                  -1.909
REMARK UNBOUND:                -0.985
REMARK SMILES OC(CCN1CCCCC1)(c1ccccc1)C1CCCC1
REMARK SMILES IDX 3 1 2 2 1 3 17 5 18 6 21 7 19 8 20 9 11 10 12 11 16 12 13 13
REMARK SMILES IDX 15 14 14 15 4 16 5 17 6 18 10 19 7 20 9 21 8 22
REMARK H PARENT 1 4
REMARK Flexibility Score: inf
ROOT
ATOM      1  C   UNL     1      31.556  24.789   8.236  1.00  0.00     0.056 C 
ENDROOT
BRANCH   1   2
ATOM      2  C   UNL     1      31.078  24.133   6.891  1.00  0.00     0.094 C 
BRANCH   2   3
ATOM      3  O   UNL     1      30.380  25.114   6.152  1.00  0.00    -0.385 OA
ATOM      4  H   UNL     1      30.568  26.004   6.554  1.00  0.00     0.211 HD
ENDBRANCH   2   3
BRANCH   2   5
ATOM      5  C   UNL     1      30.117  22.896   7.053  1.00  0.00     0.025 C 
ATOM      6  C   UNL     1      29.973  22.306   8.460  1.00  0.00     0.007 C 
ATOM      7  C   UNL     1      28.679  23.091   6.537  1.00  0.00     0.007 C 
ATOM      8  C   UNL     1      28.666  21.540   8.422  1.00  0.00     0.000 C 
ATOM      9  C   UNL     1      27.761  22.339   7.497  1.00  0.00     0.000 C 
ENDBRANCH   2   5
BRANCH   2  10
ATOM     10  C   UNL     1      32.306  23.667   6.080  1.00  0.00    -0.016 A 
ATOM     11  C   UNL     1      33.354  24.568   5.777  1.00  0.00     0.007 A 
ATOM     12  C   UNL     1      32.370  22.369   5.526  1.00  0.00     0.007 A 
ATOM     13  C   UNL     1      34.447  24.162   5.006  1.00  0.00     0.000 A 
ATOM     14  C   UNL     1      33.467  21.971   4.755  1.00  0.00     0.000 A 
ATOM     15  C   UNL     1      34.507  22.864   4.502  1.00  0.00     0.000 A 
ENDBRANCH   2  10
ENDBRANCH   1   2
BRANCH   1  16
ATOM     16  C   UNL     1      30.818  26.097   8.616  1.00  0.00     0.088 C 
BRANCH  16  17
ATOM     17  N   UNL     1      29.353  25.948   8.758  1.00  0.00    -0.303 NA
ATOM     18  C   UNL     1      28.601  27.148   8.325  1.00  0.00     0.084 C 
ATOM     19  C   UNL     1      28.923  25.455  10.080  1.00  0.00     0.084 C 
ATOM     20  C   UNL     1      27.106  27.077   8.708  1.00  0.00     0.016 C 
ATOM     21  C   UNL     1      27.477  24.932  10.007  1.00  0.00     0.016 C 
ATOM     22  C   UNL     1      26.652  25.629   8.910  1.00  0.00     0.003 C 
ENDBRANCH  16  17
ENDBRANCH   1  16
TORSDOF 6
ENDMDL
MODEL 11
REMARK VINA RESULT:    -6.378      1.611      2.830
REMARK INTER + INTRA:          -9.413
REMARK INTER:                  -8.120
REMARK INTRA:                  -1.293
REMARK UNBOUND:                -0.985
REMARK SMILES OC(CCN1CCCCC1)(c1ccccc1)C1CCCC1
REMARK SMILES IDX 3 1 2 2 1 3 17 5 18 6 21 7 19 8 20 9 11 10 12 11 16 12 13 13
REMARK SMILES IDX 15 14 14 15 4 16 5 17 6 18 10 19 7 20 9 21 8 22
REMARK H PARENT 1 4
REMARK Flexibility Score: inf
ROOT
ATOM      1  C   UNL     1      30.016  22.825   4.921  1.00  0.00     0.056 C 
ENDROOT
BRANCH   1   2
ATOM      2  C   UNL     1      29.678  22.858   6.455  1.00  0.00     0.094 C 
BRANCH   2   3
ATOM      3  O   UNL     1      30.228  21.701   7.048  1.00  0.00    -0.385 OA
ATOM      4  H   UNL     1      29.491  21.179   7.464  1.00  0.00     0.211 HD
ENDBRANCH   2   3
BRANCH   2   5
ATOM      5  C   UNL     1      28.141  22.877   6.801  1.00  0.00     0.025 C 
ATOM      6  C   UNL     1      27.681  22.000   7.971  1.00  0.00     0.007 C 
ATOM      7  C   UNL     1      27.528  24.266   7.058  1.00  0.00     0.007 C 
ATOM      8  C   UNL     1      26.352  22.595   8.395  1.00  0.00     0.000 C 
ATOM      9  C   UNL     1      26.494  24.092   8.169  1.00  0.00     0.000 C 
ENDBRANCH   2   5
BRANCH   2  10
ATOM     10  C   UNL     1      30.316  24.109   7.097  1.00  0.00    -0.016 A 
ATOM     11  C   UNL     1      30.593  25.256   6.319  1.00  0.00     0.007 A 
ATOM     12  C   UNL     1      30.739  24.105   8.445  1.00  0.00     0.007 A 
ATOM     13  C   UNL     1      31.210  26.375   6.887  1.00  0.00     0.000 A 
ATOM     14  C   UNL     1      31.357  25.228   9.006  1.00  0.00     0.000 A 
ATOM     15  C   UNL     1      31.586  26.363   8.229  1.00  0.00     0.000 A 
ENDBRANCH   2  10
ENDBRANCH   1   2
BRANCH   1  16
ATOM     16  C   UNL     1      31.244  21.957   4.549  1.00  0.00     0.088 C 
BRANCH  16  17
ATOM     17  N   UNL     1      32.466  22.733   4.239  1.00  0.00    -0.303 NA
ATOM     18  C   UNL     1      33.210  22.206   3.072  1.00  0.00     0.084 C 
ATOM     19  C   UNL     1      33.335  22.978   5.404  1.00  0.00     0.084 C 
ATOM     20  C   UNL     1      34.598  22.863   2.913  1.00  0.00     0.016 C 
ATOM     21  C   UNL     1      34.323  24.117   5.098  1.00  0.00     0.016 C 
ATOM     22  C   UNL     1      34.647  24.231   3.598  1.00  0.00     0.003 C 
ENDBRANCH  16  17
ENDBRANCH   1  16
TORSDOF 6
ENDMDL
MODEL 12
REMARK VINA RESULT:    -6.260      1.862      5.736
REMARK INTER + INTRA:          -9.257
REMARK INTER:                  -7.496
REMARK INTRA:                  -1.761
REMARK UNBOUND:                -0.985
REMARK SMILES OC(CCN1CCCCC1)(c1ccccc1)C1CCCC1
REMARK SMILES IDX 3 1 2 2 1 3 17 5 18 6 21 7 19 8 20 9 11 10 12 11 16 12 13 13
REMARK SMILES IDX 15 14 14 15 4 16 5 17 6 18 10 19 7 20 9 21 8 22
REMARK H PARENT 1 4
REMARK Flexibility Score: inf
ROOT
ATOM      1  C   UNL     1      29.857  24.465   5.710  1.00  0.00     0.056 C 
ENDROOT
BRANCH   1   2
ATOM      2  C   UNL     1      31.015  24.148   6.724  1.00  0.00     0.094 C 
BRANCH   2   3
ATOM      3  O   UNL     1      31.471  25.372   7.262  1.00  0.00    -0.385 OA
ATOM      4  H   UNL     1      32.465  25.362   7.269  1.00  0.00     0.211 HD
ENDBRANCH   2   3
BRANCH   2   5
ATOM      5  C   UNL     1      32.264  23.413   6.107  1.00  0.00     0.025 C 
ATOM      6  C   UNL     1      32.053  22.679   4.778  1.00  0.00     0.007 C 
ATOM      7  C   UNL     1      33.521  24.280   5.907  1.00  0.00     0.007 C 
ATOM      8  C   UNL     1      33.445  22.545   4.191  1.00  0.00     0.000 C 
ATOM      9  C   UNL     1      34.181  23.807   4.614  1.00  0.00     0.000 C 
ENDBRANCH   2   5
BRANCH   2  10
ATOM     10  C   UNL     1      30.471  23.265   7.867  1.00  0.00    -0.016 A 
ATOM     11  C   UNL     1      29.566  22.212   7.596  1.00  0.00     0.007 A 
ATOM     12  C   UNL     1      30.771  23.547   9.219  1.00  0.00     0.007 A 
ATOM     13  C   UNL     1      29.038  21.437   8.633  1.00  0.00     0.000 A 
ATOM     14  C   UNL     1      30.237  22.768  10.250  1.00  0.00     0.000 A 
ATOM     15  C   UNL     1      29.377  21.710   9.956  1.00  0.00     0.000 A 
ENDBRANCH   2  10
ENDBRANCH   1   2
BRANCH   1  16
ATOM     16  C   UNL     1      28.941  25.643   6.122  1.00  0.00     0.088 C 
BRANCH  16  17
ATOM     17  N   UNL     1      28.313  25.488   7.454  1.00  0.00    -0.303 NA
ATOM     18  C   UNL     1      26.983  24.840   7.399  1.00  0.00     0.084 C 
ATOM     19  C   UNL     1      28.313  26.719   8.265  1.00  0.00     0.084 C 
ATOM     20  C   UNL     1      26.238  24.909   8.749  1.00  0.00     0.016 C 
ATOM     21  C   UNL     1      28.047  26.379   9.743  1.00  0.00     0.016 C 
ATOM     22  C   UNL     1      27.213  25.096   9.914  1.00  0.00     0.003 C 
ENDBRANCH  16  17
ENDBRANCH   1  16
TORSDOF 6
ENDMDL
MODEL 13
REMARK VINA RESULT:    -6.208      6.679      8.947
REMARK INTER + INTRA:          -9.189
REMARK INTER:                  -8.030
REMARK INTRA:                  -1.160
REMARK UNBOUND:                -0.985
REMARK SMILES OC(CCN1CCCCC1)(c1ccccc1)C1CCCC1
REMARK SMILES IDX 3 1 2 2 1 3 17 5 18 6 21 7 19 8 20 9 11 10 12 11 16 12 13 13
REMARK SMILES IDX 15 14 14 15 4 16 5 17 6 18 10 19 7 20 9 21 8 22
REMARK H PARENT 1 4
REMARK Flexibility Score: inf
ROOT
ATOM      1  C   UNL     1      24.307  20.806  12.319  1.00  0.00     0.056 C 
ENDROOT
BRANCH   1   2
ATOM      2  C   UNL     1      22.739  20.713  12.352  1.00  0.00     0.094 C 
BRANCH   2   3
ATOM      3  O   UNL     1      22.305  20.238  11.095  1.00  0.00    -0.385 OA
ATOM      4  H   UNL     1      23.055  19.745  10.668  1.00  0.00     0.211 HD
ENDBRANCH   2   3
BRANCH   2   5
ATOM      5  C   UNL     1      21.993  22.073  12.623  1.00  0.00     0.025 C 
ATOM      6  C   UNL     1      22.637  23.032  13.630  1.00  0.00     0.007 C 
ATOM      7  C   UNL     1      21.681  22.926  11.379  1.00  0.00     0.007 C 
ATOM      8  C   UNL     1      22.042  24.387  13.302  1.00  0.00     0.000 C 
ATOM      9  C   UNL     1      21.852  24.387  11.793  1.00  0.00     0.000 C 
ENDBRANCH   2   5
BRANCH   2  10
ATOM     10  C   UNL     1      22.305  19.715  13.447  1.00  0.00    -0.016 A 
ATOM     11  C   UNL     1      23.217  19.296  14.443  1.00  0.00     0.007 A 
ATOM     12  C   UNL     1      21.027  19.112  13.424  1.00  0.00     0.007 A 
ATOM     13  C   UNL     1      22.841  18.360  15.411  1.00  0.00     0.000 A 
ATOM     14  C   UNL     1      20.659  18.176  14.396  1.00  0.00     0.000 A 
ATOM     15  C   UNL     1      21.562  17.806  15.391  1.00  0.00     0.000 A 
ENDBRANCH   2  10
ENDBRANCH   1   2
BRANCH   1  16
ATOM     16  C   UNL     1      24.890  21.456  11.040  1.00  0.00     0.088 C 
BRANCH  16  17
ATOM     17  N   UNL     1      25.483  20.494  10.085  1.00  0.00    -0.303 NA
ATOM     18  C   UNL     1      25.651  19.136  10.654  1.00  0.00     0.084 C 
ATOM     19  C   UNL     1      26.702  20.984   9.416  1.00  0.00     0.084 C 
ATOM     20  C   UNL     1      26.492  18.216   9.743  1.00  0.00     0.016 C 
ATOM     21  C   UNL     1      27.000  20.135   8.167  1.00  0.00     0.016 C 
ATOM     22  C   UNL     1      26.465  18.696   8.289  1.00  0.00     0.003 C 
ENDBRANCH  16  17
ENDBRANCH   1  16
TORSDOF 6
ENDMDL
MODEL 14
REMARK VINA RESULT:    -6.069      2.832      6.509
REMARK INTER + INTRA:          -9.006
REMARK INTER:                  -7.536
REMARK INTRA:                  -1.470
REMARK UNBOUND:                -0.985
REMARK SMILES OC(CCN1CCCCC1)(c1ccccc1)C1CCCC1
REMARK SMILES IDX 3 1 2 2 1 3 17 5 18 6 21 7 19 8 20 9 11 10 12 11 16 12 13 13
REMARK SMILES IDX 15 14 14 15 4 16 5 17 6 18 10 19 7 20 9 21 8 22
REMARK H PARENT 1 4
REMARK Flexibility Score: inf
ROOT
ATOM      1  C   UNL     1      27.555  22.516   9.904  1.00  0.00     0.056 C 
ENDROOT
BRANCH   1   2
ATOM      2  C   UNL     1      27.542  21.843   8.485  1.00  0.00     0.094 C 
BRANCH   2   3
ATOM      3  O   UNL     1      26.260  22.034   7.923  1.00  0.00    -0.385 OA
ATOM      4  H   UNL     1      26.110  21.333   7.234  1.00  0.00     0.211 HD
ENDBRANCH   2   3
BRANCH   2   5
ATOM      5  C   UNL     1      27.831  20.294   8.475  1.00  0.00     0.025 C 
ATOM      6  C   UNL     1      28.233  19.653   9.808  1.00  0.00     0.007 C 
ATOM      7  C   UNL     1      26.707  19.406   7.910  1.00  0.00     0.007 C 
ATOM      8  C   UNL     1      27.932  18.178   9.628  1.00  0.00     0.000 C 
ATOM      9  C   UNL     1      26.696  18.126   8.744  1.00  0.00     0.000 C 
ENDBRANCH   2   5
BRANCH   2  10
ATOM     10  C   UNL     1      28.596  22.520   7.583  1.00  0.00    -0.016 A 
ATOM     11  C   UNL     1      29.976  22.385   7.862  1.00  0.00     0.007 A 
ATOM     12  C   UNL     1      28.215  23.377   6.527  1.00  0.00     0.007 A 
ATOM     13  C   UNL     1      30.933  23.032   7.074  1.00  0.00     0.000 A 
ATOM     14  C   UNL     1      29.179  24.022   5.743  1.00  0.00     0.000 A 
ATOM     15  C   UNL     1      30.535  23.844   6.013  1.00  0.00     0.000 A 
ENDBRANCH   2  10
ENDBRANCH   1   2
BRANCH   1  16
ATOM     16  C   UNL     1      26.308  23.378  10.222  1.00  0.00     0.088 C 
BRANCH  16  17
ATOM     17  N   UNL     1      26.282  24.687   9.533  1.00  0.00    -0.303 NA
ATOM     18  C   UNL     1      27.580  25.398   9.585  1.00  0.00     0.084 C 
ATOM     19  C   UNL     1      25.148  25.547   9.918  1.00  0.00     0.084 C 
ATOM     20  C   UNL     1      27.473  26.856   9.087  1.00  0.00     0.016 C 
ATOM     21  C   UNL     1      24.954  26.666   8.879  1.00  0.00     0.016 C 
ATOM     22  C   UNL     1      26.266  27.042   8.164  1.00  0.00     0.003 C 
ENDBRANCH  16  17
ENDBRANCH   1  16
TORSDOF 6
ENDMDL
MODEL 15
REMARK VINA RESULT:    -6.045      2.496      3.817
REMARK INTER + INTRA:          -8.973
REMARK INTER:                  -7.120
REMARK INTRA:                  -1.853
REMARK UNBOUND:                -0.985
REMARK SMILES OC(CCN1CCCCC1)(c1ccccc1)C1CCCC1
REMARK SMILES IDX 3 1 2 2 1 3 17 5 18 6 21 7 19 8 20 9 11 10 12 11 16 12 13 13
REMARK SMILES IDX 15 14 14 15 4 16 5 17 6 18 10 19 7 20 9 21 8 22
REMARK H PARENT 1 4
REMARK Flexibility Score: inf
ROOT
ATOM      1  C   UNL     1      29.332  22.353   9.937  1.00  0.00     0.056 C 
ENDROOT
BRANCH   1   2
ATOM      2  C   UNL     1      28.269  21.867   8.887  1.00  0.00     0.094 C 
BRANCH   2   3
ATOM      3  O   UNL     1      28.947  21.575   7.683  1.00  0.00    -0.385 OA
ATOM      4  H   UNL     1      29.914  21.766   7.812  1.00  0.00     0.211 HD
ENDBRANCH   2   3
BRANCH   2   5
ATOM      5  C   UNL     1      27.138  22.910   8.546  1.00  0.00     0.025 C 
ATOM      6  C   UNL     1      26.970  24.093   9.507  1.00  0.00     0.007 C 
ATOM      7  C   UNL     1      27.197  23.527   7.136  1.00  0.00     0.007 C 
ATOM      8  C   UNL     1      26.239  25.144   8.695  1.00  0.00     0.000 C 
ATOM      9  C   UNL     1      26.755  24.983   7.274  1.00  0.00     0.000 C 
ENDBRANCH   2   5
BRANCH   2  10
ATOM     10  C   UNL     1      27.581  20.586   9.404  1.00  0.00    -0.016 A 
ATOM     11  C   UNL     1      28.199  19.324   9.248  1.00  0.00     0.007 A 
ATOM     12  C   UNL     1      26.277  20.621   9.947  1.00  0.00     0.007 A 
ATOM     13  C   UNL     1      27.561  18.155   9.676  1.00  0.00     0.000 A 
ATOM     14  C   UNL     1      25.645  19.448  10.372  1.00  0.00     0.000 A 
ATOM     15  C   UNL     1      26.289  18.218  10.243  1.00  0.00     0.000 A 
ENDBRANCH   2  10
ENDBRANCH   1   2
BRANCH   1  16
ATOM     16  C   UNL     1      30.666  22.848   9.325  1.00  0.00     0.088 C 
BRANCH  16  17
ATOM     17  N   UNL     1      30.528  24.021   8.433  1.00  0.00    -0.303 NA
ATOM     18  C   UNL     1      31.448  23.983   7.273  1.00  0.00     0.084 C 
ATOM     19  C   UNL     1      30.551  25.316   9.135  1.00  0.00     0.084 C 
ATOM     20  C   UNL     1      31.471  25.317   6.496  1.00  0.00     0.016 C 
ATOM     21  C   UNL     1      29.986  26.423   8.226  1.00  0.00     0.016 C 
ATOM     22  C   UNL     1      30.189  26.120   6.731  1.00  0.00     0.003 C 
ENDBRANCH  16  17
ENDBRANCH   1  16
TORSDOF 6
ENDMDL
