MODEL 1
REMARK VINA RESULT:   -10.726      0.000      0.000
REMARK INTER + INTRA:         -16.067
REMARK INTER:                 -15.115
REMARK INTRA:                  -0.952
REMARK UNBOUND:                -0.952
REMARK SMILES Cc1ccc(NC(=O)c2ccc(CN3CCN(C)CC3)cc2)cc1Nc1nccc(-c2cccnc2)n1
REMARK SMILES IDX 5 1 23 2 24 3 2 4 1 5 3 6 4 7 6 8 7 9 8 10 9 12 12 13 11 14
REMARK SMILES IDX 21 15 10 16 22 17 13 18 14 19 18 20 17 21 16 22 19 23 15 24
REMARK SMILES IDX 20 25 25 26 26 28 27 29 37 30 28 31 30 32 29 33 31 34 36 35
REMARK SMILES IDX 32 36 35 37 33 38 34 39
REMARK H PARENT 6 11 25 27
REMARK Flexibility Score: inf
ROOT
ATOM      1  C   UNL     1      33.652   7.509   7.882  1.00  0.00     0.043 A 
ATOM      2  C   UNL     1      32.421   7.564   8.556  1.00  0.00     0.052 A 
ATOM      3  C   UNL     1      32.168   8.557   9.521  1.00  0.00     0.046 A 
ATOM      4  C   UNL     1      33.191   9.477   9.848  1.00  0.00    -0.027 A 
ATOM      5  C   UNL     1      32.975  10.543  10.888  1.00  0.00     0.046 C 
ATOM      6  C   UNL     1      34.437   9.384   9.207  1.00  0.00     0.008 A 
ATOM      7  C   UNL     1      34.663   8.411   8.232  1.00  0.00     0.026 A 
ENDROOT
BRANCH   1   8
ATOM      8  N   UNL     1      33.907   6.513   6.878  1.00  0.00    -0.322 N 
ATOM      9  C   UNL     1      34.365   5.183   7.182  1.00  0.00     0.255 C 
ATOM     10  O   UNL     1      34.290   4.751   8.365  1.00  0.00    -0.269 OA
ATOM     11  H   UNL     1      33.600   6.716   5.900  1.00  0.00     0.170 HD
BRANCH   9  12
ATOM     12  C   UNL     1      34.874   4.291   6.116  1.00  0.00     0.040 A 
ATOM     13  C   UNL     1      35.842   2.578   4.097  1.00  0.00    -0.034 A 
ATOM     14  C   UNL     1      35.457   3.890   3.787  1.00  0.00     0.006 A 
ATOM     15  C   UNL     1      35.755   2.130   5.423  1.00  0.00     0.006 A 
ATOM     16  C   UNL     1      34.974   4.739   4.787  1.00  0.00     0.014 A 
ATOM     17  C   UNL     1      35.282   2.981   6.425  1.00  0.00     0.014 A 
BRANCH  13  18
ATOM     18  C   UNL     1      36.365   1.671   3.013  1.00  0.00     0.120 C 
BRANCH  18  19
ATOM     19  N   UNL     1      35.376   1.534   1.920  1.00  0.00    -0.297 NA
ATOM     20  C   UNL     1      37.423  -1.084   0.389  1.00  0.00     0.105 C 
ATOM     21  N   UNL     1      36.424  -0.171  -0.193  1.00  0.00    -0.304 NA
ATOM     22  C   UNL     1      36.846   1.249  -0.091  1.00  0.00     0.099 C 
ATOM     23  C   UNL     1      35.072  -0.429   0.343  1.00  0.00     0.099 C 
ATOM     24  C   UNL     1      35.836   2.143   0.651  1.00  0.00     0.100 C 
ATOM     25  C   UNL     1      34.897   0.135   1.765  1.00  0.00     0.100 C 
ENDBRANCH  18  19
ENDBRANCH  13  18
ENDBRANCH   9  12
ENDBRANCH   1   8
BRANCH   3  26
ATOM     26  N   UNL     1      30.905   8.593  10.213  1.00  0.00    -0.324 N 
ATOM     27  H   UNL     1      30.823   8.103  11.132  1.00  0.00     0.170 HD
BRANCH  26  28
ATOM     28  C   UNL     1      29.753   9.310   9.744  1.00  0.00     0.227 A 
ATOM     29  N   UNL     1      29.919  10.432   8.996  1.00  0.00    -0.221 NA
ATOM     30  N   UNL     1      28.496   8.866  10.018  1.00  0.00    -0.213 NA
ATOM     31  C   UNL     1      28.851  11.127   8.530  1.00  0.00     0.117 A 
ATOM     32  C   UNL     1      27.390   9.534   9.590  1.00  0.00     0.077 A 
ATOM     33  C   UNL     1      27.557  10.694   8.819  1.00  0.00     0.049 A 
BRANCH  32  34
ATOM     34  C   UNL     1      26.046   9.021   9.956  1.00  0.00     0.019 A 
ATOM     35  C   UNL     1      25.801   7.644  10.116  1.00  0.00     0.121 A 
ATOM     36  C   UNL     1      24.968   9.909  10.103  1.00  0.00     0.013 A 
ATOM     37  N   UNL     1      24.549   7.200  10.407  1.00  0.00    -0.264 NA
ATOM     38  C   UNL     1      23.694   9.425  10.405  1.00  0.00     0.021 A 
ATOM     39  C   UNL     1      23.503   8.053  10.556  1.00  0.00     0.111 A 
ENDBRANCH  32  34
ENDBRANCH  26  28
ENDBRANCH   3  26
TORSDOF 7
ENDMDL
MODEL 2
REMARK VINA RESULT:   -10.568      5.148      8.513
REMARK INTER + INTRA:         -15.844
REMARK INTER:                 -15.119
REMARK INTRA:                  -0.726
REMARK UNBOUND:                -0.952
REMARK SMILES Cc1ccc(NC(=O)c2ccc(CN3CCN(C)CC3)cc2)cc1Nc1nccc(-c2cccnc2)n1
REMARK SMILES IDX 5 1 23 2 24 3 2 4 1 5 3 6 4 7 6 8 7 9 8 10 9 12 12 13 11 14
REMARK SMILES IDX 21 15 10 16 22 17 13 18 14 19 18 20 17 21 16 22 19 23 15 24
REMARK SMILES IDX 20 25 25 26 26 28 27 29 37 30 28 31 30 32 29 33 31 34 36 35
REMARK SMILES IDX 32 36 35 37 33 38 34 39
REMARK H PARENT 6 11 25 27
REMARK Flexibility Score: inf
ROOT
ATOM      1  C   UNL     1      27.808  14.142  10.534  1.00  0.00     0.043 A 
ATOM      2  C   UNL     1      26.574  13.528  10.800  1.00  0.00     0.052 A 
ATOM      3  C   UNL     1      25.482  14.275  11.280  1.00  0.00     0.046 A 
ATOM      4  C   UNL     1      25.654  15.653  11.545  1.00  0.00    -0.027 A 
ATOM      5  C   UNL     1      24.522  16.489  12.079  1.00  0.00     0.046 C 
ATOM      6  C   UNL     1      26.906  16.249  11.325  1.00  0.00     0.008 A 
ATOM      7  C   UNL     1      27.971  15.501  10.823  1.00  0.00     0.026 A 
ENDROOT
BRANCH   1   8
ATOM      8  N   UNL     1      28.919  13.388  10.021  1.00  0.00    -0.322 N 
ATOM      9  C   UNL     1      29.491  12.258  10.703  1.00  0.00     0.255 C 
ATOM     10  O   UNL     1      28.856  11.709  11.645  1.00  0.00    -0.269 OA
ATOM     11  H   UNL     1      29.224  13.576   9.039  1.00  0.00     0.170 HD
BRANCH   9  12
ATOM     12  C   UNL     1      30.792  11.692  10.280  1.00  0.00     0.040 A 
ATOM     13  C   UNL     1      33.263  10.596   9.476  1.00  0.00    -0.034 A 
ATOM     14  C   UNL     1      33.003  11.963   9.298  1.00  0.00     0.006 A 
ATOM     15  C   UNL     1      32.287   9.782  10.071  1.00  0.00     0.006 A 
ATOM     16  C   UNL     1      31.776  12.506   9.694  1.00  0.00     0.014 A 
ATOM     17  C   UNL     1      31.066  10.326  10.476  1.00  0.00     0.014 A 
BRANCH  13  18
ATOM     18  C   UNL     1      34.588  10.020   9.050  1.00  0.00     0.120 C 
BRANCH  18  19
ATOM     19  N   UNL     1      34.430   9.172   7.848  1.00  0.00    -0.297 NA
ATOM     20  C   UNL     1      37.717   7.685   8.461  1.00  0.00     0.105 C 
ATOM     21  N   UNL     1      36.931   7.819   7.223  1.00  0.00    -0.304 NA
ATOM     22  C   UNL     1      36.728   9.241   6.846  1.00  0.00     0.099 C 
ATOM     23  C   UNL     1      35.679   7.037   7.284  1.00  0.00     0.099 C 
ATOM     24  C   UNL     1      35.247   9.639   6.705  1.00  0.00     0.100 C 
ATOM     25  C   UNL     1      34.608   7.727   8.150  1.00  0.00     0.100 C 
ENDBRANCH  18  19
ENDBRANCH  13  18
ENDBRANCH   9  12
ENDBRANCH   1   8
BRANCH   3  26
ATOM     26  N   UNL     1      24.225  13.628  11.560  1.00  0.00    -0.324 N 
ATOM     27  H   UNL     1      23.423  14.212  11.886  1.00  0.00     0.170 HD
BRANCH  26  28
ATOM     28  C   UNL     1      23.983  12.226  11.368  1.00  0.00     0.227 A 
ATOM     29  N   UNL     1      22.806  11.686  11.780  1.00  0.00    -0.221 NA
ATOM     30  N   UNL     1      24.907  11.436  10.757  1.00  0.00    -0.213 NA
ATOM     31  C   UNL     1      22.543  10.366  11.605  1.00  0.00     0.117 A 
ATOM     32  C   UNL     1      24.701  10.103  10.572  1.00  0.00     0.077 A 
ATOM     33  C   UNL     1      23.488   9.541  10.997  1.00  0.00     0.049 A 
BRANCH  32  34
ATOM     34  C   UNL     1      25.765   9.287   9.934  1.00  0.00     0.019 A 
ATOM     35  C   UNL     1      25.679   7.884   9.871  1.00  0.00     0.121 A 
ATOM     36  C   UNL     1      26.916   9.906   9.420  1.00  0.00     0.013 A 
ATOM     37  N   UNL     1      26.690   7.160   9.321  1.00  0.00    -0.264 NA
ATOM     38  C   UNL     1      27.937   9.138   8.858  1.00  0.00     0.021 A 
ATOM     39  C   UNL     1      27.804   7.751   8.816  1.00  0.00     0.111 A 
ENDBRANCH  32  34
ENDBRANCH  26  28
ENDBRANCH   3  26
TORSDOF 7
ENDMDL
MODEL 3
REMARK VINA RESULT:    -9.961      1.836      2.691
REMARK INTER + INTRA:         -14.989
REMARK INTER:                 -13.936
REMARK INTRA:                  -1.053
REMARK UNBOUND:                -0.952
REMARK SMILES Cc1ccc(NC(=O)c2ccc(CN3CCN(C)CC3)cc2)cc1Nc1nccc(-c2cccnc2)n1
REMARK SMILES IDX 5 1 23 2 24 3 2 4 1 5 3 6 4 7 6 8 7 9 8 10 9 12 12 13 11 14
REMARK SMILES IDX 21 15 10 16 22 17 13 18 14 19 18 20 17 21 16 22 19 23 15 24
REMARK SMILES IDX 20 25 25 26 26 28 27 29 37 30 28 31 30 32 29 33 31 34 36 35
REMARK SMILES IDX 32 36 35 37 33 38 34 39
REMARK H PARENT 6 11 25 27
REMARK Flexibility Score: inf
ROOT
ATOM      1  C   UNL     1      32.566   8.391   8.991  1.00  0.00     0.043 A 
ATOM      2  C   UNL     1      31.284   8.681   8.495  1.00  0.00     0.052 A 
ATOM      3  C   UNL     1      30.555   9.784   8.978  1.00  0.00     0.046 A 
ATOM      4  C   UNL     1      31.105  10.576  10.012  1.00  0.00    -0.027 A 
ATOM      5  C   UNL     1      30.354  11.751  10.574  1.00  0.00     0.046 C 
ATOM      6  C   UNL     1      32.365  10.248  10.538  1.00  0.00     0.008 A 
ATOM      7  C   UNL     1      33.088   9.168  10.031  1.00  0.00     0.026 A 
ENDROOT
BRANCH   1   8
ATOM      8  N   UNL     1      33.325   7.281   8.485  1.00  0.00    -0.322 N 
ATOM      9  C   UNL     1      34.274   7.397   7.409  1.00  0.00     0.255 C 
ATOM     10  O   UNL     1      34.683   8.536   7.055  1.00  0.00    -0.269 OA
ATOM     11  H   UNL     1      33.299   6.385   9.023  1.00  0.00     0.170 HD
BRANCH   9  12
ATOM     12  C   UNL     1      34.821   6.193   6.743  1.00  0.00     0.040 A 
ATOM     13  C   UNL     1      35.879   3.909   5.471  1.00  0.00    -0.034 A 
ATOM     14  C   UNL     1      34.780   3.793   6.336  1.00  0.00     0.006 A 
ATOM     15  C   UNL     1      36.437   5.174   5.235  1.00  0.00     0.006 A 
ATOM     16  C   UNL     1      34.258   4.925   6.969  1.00  0.00     0.014 A 
ATOM     17  C   UNL     1      35.909   6.306   5.859  1.00  0.00     0.014 A 
BRANCH  13  18
ATOM     18  C   UNL     1      36.433   2.684   4.791  1.00  0.00     0.120 C 
BRANCH  18  19
ATOM     19  N   UNL     1      35.522   2.221   3.720  1.00  0.00    -0.297 NA
ATOM     20  C   UNL     1      38.140   0.004   2.447  1.00  0.00     0.105 C 
ATOM     21  N   UNL     1      36.971   0.604   1.782  1.00  0.00    -0.304 NA
ATOM     22  C   UNL     1      37.057   2.086   1.742  1.00  0.00     0.099 C 
ATOM     23  C   UNL     1      35.703   0.098   2.345  1.00  0.00     0.099 C 
ATOM     24  C   UNL     1      35.856   2.793   2.396  1.00  0.00     0.100 C 
ATOM     25  C   UNL     1      35.377   0.741   3.705  1.00  0.00     0.100 C 
ENDBRANCH  18  19
ENDBRANCH  13  18
ENDBRANCH   9  12
ENDBRANCH   1   8
BRANCH   3  26
ATOM     26  N   UNL     1      29.236  10.062   8.468  1.00  0.00    -0.324 N 
ATOM     27  H   UNL     1      29.140  10.695   7.643  1.00  0.00     0.170 HD
BRANCH  26  28
ATOM     28  C   UNL     1      28.033   9.477   8.991  1.00  0.00     0.227 A 
ATOM     29  N   UNL     1      27.851   8.133   8.911  1.00  0.00    -0.221 NA
ATOM     30  N   UNL     1      27.084  10.249   9.587  1.00  0.00    -0.213 NA
ATOM     31  C   UNL     1      26.730   7.548   9.405  1.00  0.00     0.117 A 
ATOM     32  C   UNL     1      25.934   9.717  10.082  1.00  0.00     0.077 A 
ATOM     33  C   UNL     1      25.741   8.329  10.001  1.00  0.00     0.049 A 
BRANCH  32  34
ATOM     34  C   UNL     1      24.919  10.617  10.685  1.00  0.00     0.019 A 
ATOM     35  C   UNL     1      23.634  10.156  11.026  1.00  0.00     0.121 A 
ATOM     36  C   UNL     1      25.211  11.977  10.882  1.00  0.00     0.013 A 
ATOM     37  N   UNL     1      22.710  11.015  11.535  1.00  0.00    -0.264 NA
ATOM     38  C   UNL     1      24.245  12.835  11.409  1.00  0.00     0.021 A 
ATOM     39  C   UNL     1      22.987  12.330  11.734  1.00  0.00     0.111 A 
ENDBRANCH  32  34
ENDBRANCH  26  28
ENDBRANCH   3  26
TORSDOF 7
ENDMDL
MODEL 4
REMARK VINA RESULT:    -9.908      3.031      5.802
REMARK INTER + INTRA:         -14.914
REMARK INTER:                 -13.801
REMARK INTRA:                  -1.113
REMARK UNBOUND:                -0.952
REMARK SMILES Cc1ccc(NC(=O)c2ccc(CN3CCN(C)CC3)cc2)cc1Nc1nccc(-c2cccnc2)n1
REMARK SMILES IDX 5 1 23 2 24 3 2 4 1 5 3 6 4 7 6 8 7 9 8 10 9 12 12 13 11 14
REMARK SMILES IDX 21 15 10 16 22 17 13 18 14 19 18 20 17 21 16 22 19 23 15 24
REMARK SMILES IDX 20 25 25 26 26 28 27 29 37 30 28 31 30 32 29 33 31 34 36 35
REMARK SMILES IDX 32 36 35 37 33 38 34 39
REMARK H PARENT 6 11 25 27
REMARK Flexibility Score: inf
ROOT
ATOM      1  C   UNL     1      30.966  12.505   9.991  1.00  0.00     0.043 A 
ATOM      2  C   UNL     1      29.673  13.010   9.782  1.00  0.00     0.052 A 
ATOM      3  C   UNL     1      29.242  14.185  10.426  1.00  0.00     0.046 A 
ATOM      4  C   UNL     1      30.111  14.832  11.334  1.00  0.00    -0.027 A 
ATOM      5  C   UNL     1      29.687  16.078  12.063  1.00  0.00     0.046 C 
ATOM      6  C   UNL     1      31.384  14.291  11.578  1.00  0.00     0.008 A 
ATOM      7  C   UNL     1      31.807  13.141  10.911  1.00  0.00     0.026 A 
ENDROOT
BRANCH   1   8
ATOM      8  N   UNL     1      31.420  11.320   9.318  1.00  0.00    -0.322 N 
ATOM      9  C   UNL     1      31.232   9.992   9.840  1.00  0.00     0.255 C 
ATOM     10  O   UNL     1      30.409   9.799  10.776  1.00  0.00    -0.269 OA
ATOM     11  H   UNL     1      31.765  11.417   8.336  1.00  0.00     0.170 HD
BRANCH   9  12
ATOM     12  C   UNL     1      31.951   8.836   9.258  1.00  0.00     0.040 A 
ATOM     13  C   UNL     1      33.338   6.645   8.150  1.00  0.00    -0.034 A 
ATOM     14  C   UNL     1      32.068   6.465   8.719  1.00  0.00     0.006 A 
ATOM     15  C   UNL     1      33.905   7.927   8.125  1.00  0.00     0.006 A 
ATOM     16  C   UNL     1      31.382   7.551   9.272  1.00  0.00     0.014 A 
ATOM     17  C   UNL     1      33.216   9.014   8.668  1.00  0.00     0.014 A 
BRANCH  13  18
ATOM     18  C   UNL     1      34.068   5.470   7.553  1.00  0.00     0.120 C 
BRANCH  18  19
ATOM     19  N   UNL     1      35.290   5.914   6.846  1.00  0.00    -0.297 NA
ATOM     20  C   UNL     1      35.366   2.764   4.987  1.00  0.00     0.105 C 
ATOM     21  N   UNL     1      36.437   3.718   5.320  1.00  0.00    -0.304 NA
ATOM     22  C   UNL     1      36.659   3.815   6.784  1.00  0.00     0.099 C 
ATOM     23  C   UNL     1      36.227   5.025   4.664  1.00  0.00     0.099 C 
ATOM     24  C   UNL     1      36.514   5.243   7.340  1.00  0.00     0.100 C 
ATOM     25  C   UNL     1      35.139   5.856   5.368  1.00  0.00     0.100 C 
ENDBRANCH  18  19
ENDBRANCH  13  18
ENDBRANCH   9  12
ENDBRANCH   1   8
BRANCH   3  26
ATOM     26  N   UNL     1      27.907  14.684  10.210  1.00  0.00    -0.324 N 
ATOM     27  H   UNL     1      27.787  15.593   9.710  1.00  0.00     0.170 HD
BRANCH  26  28
ATOM     28  C   UNL     1      26.715  13.982  10.594  1.00  0.00     0.227 A 
ATOM     29  N   UNL     1      25.708  14.657  11.208  1.00  0.00    -0.221 NA
ATOM     30  N   UNL     1      26.571  12.655  10.330  1.00  0.00    -0.213 NA
ATOM     31  C   UNL     1      24.564  14.025  11.575  1.00  0.00     0.117 A 
ATOM     32  C   UNL     1      25.453  11.969  10.693  1.00  0.00     0.077 A 
ATOM     33  C   UNL     1      24.410  12.662  11.328  1.00  0.00     0.049 A 
BRANCH  32  34
ATOM     34  C   UNL     1      25.373  10.514  10.412  1.00  0.00     0.019 A 
ATOM     35  C   UNL     1      26.513   9.767  10.064  1.00  0.00     0.121 A 
ATOM     36  C   UNL     1      24.131   9.857  10.442  1.00  0.00     0.013 A 
ATOM     37  N   UNL     1      26.401   8.443   9.769  1.00  0.00    -0.264 NA
ATOM     38  C   UNL     1      24.046   8.497  10.138  1.00  0.00     0.021 A 
ATOM     39  C   UNL     1      25.206   7.800   9.801  1.00  0.00     0.111 A 
ENDBRANCH  32  34
ENDBRANCH  26  28
ENDBRANCH   3  26
TORSDOF 7
ENDMDL
MODEL 5
REMARK VINA RESULT:    -9.815      1.326      1.726
REMARK INTER + INTRA:         -14.783
REMARK INTER:                 -13.845
REMARK INTRA:                  -0.938
REMARK UNBOUND:                -0.952
REMARK SMILES Cc1ccc(NC(=O)c2ccc(CN3CCN(C)CC3)cc2)cc1Nc1nccc(-c2cccnc2)n1
REMARK SMILES IDX 5 1 23 2 24 3 2 4 1 5 3 6 4 7 6 8 7 9 8 10 9 12 12 13 11 14
REMARK SMILES IDX 21 15 10 16 22 17 13 18 14 19 18 20 17 21 16 22 19 23 15 24
REMARK SMILES IDX 20 25 25 26 26 28 27 29 37 30 28 31 30 32 29 33 31 34 36 35
REMARK SMILES IDX 32 36 35 37 33 38 34 39
REMARK H PARENT 6 11 25 27
REMARK Flexibility Score: inf
ROOT
ATOM      1  C   UNL     1      34.615   8.260   8.633  1.00  0.00     0.043 A 
ATOM      2  C   UNL     1      33.364   8.385   9.259  1.00  0.00     0.052 A 
ATOM      3  C   UNL     1      33.067   9.497  10.068  1.00  0.00     0.046 A 
ATOM      4  C   UNL     1      34.065  10.474  10.291  1.00  0.00    -0.027 A 
ATOM      5  C   UNL     1      33.801  11.669  11.165  1.00  0.00     0.046 C 
ATOM      6  C   UNL     1      35.330  10.316   9.704  1.00  0.00     0.008 A 
ATOM      7  C   UNL     1      35.601   9.222   8.881  1.00  0.00     0.026 A 
ENDROOT
BRANCH   1   8
ATOM      8  N   UNL     1      34.915   7.139   7.786  1.00  0.00    -0.322 N 
ATOM      9  C   UNL     1      34.990   7.229   6.352  1.00  0.00     0.255 C 
ATOM     10  O   UNL     1      35.072   8.360   5.800  1.00  0.00    -0.269 OA
ATOM     11  H   UNL     1      35.244   6.257   8.241  1.00  0.00     0.170 HD
BRANCH   9  12
ATOM     12  C   UNL     1      35.026   6.009   5.513  1.00  0.00     0.040 A 
ATOM     13  C   UNL     1      35.090   3.675   3.932  1.00  0.00    -0.034 A 
ATOM     14  C   UNL     1      35.133   4.941   3.329  1.00  0.00     0.006 A 
ATOM     15  C   UNL     1      35.029   3.581   5.330  1.00  0.00     0.006 A 
ATOM     16  C   UNL     1      35.098   6.098   4.112  1.00  0.00     0.014 A 
ATOM     17  C   UNL     1      35.004   4.737   6.114  1.00  0.00     0.014 A 
BRANCH  13  18
ATOM     18  C   UNL     1      35.131   2.433   3.080  1.00  0.00     0.120 C 
BRANCH  18  19
ATOM     19  N   UNL     1      36.387   2.374   2.299  1.00  0.00    -0.297 NA
ATOM     20  C   UNL     1      34.916  -0.171   0.120  1.00  0.00     0.105 C 
ATOM     21  N   UNL     1      36.321   0.138   0.436  1.00  0.00    -0.304 NA
ATOM     22  C   UNL     1      36.628  -0.085   1.871  1.00  0.00     0.099 C 
ATOM     23  C   UNL     1      36.708   1.478  -0.052  1.00  0.00     0.099 C 
ATOM     24  C   UNL     1      37.184   1.159   2.587  1.00  0.00     0.100 C 
ATOM     25  C   UNL     1      36.159   2.601   0.847  1.00  0.00     0.100 C 
ENDBRANCH  18  19
ENDBRANCH  13  18
ENDBRANCH   9  12
ENDBRANCH   1   8
BRANCH   3  26
ATOM     26  N   UNL     1      31.783   9.604  10.713  1.00  0.00    -0.324 N 
ATOM     27  H   UNL     1      31.701   9.329  11.717  1.00  0.00     0.170 HD
BRANCH  26  28
ATOM     28  C   UNL     1      30.604  10.121  10.075  1.00  0.00     0.227 A 
ATOM     29  N   UNL     1      30.702  11.208   9.265  1.00  0.00    -0.221 NA
ATOM     30  N   UNL     1      29.396   9.521  10.252  1.00  0.00    -0.213 NA
ATOM     31  C   UNL     1      29.609  11.715   8.640  1.00  0.00     0.117 A 
ATOM     32  C   UNL     1      28.265   9.999   9.663  1.00  0.00     0.077 A 
ATOM     33  C   UNL     1      28.361  11.122   8.827  1.00  0.00     0.049 A 
BRANCH  32  34
ATOM     34  C   UNL     1      26.970   9.324   9.927  1.00  0.00     0.019 A 
ATOM     35  C   UNL     1      26.879   7.925  10.049  1.00  0.00     0.121 A 
ATOM     36  C   UNL     1      25.787  10.077  10.013  1.00  0.00     0.013 A 
ATOM     37  N   UNL     1      25.671   7.331  10.246  1.00  0.00    -0.264 NA
ATOM     38  C   UNL     1      24.561   9.441  10.219  1.00  0.00     0.021 A 
ATOM     39  C   UNL     1      24.524   8.052  10.336  1.00  0.00     0.111 A 
ENDBRANCH  32  34
ENDBRANCH  26  28
ENDBRANCH   3  26
TORSDOF 7
ENDMDL
MODEL 6
REMARK VINA RESULT:    -9.629      1.537      2.380
REMARK INTER + INTRA:         -14.522
REMARK INTER:                 -13.775
REMARK INTRA:                  -0.747
REMARK UNBOUND:                -0.952
REMARK SMILES Cc1ccc(NC(=O)c2ccc(CN3CCN(C)CC3)cc2)cc1Nc1nccc(-c2cccnc2)n1
REMARK SMILES IDX 5 1 23 2 24 3 2 4 1 5 3 6 4 7 6 8 7 9 8 10 9 12 12 13 11 14
REMARK SMILES IDX 21 15 10 16 22 17 13 18 14 19 18 20 17 21 16 22 19 23 15 24
REMARK SMILES IDX 20 25 25 26 26 28 27 29 37 30 28 31 30 32 29 33 31 34 36 35
REMARK SMILES IDX 32 36 35 37 33 38 34 39
REMARK H PARENT 6 11 25 27
REMARK Flexibility Score: inf
ROOT
ATOM      1  C   UNL     1      33.781   7.853   7.634  1.00  0.00     0.043 A 
ATOM      2  C   UNL     1      32.683   7.940   8.505  1.00  0.00     0.052 A 
ATOM      3  C   UNL     1      32.620   8.941   9.493  1.00  0.00     0.046 A 
ATOM      4  C   UNL     1      33.705   9.836   9.638  1.00  0.00    -0.027 A 
ATOM      5  C   UNL     1      33.693  10.908  10.693  1.00  0.00     0.046 C 
ATOM      6  C   UNL     1      34.823   9.709   8.797  1.00  0.00     0.008 A 
ATOM      7  C   UNL     1      34.859   8.730   7.804  1.00  0.00     0.026 A 
ENDROOT
BRANCH   1   8
ATOM      8  N   UNL     1      33.839   6.849   6.608  1.00  0.00    -0.322 N 
ATOM      9  C   UNL     1      34.697   5.696   6.678  1.00  0.00     0.255 C 
ATOM     10  O   UNL     1      35.226   5.376   7.777  1.00  0.00    -0.269 OA
ATOM     11  H   UNL     1      33.117   6.880   5.853  1.00  0.00     0.170 HD
BRANCH   9  12
ATOM     12  C   UNL     1      34.927   4.845   5.488  1.00  0.00     0.040 A 
ATOM     13  C   UNL     1      35.370   3.240   3.212  1.00  0.00    -0.034 A 
ATOM     14  C   UNL     1      35.230   2.651   4.478  1.00  0.00     0.006 A 
ATOM     15  C   UNL     1      35.273   4.634   3.088  1.00  0.00     0.006 A 
ATOM     16  C   UNL     1      35.014   3.447   5.607  1.00  0.00     0.014 A 
ATOM     17  C   UNL     1      35.047   5.428   4.214  1.00  0.00     0.014 A 
BRANCH  13  18
ATOM     18  C   UNL     1      35.599   2.374   2.000  1.00  0.00     0.120 C 
BRANCH  18  19
ATOM     19  N   UNL     1      35.817   0.965   2.395  1.00  0.00    -0.297 NA
ATOM     20  C   UNL     1      37.301   0.273  -0.877  1.00  0.00     0.105 C 
ATOM     21  N   UNL     1      36.650  -0.618   0.099  1.00  0.00    -0.304 NA
ATOM     22  C   UNL     1      35.220  -0.272   0.297  1.00  0.00     0.099 C 
ATOM     23  C   UNL     1      37.420  -0.704   1.357  1.00  0.00     0.099 C 
ATOM     24  C   UNL     1      34.855   0.036   1.761  1.00  0.00     0.100 C 
ATOM     25  C   UNL     1      37.235   0.547   2.235  1.00  0.00     0.100 C 
ENDBRANCH  18  19
ENDBRANCH  13  18
ENDBRANCH   9  12
ENDBRANCH   1   8
BRANCH   3  26
ATOM     26  N   UNL     1      31.492   9.010  10.387  1.00  0.00    -0.324 N 
ATOM     27  H   UNL     1      31.669   9.123  11.410  1.00  0.00     0.170 HD
BRANCH  26  28
ATOM     28  C   UNL     1      30.123   8.986   9.955  1.00  0.00     0.227 A 
ATOM     29  N   UNL     1      29.659   7.917   9.256  1.00  0.00    -0.221 NA
ATOM     30  N   UNL     1      29.278  10.008  10.259  1.00  0.00    -0.213 NA
ATOM     31  C   UNL     1      28.367   7.859   8.842  1.00  0.00     0.117 A 
ATOM     32  C   UNL     1      27.978  10.009   9.853  1.00  0.00     0.077 A 
ATOM     33  C   UNL     1      27.495   8.908   9.130  1.00  0.00     0.049 A 
BRANCH  32  34
ATOM     34  C   UNL     1      27.117  11.172  10.182  1.00  0.00     0.019 A 
ATOM     35  C   UNL     1      27.660  12.451  10.404  1.00  0.00     0.121 A 
ATOM     36  C   UNL     1      25.730  11.005  10.327  1.00  0.00     0.013 A 
ATOM     37  N   UNL     1      26.850  13.489  10.748  1.00  0.00    -0.264 NA
ATOM     38  C   UNL     1      24.923  12.088  10.678  1.00  0.00     0.021 A 
ATOM     39  C   UNL     1      25.508  13.336  10.885  1.00  0.00     0.111 A 
ENDBRANCH  32  34
ENDBRANCH  26  28
ENDBRANCH   3  26
TORSDOF 7
ENDMDL
MODEL 7
REMARK VINA RESULT:    -9.625      4.076      7.192
REMARK INTER + INTRA:         -14.515
REMARK INTER:                 -13.429
REMARK INTRA:                  -1.086
REMARK UNBOUND:                -0.952
REMARK SMILES Cc1ccc(NC(=O)c2ccc(CN3CCN(C)CC3)cc2)cc1Nc1nccc(-c2cccnc2)n1
REMARK SMILES IDX 5 1 23 2 24 3 2 4 1 5 3 6 4 7 6 8 7 9 8 10 9 12 12 13 11 14
REMARK SMILES IDX 21 15 10 16 22 17 13 18 14 19 18 20 17 21 16 22 19 23 15 24
REMARK SMILES IDX 20 25 25 26 26 28 27 29 37 30 28 31 30 32 29 33 31 34 36 35
REMARK SMILES IDX 32 36 35 37 33 38 34 39
REMARK H PARENT 6 11 25 27
REMARK Flexibility Score: inf
ROOT
ATOM      1  C   UNL     1      30.355  13.926  11.349  1.00  0.00     0.043 A 
ATOM      2  C   UNL     1      29.052  13.902  10.825  1.00  0.00     0.052 A 
ATOM      3  C   UNL     1      28.142  14.940  11.099  1.00  0.00     0.046 A 
ATOM      4  C   UNL     1      28.537  15.994  11.955  1.00  0.00    -0.027 A 
ATOM      5  C   UNL     1      27.592  17.115  12.293  1.00  0.00     0.046 C 
ATOM      6  C   UNL     1      29.824  15.985  12.515  1.00  0.00     0.008 A 
ATOM      7  C   UNL     1      30.724  14.963  12.213  1.00  0.00     0.026 A 
ENDROOT
BRANCH   1   8
ATOM      8  N   UNL     1      31.296  12.881  11.053  1.00  0.00    -0.322 N 
ATOM      9  C   UNL     1      31.877  12.685   9.751  1.00  0.00     0.255 C 
ATOM     10  O   UNL     1      31.797  13.600   8.887  1.00  0.00    -0.269 OA
ATOM     11  H   UNL     1      31.689  12.337  11.854  1.00  0.00     0.170 HD
BRANCH   9  12
ATOM     12  C   UNL     1      32.617  11.444   9.427  1.00  0.00     0.040 A 
ATOM     13  C   UNL     1      34.040   9.091   8.802  1.00  0.00    -0.034 A 
ATOM     14  C   UNL     1      32.961   9.050   9.698  1.00  0.00     0.006 A 
ATOM     15  C   UNL     1      34.395  10.312   8.209  1.00  0.00     0.006 A 
ATOM     16  C   UNL     1      32.257  10.217  10.011  1.00  0.00     0.014 A 
ATOM     17  C   UNL     1      33.686  11.477   8.513  1.00  0.00     0.014 A 
BRANCH  13  18
ATOM     18  C   UNL     1      34.790   7.828   8.468  1.00  0.00     0.120 C 
BRANCH  18  19
ATOM     19  N   UNL     1      34.232   7.190   7.255  1.00  0.00    -0.297 NA
ATOM     20  C   UNL     1      36.731   4.529   7.499  1.00  0.00     0.105 C 
ATOM     21  N   UNL     1      35.968   5.038   6.347  1.00  0.00    -0.304 NA
ATOM     22  C   UNL     1      36.300   6.454   6.044  1.00  0.00     0.099 C 
ATOM     23  C   UNL     1      34.520   4.788   6.496  1.00  0.00     0.099 C 
ATOM     24  C   UNL     1      35.080   7.393   6.059  1.00  0.00     0.100 C 
ATOM     25  C   UNL     1      33.863   5.768   7.485  1.00  0.00     0.100 C 
ENDBRANCH  18  19
ENDBRANCH  13  18
ENDBRANCH   9  12
ENDBRANCH   1   8
BRANCH   3  26
ATOM     26  N   UNL     1      26.805  14.894  10.564  1.00  0.00    -0.324 N 
ATOM     27  H   UNL     1      26.493  15.662   9.928  1.00  0.00     0.170 HD
BRANCH  26  28
ATOM     28  C   UNL     1      25.879  13.824  10.808  1.00  0.00     0.227 A 
ATOM     29  N   UNL     1      24.688  14.092  11.404  1.00  0.00    -0.221 NA
ATOM     30  N   UNL     1      26.169  12.551  10.427  1.00  0.00    -0.213 NA
ATOM     31  C   UNL     1      23.786  13.105  11.640  1.00  0.00     0.117 A 
ATOM     32  C   UNL     1      25.308  11.521  10.655  1.00  0.00     0.077 A 
ATOM     33  C   UNL     1      24.077  11.791  11.272  1.00  0.00     0.049 A 
BRANCH  32  34
ATOM     34  C   UNL     1      25.700  10.147  10.251  1.00  0.00     0.019 A 
ATOM     35  C   UNL     1      26.964   9.874   9.697  1.00  0.00     0.121 A 
ATOM     36  C   UNL     1      24.784   9.089  10.372  1.00  0.00     0.013 A 
ATOM     37  N   UNL     1      27.278   8.612   9.295  1.00  0.00    -0.264 NA
ATOM     38  C   UNL     1      25.134   7.804   9.954  1.00  0.00     0.021 A 
ATOM     39  C   UNL     1      26.400   7.583   9.413  1.00  0.00     0.111 A 
ENDBRANCH  32  34
ENDBRANCH  26  28
ENDBRANCH   3  26
TORSDOF 7
ENDMDL
MODEL 8
REMARK VINA RESULT:    -9.598      6.611     13.783
REMARK INTER + INTRA:         -14.477
REMARK INTER:                 -13.731
REMARK INTRA:                  -0.746
REMARK UNBOUND:                -0.952
REMARK SMILES Cc1ccc(NC(=O)c2ccc(CN3CCN(C)CC3)cc2)cc1Nc1nccc(-c2cccnc2)n1
REMARK SMILES IDX 5 1 23 2 24 3 2 4 1 5 3 6 4 7 6 8 7 9 8 10 9 12 12 13 11 14
REMARK SMILES IDX 21 15 10 16 22 17 13 18 14 19 18 20 17 21 16 22 19 23 15 24
REMARK SMILES IDX 20 25 25 26 26 28 27 29 37 30 28 31 30 32 29 33 31 34 36 35
REMARK SMILES IDX 32 36 35 37 33 38 34 39
REMARK H PARENT 6 11 25 27
REMARK Flexibility Score: inf
ROOT
ATOM      1  C   UNL     1      31.431  11.730  10.496  1.00  0.00     0.043 A 
ATOM      2  C   UNL     1      30.425  11.161   9.697  1.00  0.00     0.052 A 
ATOM      3  C   UNL     1      30.577   9.874   9.150  1.00  0.00     0.046 A 
ATOM      4  C   UNL     1      31.784   9.169   9.370  1.00  0.00    -0.027 A 
ATOM      5  C   UNL     1      32.001   7.799   8.788  1.00  0.00     0.046 C 
ATOM      6  C   UNL     1      32.805   9.766  10.126  1.00  0.00     0.008 A 
ATOM      7  C   UNL     1      32.629  11.032  10.685  1.00  0.00     0.026 A 
ENDROOT
BRANCH   1   8
ATOM      8  N   UNL     1      31.271  13.034  11.077  1.00  0.00    -0.322 N 
ATOM      9  C   UNL     1      29.994  13.581  11.454  1.00  0.00     0.255 C 
ATOM     10  O   UNL     1      28.992  12.821  11.549  1.00  0.00    -0.269 OA
ATOM     11  H   UNL     1      32.132  13.544  11.379  1.00  0.00     0.170 HD
BRANCH   9  12
ATOM     12  C   UNL     1      29.849  15.017  11.786  1.00  0.00     0.040 A 
ATOM     13  C   UNL     1      29.589  17.750  12.429  1.00  0.00    -0.034 A 
ATOM     14  C   UNL     1      28.851  17.198  11.371  1.00  0.00     0.006 A 
ATOM     15  C   UNL     1      30.446  16.926  13.173  1.00  0.00     0.006 A 
ATOM     16  C   UNL     1      28.983  15.843  11.050  1.00  0.00     0.014 A 
ATOM     17  C   UNL     1      30.570  15.570  12.859  1.00  0.00     0.014 A 
BRANCH  13  18
ATOM     18  C   UNL     1      29.438  19.210  12.771  1.00  0.00     0.120 C 
BRANCH  18  19
ATOM     19  N   UNL     1      28.875  19.376  14.129  1.00  0.00    -0.297 NA
ATOM     20  C   UNL     1      25.876  20.912  12.702  1.00  0.00     0.105 C 
ATOM     21  N   UNL     1      26.479  21.026  14.041  1.00  0.00    -0.304 NA
ATOM     22  C   UNL     1      27.825  21.649  13.992  1.00  0.00     0.099 C 
ATOM     23  C   UNL     1      26.447  19.739  14.765  1.00  0.00     0.099 C 
ATOM     24  C   UNL     1      28.935  20.777  14.606  1.00  0.00     0.100 C 
ATOM     25  C   UNL     1      27.527  18.764  14.259  1.00  0.00     0.100 C 
ENDBRANCH  18  19
ENDBRANCH  13  18
ENDBRANCH   9  12
ENDBRANCH   1   8
BRANCH   3  26
ATOM     26  N   UNL     1      29.542   9.309   8.323  1.00  0.00    -0.324 N 
ATOM     27  H   UNL     1      29.740   9.151   7.310  1.00  0.00     0.170 HD
BRANCH  26  28
ATOM     28  C   UNL     1      28.258   8.894   8.814  1.00  0.00     0.227 A 
ATOM     29  N   UNL     1      27.904   7.584   8.745  1.00  0.00    -0.221 NA
ATOM     30  N   UNL     1      27.401   9.792   9.371  1.00  0.00    -0.213 NA
ATOM     31  C   UNL     1      26.702   7.158   9.209  1.00  0.00     0.117 A 
ATOM     32  C   UNL     1      26.176   9.422   9.836  1.00  0.00     0.077 A 
ATOM     33  C   UNL     1      25.806   8.070   9.765  1.00  0.00     0.049 A 
BRANCH  32  34
ATOM     34  C   UNL     1      25.270  10.456  10.395  1.00  0.00     0.019 A 
ATOM     35  C   UNL     1      25.690  11.788  10.567  1.00  0.00     0.121 A 
ATOM     36  C   UNL     1      23.975  10.108  10.814  1.00  0.00     0.013 A 
ATOM     37  N   UNL     1      24.852  12.704  11.124  1.00  0.00    -0.264 NA
ATOM     38  C   UNL     1      23.136  11.069  11.379  1.00  0.00     0.021 A 
ATOM     39  C   UNL     1      23.597  12.376  11.527  1.00  0.00     0.111 A 
ENDBRANCH  32  34
ENDBRANCH  26  28
ENDBRANCH   3  26
TORSDOF 7
ENDMDL
MODEL 9
REMARK VINA RESULT:    -9.563      3.807      7.856
REMARK INTER + INTRA:         -14.428
REMARK INTER:                 -13.488
REMARK INTRA:                  -0.941
REMARK UNBOUND:                -0.952
REMARK SMILES Cc1ccc(NC(=O)c2ccc(CN3CCN(C)CC3)cc2)cc1Nc1nccc(-c2cccnc2)n1
REMARK SMILES IDX 5 1 23 2 24 3 2 4 1 5 3 6 4 7 6 8 7 9 8 10 9 12 12 13 11 14
REMARK SMILES IDX 21 15 10 16 22 17 13 18 14 19 18 20 17 21 16 22 19 23 15 24
REMARK SMILES IDX 20 25 25 26 26 28 27 29 37 30 28 31 30 32 29 33 31 34 36 35
REMARK SMILES IDX 32 36 35 37 33 38 34 39
REMARK H PARENT 6 11 25 27
REMARK Flexibility Score: inf
ROOT
ATOM      1  C   UNL     1      26.855  10.130   9.925  1.00  0.00     0.043 A 
ATOM      2  C   UNL     1      26.874  11.490  10.274  1.00  0.00     0.052 A 
ATOM      3  C   UNL     1      25.718  12.129  10.759  1.00  0.00     0.046 A 
ATOM      4  C   UNL     1      24.510  11.398  10.844  1.00  0.00    -0.027 A 
ATOM      5  C   UNL     1      23.244  12.045  11.336  1.00  0.00     0.046 C 
ATOM      6  C   UNL     1      24.487  10.053  10.445  1.00  0.00     0.008 A 
ATOM      7  C   UNL     1      25.647   9.425   9.992  1.00  0.00     0.026 A 
ENDROOT
BRANCH   1   8
ATOM      8  N   UNL     1      28.038   9.466   9.453  1.00  0.00    -0.322 N 
ATOM      9  C   UNL     1      29.150   9.131  10.304  1.00  0.00     0.255 C 
ATOM     10  O   UNL     1      29.008   9.156  11.557  1.00  0.00    -0.269 OA
ATOM     11  H   UNL     1      28.024   9.073   8.485  1.00  0.00     0.170 HD
BRANCH   9  12
ATOM     12  C   UNL     1      30.446   8.704   9.730  1.00  0.00     0.040 A 
ATOM     13  C   UNL     1      32.907   7.875   8.631  1.00  0.00    -0.034 A 
ATOM     14  C   UNL     1      32.685   9.227   8.929  1.00  0.00     0.006 A 
ATOM     15  C   UNL     1      31.899   6.937   8.898  1.00  0.00     0.006 A 
ATOM     16  C   UNL     1      31.463   9.639   9.471  1.00  0.00     0.014 A 
ATOM     17  C   UNL     1      30.682   7.346   9.448  1.00  0.00     0.014 A 
BRANCH  13  18
ATOM     18  C   UNL     1      34.228   7.439   8.050  1.00  0.00     0.120 C 
BRANCH  18  19
ATOM     19  N   UNL     1      34.022   6.515   6.913  1.00  0.00    -0.297 NA
ATOM     20  C   UNL     1      37.387   5.162   7.398  1.00  0.00     0.105 C 
ATOM     21  N   UNL     1      36.521   5.199   6.208  1.00  0.00    -0.304 NA
ATOM     22  C   UNL     1      36.249   6.589   5.762  1.00  0.00     0.099 C 
ATOM     23  C   UNL     1      35.301   4.387   6.395  1.00  0.00     0.099 C 
ATOM     24  C   UNL     1      34.751   6.936   5.694  1.00  0.00     0.100 C 
ATOM     25  C   UNL     1      34.265   5.097   7.286  1.00  0.00     0.100 C 
ENDBRANCH  18  19
ENDBRANCH  13  18
ENDBRANCH   9  12
ENDBRANCH   1   8
BRANCH   3  26
ATOM     26  N   UNL     1      25.751  13.529  11.101  1.00  0.00    -0.324 N 
ATOM     27  H   UNL     1      24.956  13.930  11.648  1.00  0.00     0.170 HD
BRANCH  26  28
ATOM     28  C   UNL     1      26.840  14.408  10.783  1.00  0.00     0.227 A 
ATOM     29  N   UNL     1      26.579  15.663  10.332  1.00  0.00    -0.221 NA
ATOM     30  N   UNL     1      28.130  14.009  10.951  1.00  0.00    -0.213 NA
ATOM     31  C   UNL     1      27.586  16.522  10.032  1.00  0.00     0.117 A 
ATOM     32  C   UNL     1      29.178  14.824  10.648  1.00  0.00     0.077 A 
ATOM     33  C   UNL     1      28.913  16.121  10.181  1.00  0.00     0.049 A 
BRANCH  32  34
ATOM     34  C   UNL     1      30.562  14.317  10.815  1.00  0.00     0.019 A 
ATOM     35  C   UNL     1      31.341  14.654  11.937  1.00  0.00     0.121 A 
ATOM     36  C   UNL     1      31.146  13.519   9.817  1.00  0.00     0.013 A 
ATOM     37  N   UNL     1      32.623  14.210  12.041  1.00  0.00    -0.264 NA
ATOM     38  C   UNL     1      32.463  13.075   9.951  1.00  0.00     0.021 A 
ATOM     39  C   UNL     1      33.193  13.434  11.083  1.00  0.00     0.111 A 
ENDBRANCH  32  34
ENDBRANCH  26  28
ENDBRANCH   3  26
TORSDOF 7
ENDMDL
MODEL 10
REMARK VINA RESULT:    -9.561      7.761     12.051
REMARK INTER + INTRA:         -14.426
REMARK INTER:                 -13.567
REMARK INTRA:                  -0.858
REMARK UNBOUND:                -0.952
REMARK SMILES Cc1ccc(NC(=O)c2ccc(CN3CCN(C)CC3)cc2)cc1Nc1nccc(-c2cccnc2)n1
REMARK SMILES IDX 5 1 23 2 24 3 2 4 1 5 3 6 4 7 6 8 7 9 8 10 9 12 12 13 11 14
REMARK SMILES IDX 21 15 10 16 22 17 13 18 14 19 18 20 17 21 16 22 19 23 15 24
REMARK SMILES IDX 20 25 25 26 26 28 27 29 37 30 28 31 30 32 29 33 31 34 36 35
REMARK SMILES IDX 32 36 35 37 33 38 34 39
REMARK H PARENT 6 11 25 27
REMARK Flexibility Score: inf
ROOT
ATOM      1  C   UNL     1      29.363   9.998  10.241  1.00  0.00     0.043 A 
ATOM      2  C   UNL     1      27.961  10.023  10.306  1.00  0.00     0.052 A 
ATOM      3  C   UNL     1      27.192   8.981   9.754  1.00  0.00     0.046 A 
ATOM      4  C   UNL     1      27.846   7.924   9.081  1.00  0.00    -0.027 A 
ATOM      5  C   UNL     1      27.065   6.800   8.456  1.00  0.00     0.046 C 
ATOM      6  C   UNL     1      29.246   7.932   8.975  1.00  0.00     0.008 A 
ATOM      7  C   UNL     1      29.996   8.957   9.552  1.00  0.00     0.026 A 
ENDROOT
BRANCH   1   8
ATOM      8  N   UNL     1      30.154  11.046  10.825  1.00  0.00    -0.322 N 
ATOM      9  C   UNL     1      30.643  12.176  10.080  1.00  0.00     0.255 C 
ATOM     10  O   UNL     1      30.156  12.435   8.946  1.00  0.00    -0.269 OA
ATOM     11  H   UNL     1      30.249  11.065  11.866  1.00  0.00     0.170 HD
BRANCH   9  12
ATOM     12  C   UNL     1      31.673  13.075  10.649  1.00  0.00     0.040 A 
ATOM     13  C   UNL     1      33.621  14.794  11.744  1.00  0.00    -0.034 A 
ATOM     14  C   UNL     1      34.006  13.690  10.969  1.00  0.00     0.006 A 
ATOM     15  C   UNL     1      32.257  15.043  11.957  1.00  0.00     0.006 A 
ATOM     16  C   UNL     1      33.040  12.835  10.429  1.00  0.00     0.014 A 
ATOM     17  C   UNL     1      31.291  14.196  11.409  1.00  0.00     0.014 A 
BRANCH  13  18
ATOM     18  C   UNL     1      34.669  15.712  12.319  1.00  0.00     0.120 C 
BRANCH  18  19
ATOM     19  N   UNL     1      34.440  17.108  11.885  1.00  0.00    -0.297 NA
ATOM     20  C   UNL     1      37.660  18.086  13.322  1.00  0.00     0.105 C 
ATOM     21  N   UNL     1      36.447  18.873  13.037  1.00  0.00    -0.304 NA
ATOM     22  C   UNL     1      35.289  18.418  13.847  1.00  0.00     0.099 C 
ATOM     23  C   UNL     1      36.169  18.940  11.588  1.00  0.00     0.099 C 
ATOM     24  C   UNL     1      34.069  18.003  13.004  1.00  0.00     0.100 C 
ATOM     25  C   UNL     1      35.558  17.630  11.056  1.00  0.00     0.100 C 
ENDBRANCH  18  19
ENDBRANCH  13  18
ENDBRANCH   9  12
ENDBRANCH   1   8
BRANCH   3  26
ATOM     26  N   UNL     1      25.753   9.028   9.818  1.00  0.00    -0.324 N 
ATOM     27  H   UNL     1      25.208   8.218   9.445  1.00  0.00     0.170 HD
BRANCH  26  28
ATOM     28  C   UNL     1      25.010  10.101  10.415  1.00  0.00     0.227 A 
ATOM     29  N   UNL     1      23.769   9.861  10.916  1.00  0.00    -0.221 NA
ATOM     30  N   UNL     1      25.541  11.350  10.509  1.00  0.00    -0.213 NA
ATOM     31  C   UNL     1      23.045  10.851  11.495  1.00  0.00     0.117 A 
ATOM     32  C   UNL     1      24.851  12.383  11.064  1.00  0.00     0.077 A 
ATOM     33  C   UNL     1      23.569  12.141  11.581  1.00  0.00     0.049 A 
BRANCH  32  34
ATOM     34  C   UNL     1      25.470  13.732  11.100  1.00  0.00     0.019 A 
ATOM     35  C   UNL     1      24.780  14.847  11.612  1.00  0.00     0.121 A 
ATOM     36  C   UNL     1      26.755  13.933  10.570  1.00  0.00     0.013 A 
ATOM     37  N   UNL     1      25.356  16.079  11.591  1.00  0.00    -0.264 NA
ATOM     38  C   UNL     1      27.323  15.208  10.563  1.00  0.00     0.021 A 
ATOM     39  C   UNL     1      26.600  16.280  11.085  1.00  0.00     0.111 A 
ENDBRANCH  32  34
ENDBRANCH  26  28
ENDBRANCH   3  26
TORSDOF 7
ENDMDL
MODEL 11
REMARK VINA RESULT:    -9.532      6.847     14.088
REMARK INTER + INTRA:         -14.384
REMARK INTER:                 -13.068
REMARK INTRA:                  -1.316
REMARK UNBOUND:                -0.952
REMARK SMILES Cc1ccc(NC(=O)c2ccc(CN3CCN(C)CC3)cc2)cc1Nc1nccc(-c2cccnc2)n1
REMARK SMILES IDX 5 1 23 2 24 3 2 4 1 5 3 6 4 7 6 8 7 9 8 10 9 12 12 13 11 14
REMARK SMILES IDX 21 15 10 16 22 17 13 18 14 19 18 20 17 21 16 22 19 23 15 24
REMARK SMILES IDX 20 25 25 26 26 28 27 29 37 30 28 31 30 32 29 33 31 34 36 35
REMARK SMILES IDX 32 36 35 37 33 38 34 39
REMARK H PARENT 6 11 25 27
REMARK Flexibility Score: inf
ROOT
ATOM      1  C   UNL     1      30.546  12.348   9.439  1.00  0.00     0.043 A 
ATOM      2  C   UNL     1      29.655  11.393   8.923  1.00  0.00     0.052 A 
ATOM      3  C   UNL     1      30.046  10.051   8.762  1.00  0.00     0.046 A 
ATOM      4  C   UNL     1      31.373   9.677   9.078  1.00  0.00    -0.027 A 
ATOM      5  C   UNL     1      31.844   8.259   8.903  1.00  0.00     0.046 C 
ATOM      6  C   UNL     1      32.273  10.649   9.545  1.00  0.00     0.008 A 
ATOM      7  C   UNL     1      31.863  11.970   9.725  1.00  0.00     0.026 A 
ENDROOT
BRANCH   1   8
ATOM      8  N   UNL     1      30.144  13.715   9.629  1.00  0.00    -0.322 N 
ATOM      9  C   UNL     1      29.528  14.198  10.836  1.00  0.00     0.255 C 
ATOM     10  O   UNL     1      29.574  13.498  11.884  1.00  0.00    -0.269 OA
ATOM     11  H   UNL     1      30.453  14.418   8.919  1.00  0.00     0.170 HD
BRANCH   9  12
ATOM     12  C   UNL     1      28.886  15.531  10.882  1.00  0.00     0.040 A 
ATOM     13  C   UNL     1      27.680  18.079  10.972  1.00  0.00    -0.034 A 
ATOM     14  C   UNL     1      26.953  16.966  10.522  1.00  0.00     0.006 A 
ATOM     15  C   UNL     1      29.008  17.909  11.391  1.00  0.00     0.006 A 
ATOM     16  C   UNL     1      27.552  15.704  10.474  1.00  0.00     0.014 A 
ATOM     17  C   UNL     1      29.604  16.646  11.353  1.00  0.00     0.014 A 
BRANCH  13  18
ATOM     18  C   UNL     1      27.026  19.435  11.024  1.00  0.00     0.120 C 
BRANCH  18  19
ATOM     19  N   UNL     1      25.786  19.390  11.830  1.00  0.00    -0.297 NA
ATOM     20  C   UNL     1      26.494  22.742  13.115  1.00  0.00     0.105 C 
ATOM     21  N   UNL     1      25.688  21.642  13.671  1.00  0.00    -0.304 NA
ATOM     22  C   UNL     1      26.515  20.450  13.982  1.00  0.00     0.099 C 
ATOM     23  C   UNL     1      24.513  21.345  12.825  1.00  0.00     0.099 C 
ATOM     24  C   UNL     1      26.047  19.167  13.270  1.00  0.00     0.100 C 
ATOM     25  C   UNL     1      24.897  20.551  11.563  1.00  0.00     0.100 C 
ENDBRANCH  18  19
ENDBRANCH  13  18
ENDBRANCH   9  12
ENDBRANCH   1   8
BRANCH   3  26
ATOM     26  N   UNL     1      29.125   9.085   8.220  1.00  0.00    -0.324 N 
ATOM     27  H   UNL     1      29.388   8.575   7.348  1.00  0.00     0.170 HD
BRANCH  26  28
ATOM     28  C   UNL     1      27.876   8.734   8.835  1.00  0.00     0.227 A 
ATOM     29  N   UNL     1      27.482   7.434   8.859  1.00  0.00    -0.221 NA
ATOM     30  N   UNL     1      27.093   9.684   9.415  1.00  0.00    -0.213 NA
ATOM     31  C   UNL     1      26.312   7.067   9.441  1.00  0.00     0.117 A 
ATOM     32  C   UNL     1      25.902   9.373   9.997  1.00  0.00     0.077 A 
ATOM     33  C   UNL     1      25.490   8.032  10.023  1.00  0.00     0.049 A 
BRANCH  32  34
ATOM     34  C   UNL     1      25.074  10.460  10.578  1.00  0.00     0.019 A 
ATOM     35  C   UNL     1      23.745  10.238  10.985  1.00  0.00     0.121 A 
ATOM     36  C   UNL     1      25.593  11.761  10.687  1.00  0.00     0.013 A 
ATOM     37  N   UNL     1      22.997  11.264  11.472  1.00  0.00    -0.264 NA
ATOM     38  C   UNL     1      24.803  12.794  11.193  1.00  0.00     0.021 A 
ATOM     39  C   UNL     1      23.493  12.523  11.585  1.00  0.00     0.111 A 
ENDBRANCH  32  34
ENDBRANCH  26  28
ENDBRANCH   3  26
TORSDOF 7
ENDMDL
MODEL 12
REMARK VINA RESULT:    -9.512      8.077     15.939
REMARK INTER + INTRA:         -14.357
REMARK INTER:                 -13.664
REMARK INTRA:                  -0.693
REMARK UNBOUND:                -0.952
REMARK SMILES Cc1ccc(NC(=O)c2ccc(CN3CCN(C)CC3)cc2)cc1Nc1nccc(-c2cccnc2)n1
REMARK SMILES IDX 5 1 23 2 24 3 2 4 1 5 3 6 4 7 6 8 7 9 8 10 9 12 12 13 11 14
REMARK SMILES IDX 21 15 10 16 22 17 13 18 14 19 18 20 17 21 16 22 19 23 15 24
REMARK SMILES IDX 20 25 25 26 26 28 27 29 37 30 28 31 30 32 29 33 31 34 36 35
REMARK SMILES IDX 32 36 35 37 33 38 34 39
REMARK H PARENT 6 11 25 27
REMARK Flexibility Score: inf
ROOT
ATOM      1  C   UNL     1      24.548  12.630  11.197  1.00  0.00     0.043 A 
ATOM      2  C   UNL     1      25.530  11.986  10.428  1.00  0.00     0.052 A 
ATOM      3  C   UNL     1      25.381  10.640  10.042  1.00  0.00     0.046 A 
ATOM      4  C   UNL     1      24.247   9.919  10.482  1.00  0.00    -0.027 A 
ATOM      5  C   UNL     1      24.054   8.474  10.113  1.00  0.00     0.046 C 
ATOM      6  C   UNL     1      23.295  10.556  11.294  1.00  0.00     0.008 A 
ATOM      7  C   UNL     1      23.443  11.898  11.645  1.00  0.00     0.026 A 
ENDROOT
BRANCH   1   8
ATOM      8  N   UNL     1      24.684  14.010  11.573  1.00  0.00    -0.322 N 
ATOM      9  C   UNL     1      25.789  14.836  11.165  1.00  0.00     0.255 C 
ATOM     10  O   UNL     1      26.540  14.456  10.226  1.00  0.00    -0.269 OA
ATOM     11  H   UNL     1      23.868  14.473  12.034  1.00  0.00     0.170 HD
BRANCH   9  12
ATOM     12  C   UNL     1      26.029  16.154  11.796  1.00  0.00     0.040 A 
ATOM     13  C   UNL     1      26.465  18.665  13.002  1.00  0.00    -0.034 A 
ATOM     14  C   UNL     1      27.544  17.805  12.748  1.00  0.00     0.006 A 
ATOM     15  C   UNL     1      25.169  18.271  12.638  1.00  0.00     0.006 A 
ATOM     16  C   UNL     1      27.327  16.558  12.153  1.00  0.00     0.014 A 
ATOM     17  C   UNL     1      24.954  17.029  12.034  1.00  0.00     0.014 A 
BRANCH  13  18
ATOM     18  C   UNL     1      26.708  20.009  13.640  1.00  0.00     0.120 C 
BRANCH  18  19
ATOM     19  N   UNL     1      27.731  19.907  14.704  1.00  0.00    -0.297 NA
ATOM     20  C   UNL     1      25.890  22.349  16.713  1.00  0.00     0.105 C 
ATOM     21  N   UNL     1      27.313  21.967  16.717  1.00  0.00    -0.304 NA
ATOM     22  C   UNL     1      27.978  22.294  15.431  1.00  0.00     0.099 C 
ATOM     23  C   UNL     1      27.500  20.565  17.143  1.00  0.00     0.099 C 
ATOM     24  C   UNL     1      28.633  21.080  14.746  1.00  0.00     0.100 C 
ATOM     25  C   UNL     1      27.139  19.568  16.025  1.00  0.00     0.100 C 
ENDBRANCH  18  19
ENDBRANCH  13  18
ENDBRANCH   9  12
ENDBRANCH   1   8
BRANCH   3  26
ATOM     26  N   UNL     1      26.403   9.990   9.263  1.00  0.00    -0.324 N 
ATOM     27  H   UNL     1      26.142   9.572   8.342  1.00  0.00     0.170 HD
BRANCH  26  28
ATOM     28  C   UNL     1      27.785   9.922   9.648  1.00  0.00     0.227 A 
ATOM     29  N   UNL     1      28.416   8.719   9.672  1.00  0.00    -0.221 NA
ATOM     30  N   UNL     1      28.477  11.050   9.964  1.00  0.00    -0.213 NA
ATOM     31  C   UNL     1      29.724   8.622  10.022  1.00  0.00     0.117 A 
ATOM     32  C   UNL     1      29.785  11.007  10.339  1.00  0.00     0.077 A 
ATOM     33  C   UNL     1      30.441   9.767  10.367  1.00  0.00     0.049 A 
BRANCH  32  34
ATOM     34  C   UNL     1      30.474  12.268  10.711  1.00  0.00     0.019 A 
ATOM     35  C   UNL     1      31.877  12.374  10.695  1.00  0.00     0.121 A 
ATOM     36  C   UNL     1      29.728  13.378  11.141  1.00  0.00     0.013 A 
ATOM     37  N   UNL     1      32.481  13.529  11.084  1.00  0.00    -0.264 NA
ATOM     38  C   UNL     1      30.375  14.552  11.533  1.00  0.00     0.021 A 
ATOM     39  C   UNL     1      31.767  14.609  11.496  1.00  0.00     0.111 A 
ENDBRANCH  32  34
ENDBRANCH  26  28
ENDBRANCH   3  26
TORSDOF 7
ENDMDL
MODEL 13
REMARK VINA RESULT:    -9.463      2.356      3.458
REMARK INTER + INTRA:         -14.288
REMARK INTER:                 -13.198
REMARK INTRA:                  -1.090
REMARK UNBOUND:                -0.952
REMARK SMILES Cc1ccc(NC(=O)c2ccc(CN3CCN(C)CC3)cc2)cc1Nc1nccc(-c2cccnc2)n1
REMARK SMILES IDX 5 1 23 2 24 3 2 4 1 5 3 6 4 7 6 8 7 9 8 10 9 12 12 13 11 14
REMARK SMILES IDX 21 15 10 16 22 17 13 18 14 19 18 20 17 21 16 22 19 23 15 24
REMARK SMILES IDX 20 25 25 26 26 28 27 29 37 30 28 31 30 32 29 33 31 34 36 35
REMARK SMILES IDX 32 36 35 37 33 38 34 39
REMARK H PARENT 6 11 25 27
REMARK Flexibility Score: inf
ROOT
ATOM      1  C   UNL     1      32.379  10.759   8.664  1.00  0.00     0.043 A 
ATOM      2  C   UNL     1      31.418  10.989   9.662  1.00  0.00     0.052 A 
ATOM      3  C   UNL     1      31.182  12.286  10.154  1.00  0.00     0.046 A 
ATOM      4  C   UNL     1      31.964  13.360   9.668  1.00  0.00    -0.027 A 
ATOM      5  C   UNL     1      31.763  14.761  10.180  1.00  0.00     0.046 C 
ATOM      6  C   UNL     1      32.958  13.113   8.709  1.00  0.00     0.008 A 
ATOM      7  C   UNL     1      33.161  11.826   8.210  1.00  0.00     0.026 A 
ENDROOT
BRANCH   1   8
ATOM      8  N   UNL     1      32.606   9.440   8.140  1.00  0.00    -0.322 N 
ATOM      9  C   UNL     1      33.775   8.658   8.446  1.00  0.00     0.255 C 
ATOM     10  O   UNL     1      34.513   8.989   9.414  1.00  0.00    -0.269 OA
ATOM     11  H   UNL     1      31.818   8.970   7.639  1.00  0.00     0.170 HD
BRANCH   9  12
ATOM     12  C   UNL     1      34.097   7.436   7.674  1.00  0.00     0.040 A 
ATOM     13  C   UNL     1      34.696   5.099   6.214  1.00  0.00    -0.034 A 
ATOM     14  C   UNL     1      35.196   6.342   5.798  1.00  0.00     0.006 A 
ATOM     15  C   UNL     1      33.907   5.028   7.371  1.00  0.00     0.006 A 
ATOM     16  C   UNL     1      34.897   7.502   6.520  1.00  0.00     0.014 A 
ATOM     17  C   UNL     1      33.615   6.185   8.099  1.00  0.00     0.014 A 
BRANCH  13  18
ATOM     18  C   UNL     1      35.027   3.855   5.432  1.00  0.00     0.120 C 
BRANCH  18  19
ATOM     19  N   UNL     1      35.715   4.197   4.167  1.00  0.00    -0.297 NA
ATOM     20  C   UNL     1      35.354   0.738   3.030  1.00  0.00     0.105 C 
ATOM     21  N   UNL     1      36.318   1.785   2.653  1.00  0.00    -0.304 NA
ATOM     22  C   UNL     1      37.173   2.190   3.798  1.00  0.00     0.099 C 
ATOM     23  C   UNL     1      35.656   2.919   1.977  1.00  0.00     0.099 C 
ATOM     24  C   UNL     1      37.107   3.694   4.119  1.00  0.00     0.100 C 
ATOM     25  C   UNL     1      34.912   3.830   2.971  1.00  0.00     0.100 C 
ENDBRANCH  18  19
ENDBRANCH  13  18
ENDBRANCH   9  12
ENDBRANCH   1   8
BRANCH   3  26
ATOM     26  N   UNL     1      30.201  12.505  11.186  1.00  0.00    -0.324 N 
ATOM     27  H   UNL     1      30.526  12.602  12.174  1.00  0.00     0.170 HD
BRANCH  26  28
ATOM     28  C   UNL     1      28.794  12.652  10.939  1.00  0.00     0.227 A 
ATOM     29  N   UNL     1      28.251  13.896  10.875  1.00  0.00    -0.221 NA
ATOM     30  N   UNL     1      28.003  11.562  10.745  1.00  0.00    -0.213 NA
ATOM     31  C   UNL     1      26.927  14.069  10.634  1.00  0.00     0.117 A 
ATOM     32  C   UNL     1      26.666  11.679  10.517  1.00  0.00     0.077 A 
ATOM     33  C   UNL     1      26.100  12.962  10.451  1.00  0.00     0.049 A 
BRANCH  32  34
ATOM     34  C   UNL     1      25.849  10.451  10.353  1.00  0.00     0.019 A 
ATOM     35  C   UNL     1      26.419   9.239   9.922  1.00  0.00     0.121 A 
ATOM     36  C   UNL     1      24.463  10.490  10.580  1.00  0.00     0.013 A 
ATOM     37  N   UNL     1      25.637   8.141   9.737  1.00  0.00    -0.264 NA
ATOM     38  C   UNL     1      23.685   9.347  10.385  1.00  0.00     0.021 A 
ATOM     39  C   UNL     1      24.298   8.169   9.960  1.00  0.00     0.111 A 
ENDBRANCH  32  34
ENDBRANCH  26  28
ENDBRANCH   3  26
TORSDOF 7
ENDMDL
MODEL 14
REMARK VINA RESULT:    -9.413      6.129      8.664
REMARK INTER + INTRA:         -14.218
REMARK INTER:                 -13.319
REMARK INTRA:                  -0.899
REMARK UNBOUND:                -0.952
REMARK SMILES Cc1ccc(NC(=O)c2ccc(CN3CCN(C)CC3)cc2)cc1Nc1nccc(-c2cccnc2)n1
REMARK SMILES IDX 5 1 23 2 24 3 2 4 1 5 3 6 4 7 6 8 7 9 8 10 9 12 12 13 11 14
REMARK SMILES IDX 21 15 10 16 22 17 13 18 14 19 18 20 17 21 16 22 19 23 15 24
REMARK SMILES IDX 20 25 25 26 26 28 27 29 37 30 28 31 30 32 29 33 31 34 36 35
REMARK SMILES IDX 32 36 35 37 33 38 34 39
REMARK H PARENT 6 11 25 27
REMARK Flexibility Score: inf
ROOT
ATOM      1  C   UNL     1      27.319   8.879  10.142  1.00  0.00     0.043 A 
ATOM      2  C   UNL     1      26.536  10.028  10.337  1.00  0.00     0.052 A 
ATOM      3  C   UNL     1      25.133   9.945  10.408  1.00  0.00     0.046 A 
ATOM      4  C   UNL     1      24.507   8.689  10.229  1.00  0.00    -0.027 A 
ATOM      5  C   UNL     1      23.009   8.554  10.275  1.00  0.00     0.046 C 
ATOM      6  C   UNL     1      25.294   7.553   9.983  1.00  0.00     0.008 A 
ATOM      7  C   UNL     1      26.685   7.647   9.943  1.00  0.00     0.026 A 
ENDROOT
BRANCH   1   8
ATOM      8  N   UNL     1      28.753   8.955  10.094  1.00  0.00    -0.322 N 
ATOM      9  C   UNL     1      29.493   9.167   8.877  1.00  0.00     0.255 C 
ATOM     10  O   UNL     1      28.895   9.576   7.845  1.00  0.00    -0.269 OA
ATOM     11  H   UNL     1      29.270   9.012  11.000  1.00  0.00     0.170 HD
BRANCH   9  12
ATOM     12  C   UNL     1      30.958   8.962   8.833  1.00  0.00     0.040 A 
ATOM     13  C   UNL     1      33.753   8.592   8.749  1.00  0.00    -0.034 A 
ATOM     14  C   UNL     1      32.902   7.506   9.005  1.00  0.00     0.006 A 
ATOM     15  C   UNL     1      33.200   9.861   8.522  1.00  0.00     0.006 A 
ATOM     16  C   UNL     1      31.517   7.690   9.050  1.00  0.00     0.014 A 
ATOM     17  C   UNL     1      31.815  10.043   8.556  1.00  0.00     0.014 A 
BRANCH  13  18
ATOM     18  C   UNL     1      35.244   8.384   8.700  1.00  0.00     0.120 C 
BRANCH  18  19
ATOM     19  N   UNL     1      35.961   9.653   8.958  1.00  0.00    -0.297 NA
ATOM     20  C   UNL     1      39.128   7.831   9.147  1.00  0.00     0.105 C 
ATOM     21  N   UNL     1      38.721   9.126   9.718  1.00  0.00    -0.304 NA
ATOM     22  C   UNL     1      37.624   8.975  10.707  1.00  0.00     0.099 C 
ATOM     23  C   UNL     1      38.436  10.121   8.664  1.00  0.00     0.099 C 
ATOM     24  C   UNL     1      36.370   9.802  10.373  1.00  0.00     0.100 C 
ATOM     25  C   UNL     1      37.070   9.880   7.995  1.00  0.00     0.100 C 
ENDBRANCH  18  19
ENDBRANCH  13  18
ENDBRANCH   9  12
ENDBRANCH   1   8
BRANCH   3  26
ATOM     26  N   UNL     1      24.342  11.135  10.596  1.00  0.00    -0.324 N 
ATOM     27  H   UNL     1      23.302  11.048  10.612  1.00  0.00     0.170 HD
BRANCH  26  28
ATOM     28  C   UNL     1      24.897  12.440  10.819  1.00  0.00     0.227 A 
ATOM     29  N   UNL     1      24.092  13.445  11.256  1.00  0.00    -0.221 NA
ATOM     30  N   UNL     1      26.221  12.679  10.620  1.00  0.00    -0.213 NA
ATOM     31  C   UNL     1      24.587  14.687  11.485  1.00  0.00     0.117 A 
ATOM     32  C   UNL     1      26.766  13.910  10.818  1.00  0.00     0.077 A 
ATOM     33  C   UNL     1      25.939  14.951  11.268  1.00  0.00     0.049 A 
BRANCH  32  34
ATOM     34  C   UNL     1      28.210  14.116  10.545  1.00  0.00     0.019 A 
ATOM     35  C   UNL     1      28.758  15.405  10.406  1.00  0.00     0.121 A 
ATOM     36  C   UNL     1      29.060  13.012  10.370  1.00  0.00     0.013 A 
ATOM     37  N   UNL     1      30.077  15.562  10.112  1.00  0.00    -0.264 NA
ATOM     38  C   UNL     1      30.410  13.202  10.072  1.00  0.00     0.021 A 
ATOM     39  C   UNL     1      30.905  14.499   9.947  1.00  0.00     0.111 A 
ENDBRANCH  32  34
ENDBRANCH  26  28
ENDBRANCH   3  26
TORSDOF 7
ENDMDL
