MODEL 1
REMARK VINA RESULT:   -10.932      0.000      0.000
REMARK INTER + INTRA:         -15.410
REMARK INTER:                 -14.766
REMARK INTRA:                  -0.644
REMARK UNBOUND:                -0.644
REMARK SMILES CNC(=O)c1cc(Oc2ccc(NC(=O)Nc3ccc(Cl)c(C(F)(F)F)c3)cc2)ccn1
REMARK SMILES IDX 9 1 10 2 11 3 12 4 28 5 29 6 8 7 7 8 5 9 32 10 6 11 31 12
REMARK SMILES IDX 30 13 3 14 1 15 2 16 4 18 13 19 14 20 15 22 16 23 17 25
REMARK SMILES IDX 27 26 18 27 22 28 19 29 20 30 21 31 23 32 24 33 25 34 26 35
REMARK H PARENT 2 17 13 21 16 24
REMARK Flexibility Score: inf
ROOT
ATOM      1  C   UNL     1      34.528   6.115   7.306  1.00  0.00     0.127 A 
ATOM      2  C   UNL     1      33.662   5.061   7.616  1.00  0.00     0.049 A 
ATOM      3  C   UNL     1      32.553   5.275   8.440  1.00  0.00     0.030 A 
ATOM      4  C   UNL     1      32.276   6.554   8.942  1.00  0.00     0.043 A 
ATOM      5  C   UNL     1      33.146   7.614   8.632  1.00  0.00     0.030 A 
ATOM      6  C   UNL     1      34.256   7.399   7.810  1.00  0.00     0.049 A 
ENDROOT
BRANCH   1   7
ATOM      7  O   UNL     1      35.620   5.863   6.463  1.00  0.00    -0.457 OA
BRANCH   7   8
ATOM      8  C   UNL     1      35.611   5.975   5.065  1.00  0.00     0.131 A 
ATOM      9  C   UNL     1      35.094   4.996   2.905  1.00  0.00     0.131 A 
ATOM     10  N   UNL     1      35.602   6.105   2.300  1.00  0.00    -0.251 NA
ATOM     11  C   UNL     1      35.101   4.916   4.309  1.00  0.00     0.081 A 
ATOM     12  C   UNL     1      36.121   7.142   3.010  1.00  0.00     0.116 A 
ATOM     13  C   UNL     1      36.141   7.094   4.404  1.00  0.00     0.067 A 
BRANCH   9  14
ATOM     14  C   UNL     1      34.548   3.896   2.081  1.00  0.00     0.269 C 
ATOM     15  C   UNL     1      34.647   1.501   1.284  1.00  0.00     0.143 C 
ATOM     16  N   UNL     1      35.161   2.598   2.093  1.00  0.00    -0.354 N 
ATOM     17  H   UNL     1      35.999   2.421   2.691  1.00  0.00     0.163 HD
ATOM     18  O   UNL     1      33.532   4.098   1.358  1.00  0.00    -0.268 OA
ENDBRANCH   9  14
ENDBRANCH   7   8
ENDBRANCH   1   7
BRANCH   4  19
ATOM     19  N   UNL     1      31.142   6.742   9.807  1.00  0.00    -0.308 N 
ATOM     20  C   UNL     1      30.111   7.717   9.587  1.00  0.00     0.323 C 
ATOM     21  H   UNL     1      31.007   6.067  10.594  1.00  0.00     0.171 HD
ATOM     22  O   UNL     1      30.047   8.340   8.492  1.00  0.00    -0.248 OA
ATOM     23  N   UNL     1      29.154   7.975  10.626  1.00  0.00    -0.308 N 
ATOM     24  H   UNL     1      29.390   7.652  11.591  1.00  0.00     0.171 HD
BRANCH  23  25
ATOM     25  C   UNL     1      27.965   8.764  10.448  1.00  0.00     0.043 A 
ATOM     26  C   UNL     1      26.691   8.171  10.400  1.00  0.00     0.040 A 
ATOM     27  C   UNL     1      28.072  10.159  10.384  1.00  0.00     0.028 A 
ATOM     28  C   UNL     1      25.531   8.957  10.247  1.00  0.00     0.076 A 
ATOM     29  C   UNL     1      26.933  10.949  10.232  1.00  0.00     0.023 A 
ATOM     30  C   UNL     1      25.666  10.361  10.157  1.00  0.00     0.053 A 
ATOM     31  Cl  UNL     1      24.273  11.422   9.966  1.00  0.00    -0.084 Cl
BRANCH  28  32
ATOM     32  C   UNL     1      24.164   8.308  10.189  1.00  0.00     0.417 C 
ATOM     33  F   UNL     1      23.307   8.952  11.061  1.00  0.00    -0.166 F 
ATOM     34  F   UNL     1      24.268   6.977  10.551  1.00  0.00    -0.166 F 
ATOM     35  F   UNL     1      23.617   8.369   8.918  1.00  0.00    -0.166 F 
ENDBRANCH  28  32
ENDBRANCH  23  25
ENDBRANCH   4  19
TORSDOF 6
ENDMDL
MODEL 2
REMARK VINA RESULT:   -10.640      1.467      1.910
REMARK INTER + INTRA:         -15.016
REMARK INTER:                 -14.395
REMARK INTRA:                  -0.621
REMARK UNBOUND:                -0.644
REMARK SMILES CNC(=O)c1cc(Oc2ccc(NC(=O)Nc3ccc(Cl)c(C(F)(F)F)c3)cc2)ccn1
REMARK SMILES IDX 9 1 10 2 11 3 12 4 28 5 29 6 8 7 7 8 5 9 32 10 6 11 31 12
REMARK SMILES IDX 30 13 3 14 1 15 2 16 4 18 13 19 14 20 15 22 16 23 17 25
REMARK SMILES IDX 27 26 18 27 22 28 19 29 20 30 21 31 23 32 24 33 25 34 26 35
REMARK H PARENT 2 17 13 21 16 24
REMARK Flexibility Score: inf
ROOT
ATOM      1  C   UNL     1      34.384   6.072   7.294  1.00  0.00     0.127 A 
ATOM      2  C   UNL     1      33.503   5.045   7.649  1.00  0.00     0.049 A 
ATOM      3  C   UNL     1      32.423   5.301   8.499  1.00  0.00     0.030 A 
ATOM      4  C   UNL     1      32.189   6.596   8.983  1.00  0.00     0.043 A 
ATOM      5  C   UNL     1      33.075   7.628   8.627  1.00  0.00     0.030 A 
ATOM      6  C   UNL     1      34.156   7.372   7.779  1.00  0.00     0.049 A 
ENDROOT
BRANCH   1   7
ATOM      7  O   UNL     1      35.446   5.778   6.425  1.00  0.00    -0.457 OA
BRANCH   7   8
ATOM      8  C   UNL     1      35.803   4.497   5.981  1.00  0.00     0.131 A 
ATOM      9  C   UNL     1      35.708   2.794   4.255  1.00  0.00     0.131 A 
ATOM     10  N   UNL     1      36.433   1.966   5.057  1.00  0.00    -0.251 NA
ATOM     11  C   UNL     1      35.376   4.079   4.718  1.00  0.00     0.081 A 
ATOM     12  C   UNL     1      36.847   2.340   6.296  1.00  0.00     0.116 A 
ATOM     13  C   UNL     1      36.535   3.609   6.784  1.00  0.00     0.067 A 
BRANCH   9  14
ATOM     14  C   UNL     1      35.281   2.330   2.917  1.00  0.00     0.269 C 
ATOM     15  C   UNL     1      34.333   0.524   1.427  1.00  0.00     0.143 C 
ATOM     16  N   UNL     1      34.753   1.007   2.736  1.00  0.00    -0.354 N 
ATOM     17  H   UNL     1      34.664   0.362   3.553  1.00  0.00     0.163 HD
ATOM     18  O   UNL     1      35.381   3.103   1.924  1.00  0.00    -0.268 OA
ENDBRANCH   9  14
ENDBRANCH   7   8
ENDBRANCH   1   7
BRANCH   4  19
ATOM     19  N   UNL     1      31.085   6.827   9.874  1.00  0.00    -0.308 N 
ATOM     20  C   UNL     1      30.019   7.754   9.617  1.00  0.00     0.323 C 
ATOM     21  H   UNL     1      31.000   6.218  10.720  1.00  0.00     0.171 HD
ATOM     22  O   UNL     1      29.895   8.281   8.478  1.00  0.00    -0.248 OA
ATOM     23  N   UNL     1      29.096   8.075  10.669  1.00  0.00    -0.308 N 
ATOM     24  H   UNL     1      29.379   7.839  11.647  1.00  0.00     0.171 HD
BRANCH  23  25
ATOM     25  C   UNL     1      27.879   8.816  10.476  1.00  0.00     0.043 A 
ATOM     26  C   UNL     1      26.627   8.176  10.451  1.00  0.00     0.040 A 
ATOM     27  C   UNL     1      27.937  10.211  10.373  1.00  0.00     0.028 A 
ATOM     28  C   UNL     1      25.439   8.917  10.281  1.00  0.00     0.076 A 
ATOM     29  C   UNL     1      26.770  10.956  10.205  1.00  0.00     0.023 A 
ATOM     30  C   UNL     1      25.525  10.322  10.153  1.00  0.00     0.053 A 
ATOM     31  Cl  UNL     1      24.093  11.327   9.939  1.00  0.00    -0.084 Cl
BRANCH  28  32
ATOM     32  C   UNL     1      24.096   8.219  10.248  1.00  0.00     0.417 C 
ATOM     33  F   UNL     1      24.246   6.904  10.650  1.00  0.00    -0.166 F 
ATOM     34  F   UNL     1      23.591   8.246   8.960  1.00  0.00    -0.166 F 
ATOM     35  F   UNL     1      23.177   8.826  11.087  1.00  0.00    -0.166 F 
ENDBRANCH  28  32
ENDBRANCH  23  25
ENDBRANCH   4  19
TORSDOF 6
ENDMDL
MODEL 3
REMARK VINA RESULT:   -10.285      1.769      2.251
REMARK INTER + INTRA:         -14.536
REMARK INTER:                 -13.769
REMARK INTRA:                  -0.767
REMARK UNBOUND:                -0.644
REMARK SMILES CNC(=O)c1cc(Oc2ccc(NC(=O)Nc3ccc(Cl)c(C(F)(F)F)c3)cc2)ccn1
REMARK SMILES IDX 9 1 10 2 11 3 12 4 28 5 29 6 8 7 7 8 5 9 32 10 6 11 31 12
REMARK SMILES IDX 30 13 3 14 1 15 2 16 4 18 13 19 14 20 15 22 16 23 17 25
REMARK SMILES IDX 27 26 18 27 22 28 19 29 20 30 21 31 23 32 24 33 25 34 26 35
REMARK H PARENT 2 17 13 21 16 24
REMARK Flexibility Score: inf
ROOT
ATOM      1  C   UNL     1      34.783   6.159   7.152  1.00  0.00     0.127 A 
ATOM      2  C   UNL     1      33.925   5.088   7.426  1.00  0.00     0.049 A 
ATOM      3  C   UNL     1      32.820   5.263   8.264  1.00  0.00     0.030 A 
ATOM      4  C   UNL     1      32.538   6.520   8.817  1.00  0.00     0.043 A 
ATOM      5  C   UNL     1      33.401   7.596   8.544  1.00  0.00     0.030 A 
ATOM      6  C   UNL     1      34.507   7.421   7.708  1.00  0.00     0.049 A 
ENDROOT
BRANCH   1   7
ATOM      7  O   UNL     1      35.872   5.947   6.294  1.00  0.00    -0.457 OA
BRANCH   7   8
ATOM      8  C   UNL     1      35.813   5.937   4.893  1.00  0.00     0.131 A 
ATOM      9  C   UNL     1      35.344   4.728   2.841  1.00  0.00     0.131 A 
ATOM     10  N   UNL     1      35.715   5.828   2.129  1.00  0.00    -0.251 NA
ATOM     11  C   UNL     1      35.397   4.770   4.245  1.00  0.00     0.081 A 
ATOM     12  C   UNL     1      36.139   6.970   2.732  1.00  0.00     0.116 A 
ATOM     13  C   UNL     1      36.203   7.044   4.123  1.00  0.00     0.067 A 
BRANCH   9  14
ATOM     14  C   UNL     1      34.895   3.511   2.130  1.00  0.00     0.269 C 
ATOM     15  C   UNL     1      34.828   0.994   1.928  1.00  0.00     0.143 C 
ATOM     16  N   UNL     1      35.251   2.208   2.614  1.00  0.00    -0.354 N 
ATOM     17  H   UNL     1      35.831   2.110   3.479  1.00  0.00     0.163 HD
ATOM     18  O   UNL     1      34.191   3.617   1.088  1.00  0.00    -0.268 OA
ENDBRANCH   9  14
ENDBRANCH   7   8
ENDBRANCH   1   7
BRANCH   4  19
ATOM     19  N   UNL     1      31.408   6.666   9.695  1.00  0.00    -0.308 N 
ATOM     20  C   UNL     1      30.380   7.656   9.530  1.00  0.00     0.323 C 
ATOM     21  H   UNL     1      31.274   5.953  10.447  1.00  0.00     0.171 HD
ATOM     22  O   UNL     1      30.314   8.335   8.469  1.00  0.00    -0.248 OA
ATOM     23  N   UNL     1      29.428   7.864  10.584  1.00  0.00    -0.308 N 
ATOM     24  H   UNL     1      29.666   7.490  11.530  1.00  0.00     0.171 HD
BRANCH  23  25
ATOM     25  C   UNL     1      28.242   8.665  10.453  1.00  0.00     0.043 A 
ATOM     26  C   UNL     1      28.258  10.047  10.712  1.00  0.00     0.040 A 
ATOM     27  C   UNL     1      27.059   8.069   9.998  1.00  0.00     0.028 A 
ATOM     28  C   UNL     1      27.092  10.826  10.560  1.00  0.00     0.076 A 
ATOM     29  C   UNL     1      25.899   8.827   9.843  1.00  0.00     0.023 A 
ATOM     30  C   UNL     1      25.904  10.196  10.125  1.00  0.00     0.053 A 
ATOM     31  Cl  UNL     1      24.401  11.091   9.905  1.00  0.00    -0.084 Cl
BRANCH  28  32
ATOM     32  C   UNL     1      27.118  12.312  10.848  1.00  0.00     0.417 C 
ATOM     33  F   UNL     1      28.348  12.663  11.372  1.00  0.00    -0.166 F 
ATOM     34  F   UNL     1      26.128  12.623  11.764  1.00  0.00    -0.166 F 
ATOM     35  F   UNL     1      26.902  13.064   9.705  1.00  0.00    -0.166 F 
ENDBRANCH  28  32
ENDBRANCH  23  25
ENDBRANCH   4  19
TORSDOF 6
ENDMDL
MODEL 4
REMARK VINA RESULT:   -10.259      1.317      2.650
REMARK INTER + INTRA:         -14.501
REMARK INTER:                 -14.042
REMARK INTRA:                  -0.459
REMARK UNBOUND:                -0.644
REMARK SMILES CNC(=O)c1cc(Oc2ccc(NC(=O)Nc3ccc(Cl)c(C(F)(F)F)c3)cc2)ccn1
REMARK SMILES IDX 9 1 10 2 11 3 12 4 28 5 29 6 8 7 7 8 5 9 32 10 6 11 31 12
REMARK SMILES IDX 30 13 3 14 1 15 2 16 4 18 13 19 14 20 15 22 16 23 17 25
REMARK SMILES IDX 27 26 18 27 22 28 19 29 20 30 21 31 23 32 24 33 25 34 26 35
REMARK H PARENT 2 17 13 21 16 24
REMARK Flexibility Score: inf
ROOT
ATOM      1  C   UNL     1      34.651   6.489   7.363  1.00  0.00     0.127 A 
ATOM      2  C   UNL     1      33.800   5.394   7.542  1.00  0.00     0.049 A 
ATOM      3  C   UNL     1      32.653   5.509   8.334  1.00  0.00     0.030 A 
ATOM      4  C   UNL     1      32.324   6.732   8.936  1.00  0.00     0.043 A 
ATOM      5  C   UNL     1      33.180   7.833   8.757  1.00  0.00     0.030 A 
ATOM      6  C   UNL     1      34.327   7.717   7.967  1.00  0.00     0.049 A 
ENDROOT
BRANCH   1   7
ATOM      7  O   UNL     1      35.782   6.338   6.547  1.00  0.00    -0.457 OA
BRANCH   7   8
ATOM      8  C   UNL     1      35.763   6.147   5.158  1.00  0.00     0.131 A 
ATOM      9  C   UNL     1      36.071   7.060   2.931  1.00  0.00     0.131 A 
ATOM     10  N   UNL     1      35.705   5.857   2.407  1.00  0.00    -0.251 NA
ATOM     11  C   UNL     1      36.097   7.220   4.327  1.00  0.00     0.081 A 
ATOM     12  C   UNL     1      35.360   4.802   3.191  1.00  0.00     0.116 A 
ATOM     13  C   UNL     1      35.376   4.929   4.580  1.00  0.00     0.067 A 
BRANCH   9  14
ATOM     14  C   UNL     1      36.432   8.174   2.027  1.00  0.00     0.269 C 
ATOM     15  C   UNL     1      37.028  10.604   1.680  1.00  0.00     0.143 C 
ATOM     16  N   UNL     1      36.678   9.488   2.549  1.00  0.00    -0.354 N 
ATOM     17  H   UNL     1      36.607   9.665   3.577  1.00  0.00     0.163 HD
ATOM     18  O   UNL     1      36.527   7.969   0.785  1.00  0.00    -0.268 OA
ENDBRANCH   9  14
ENDBRANCH   7   8
ENDBRANCH   1   7
BRANCH   4  19
ATOM     19  N   UNL     1      31.152   6.816   9.765  1.00  0.00    -0.308 N 
ATOM     20  C   UNL     1      30.092   7.765   9.571  1.00  0.00     0.323 C 
ATOM     21  H   UNL     1      31.015   6.084  10.499  1.00  0.00     0.171 HD
ATOM     22  O   UNL     1      30.044   8.460   8.519  1.00  0.00    -0.248 OA
ATOM     23  N   UNL     1      29.088   7.915  10.585  1.00  0.00    -0.308 N 
ATOM     24  H   UNL     1      29.300   7.535  11.535  1.00  0.00     0.171 HD
BRANCH  23  25
ATOM     25  C   UNL     1      27.876   8.670  10.415  1.00  0.00     0.043 A 
ATOM     26  C   UNL     1      26.617   8.043  10.406  1.00  0.00     0.040 A 
ATOM     27  C   UNL     1      27.945  10.065  10.316  1.00  0.00     0.028 A 
ATOM     28  C   UNL     1      25.434   8.797  10.259  1.00  0.00     0.076 A 
ATOM     29  C   UNL     1      26.784  10.822  10.170  1.00  0.00     0.023 A 
ATOM     30  C   UNL     1      25.532  10.201  10.134  1.00  0.00     0.053 A 
ATOM     31  Cl  UNL     1      24.107  11.222   9.948  1.00  0.00    -0.084 Cl
BRANCH  28  32
ATOM     32  C   UNL     1      24.083   8.112  10.244  1.00  0.00     0.417 C 
ATOM     33  F   UNL     1      23.570   8.125   8.960  1.00  0.00    -0.166 F 
ATOM     34  F   UNL     1      23.216   8.782  11.088  1.00  0.00    -0.166 F 
ATOM     35  F   UNL     1      24.167   6.795  10.663  1.00  0.00    -0.166 F 
ENDBRANCH  28  32
ENDBRANCH  23  25
ENDBRANCH   4  19
TORSDOF 6
ENDMDL
MODEL 5
REMARK VINA RESULT:   -10.203      1.441      2.746
REMARK INTER + INTRA:         -14.425
REMARK INTER:                 -13.945
REMARK INTRA:                  -0.481
REMARK UNBOUND:                -0.644
REMARK SMILES CNC(=O)c1cc(Oc2ccc(NC(=O)Nc3ccc(Cl)c(C(F)(F)F)c3)cc2)ccn1
REMARK SMILES IDX 9 1 10 2 11 3 12 4 28 5 29 6 8 7 7 8 5 9 32 10 6 11 31 12
REMARK SMILES IDX 30 13 3 14 1 15 2 16 4 18 13 19 14 20 15 22 16 23 17 25
REMARK SMILES IDX 27 26 18 27 22 28 19 29 20 30 21 31 23 32 24 33 25 34 26 35
REMARK H PARENT 2 17 13 21 16 24
REMARK Flexibility Score: inf
ROOT
ATOM      1  C   UNL     1      34.556   6.708   7.448  1.00  0.00     0.127 A 
ATOM      2  C   UNL     1      34.214   7.870   8.149  1.00  0.00     0.049 A 
ATOM      3  C   UNL     1      33.056   7.911   8.931  1.00  0.00     0.030 A 
ATOM      4  C   UNL     1      32.237   6.779   9.049  1.00  0.00     0.043 A 
ATOM      5  C   UNL     1      32.579   5.612   8.344  1.00  0.00     0.030 A 
ATOM      6  C   UNL     1      33.735   5.572   7.560  1.00  0.00     0.049 A 
ENDROOT
BRANCH   1   7
ATOM      7  O   UNL     1      35.734   6.702   6.688  1.00  0.00    -0.457 OA
BRANCH   7   8
ATOM      8  C   UNL     1      35.811   6.461   5.308  1.00  0.00     0.131 A 
ATOM      9  C   UNL     1      35.952   7.339   3.050  1.00  0.00     0.131 A 
ATOM     10  N   UNL     1      35.920   6.065   2.572  1.00  0.00    -0.251 NA
ATOM     11  C   UNL     1      35.890   7.553   4.438  1.00  0.00     0.081 A 
ATOM     12  C   UNL     1      35.827   4.986   3.393  1.00  0.00     0.116 A 
ATOM     13  C   UNL     1      35.764   5.164   4.775  1.00  0.00     0.067 A 
BRANCH   9  14
ATOM     14  C   UNL     1      36.050   8.475   2.107  1.00  0.00     0.269 C 
ATOM     15  C   UNL     1      35.802  10.941   1.618  1.00  0.00     0.143 C 
ATOM     16  N   UNL     1      35.721   9.807   2.530  1.00  0.00    -0.354 N 
ATOM     17  H   UNL     1      35.413   9.983   3.513  1.00  0.00     0.163 HD
ATOM     18  O   UNL     1      36.426   8.273   0.919  1.00  0.00    -0.268 OA
ENDBRANCH   9  14
ENDBRANCH   7   8
ENDBRANCH   1   7
BRANCH   4  19
ATOM     19  N   UNL     1      31.039   6.856   9.841  1.00  0.00    -0.308 N 
ATOM     20  C   UNL     1      30.001   7.829   9.644  1.00  0.00     0.323 C 
ATOM     21  H   UNL     1      30.866   6.102  10.545  1.00  0.00     0.171 HD
ATOM     22  O   UNL     1      29.999   8.558   8.616  1.00  0.00    -0.248 OA
ATOM     23  N   UNL     1      28.966   7.962  10.629  1.00  0.00    -0.308 N 
ATOM     24  H   UNL     1      29.140   7.546  11.572  1.00  0.00     0.171 HD
BRANCH  23  25
ATOM     25  C   UNL     1      27.772   8.742  10.444  1.00  0.00     0.043 A 
ATOM     26  C   UNL     1      26.499   8.144  10.432  1.00  0.00     0.040 A 
ATOM     27  C   UNL     1      27.874  10.134  10.336  1.00  0.00     0.028 A 
ATOM     28  C   UNL     1      25.335   8.922  10.270  1.00  0.00     0.076 A 
ATOM     29  C   UNL     1      26.730  10.916  10.175  1.00  0.00     0.023 A 
ATOM     30  C   UNL     1      25.465  10.323  10.136  1.00  0.00     0.053 A 
ATOM     31  Cl  UNL     1      24.065  11.374   9.931  1.00  0.00    -0.084 Cl
BRANCH  28  32
ATOM     32  C   UNL     1      23.969   8.268  10.251  1.00  0.00     0.417 C 
ATOM     33  F   UNL     1      23.134   8.909  11.147  1.00  0.00    -0.166 F 
ATOM     34  F   UNL     1      24.088   6.937  10.610  1.00  0.00    -0.166 F 
ATOM     35  F   UNL     1      23.386   8.328   8.996  1.00  0.00    -0.166 F 
ENDBRANCH  28  32
ENDBRANCH  23  25
ENDBRANCH   4  19
TORSDOF 6
ENDMDL
MODEL 6
REMARK VINA RESULT:    -9.925      1.799      2.643
REMARK INTER + INTRA:         -14.050
REMARK INTER:                 -14.393
REMARK INTRA:                   0.343
REMARK UNBOUND:                -0.644
REMARK SMILES CNC(=O)c1cc(Oc2ccc(NC(=O)Nc3ccc(Cl)c(C(F)(F)F)c3)cc2)ccn1
REMARK SMILES IDX 9 1 10 2 11 3 12 4 28 5 29 6 8 7 7 8 5 9 32 10 6 11 31 12
REMARK SMILES IDX 30 13 3 14 1 15 2 16 4 18 13 19 14 20 15 22 16 23 17 25
REMARK SMILES IDX 27 26 18 27 22 28 19 29 20 30 21 31 23 32 24 33 25 34 26 35
REMARK H PARENT 2 17 13 21 16 24
REMARK Flexibility Score: inf
ROOT
ATOM      1  C   UNL     1      34.486   6.964   7.965  1.00  0.00     0.127 A 
ATOM      2  C   UNL     1      34.609   8.306   8.343  1.00  0.00     0.049 A 
ATOM      3  C   UNL     1      33.558   8.956   8.997  1.00  0.00     0.030 A 
ATOM      4  C   UNL     1      32.379   8.266   9.312  1.00  0.00     0.043 A 
ATOM      5  C   UNL     1      32.255   6.918   8.931  1.00  0.00     0.030 A 
ATOM      6  C   UNL     1      33.304   6.268   8.275  1.00  0.00     0.049 A 
ENDROOT
BRANCH   1   7
ATOM      7  O   UNL     1      35.568   6.342   7.326  1.00  0.00    -0.457 OA
BRANCH   7   8
ATOM      8  C   UNL     1      35.524   5.104   6.671  1.00  0.00     0.131 A 
ATOM      9  C   UNL     1      35.182   3.846   4.623  1.00  0.00     0.131 A 
ATOM     10  N   UNL     1      35.375   2.692   5.320  1.00  0.00    -0.251 NA
ATOM     11  C   UNL     1      35.248   5.076   5.301  1.00  0.00     0.081 A 
ATOM     12  C   UNL     1      35.627   2.688   6.656  1.00  0.00     0.116 A 
ATOM     13  C   UNL     1      35.700   3.892   7.357  1.00  0.00     0.067 A 
BRANCH   9  14
ATOM     14  C   UNL     1      34.906   3.788   3.171  1.00  0.00     0.269 C 
ATOM     15  C   UNL     1      34.678   2.453   1.039  1.00  0.00     0.143 C 
ATOM     16  N   UNL     1      34.939   2.536   2.470  1.00  0.00    -0.354 N 
ATOM     17  H   UNL     1      35.155   1.653   2.985  1.00  0.00     0.163 HD
ATOM     18  O   UNL     1      34.639   4.848   2.540  1.00  0.00    -0.268 OA
ENDBRANCH   9  14
ENDBRANCH   7   8
ENDBRANCH   1   7
BRANCH   4  19
ATOM     19  N   UNL     1      31.305   8.966   9.964  1.00  0.00    -0.308 N 
ATOM     20  C   UNL     1      29.912   8.721   9.714  1.00  0.00     0.323 C 
ATOM     21  H   UNL     1      31.547   9.630  10.734  1.00  0.00     0.171 HD
ATOM     22  O   UNL     1      29.553   7.718   9.038  1.00  0.00    -0.248 OA
ATOM     23  N   UNL     1      28.933   9.627  10.243  1.00  0.00    -0.308 N 
ATOM     24  H   UNL     1      29.264  10.566  10.558  1.00  0.00     0.171 HD
BRANCH  23  25
ATOM     25  C   UNL     1      27.517   9.375  10.241  1.00  0.00     0.043 A 
ATOM     26  C   UNL     1      26.588  10.406  10.470  1.00  0.00     0.040 A 
ATOM     27  C   UNL     1      27.051   8.089   9.944  1.00  0.00     0.028 A 
ATOM     28  C   UNL     1      25.202  10.151  10.445  1.00  0.00     0.076 A 
ATOM     29  C   UNL     1      25.682   7.822   9.916  1.00  0.00     0.023 A 
ATOM     30  C   UNL     1      24.756   8.838  10.169  1.00  0.00     0.053 A 
ATOM     31  Cl  UNL     1      23.043   8.428  10.116  1.00  0.00    -0.084 Cl
BRANCH  28  32
ATOM     32  C   UNL     1      24.210  11.266  10.699  1.00  0.00     0.417 C 
ATOM     33  F   UNL     1      24.883  12.469  10.817  1.00  0.00    -0.166 F 
ATOM     34  F   UNL     1      23.520  11.014  11.871  1.00  0.00    -0.166 F 
ATOM     35  F   UNL     1      23.290  11.384   9.671  1.00  0.00    -0.166 F 
ENDBRANCH  28  32
ENDBRANCH  23  25
ENDBRANCH   4  19
TORSDOF 6
ENDMDL
MODEL 7
REMARK VINA RESULT:    -9.800      3.875      5.830
REMARK INTER + INTRA:         -13.881
REMARK INTER:                 -14.071
REMARK INTRA:                   0.191
REMARK UNBOUND:                -0.644
REMARK SMILES CNC(=O)c1cc(Oc2ccc(NC(=O)Nc3ccc(Cl)c(C(F)(F)F)c3)cc2)ccn1
REMARK SMILES IDX 9 1 10 2 11 3 12 4 28 5 29 6 8 7 7 8 5 9 32 10 6 11 31 12
REMARK SMILES IDX 30 13 3 14 1 15 2 16 4 18 13 19 14 20 15 22 16 23 17 25
REMARK SMILES IDX 27 26 18 27 22 28 19 29 20 30 21 31 23 32 24 33 25 34 26 35
REMARK H PARENT 2 17 13 21 16 24
REMARK Flexibility Score: inf
ROOT
ATOM      1  C   UNL     1      34.719   7.889   8.314  1.00  0.00     0.127 A 
ATOM      2  C   UNL     1      34.000   8.794   9.101  1.00  0.00     0.049 A 
ATOM      3  C   UNL     1      32.702   8.491   9.523  1.00  0.00     0.030 A 
ATOM      4  C   UNL     1      32.113   7.263   9.188  1.00  0.00     0.043 A 
ATOM      5  C   UNL     1      32.835   6.353   8.396  1.00  0.00     0.030 A 
ATOM      6  C   UNL     1      34.132   6.657   7.973  1.00  0.00     0.049 A 
ENDROOT
BRANCH   1   7
ATOM      7  O   UNL     1      36.025   8.222   7.925  1.00  0.00    -0.457 OA
BRANCH   7   8
ATOM      8  C   UNL     1      36.937   8.964   8.690  1.00  0.00     0.131 A 
ATOM      9  C   UNL     1      38.050  11.076   9.124  1.00  0.00     0.131 A 
ATOM     10  N   UNL     1      38.753  10.479  10.126  1.00  0.00    -0.251 NA
ATOM     11  C   UNL     1      37.131  10.314   8.383  1.00  0.00     0.081 A 
ATOM     12  C   UNL     1      38.597   9.165  10.435  1.00  0.00     0.116 A 
ATOM     13  C   UNL     1      37.692   8.382   9.719  1.00  0.00     0.067 A 
BRANCH   9  14
ATOM     14  C   UNL     1      38.266  12.510   8.830  1.00  0.00     0.269 C 
ATOM     15  C   UNL     1      38.462  14.396   7.161  1.00  0.00     0.143 C 
ATOM     16  N   UNL     1      38.245  12.990   7.477  1.00  0.00    -0.354 N 
ATOM     17  H   UNL     1      38.072  12.327   6.688  1.00  0.00     0.163 HD
ATOM     18  O   UNL     1      38.470  13.320   9.776  1.00  0.00    -0.268 OA
ENDBRANCH   9  14
ENDBRANCH   7   8
ENDBRANCH   1   7
BRANCH   4  19
ATOM     19  N   UNL     1      30.768   6.987   9.615  1.00  0.00    -0.308 N 
ATOM     20  C   UNL     1      29.724   7.970   9.681  1.00  0.00     0.323 C 
ATOM     21  H   UNL     1      30.506   5.992   9.802  1.00  0.00     0.171 HD
ATOM     22  O   UNL     1      29.889   9.110   9.169  1.00  0.00    -0.248 OA
ATOM     23  N   UNL     1      28.489   7.641  10.336  1.00  0.00    -0.308 N 
ATOM     24  H   UNL     1      28.484   6.810  10.968  1.00  0.00     0.171 HD
BRANCH  23  25
ATOM     25  C   UNL     1      27.306   8.457  10.282  1.00  0.00     0.043 A 
ATOM     26  C   UNL     1      26.021   7.891  10.352  1.00  0.00     0.040 A 
ATOM     27  C   UNL     1      27.436   9.849  10.220  1.00  0.00     0.028 A 
ATOM     28  C   UNL     1      24.868   8.703  10.319  1.00  0.00     0.076 A 
ATOM     29  C   UNL     1      26.306  10.665  10.186  1.00  0.00     0.023 A 
ATOM     30  C   UNL     1      25.025  10.105  10.229  1.00  0.00     0.053 A 
ATOM     31  Cl  UNL     1      23.643  11.197  10.184  1.00  0.00    -0.084 Cl
BRANCH  28  32
ATOM     32  C   UNL     1      23.489   8.083  10.388  1.00  0.00     0.417 C 
ATOM     33  F   UNL     1      22.887   8.148   9.144  1.00  0.00    -0.166 F 
ATOM     34  F   UNL     1      22.716   8.774  11.304  1.00  0.00    -0.166 F 
ATOM     35  F   UNL     1      23.538   6.755  10.777  1.00  0.00    -0.166 F 
ENDBRANCH  28  32
ENDBRANCH  23  25
ENDBRANCH   4  19
TORSDOF 6
ENDMDL
MODEL 8
REMARK VINA RESULT:    -9.790      2.768      3.133
REMARK INTER + INTRA:         -13.868
REMARK INTER:                 -13.436
REMARK INTRA:                  -0.431
REMARK UNBOUND:                -0.644
REMARK SMILES CNC(=O)c1cc(Oc2ccc(NC(=O)Nc3ccc(Cl)c(C(F)(F)F)c3)cc2)ccn1
REMARK SMILES IDX 9 1 10 2 11 3 12 4 28 5 29 6 8 7 7 8 5 9 32 10 6 11 31 12
REMARK SMILES IDX 30 13 3 14 1 15 2 16 4 18 13 19 14 20 15 22 16 23 17 25
REMARK SMILES IDX 27 26 18 27 22 28 19 29 20 30 21 31 23 32 24 33 25 34 26 35
REMARK H PARENT 2 17 13 21 16 24
REMARK Flexibility Score: inf
ROOT
ATOM      1  C   UNL     1      34.650   7.055   7.698  1.00  0.00     0.127 A 
ATOM      2  C   UNL     1      33.805   5.943   7.613  1.00  0.00     0.049 A 
ATOM      3  C   UNL     1      32.594   5.919   8.311  1.00  0.00     0.030 A 
ATOM      4  C   UNL     1      32.193   7.021   9.080  1.00  0.00     0.043 A 
ATOM      5  C   UNL     1      33.042   8.138   9.166  1.00  0.00     0.030 A 
ATOM      6  C   UNL     1      34.254   8.161   8.471  1.00  0.00     0.049 A 
ENDROOT
BRANCH   1   7
ATOM      7  O   UNL     1      35.849   7.048   6.970  1.00  0.00    -0.457 OA
BRANCH   7   8
ATOM      8  C   UNL     1      36.348   8.118   6.214  1.00  0.00     0.131 A 
ATOM      9  C   UNL     1      36.492   9.269   4.082  1.00  0.00     0.131 A 
ATOM     10  N   UNL     1      37.332  10.179   4.650  1.00  0.00    -0.251 NA
ATOM     11  C   UNL     1      35.993   8.214   4.866  1.00  0.00     0.081 A 
ATOM     12  C   UNL     1      37.707  10.100   5.954  1.00  0.00     0.116 A 
ATOM     13  C   UNL     1      37.229   9.066   6.758  1.00  0.00     0.067 A 
BRANCH   9  14
ATOM     14  C   UNL     1      36.122   9.403   2.657  1.00  0.00     0.269 C 
ATOM     15  C   UNL     1      35.027  10.712   0.794  1.00  0.00     0.143 C 
ATOM     16  N   UNL     1      35.410  10.560   2.191  1.00  0.00    -0.354 N 
ATOM     17  H   UNL     1      35.152  11.320   2.860  1.00  0.00     0.163 HD
ATOM     18  O   UNL     1      36.433   8.493   1.839  1.00  0.00    -0.268 OA
ENDBRANCH   9  14
ENDBRANCH   7   8
ENDBRANCH   1   7
BRANCH   4  19
ATOM     19  N   UNL     1      30.954   6.960   9.806  1.00  0.00    -0.308 N 
ATOM     20  C   UNL     1      29.890   7.915   9.669  1.00  0.00     0.323 C 
ATOM     21  H   UNL     1      30.774   6.121  10.403  1.00  0.00     0.171 HD
ATOM     22  O   UNL     1      29.913   8.764   8.737  1.00  0.00    -0.248 OA
ATOM     23  N   UNL     1      28.799   7.892  10.602  1.00  0.00    -0.308 N 
ATOM     24  H   UNL     1      28.940   7.371  11.497  1.00  0.00     0.171 HD
BRANCH  23  25
ATOM     25  C   UNL     1      27.587   8.649  10.445  1.00  0.00     0.043 A 
ATOM     26  C   UNL     1      26.326   8.025  10.454  1.00  0.00     0.040 A 
ATOM     27  C   UNL     1      27.658  10.043  10.341  1.00  0.00     0.028 A 
ATOM     28  C   UNL     1      25.143   8.781  10.319  1.00  0.00     0.076 A 
ATOM     29  C   UNL     1      26.497  10.803  10.207  1.00  0.00     0.023 A 
ATOM     30  C   UNL     1      25.243  10.185  10.190  1.00  0.00     0.053 A 
ATOM     31  Cl  UNL     1      23.819  11.208  10.018  1.00  0.00    -0.084 Cl
BRANCH  28  32
ATOM     32  C   UNL     1      23.791   8.099  10.323  1.00  0.00     0.417 C 
ATOM     33  F   UNL     1      22.938   8.765  11.183  1.00  0.00    -0.166 F 
ATOM     34  F   UNL     1      23.934   6.790  10.746  1.00  0.00    -0.166 F 
ATOM     35  F   UNL     1      23.215   8.087   9.064  1.00  0.00    -0.166 F 
ENDBRANCH  28  32
ENDBRANCH  23  25
ENDBRANCH   4  19
TORSDOF 6
ENDMDL
MODEL 9
REMARK VINA RESULT:    -9.605      7.732     10.283
REMARK INTER + INTRA:         -13.617
REMARK INTER:                 -12.677
REMARK INTRA:                  -0.941
REMARK UNBOUND:                -0.644
REMARK SMILES CNC(=O)c1cc(Oc2ccc(NC(=O)Nc3ccc(Cl)c(C(F)(F)F)c3)cc2)ccn1
REMARK SMILES IDX 9 1 10 2 11 3 12 4 28 5 29 6 8 7 7 8 5 9 32 10 6 11 31 12
REMARK SMILES IDX 30 13 3 14 1 15 2 16 4 18 13 19 14 20 15 22 16 23 17 25
REMARK SMILES IDX 27 26 18 27 22 28 19 29 20 30 21 31 23 32 24 33 25 34 26 35
REMARK H PARENT 2 17 13 21 16 24
REMARK Flexibility Score: inf
ROOT
ATOM      1  C   UNL     1      33.624  13.961  11.539  1.00  0.00     0.127 A 
ATOM      2  C   UNL     1      32.625  14.933  11.661  1.00  0.00     0.049 A 
ATOM      3  C   UNL     1      31.373  14.741  11.071  1.00  0.00     0.030 A 
ATOM      4  C   UNL     1      31.089  13.558  10.374  1.00  0.00     0.043 A 
ATOM      5  C   UNL     1      32.092  12.580  10.250  1.00  0.00     0.030 A 
ATOM      6  C   UNL     1      33.345  12.774  10.839  1.00  0.00     0.049 A 
ENDROOT
BRANCH   1   7
ATOM      7  O   UNL     1      34.861  14.184  12.160  1.00  0.00    -0.457 OA
BRANCH   7   8
ATOM      8  C   UNL     1      35.779  15.184  11.810  1.00  0.00     0.131 A 
ATOM      9  C   UNL     1      37.123  17.095  12.468  1.00  0.00     0.131 A 
ATOM     10  N   UNL     1      37.554  17.212  11.181  1.00  0.00    -0.251 NA
ATOM     11  C   UNL     1      36.215  16.074  12.796  1.00  0.00     0.081 A 
ATOM     12  C   UNL     1      37.134  16.373  10.199  1.00  0.00     0.116 A 
ATOM     13  C   UNL     1      36.234  15.348  10.492  1.00  0.00     0.067 A 
BRANCH   9  14
ATOM     14  C   UNL     1      37.612  18.041  13.494  1.00  0.00     0.269 C 
ATOM     15  C   UNL     1      37.173  19.924  15.121  1.00  0.00     0.143 C 
ATOM     16  N   UNL     1      36.715  18.977  14.113  1.00  0.00    -0.354 N 
ATOM     17  H   UNL     1      35.706  18.992  13.843  1.00  0.00     0.163 HD
ATOM     18  O   UNL     1      38.828  18.028  13.832  1.00  0.00    -0.268 OA
ENDBRANCH   9  14
ENDBRANCH   7   8
ENDBRANCH   1   7
BRANCH   4  19
ATOM     19  N   UNL     1      29.801  13.396   9.756  1.00  0.00    -0.308 N 
ATOM     20  C   UNL     1      28.730  12.616  10.312  1.00  0.00     0.323 C 
ATOM     21  H   UNL     1      29.595  13.952   8.896  1.00  0.00     0.171 HD
ATOM     22  O   UNL     1      28.805  12.184  11.495  1.00  0.00    -0.248 OA
ATOM     23  N   UNL     1      27.575  12.333   9.508  1.00  0.00    -0.308 N 
ATOM     24  H   UNL     1      27.660  12.468   8.476  1.00  0.00     0.171 HD
BRANCH  23  25
ATOM     25  C   UNL     1      26.362  11.750  10.016  1.00  0.00     0.043 A 
ATOM     26  C   UNL     1      26.021  10.414   9.744  1.00  0.00     0.040 A 
ATOM     27  C   UNL     1      25.535  12.511  10.851  1.00  0.00     0.028 A 
ATOM     28  C   UNL     1      24.839   9.848  10.265  1.00  0.00     0.076 A 
ATOM     29  C   UNL     1      24.363  11.964  11.373  1.00  0.00     0.023 A 
ATOM     30  C   UNL     1      24.006  10.644  11.083  1.00  0.00     0.053 A 
ATOM     31  Cl  UNL     1      22.511  10.020  11.778  1.00  0.00    -0.084 Cl
BRANCH  28  32
ATOM     32  C   UNL     1      24.476   8.410   9.960  1.00  0.00     0.417 C 
ATOM     33  F   UNL     1      24.274   7.721  11.141  1.00  0.00    -0.166 F 
ATOM     34  F   UNL     1      25.505   7.812   9.254  1.00  0.00    -0.166 F 
ATOM     35  F   UNL     1      23.320   8.318   9.202  1.00  0.00    -0.166 F 
ENDBRANCH  28  32
ENDBRANCH  23  25
ENDBRANCH   4  19
TORSDOF 6
ENDMDL
MODEL 10
REMARK VINA RESULT:    -9.384      2.364      3.675
REMARK INTER + INTRA:         -13.320
REMARK INTER:                 -12.626
REMARK INTRA:                  -0.694
REMARK UNBOUND:                -0.644
REMARK SMILES CNC(=O)c1cc(Oc2ccc(NC(=O)Nc3ccc(Cl)c(C(F)(F)F)c3)cc2)ccn1
REMARK SMILES IDX 9 1 10 2 11 3 12 4 28 5 29 6 8 7 7 8 5 9 32 10 6 11 31 12
REMARK SMILES IDX 30 13 3 14 1 15 2 16 4 18 13 19 14 20 15 22 16 23 17 25
REMARK SMILES IDX 27 26 18 27 22 28 19 29 20 30 21 31 23 32 24 33 25 34 26 35
REMARK H PARENT 2 17 13 21 16 24
REMARK Flexibility Score: inf
ROOT
ATOM      1  C   UNL     1      34.827   6.956   7.258  1.00  0.00     0.127 A 
ATOM      2  C   UNL     1      34.505   8.050   8.067  1.00  0.00     0.049 A 
ATOM      3  C   UNL     1      33.372   8.016   8.886  1.00  0.00     0.030 A 
ATOM      4  C   UNL     1      32.560   6.874   8.931  1.00  0.00     0.043 A 
ATOM      5  C   UNL     1      32.884   5.774   8.117  1.00  0.00     0.030 A 
ATOM      6  C   UNL     1      34.015   5.809   7.297  1.00  0.00     0.049 A 
ENDROOT
BRANCH   1   7
ATOM      7  O   UNL     1      35.981   7.022   6.463  1.00  0.00    -0.457 OA
BRANCH   7   8
ATOM      8  C   UNL     1      36.014   6.915   5.065  1.00  0.00     0.131 A 
ATOM      9  C   UNL     1      36.211   7.997   2.902  1.00  0.00     0.131 A 
ATOM     10  N   UNL     1      36.043   6.787   2.301  1.00  0.00    -0.251 NA
ATOM     11  C   UNL     1      36.190   8.075   4.305  1.00  0.00     0.081 A 
ATOM     12  C   UNL     1      35.853   5.646   3.014  1.00  0.00     0.116 A 
ATOM     13  C   UNL     1      35.828   5.689   4.408  1.00  0.00     0.067 A 
BRANCH   9  14
ATOM     14  C   UNL     1      36.409   9.206   2.073  1.00  0.00     0.269 C 
ATOM     15  C   UNL     1      35.523  11.365   1.105  1.00  0.00     0.143 C 
ATOM     16  N   UNL     1      35.356  10.170   1.922  1.00  0.00    -0.354 N 
ATOM     17  H   UNL     1      34.439  10.024   2.403  1.00  0.00     0.163 HD
ATOM     18  O   UNL     1      37.514   9.394   1.493  1.00  0.00    -0.268 OA
ENDBRANCH   9  14
ENDBRANCH   7   8
ENDBRANCH   1   7
BRANCH   4  19
ATOM     19  N   UNL     1      31.388   6.875   9.764  1.00  0.00    -0.308 N 
ATOM     20  C   UNL     1      30.289   7.787   9.611  1.00  0.00     0.323 C 
ATOM     21  H   UNL     1      31.284   6.107  10.466  1.00  0.00     0.171 HD
ATOM     22  O   UNL     1      30.210   8.522   8.590  1.00  0.00    -0.248 OA
ATOM     23  N   UNL     1      29.282   7.852  10.632  1.00  0.00    -0.308 N 
ATOM     24  H   UNL     1      29.513   7.440  11.564  1.00  0.00     0.171 HD
BRANCH  23  25
ATOM     25  C   UNL     1      28.040   8.562  10.495  1.00  0.00     0.043 A 
ATOM     26  C   UNL     1      27.968   9.955  10.671  1.00  0.00     0.040 A 
ATOM     27  C   UNL     1      26.888   7.861  10.117  1.00  0.00     0.028 A 
ATOM     28  C   UNL     1      26.747  10.644  10.514  1.00  0.00     0.076 A 
ATOM     29  C   UNL     1      25.674   8.528   9.958  1.00  0.00     0.023 A 
ATOM     30  C   UNL     1      25.593   9.910  10.158  1.00  0.00     0.053 A 
ATOM     31  Cl  UNL     1      24.026  10.686   9.938  1.00  0.00    -0.084 Cl
BRANCH  28  32
ATOM     32  C   UNL     1      26.679  12.143  10.713  1.00  0.00     0.417 C 
ATOM     33  F   UNL     1      26.344  12.755   9.519  1.00  0.00    -0.166 F 
ATOM     34  F   UNL     1      27.910  12.611  11.136  1.00  0.00    -0.166 F 
ATOM     35  F   UNL     1      25.733  12.495  11.660  1.00  0.00    -0.166 F 
ENDBRANCH  28  32
ENDBRANCH  23  25
ENDBRANCH   4  19
TORSDOF 6
ENDMDL
MODEL 11
REMARK VINA RESULT:    -9.375      5.715     11.477
REMARK INTER + INTRA:         -13.308
REMARK INTER:                 -13.253
REMARK INTRA:                  -0.054
REMARK UNBOUND:                -0.644
REMARK SMILES CNC(=O)c1cc(Oc2ccc(NC(=O)Nc3ccc(Cl)c(C(F)(F)F)c3)cc2)ccn1
REMARK SMILES IDX 9 1 10 2 11 3 12 4 28 5 29 6 8 7 7 8 5 9 32 10 6 11 31 12
REMARK SMILES IDX 30 13 3 14 1 15 2 16 4 18 13 19 14 20 15 22 16 23 17 25
REMARK SMILES IDX 27 26 18 27 22 28 19 29 20 30 21 31 23 32 24 33 25 34 26 35
REMARK H PARENT 2 17 13 21 16 24
REMARK Flexibility Score: inf
ROOT
ATOM      1  C   UNL     1      28.449  11.044   9.861  1.00  0.00     0.127 A 
ATOM      2  C   UNL     1      29.571  10.831  10.668  1.00  0.00     0.049 A 
ATOM      3  C   UNL     1      30.232   9.599  10.651  1.00  0.00     0.030 A 
ATOM      4  C   UNL     1      29.799   8.571   9.802  1.00  0.00     0.043 A 
ATOM      5  C   UNL     1      28.670   8.784   8.991  1.00  0.00     0.030 A 
ATOM      6  C   UNL     1      28.008  10.015   9.010  1.00  0.00     0.049 A 
ENDROOT
BRANCH   1   7
ATOM      7  O   UNL     1      27.823  12.299   9.894  1.00  0.00    -0.457 OA
BRANCH   7   8
ATOM      8  C   UNL     1      26.564  12.566  10.450  1.00  0.00     0.131 A 
ATOM      9  C   UNL     1      24.391  11.752  11.162  1.00  0.00     0.131 A 
ATOM     10  N   UNL     1      24.044  13.025  11.499  1.00  0.00    -0.251 NA
ATOM     11  C   UNL     1      25.666  11.509  10.621  1.00  0.00     0.081 A 
ATOM     12  C   UNL     1      24.891  14.074  11.327  1.00  0.00     0.116 A 
ATOM     13  C   UNL     1      26.163  13.866  10.794  1.00  0.00     0.067 A 
BRANCH   9  14
ATOM     14  C   UNL     1      23.427  10.650  11.367  1.00  0.00     0.269 C 
ATOM     15  C   UNL     1      22.617   8.320  10.820  1.00  0.00     0.143 C 
ATOM     16  N   UNL     1      23.558   9.418  10.642  1.00  0.00    -0.354 N 
ATOM     17  H   UNL     1      24.343   9.291   9.964  1.00  0.00     0.163 HD
ATOM     18  O   UNL     1      22.478  10.791  12.187  1.00  0.00    -0.268 OA
ENDBRANCH   9  14
ENDBRANCH   7   8
ENDBRANCH   1   7
BRANCH   4  19
ATOM     19  N   UNL     1      30.482   7.306   9.822  1.00  0.00    -0.308 N 
ATOM     20  C   UNL     1      31.567   6.960   8.946  1.00  0.00     0.323 C 
ATOM     21  H   UNL     1      30.239   6.627  10.579  1.00  0.00     0.171 HD
ATOM     22  O   UNL     1      32.115   7.843   8.232  1.00  0.00    -0.248 OA
ATOM     23  N   UNL     1      32.022   5.599   8.893  1.00  0.00    -0.308 N 
ATOM     24  H   UNL     1      31.389   4.863   9.280  1.00  0.00     0.171 HD
BRANCH  23  25
ATOM     25  C   UNL     1      33.222   5.176   8.223  1.00  0.00     0.043 A 
ATOM     26  C   UNL     1      33.970   6.063   7.428  1.00  0.00     0.040 A 
ATOM     27  C   UNL     1      33.689   3.871   8.416  1.00  0.00     0.028 A 
ATOM     28  C   UNL     1      35.156   5.641   6.792  1.00  0.00     0.076 A 
ATOM     29  C   UNL     1      34.861   3.440   7.794  1.00  0.00     0.023 A 
ATOM     30  C   UNL     1      35.594   4.310   6.981  1.00  0.00     0.053 A 
ATOM     31  Cl  UNL     1      37.064   3.697   6.228  1.00  0.00    -0.084 Cl
BRANCH  28  32
ATOM     32  C   UNL     1      35.950   6.601   5.932  1.00  0.00     0.417 C 
ATOM     33  F   UNL     1      35.995   6.132   4.632  1.00  0.00    -0.166 F 
ATOM     34  F   UNL     1      37.239   6.704   6.424  1.00  0.00    -0.166 F 
ATOM     35  F   UNL     1      35.389   7.867   5.918  1.00  0.00    -0.166 F 
ENDBRANCH  28  32
ENDBRANCH  23  25
ENDBRANCH   4  19
TORSDOF 6
ENDMDL
MODEL 12
REMARK VINA RESULT:    -9.330      5.594     11.852
REMARK INTER + INTRA:         -13.246
REMARK INTER:                 -12.519
REMARK INTRA:                  -0.727
REMARK UNBOUND:                -0.644
REMARK SMILES CNC(=O)c1cc(Oc2ccc(NC(=O)Nc3ccc(Cl)c(C(F)(F)F)c3)cc2)ccn1
REMARK SMILES IDX 9 1 10 2 11 3 12 4 28 5 29 6 8 7 7 8 5 9 32 10 6 11 31 12
REMARK SMILES IDX 30 13 3 14 1 15 2 16 4 18 13 19 14 20 15 22 16 23 17 25
REMARK SMILES IDX 27 26 18 27 22 28 19 29 20 30 21 31 23 32 24 33 25 34 26 35
REMARK H PARENT 2 17 13 21 16 24
REMARK Flexibility Score: inf
ROOT
ATOM      1  C   UNL     1      26.718   9.249   9.878  1.00  0.00     0.127 A 
ATOM      2  C   UNL     1      27.359   8.374  10.762  1.00  0.00     0.049 A 
ATOM      3  C   UNL     1      28.754   8.273  10.771  1.00  0.00     0.030 A 
ATOM      4  C   UNL     1      29.531   9.068   9.917  1.00  0.00     0.043 A 
ATOM      5  C   UNL     1      28.887   9.946   9.028  1.00  0.00     0.030 A 
ATOM      6  C   UNL     1      27.493  10.047   9.017  1.00  0.00     0.049 A 
ENDROOT
BRANCH   1   7
ATOM      7  O   UNL     1      25.318   9.335   9.911  1.00  0.00    -0.457 OA
BRANCH   7   8
ATOM      8  C   UNL     1      24.580  10.345  10.544  1.00  0.00     0.131 A 
ATOM      9  C   UNL     1      24.420  12.652  11.280  1.00  0.00     0.131 A 
ATOM     10  N   UNL     1      23.200  12.378  11.818  1.00  0.00    -0.251 NA
ATOM     11  C   UNL     1      25.134  11.626  10.638  1.00  0.00     0.081 A 
ATOM     12  C   UNL     1      22.645  11.139  11.757  1.00  0.00     0.116 A 
ATOM     13  C   UNL     1      23.327  10.098  11.125  1.00  0.00     0.067 A 
BRANCH   9  14
ATOM     14  C   UNL     1      24.976  14.019  11.382  1.00  0.00     0.269 C 
ATOM     15  C   UNL     1      24.835  16.378  12.277  1.00  0.00     0.143 C 
ATOM     16  N   UNL     1      24.313  15.022  12.167  1.00  0.00    -0.354 N 
ATOM     17  H   UNL     1      23.431  14.789  12.678  1.00  0.00     0.163 HD
ATOM     18  O   UNL     1      26.043  14.310  10.773  1.00  0.00    -0.268 OA
ENDBRANCH   9  14
ENDBRANCH   7   8
ENDBRANCH   1   7
BRANCH   4  19
ATOM     19  N   UNL     1      30.961   8.926   9.930  1.00  0.00    -0.308 N 
ATOM     20  C   UNL     1      31.693   8.036   9.072  1.00  0.00     0.323 C 
ATOM     21  H   UNL     1      31.514   9.575  10.535  1.00  0.00     0.171 HD
ATOM     22  O   UNL     1      31.117   7.465   8.107  1.00  0.00    -0.248 OA
ATOM     23  N   UNL     1      33.087   7.803   9.325  1.00  0.00    -0.308 N 
ATOM     24  H   UNL     1      33.458   8.069  10.264  1.00  0.00     0.171 HD
BRANCH  23  25
ATOM     25  C   UNL     1      33.965   7.109   8.422  1.00  0.00     0.043 A 
ATOM     26  C   UNL     1      34.015   5.704   8.383  1.00  0.00     0.040 A 
ATOM     27  C   UNL     1      34.742   7.845   7.520  1.00  0.00     0.028 A 
ATOM     28  C   UNL     1      34.865   5.034   7.479  1.00  0.00     0.076 A 
ATOM     29  C   UNL     1      35.587   7.197   6.620  1.00  0.00     0.023 A 
ATOM     30  C   UNL     1      35.659   5.800   6.596  1.00  0.00     0.053 A 
ATOM     31  Cl  UNL     1      36.749   5.049   5.432  1.00  0.00    -0.084 Cl
BRANCH  28  32
ATOM     32  C   UNL     1      34.917   3.521   7.449  1.00  0.00     0.417 C 
ATOM     33  F   UNL     1      36.155   3.090   7.888  1.00  0.00    -0.166 F 
ATOM     34  F   UNL     1      34.712   3.076   6.155  1.00  0.00    -0.166 F 
ATOM     35  F   UNL     1      33.948   2.955   8.260  1.00  0.00    -0.166 F 
ENDBRANCH  28  32
ENDBRANCH  23  25
ENDBRANCH   4  19
TORSDOF 6
ENDMDL
MODEL 13
REMARK VINA RESULT:    -9.254      6.980      9.818
REMARK INTER + INTRA:         -13.144
REMARK INTER:                 -12.600
REMARK INTRA:                  -0.544
REMARK UNBOUND:                -0.644
REMARK SMILES CNC(=O)c1cc(Oc2ccc(NC(=O)Nc3ccc(Cl)c(C(F)(F)F)c3)cc2)ccn1
REMARK SMILES IDX 9 1 10 2 11 3 12 4 28 5 29 6 8 7 7 8 5 9 32 10 6 11 31 12
REMARK SMILES IDX 30 13 3 14 1 15 2 16 4 18 13 19 14 20 15 22 16 23 17 25
REMARK SMILES IDX 27 26 18 27 22 28 19 29 20 30 21 31 23 32 24 33 25 34 26 35
REMARK H PARENT 2 17 13 21 16 24
REMARK Flexibility Score: inf
ROOT
ATOM      1  C   UNL     1      34.012  12.900  11.492  1.00  0.00     0.127 A 
ATOM      2  C   UNL     1      32.874  13.610  11.097  1.00  0.00     0.049 A 
ATOM      3  C   UNL     1      31.839  12.964  10.412  1.00  0.00     0.030 A 
ATOM      4  C   UNL     1      31.915  11.592  10.138  1.00  0.00     0.043 A 
ATOM      5  C   UNL     1      33.060  10.878  10.535  1.00  0.00     0.030 A 
ATOM      6  C   UNL     1      34.094  11.524  11.218  1.00  0.00     0.049 A 
ENDROOT
BRANCH   1   7
ATOM      7  O   UNL     1      35.020  13.580  12.192  1.00  0.00    -0.457 OA
BRANCH   7   8
ATOM      8  C   UNL     1      35.690  14.727  11.744  1.00  0.00     0.131 A 
ATOM      9  C   UNL     1      36.851  16.793  12.266  1.00  0.00     0.131 A 
ATOM     10  N   UNL     1      36.984  17.035  10.933  1.00  0.00    -0.251 NA
ATOM     11  C   UNL     1      36.189  15.628  12.690  1.00  0.00     0.081 A 
ATOM     12  C   UNL     1      36.494  16.186   9.992  1.00  0.00     0.116 A 
ATOM     13  C   UNL     1      35.833  15.020  10.379  1.00  0.00     0.067 A 
BRANCH   9  14
ATOM     14  C   UNL     1      37.401  17.757  13.245  1.00  0.00     0.269 C 
ATOM     15  C   UNL     1      37.049  19.612  14.923  1.00  0.00     0.143 C 
ATOM     16  N   UNL     1      36.532  18.648  13.960  1.00  0.00    -0.354 N 
ATOM     17  H   UNL     1      35.500  18.618  13.796  1.00  0.00     0.163 HD
ATOM     18  O   UNL     1      38.645  17.798  13.454  1.00  0.00    -0.268 OA
ENDBRANCH   9  14
ENDBRANCH   7   8
ENDBRANCH   1   7
BRANCH   4  19
ATOM     19  N   UNL     1      30.848  10.958   9.412  1.00  0.00    -0.308 N 
ATOM     20  C   UNL     1      29.597  10.562   9.995  1.00  0.00     0.323 C 
ATOM     21  H   UNL     1      30.949  10.861   8.376  1.00  0.00     0.171 HD
ATOM     22  O   UNL     1      29.290  10.938  11.159  1.00  0.00    -0.248 OA
ATOM     23  N   UNL     1      28.699   9.735   9.240  1.00  0.00    -0.308 N 
ATOM     24  H   UNL     1      29.088   9.231   8.411  1.00  0.00     0.171 HD
BRANCH  23  25
ATOM     25  C   UNL     1      27.344   9.452   9.628  1.00  0.00     0.043 A 
ATOM     26  C   UNL     1      26.449  10.481   9.970  1.00  0.00     0.040 A 
ATOM     27  C   UNL     1      26.888   8.128   9.607  1.00  0.00     0.028 A 
ATOM     28  C   UNL     1      25.116  10.192  10.330  1.00  0.00     0.076 A 
ATOM     29  C   UNL     1      25.572   7.828   9.960  1.00  0.00     0.023 A 
ATOM     30  C   UNL     1      24.686   8.846  10.326  1.00  0.00     0.053 A 
ATOM     31  Cl  UNL     1      23.040   8.392  10.759  1.00  0.00    -0.084 Cl
BRANCH  28  32
ATOM     32  C   UNL     1      24.162  11.307  10.703  1.00  0.00     0.417 C 
ATOM     33  F   UNL     1      24.826  12.519  10.668  1.00  0.00    -0.166 F 
ATOM     34  F   UNL     1      23.674  11.091  11.980  1.00  0.00    -0.166 F 
ATOM     35  F   UNL     1      23.086  11.378   9.835  1.00  0.00    -0.166 F 
ENDBRANCH  28  32
ENDBRANCH  23  25
ENDBRANCH   4  19
TORSDOF 6
ENDMDL
MODEL 14
REMARK VINA RESULT:    -9.122      4.468      5.497
REMARK INTER + INTRA:         -12.966
REMARK INTER:                 -12.124
REMARK INTRA:                  -0.842
REMARK UNBOUND:                -0.644
REMARK SMILES CNC(=O)c1cc(Oc2ccc(NC(=O)Nc3ccc(Cl)c(C(F)(F)F)c3)cc2)ccn1
REMARK SMILES IDX 9 1 10 2 11 3 12 4 28 5 29 6 8 7 7 8 5 9 32 10 6 11 31 12
REMARK SMILES IDX 30 13 3 14 1 15 2 16 4 18 13 19 14 20 15 22 16 23 17 25
REMARK SMILES IDX 27 26 18 27 22 28 19 29 20 30 21 31 23 32 24 33 25 34 26 35
REMARK H PARENT 2 17 13 21 16 24
REMARK Flexibility Score: inf
ROOT
ATOM      1  C   UNL     1      34.334  10.810  10.351  1.00  0.00     0.127 A 
ATOM      2  C   UNL     1      33.768   9.868   9.486  1.00  0.00     0.049 A 
ATOM      3  C   UNL     1      32.459  10.030   9.020  1.00  0.00     0.030 A 
ATOM      4  C   UNL     1      31.707  11.154   9.388  1.00  0.00     0.043 A 
ATOM      5  C   UNL     1      32.275  12.101  10.258  1.00  0.00     0.030 A 
ATOM      6  C   UNL     1      33.582  11.938  10.726  1.00  0.00     0.049 A 
ENDROOT
BRANCH   1   7
ATOM      7  O   UNL     1      35.655  10.620  10.783  1.00  0.00    -0.457 OA
BRANCH   7   8
ATOM      8  C   UNL     1      36.728  10.226   9.970  1.00  0.00     0.131 A 
ATOM      9  C   UNL     1      38.063   8.439   9.013  1.00  0.00     0.131 A 
ATOM     10  N   UNL     1      38.855   9.374   8.419  1.00  0.00    -0.251 NA
ATOM     11  C   UNL     1      36.984   8.861   9.810  1.00  0.00     0.081 A 
ATOM     12  C   UNL     1      38.639  10.707   8.572  1.00  0.00     0.116 A 
ATOM     13  C   UNL     1      37.577  11.158   9.354  1.00  0.00     0.067 A 
BRANCH   9  14
ATOM     14  C   UNL     1      38.349   7.002   8.815  1.00  0.00     0.269 C 
ATOM     15  C   UNL     1      38.120   4.895   7.440  1.00  0.00     0.143 C 
ATOM     16  N   UNL     1      37.859   6.312   7.655  1.00  0.00    -0.354 N 
ATOM     17  H   UNL     1      37.297   6.826   6.938  1.00  0.00     0.163 HD
ATOM     18  O   UNL     1      39.030   6.373   9.671  1.00  0.00    -0.268 OA
ENDBRANCH   9  14
ENDBRANCH   7   8
ENDBRANCH   1   7
BRANCH   4  19
ATOM     19  N   UNL     1      30.356  11.284   8.914  1.00  0.00    -0.308 N 
ATOM     20  C   UNL     1      29.214  10.699   9.558  1.00  0.00     0.323 C 
ATOM     21  H   UNL     1      30.179  11.919   8.102  1.00  0.00     0.171 HD
ATOM     22  O   UNL     1      29.321  10.194  10.708  1.00  0.00    -0.248 OA
ATOM     23  N   UNL     1      27.948  10.696   8.880  1.00  0.00    -0.308 N 
ATOM     24  H   UNL     1      27.952  10.871   7.850  1.00  0.00     0.171 HD
BRANCH  23  25
ATOM     25  C   UNL     1      26.702  10.334   9.499  1.00  0.00     0.043 A 
ATOM     26  C   UNL     1      25.885  11.297  10.119  1.00  0.00     0.040 A 
ATOM     27  C   UNL     1      26.263   9.007   9.431  1.00  0.00     0.028 A 
ATOM     28  C   UNL     1      24.655  10.933  10.705  1.00  0.00     0.076 A 
ATOM     29  C   UNL     1      25.049   8.633  10.007  1.00  0.00     0.023 A 
ATOM     30  C   UNL     1      24.246   9.582  10.647  1.00  0.00     0.053 A 
ATOM     31  Cl  UNL     1      22.725   9.037  11.351  1.00  0.00    -0.084 Cl
BRANCH  28  32
ATOM     32  C   UNL     1      23.786  11.976  11.376  1.00  0.00     0.417 C 
ATOM     33  F   UNL     1      24.332  13.231  11.183  1.00  0.00    -0.166 F 
ATOM     34  F   UNL     1      23.713  11.714  12.733  1.00  0.00    -0.166 F 
ATOM     35  F   UNL     1      22.498  11.980  10.866  1.00  0.00    -0.166 F 
ENDBRANCH  28  32
ENDBRANCH  23  25
ENDBRANCH   4  19
TORSDOF 6
ENDMDL
MODEL 15
REMARK VINA RESULT:    -9.083      3.489      4.747
REMARK INTER + INTRA:         -12.913
REMARK INTER:                 -12.269
REMARK INTRA:                  -0.644
REMARK UNBOUND:                -0.644
REMARK SMILES CNC(=O)c1cc(Oc2ccc(NC(=O)Nc3ccc(Cl)c(C(F)(F)F)c3)cc2)ccn1
REMARK SMILES IDX 9 1 10 2 11 3 12 4 28 5 29 6 8 7 7 8 5 9 32 10 6 11 31 12
REMARK SMILES IDX 30 13 3 14 1 15 2 16 4 18 13 19 14 20 15 22 16 23 17 25
REMARK SMILES IDX 27 26 18 27 22 28 19 29 20 30 21 31 23 32 24 33 25 34 26 35
REMARK H PARENT 2 17 13 21 16 24
REMARK Flexibility Score: inf
ROOT
ATOM      1  C   UNL     1      33.676  11.360   9.179  1.00  0.00     0.127 A 
ATOM      2  C   UNL     1      33.047  11.602  10.405  1.00  0.00     0.049 A 
ATOM      3  C   UNL     1      31.716  12.027  10.446  1.00  0.00     0.030 A 
ATOM      4  C   UNL     1      30.983  12.187   9.262  1.00  0.00     0.043 A 
ATOM      5  C   UNL     1      31.614  11.946   8.029  1.00  0.00     0.030 A 
ATOM      6  C   UNL     1      32.946  11.523   7.988  1.00  0.00     0.049 A 
ENDROOT
BRANCH   1   7
ATOM      7  O   UNL     1      35.008  10.919   9.179  1.00  0.00    -0.457 OA
BRANCH   7   8
ATOM      8  C   UNL     1      35.511   9.850   8.423  1.00  0.00     0.131 A 
ATOM      9  C   UNL     1      35.304   7.548   7.684  1.00  0.00     0.131 A 
ATOM     10  N   UNL     1      36.468   7.685   6.990  1.00  0.00    -0.251 NA
ATOM     11  C   UNL     1      34.813   8.639   8.422  1.00  0.00     0.081 A 
ATOM     12  C   UNL     1      37.176   8.845   6.988  1.00  0.00     0.116 A 
ATOM     13  C   UNL     1      36.715   9.947   7.709  1.00  0.00     0.067 A 
BRANCH   9  14
ATOM     14  C   UNL     1      34.579   6.259   7.653  1.00  0.00     0.269 C 
ATOM     15  C   UNL     1      34.589   3.750   7.360  1.00  0.00     0.143 C 
ATOM     16  N   UNL     1      35.280   5.032   7.403  1.00  0.00    -0.354 N 
ATOM     17  H   UNL     1      36.314   5.041   7.245  1.00  0.00     0.163 HD
ATOM     18  O   UNL     1      33.333   6.236   7.849  1.00  0.00    -0.268 OA
ENDBRANCH   9  14
ENDBRANCH   7   8
ENDBRANCH   1   7
BRANCH   4  19
ATOM     19  N   UNL     1      29.623  12.648   9.332  1.00  0.00    -0.308 N 
ATOM     20  C   UNL     1      28.512  11.830   9.731  1.00  0.00     0.323 C 
ATOM     21  H   UNL     1      29.439  13.665   9.173  1.00  0.00     0.171 HD
ATOM     22  O   UNL     1      28.709  10.693  10.239  1.00  0.00    -0.248 OA
ATOM     23  N   UNL     1      27.175  12.319   9.545  1.00  0.00    -0.308 N 
ATOM     24  H   UNL     1      27.042  13.124   8.892  1.00  0.00     0.171 HD
BRANCH  23  25
ATOM     25  C   UNL     1      26.003  11.690  10.092  1.00  0.00     0.043 A 
ATOM     26  C   UNL     1      25.669  10.361   9.775  1.00  0.00     0.040 A 
ATOM     27  C   UNL     1      25.211  12.395  11.007  1.00  0.00     0.028 A 
ATOM     28  C   UNL     1      24.528   9.749  10.334  1.00  0.00     0.076 A 
ATOM     29  C   UNL     1      24.080  11.802  11.567  1.00  0.00     0.023 A 
ATOM     30  C   UNL     1      23.729  10.490  11.235  1.00  0.00     0.053 A 
ATOM     31  Cl  UNL     1      22.287   9.805  11.981  1.00  0.00    -0.084 Cl
BRANCH  28  32
ATOM     32  C   UNL     1      24.172   8.320   9.981  1.00  0.00     0.417 C 
ATOM     33  F   UNL     1      25.176   7.769   9.207  1.00  0.00    -0.166 F 
ATOM     34  F   UNL     1      22.985   8.301   9.270  1.00  0.00    -0.166 F 
ATOM     35  F   UNL     1      24.013   7.534  11.110  1.00  0.00    -0.166 F 
ENDBRANCH  28  32
ENDBRANCH  23  25
ENDBRANCH   4  19
TORSDOF 6
ENDMDL
