MODEL 1
REMARK VINA RESULT:    -7.780      0.000      0.000
REMARK INTER + INTRA:         -11.365
REMARK INTER:                 -10.736
REMARK INTRA:                  -0.629
REMARK UNBOUND:                -0.629
REMARK SMILES CN1CCCN=C1COC(=O)C(O)(c1ccccc1)C1CCCCC1
REMARK SMILES IDX 10 1 11 2 9 3 8 4 7 5 1 6 2 7 3 8 4 9 6 10 5 11 12 12 13 13
REMARK SMILES IDX 20 15 21 16 25 17 22 18 24 19 23 20 14 21 15 22 19 23 16 24
REMARK SMILES IDX 18 25 17 26
REMARK H PARENT 13 14
REMARK Flexibility Score: inf
ROOT
ATOM      1  C   UNL     1      26.249  20.780  34.079  1.00  0.00     0.343 C 
ATOM      2  O   UNL     1      25.851  19.624  34.394  1.00  0.00    -0.248 OA
ENDROOT
BRANCH   1   3
ATOM      3  O   UNL     1      25.688  21.904  34.698  1.00  0.00    -0.455 OA
BRANCH   3   4
ATOM      4  C   UNL     1      26.215  22.498  35.881  1.00  0.00     0.307 C 
BRANCH   4   5
ATOM      5  C   UNL     1      25.089  22.885  36.806  1.00  0.00     0.137 C 
ATOM      6  C   UNL     1      26.553  22.798  38.878  1.00  0.00     0.145 C 
ATOM      7  N   UNL     1      25.231  22.860  38.250  1.00  0.00    -0.360 N 
ATOM      8  C   UNL     1      24.064  23.089  39.118  1.00  0.00     0.119 C 
ATOM      9  C   UNL     1      22.751  22.820  38.382  1.00  0.00     0.045 C 
ATOM     10  N   UNL     1      23.938  23.166  36.268  1.00  0.00    -0.269 NA
ATOM     11  C   UNL     1      22.762  23.549  37.043  1.00  0.00     0.146 C 
ENDBRANCH   4   5
ENDBRANCH   3   4
ENDBRANCH   1   3
BRANCH   1  12
ATOM     12  C   UNL     1      27.319  20.952  33.002  1.00  0.00     0.190 C 
BRANCH  12  13
ATOM     13  O   UNL     1      28.567  21.146  33.633  1.00  0.00    -0.374 OA
ATOM     14  H   UNL     1      28.986  21.962  33.248  1.00  0.00     0.212 HD
ENDBRANCH  12  13
BRANCH  12  15
ATOM     15  C   UNL     1      27.434  19.634  32.153  1.00  0.00     0.037 C 
ATOM     16  C   UNL     1      28.348  18.544  32.795  1.00  0.00     0.007 C 
ATOM     17  C   UNL     1      27.829  19.910  30.682  1.00  0.00     0.007 C 
ATOM     18  C   UNL     1      29.037  17.632  31.765  1.00  0.00     0.000 C 
ATOM     19  C   UNL     1      27.745  18.639  29.815  1.00  0.00     0.000 C 
ATOM     20  C   UNL     1      28.120  17.350  30.572  1.00  0.00     0.000 C 
ENDBRANCH  12  15
BRANCH  12  21
ATOM     21  C   UNL     1      27.056  22.168  32.089  1.00  0.00    -0.005 A 
ATOM     22  C   UNL     1      25.796  22.429  31.501  1.00  0.00     0.007 A 
ATOM     23  C   UNL     1      28.091  23.104  31.877  1.00  0.00     0.007 A 
ATOM     24  C   UNL     1      25.604  23.554  30.694  1.00  0.00     0.000 A 
ATOM     25  C   UNL     1      27.891  24.227  31.070  1.00  0.00     0.000 A 
ATOM     26  C   UNL     1      26.651  24.448  30.473  1.00  0.00     0.000 A 
ENDBRANCH  12  21
ENDBRANCH   1  12
TORSDOF 7
ENDMDL
MODEL 2
REMARK VINA RESULT:    -7.491      3.540      5.768
REMARK INTER + INTRA:         -10.966
REMARK INTER:                  -9.768
REMARK INTRA:                  -1.198
REMARK UNBOUND:                -0.629
REMARK SMILES CN1CCCN=C1COC(=O)C(O)(c1ccccc1)C1CCCCC1
REMARK SMILES IDX 10 1 11 2 9 3 8 4 7 5 1 6 2 7 3 8 4 9 6 10 5 11 12 12 13 13
REMARK SMILES IDX 20 15 21 16 25 17 22 18 24 19 23 20 14 21 15 22 19 23 16 24
REMARK SMILES IDX 18 25 17 26
REMARK H PARENT 13 14
REMARK Flexibility Score: inf
ROOT
ATOM      1  C   UNL     1      26.360  17.735  30.771  1.00  0.00     0.343 C 
ATOM      2  O   UNL     1      26.180  16.732  30.026  1.00  0.00    -0.248 OA
ENDROOT
BRANCH   1   3
ATOM      3  O   UNL     1      25.970  19.007  30.335  1.00  0.00    -0.455 OA
BRANCH   3   4
ATOM      4  C   UNL     1      26.746  19.809  29.448  1.00  0.00     0.307 C 
BRANCH   4   5
ATOM      5  C   UNL     1      26.695  21.251  29.882  1.00  0.00     0.137 C 
ATOM      6  C   UNL     1      28.567  21.952  28.317  1.00  0.00     0.145 C 
ATOM      7  N   UNL     1      27.683  22.224  29.453  1.00  0.00    -0.360 N 
ATOM      8  C   UNL     1      27.691  23.580  30.025  1.00  0.00     0.119 C 
ATOM      9  C   UNL     1      26.970  23.630  31.373  1.00  0.00     0.045 C 
ATOM     10  N   UNL     1      25.773  21.591  30.736  1.00  0.00    -0.269 NA
ATOM     11  C   UNL     1      25.612  22.948  31.246  1.00  0.00     0.146 C 
ENDBRANCH   4   5
ENDBRANCH   3   4
ENDBRANCH   1   3
BRANCH   1  12
ATOM     12  C   UNL     1      27.030  17.564  32.134  1.00  0.00     0.190 C 
BRANCH  12  13
ATOM     13  O   UNL     1      26.216  16.735  32.936  1.00  0.00    -0.374 OA
ATOM     14  H   UNL     1      25.779  17.303  33.625  1.00  0.00     0.212 HD
ENDBRANCH  12  13
BRANCH  12  15
ATOM     15  C   UNL     1      28.406  16.826  31.958  1.00  0.00     0.037 C 
ATOM     16  C   UNL     1      29.111  16.469  33.304  1.00  0.00     0.007 C 
ATOM     17  C   UNL     1      29.364  17.577  31.001  1.00  0.00     0.007 C 
ATOM     18  C   UNL     1      30.646  16.435  33.208  1.00  0.00     0.000 C 
ATOM     19  C   UNL     1      30.624  16.751  30.681  1.00  0.00     0.000 C 
ATOM     20  C   UNL     1      31.105  15.879  31.857  1.00  0.00     0.000 C 
ENDBRANCH  12  15
BRANCH  12  21
ATOM     21  C   UNL     1      27.220  18.903  32.877  1.00  0.00    -0.005 A 
ATOM     22  C   UNL     1      28.362  19.721  32.708  1.00  0.00     0.007 A 
ATOM     23  C   UNL     1      26.186  19.377  33.714  1.00  0.00     0.007 A 
ATOM     24  C   UNL     1      28.480  20.934  33.392  1.00  0.00     0.000 A 
ATOM     25  C   UNL     1      26.310  20.591  34.393  1.00  0.00     0.000 A 
ATOM     26  C   UNL     1      27.459  21.366  34.239  1.00  0.00     0.000 A 
ENDBRANCH  12  21
ENDBRANCH   1  12
TORSDOF 7
ENDMDL
MODEL 3
REMARK VINA RESULT:    -7.407      3.700      6.717
REMARK INTER + INTRA:         -10.851
REMARK INTER:                  -9.290
REMARK INTRA:                  -1.561
REMARK UNBOUND:                -0.629
REMARK SMILES CN1CCCN=C1COC(=O)C(O)(c1ccccc1)C1CCCCC1
REMARK SMILES IDX 10 1 11 2 9 3 8 4 7 5 1 6 2 7 3 8 4 9 6 10 5 11 12 12 13 13
REMARK SMILES IDX 20 15 21 16 25 17 22 18 24 19 23 20 14 21 15 22 19 23 16 24
REMARK SMILES IDX 18 25 17 26
REMARK H PARENT 13 14
REMARK Flexibility Score: inf
ROOT
ATOM      1  C   UNL     1      27.580  18.875  32.893  1.00  0.00     0.343 C 
ATOM      2  O   UNL     1      28.758  18.755  33.331  1.00  0.00    -0.248 OA
ENDROOT
BRANCH   1   3
ATOM      3  O   UNL     1      26.508  18.345  33.620  1.00  0.00    -0.455 OA
BRANCH   3   4
ATOM      4  C   UNL     1      26.429  16.983  34.031  1.00  0.00     0.307 C 
BRANCH   4   5
ATOM      5  C   UNL     1      26.484  16.079  32.827  1.00  0.00     0.137 C 
ATOM      6  C   UNL     1      28.730  15.089  33.474  1.00  0.00     0.145 C 
ATOM      7  N   UNL     1      27.665  15.306  32.491  1.00  0.00    -0.360 N 
ATOM      8  C   UNL     1      27.735  14.562  31.223  1.00  0.00     0.119 C 
ATOM      9  C   UNL     1      26.752  15.113  30.189  1.00  0.00     0.045 C 
ATOM     10  N   UNL     1      25.453  16.074  32.031  1.00  0.00    -0.269 NA
ATOM     11  C   UNL     1      25.373  15.254  30.827  1.00  0.00     0.146 C 
ENDBRANCH   4   5
ENDBRANCH   3   4
ENDBRANCH   1   3
BRANCH   1  12
ATOM     12  C   UNL     1      27.330  19.570  31.555  1.00  0.00     0.190 C 
BRANCH  12  13
ATOM     13  O   UNL     1      26.136  19.062  30.999  1.00  0.00    -0.374 OA
ATOM     14  H   UNL     1      26.373  18.520  30.200  1.00  0.00     0.212 HD
ENDBRANCH  12  13
BRANCH  12  15
ATOM     15  C   UNL     1      27.109  21.108  31.790  1.00  0.00     0.037 C 
ATOM     16  C   UNL     1      27.083  21.523  33.294  1.00  0.00     0.007 C 
ATOM     17  C   UNL     1      25.873  21.652  31.032  1.00  0.00     0.007 C 
ATOM     18  C   UNL     1      26.206  22.754  33.581  1.00  0.00     0.000 C 
ATOM     19  C   UNL     1      25.781  23.188  31.107  1.00  0.00     0.000 C 
ATOM     20  C   UNL     1      26.289  23.772  32.439  1.00  0.00     0.000 C 
ENDBRANCH  12  15
BRANCH  12  21
ATOM     21  C   UNL     1      28.466  19.331  30.538  1.00  0.00    -0.005 A 
ATOM     22  C   UNL     1      28.788  18.050  30.032  1.00  0.00     0.007 A 
ATOM     23  C   UNL     1      29.177  20.441  30.030  1.00  0.00     0.007 A 
ATOM     24  C   UNL     1      29.816  17.888  29.099  1.00  0.00     0.000 A 
ATOM     25  C   UNL     1      30.202  20.271  29.096  1.00  0.00     0.000 A 
ATOM     26  C   UNL     1      30.526  18.995  28.636  1.00  0.00     0.000 A 
ENDBRANCH  12  21
ENDBRANCH   1  12
TORSDOF 7
ENDMDL
MODEL 4
REMARK VINA RESULT:    -7.380      3.648      6.240
REMARK INTER + INTRA:         -10.814
REMARK INTER:                  -9.990
REMARK INTRA:                  -0.825
REMARK UNBOUND:                -0.629
REMARK SMILES CN1CCCN=C1COC(=O)C(O)(c1ccccc1)C1CCCCC1
REMARK SMILES IDX 10 1 11 2 9 3 8 4 7 5 1 6 2 7 3 8 4 9 6 10 5 11 12 12 13 13
REMARK SMILES IDX 20 15 21 16 25 17 22 18 24 19 23 20 14 21 15 22 19 23 16 24
REMARK SMILES IDX 18 25 17 26
REMARK H PARENT 13 14
REMARK Flexibility Score: inf
ROOT
ATOM      1  C   UNL     1      27.364  18.746  32.609  1.00  0.00     0.343 C 
ATOM      2  O   UNL     1      28.456  18.752  33.244  1.00  0.00    -0.248 OA
ENDROOT
BRANCH   1   3
ATOM      3  O   UNL     1      26.300  17.955  33.058  1.00  0.00    -0.455 OA
BRANCH   3   4
ATOM      4  C   UNL     1      26.225  16.546  32.857  1.00  0.00     0.307 C 
BRANCH   4   5
ATOM      5  C   UNL     1      26.266  15.835  34.185  1.00  0.00     0.137 C 
ATOM      6  C   UNL     1      28.770  15.429  34.069  1.00  0.00     0.145 C 
ATOM      7  N   UNL     1      27.459  15.164  34.668  1.00  0.00    -0.360 N 
ATOM      8  C   UNL     1      27.412  14.347  35.891  1.00  0.00     0.119 C 
ATOM      9  C   UNL     1      25.987  13.898  36.217  1.00  0.00     0.045 C 
ATOM     10  N   UNL     1      25.158  15.764  34.864  1.00  0.00    -0.269 NA
ATOM     11  C   UNL     1      25.051  15.101  36.160  1.00  0.00     0.146 C 
ENDBRANCH   4   5
ENDBRANCH   3   4
ENDBRANCH   1   3
BRANCH   1  12
ATOM     12  C   UNL     1      27.217  19.578  31.336  1.00  0.00     0.190 C 
BRANCH  12  13
ATOM     13  O   UNL     1      26.034  19.185  30.674  1.00  0.00    -0.374 OA
ATOM     14  H   UNL     1      25.969  19.698  29.825  1.00  0.00     0.212 HD
ENDBRANCH  12  13
BRANCH  12  15
ATOM     15  C   UNL     1      27.051  21.096  31.711  1.00  0.00     0.037 C 
ATOM     16  C   UNL     1      26.980  21.366  33.246  1.00  0.00     0.007 C 
ATOM     17  C   UNL     1      25.871  21.764  30.964  1.00  0.00     0.007 C 
ATOM     18  C   UNL     1      26.143  22.603  33.617  1.00  0.00     0.000 C 
ATOM     19  C   UNL     1      25.839  23.289  31.183  1.00  0.00     0.000 C 
ATOM     20  C   UNL     1      26.315  23.720  32.584  1.00  0.00     0.000 C 
ENDBRANCH  12  15
BRANCH  12  21
ATOM     21  C   UNL     1      28.395  19.384  30.358  1.00  0.00    -0.005 A 
ATOM     22  C   UNL     1      29.194  20.456  29.895  1.00  0.00     0.007 A 
ATOM     23  C   UNL     1      28.743  18.077  29.953  1.00  0.00     0.007 A 
ATOM     24  C   UNL     1      30.261  20.226  29.021  1.00  0.00     0.000 A 
ATOM     25  C   UNL     1      29.811  17.855  29.081  1.00  0.00     0.000 A 
ATOM     26  C   UNL     1      30.565  18.929  28.609  1.00  0.00     0.000 A 
ENDBRANCH  12  21
ENDBRANCH   1  12
TORSDOF 7
ENDMDL
MODEL 5
REMARK VINA RESULT:    -7.258      4.620      7.140
REMARK INTER + INTRA:         -10.645
REMARK INTER:                  -9.301
REMARK INTRA:                  -1.344
REMARK UNBOUND:                -0.629
REMARK SMILES CN1CCCN=C1COC(=O)C(O)(c1ccccc1)C1CCCCC1
REMARK SMILES IDX 10 1 11 2 9 3 8 4 7 5 1 6 2 7 3 8 4 9 6 10 5 11 12 12 13 13
REMARK SMILES IDX 20 15 21 16 25 17 22 18 24 19 23 20 14 21 15 22 19 23 16 24
REMARK SMILES IDX 18 25 17 26
REMARK H PARENT 13 14
REMARK Flexibility Score: inf
ROOT
ATOM      1  C   UNL     1      28.717  19.881  30.098  1.00  0.00     0.343 C 
ATOM      2  O   UNL     1      29.613  20.658  30.532  1.00  0.00    -0.248 OA
ENDROOT
BRANCH   1   3
ATOM      3  O   UNL     1      29.031  18.933  29.117  1.00  0.00    -0.455 OA
BRANCH   3   4
ATOM      4  C   UNL     1      29.870  17.804  29.351  1.00  0.00     0.307 C 
BRANCH   4   5
ATOM      5  C   UNL     1      29.027  16.568  29.533  1.00  0.00     0.137 C 
ATOM      6  C   UNL     1      30.680  15.485  31.127  1.00  0.00     0.145 C 
ATOM      7  N   UNL     1      29.508  15.402  30.252  1.00  0.00    -0.360 N 
ATOM      8  C   UNL     1      28.720  14.160  30.270  1.00  0.00     0.119 C 
ATOM      9  C   UNL     1      27.734  14.098  29.102  1.00  0.00     0.045 C 
ATOM     10  N   UNL     1      27.866  16.539  28.945  1.00  0.00    -0.269 NA
ATOM     11  C   UNL     1      26.952  15.405  29.030  1.00  0.00     0.146 C 
ENDBRANCH   4   5
ENDBRANCH   3   4
ENDBRANCH   1   3
BRANCH   1  12
ATOM     12  C   UNL     1      27.286  19.999  30.620  1.00  0.00     0.190 C 
BRANCH  12  13
ATOM     13  O   UNL     1      26.405  19.493  29.639  1.00  0.00    -0.374 OA
ATOM     14  H   UNL     1      26.836  18.705  29.213  1.00  0.00     0.212 HD
ENDBRANCH  12  13
BRANCH  12  15
ATOM     15  C   UNL     1      27.113  19.102  31.899  1.00  0.00     0.037 C 
ATOM     16  C   UNL     1      28.458  18.711  32.586  1.00  0.00     0.007 C 
ATOM     17  C   UNL     1      26.230  17.858  31.635  1.00  0.00     0.007 C 
ATOM     18  C   UNL     1      28.409  17.356  33.315  1.00  0.00     0.000 C 
ATOM     19  C   UNL     1      25.903  17.097  32.934  1.00  0.00     0.000 C 
ATOM     20  C   UNL     1      27.044  17.129  33.970  1.00  0.00     0.000 C 
ENDBRANCH  12  15
BRANCH  12  21
ATOM     21  C   UNL     1      26.878  21.457  30.917  1.00  0.00    -0.005 A 
ATOM     22  C   UNL     1      26.775  22.447  29.911  1.00  0.00     0.007 A 
ATOM     23  C   UNL     1      26.522  21.815  32.236  1.00  0.00     0.007 A 
ATOM     24  C   UNL     1      26.385  23.751  30.229  1.00  0.00     0.000 A 
ATOM     25  C   UNL     1      26.131  23.120  32.545  1.00  0.00     0.000 A 
ATOM     26  C   UNL     1      26.070  24.089  31.544  1.00  0.00     0.000 A 
ENDBRANCH  12  21
ENDBRANCH   1  12
TORSDOF 7
ENDMDL
MODEL 6
REMARK VINA RESULT:    -7.242      4.128      7.944
REMARK INTER + INTRA:         -10.624
REMARK INTER:                  -9.003
REMARK INTRA:                  -1.621
REMARK UNBOUND:                -0.629
REMARK SMILES CN1CCCN=C1COC(=O)C(O)(c1ccccc1)C1CCCCC1
REMARK SMILES IDX 10 1 11 2 9 3 8 4 7 5 1 6 2 7 3 8 4 9 6 10 5 11 12 12 13 13
REMARK SMILES IDX 20 15 21 16 25 17 22 18 24 19 23 20 14 21 15 22 19 23 16 24
REMARK SMILES IDX 18 25 17 26
REMARK H PARENT 13 14
REMARK Flexibility Score: inf
ROOT
ATOM      1  C   UNL     1      26.709  19.451  30.218  1.00  0.00     0.343 C 
ATOM      2  O   UNL     1      25.521  19.841  30.043  1.00  0.00    -0.248 OA
ENDROOT
BRANCH   1   3
ATOM      3  O   UNL     1      27.377  18.767  29.195  1.00  0.00    -0.455 OA
BRANCH   3   4
ATOM      4  C   UNL     1      27.492  17.348  29.139  1.00  0.00     0.307 C 
BRANCH   4   5
ATOM      5  C   UNL     1      28.889  16.930  29.521  1.00  0.00     0.137 C 
ATOM      6  C   UNL     1      28.136  14.685  30.437  1.00  0.00     0.145 C 
ATOM      7  N   UNL     1      29.154  15.728  30.289  1.00  0.00    -0.360 N 
ATOM      8  C   UNL     1      30.512  15.440  30.778  1.00  0.00     0.119 C 
ATOM      9  C   UNL     1      31.369  16.706  30.845  1.00  0.00     0.045 C 
ATOM     10  N   UNL     1      29.864  17.734  29.210  1.00  0.00    -0.269 NA
ATOM     11  C   UNL     1      31.262  17.460  29.524  1.00  0.00     0.146 C 
ENDBRANCH   4   5
ENDBRANCH   3   4
ENDBRANCH   1   3
BRANCH   1  12
ATOM     12  C   UNL     1      27.404  19.697  31.556  1.00  0.00     0.190 C 
BRANCH  12  13
ATOM     13  O   UNL     1      28.755  20.024  31.309  1.00  0.00    -0.374 OA
ATOM     14  H   UNL     1      29.162  20.328  32.165  1.00  0.00     0.212 HD
ENDBRANCH  12  13
BRANCH  12  15
ATOM     15  C   UNL     1      26.754  20.938  32.271  1.00  0.00     0.037 C 
ATOM     16  C   UNL     1      26.878  22.269  31.467  1.00  0.00     0.007 C 
ATOM     17  C   UNL     1      27.249  21.108  33.728  1.00  0.00     0.007 C 
ATOM     18  C   UNL     1      26.933  23.524  32.356  1.00  0.00     0.000 C 
ATOM     19  C   UNL     1      26.463  22.199  34.479  1.00  0.00     0.000 C 
ATOM     20  C   UNL     1      26.030  23.375  33.583  1.00  0.00     0.000 C 
ENDBRANCH  12  15
BRANCH  12  21
ATOM     21  C   UNL     1      27.377  18.461  32.479  1.00  0.00    -0.005 A 
ATOM     22  C   UNL     1      26.181  17.795  32.838  1.00  0.00     0.007 A 
ATOM     23  C   UNL     1      28.598  17.919  32.936  1.00  0.00     0.007 A 
ATOM     24  C   UNL     1      26.211  16.669  33.665  1.00  0.00     0.000 A 
ATOM     25  C   UNL     1      28.620  16.791  33.760  1.00  0.00     0.000 A 
ATOM     26  C   UNL     1      27.427  16.171  34.130  1.00  0.00     0.000 A 
ENDBRANCH  12  21
ENDBRANCH   1  12
TORSDOF 7
ENDMDL
MODEL 7
REMARK VINA RESULT:    -7.232      1.477      2.102
REMARK INTER + INTRA:         -10.610
REMARK INTER:                 -10.007
REMARK INTRA:                  -0.602
REMARK UNBOUND:                -0.629
REMARK SMILES CN1CCCN=C1COC(=O)C(O)(c1ccccc1)C1CCCCC1
REMARK SMILES IDX 10 1 11 2 9 3 8 4 7 5 1 6 2 7 3 8 4 9 6 10 5 11 12 12 13 13
REMARK SMILES IDX 20 15 21 16 25 17 22 18 24 19 23 20 14 21 15 22 19 23 16 24
REMARK SMILES IDX 18 25 17 26
REMARK H PARENT 13 14
REMARK Flexibility Score: inf
ROOT
ATOM      1  C   UNL     1      26.288  21.662  33.755  1.00  0.00     0.343 C 
ATOM      2  O   UNL     1      25.599  22.465  33.066  1.00  0.00    -0.248 OA
ENDROOT
BRANCH   1   3
ATOM      3  O   UNL     1      26.020  21.506  35.120  1.00  0.00    -0.455 OA
BRANCH   3   4
ATOM      4  C   UNL     1      26.426  22.441  36.116  1.00  0.00     0.307 C 
BRANCH   4   5
ATOM      5  C   UNL     1      25.236  22.863  36.939  1.00  0.00     0.137 C 
ATOM      6  C   UNL     1      26.492  22.675  39.137  1.00  0.00     0.145 C 
ATOM      7  N   UNL     1      25.239  22.807  38.389  1.00  0.00    -0.360 N 
ATOM      8  C   UNL     1      24.007  23.074  39.148  1.00  0.00     0.119 C 
ATOM      9  C   UNL     1      22.758  22.877  38.288  1.00  0.00     0.045 C 
ATOM     10  N   UNL     1      24.154  23.205  36.301  1.00  0.00    -0.269 NA
ATOM     11  C   UNL     1      22.928  23.627  36.971  1.00  0.00     0.146 C 
ENDBRANCH   4   5
ENDBRANCH   3   4
ENDBRANCH   1   3
BRANCH   1  12
ATOM     12  C   UNL     1      27.433  20.886  33.105  1.00  0.00     0.190 C 
BRANCH  12  13
ATOM     13  O   UNL     1      28.657  21.435  33.545  1.00  0.00    -0.374 OA
ATOM     14  H   UNL     1      29.222  20.694  33.892  1.00  0.00     0.212 HD
ENDBRANCH  12  13
BRANCH  12  15
ATOM     15  C   UNL     1      27.400  19.390  33.587  1.00  0.00     0.037 C 
ATOM     16  C   UNL     1      28.487  18.486  32.925  1.00  0.00     0.007 C 
ATOM     17  C   UNL     1      25.991  18.760  33.468  1.00  0.00     0.007 C 
ATOM     18  C   UNL     1      28.067  17.012  32.793  1.00  0.00     0.000 C 
ATOM     19  C   UNL     1      25.925  17.368  34.124  1.00  0.00     0.000 C 
ATOM     20  C   UNL     1      27.233  16.563  33.996  1.00  0.00     0.000 C 
ENDBRANCH  12  15
BRANCH  12  21
ATOM     21  C   UNL     1      27.406  20.963  31.564  1.00  0.00    -0.005 A 
ATOM     22  C   UNL     1      26.551  20.164  30.769  1.00  0.00     0.007 A 
ATOM     23  C   UNL     1      28.217  21.916  30.910  1.00  0.00     0.007 A 
ATOM     24  C   UNL     1      26.552  20.283  29.376  1.00  0.00     0.000 A 
ATOM     25  C   UNL     1      28.212  22.030  29.518  1.00  0.00     0.000 A 
ATOM     26  C   UNL     1      27.386  21.209  28.751  1.00  0.00     0.000 A 
ENDBRANCH  12  21
ENDBRANCH   1  12
TORSDOF 7
ENDMDL
MODEL 8
REMARK VINA RESULT:    -7.220     13.275     15.921
REMARK INTER + INTRA:         -10.592
REMARK INTER:                  -9.515
REMARK INTRA:                  -1.077
REMARK UNBOUND:                -0.629
REMARK SMILES CN1CCCN=C1COC(=O)C(O)(c1ccccc1)C1CCCCC1
REMARK SMILES IDX 10 1 11 2 9 3 8 4 7 5 1 6 2 7 3 8 4 9 6 10 5 11 12 12 13 13
REMARK SMILES IDX 20 15 21 16 25 17 22 18 24 19 23 20 14 21 15 22 19 23 16 24
REMARK SMILES IDX 18 25 17 26
REMARK H PARENT 13 14
REMARK Flexibility Score: inf
ROOT
ATOM      1  C   UNL     1      11.623  20.962  35.237  1.00  0.00     0.343 C 
ATOM      2  O   UNL     1      10.869  21.932  35.527  1.00  0.00    -0.248 OA
ENDROOT
BRANCH   1   3
ATOM      3  O   UNL     1      12.984  21.185  34.993  1.00  0.00    -0.455 OA
BRANCH   3   4
ATOM      4  C   UNL     1      13.870  21.772  35.943  1.00  0.00     0.307 C 
BRANCH   4   5
ATOM      5  C   UNL     1      13.949  20.908  37.175  1.00  0.00     0.137 C 
ATOM      6  C   UNL     1      13.399  22.825  38.746  1.00  0.00     0.145 C 
ATOM      7  N   UNL     1      13.886  21.462  38.514  1.00  0.00    -0.360 N 
ATOM      8  C   UNL     1      14.129  20.607  39.687  1.00  0.00     0.119 C 
ATOM      9  C   UNL     1      14.918  19.350  39.318  1.00  0.00     0.045 C 
ATOM     10  N   UNL     1      14.165  19.636  37.004  1.00  0.00    -0.269 NA
ATOM     11  C   UNL     1      14.272  18.685  38.106  1.00  0.00     0.146 C 
ENDBRANCH   4   5
ENDBRANCH   3   4
ENDBRANCH   1   3
BRANCH   1  12
ATOM     12  C   UNL     1      11.045  19.552  35.123  1.00  0.00     0.190 C 
BRANCH  12  13
ATOM     13  O   UNL     1      12.093  18.659  34.809  1.00  0.00    -0.374 OA
ATOM     14  H   UNL     1      12.495  18.944  33.945  1.00  0.00     0.212 HD
ENDBRANCH  12  13
BRANCH  12  15
ATOM     15  C   UNL     1      10.460  19.104  36.511  1.00  0.00     0.037 C 
ATOM     16  C   UNL     1      10.572  20.190  37.626  1.00  0.00     0.007 C 
ATOM     17  C   UNL     1      11.032  17.746  36.985  1.00  0.00     0.007 C 
ATOM     18  C   UNL     1      10.700  19.608  39.045  1.00  0.00     0.000 C 
ATOM     19  C   UNL     1      10.309  17.222  38.240  1.00  0.00     0.000 C 
ATOM     20  C   UNL     1       9.857  18.339  39.202  1.00  0.00     0.000 C 
ENDBRANCH  12  15
BRANCH  12  21
ATOM     21  C   UNL     1       9.976  19.435  34.017  1.00  0.00    -0.005 A 
ATOM     22  C   UNL     1       9.932  20.296  32.895  1.00  0.00     0.007 A 
ATOM     23  C   UNL     1       9.034  18.384  34.081  1.00  0.00     0.007 A 
ATOM     24  C   UNL     1       8.952  20.138  31.911  1.00  0.00     0.000 A 
ATOM     25  C   UNL     1       8.059  18.231  33.092  1.00  0.00     0.000 A 
ATOM     26  C   UNL     1       8.013  19.112  32.012  1.00  0.00     0.000 A 
ENDBRANCH  12  21
ENDBRANCH   1  12
TORSDOF 7
ENDMDL
MODEL 9
REMARK VINA RESULT:    -7.211      3.965      6.480
REMARK INTER + INTRA:         -10.581
REMARK INTER:                  -9.744
REMARK INTRA:                  -0.837
REMARK UNBOUND:                -0.629
REMARK SMILES CN1CCCN=C1COC(=O)C(O)(c1ccccc1)C1CCCCC1
REMARK SMILES IDX 10 1 11 2 9 3 8 4 7 5 1 6 2 7 3 8 4 9 6 10 5 11 12 12 13 13
REMARK SMILES IDX 20 15 21 16 25 17 22 18 24 19 23 20 14 21 15 22 19 23 16 24
REMARK SMILES IDX 18 25 17 26
REMARK H PARENT 13 14
REMARK Flexibility Score: inf
ROOT
ATOM      1  C   UNL     1      26.462  17.773  31.305  1.00  0.00     0.343 C 
ATOM      2  O   UNL     1      25.962  16.866  30.584  1.00  0.00    -0.248 OA
ENDROOT
BRANCH   1   3
ATOM      3  O   UNL     1      26.816  17.495  32.631  1.00  0.00    -0.455 OA
BRANCH   3   4
ATOM      4  C   UNL     1      25.867  17.246  33.665  1.00  0.00     0.307 C 
BRANCH   4   5
ATOM      5  C   UNL     1      26.058  15.855  34.212  1.00  0.00     0.137 C 
ATOM      6  C   UNL     1      23.984  14.948  33.062  1.00  0.00     0.145 C 
ATOM      7  N   UNL     1      25.059  14.815  34.049  1.00  0.00    -0.360 N 
ATOM      8  C   UNL     1      25.211  13.521  34.734  1.00  0.00     0.119 C 
ATOM      9  C   UNL     1      26.150  13.624  35.937  1.00  0.00     0.045 C 
ATOM     10  N   UNL     1      27.126  15.628  34.922  1.00  0.00    -0.269 NA
ATOM     11  C   UNL     1      27.434  14.332  35.517  1.00  0.00     0.146 C 
ENDBRANCH   4   5
ENDBRANCH   3   4
ENDBRANCH   1   3
BRANCH   1  12
ATOM     12  C   UNL     1      26.652  19.180  30.740  1.00  0.00     0.190 C 
BRANCH  12  13
ATOM     13  O   UNL     1      25.655  19.414  29.769  1.00  0.00    -0.374 OA
ATOM     14  H   UNL     1      24.795  19.579  30.241  1.00  0.00     0.212 HD
ENDBRANCH  12  13
BRANCH  12  15
ATOM     15  C   UNL     1      26.442  20.242  31.880  1.00  0.00     0.037 C 
ATOM     16  C   UNL     1      25.823  21.587  31.388  1.00  0.00     0.007 C 
ATOM     17  C   UNL     1      27.726  20.481  32.712  1.00  0.00     0.007 C 
ATOM     18  C   UNL     1      26.252  22.807  32.222  1.00  0.00     0.000 C 
ATOM     19  C   UNL     1      27.459  21.368  33.942  1.00  0.00     0.000 C 
ATOM     20  C   UNL     1      26.384  22.446  33.704  1.00  0.00     0.000 C 
ENDBRANCH  12  15
BRANCH  12  21
ATOM     21  C   UNL     1      28.026  19.371  30.064  1.00  0.00    -0.005 A 
ATOM     22  C   UNL     1      29.058  18.406  30.134  1.00  0.00     0.007 A 
ATOM     23  C   UNL     1      28.252  20.525  29.282  1.00  0.00     0.007 A 
ATOM     24  C   UNL     1      30.280  18.618  29.490  1.00  0.00     0.000 A 
ATOM     25  C   UNL     1      29.475  20.729  28.639  1.00  0.00     0.000 A 
ATOM     26  C   UNL     1      30.491  19.781  28.749  1.00  0.00     0.000 A 
ENDBRANCH  12  21
ENDBRANCH   1  12
TORSDOF 7
ENDMDL
MODEL 10
REMARK VINA RESULT:    -7.196     14.134     16.529
REMARK INTER + INTRA:         -10.560
REMARK INTER:                  -9.171
REMARK INTRA:                  -1.389
REMARK UNBOUND:                -0.629
REMARK SMILES CN1CCCN=C1COC(=O)C(O)(c1ccccc1)C1CCCCC1
REMARK SMILES IDX 10 1 11 2 9 3 8 4 7 5 1 6 2 7 3 8 4 9 6 10 5 11 12 12 13 13
REMARK SMILES IDX 20 15 21 16 25 17 22 18 24 19 23 20 14 21 15 22 19 23 16 24
REMARK SMILES IDX 18 25 17 26
REMARK H PARENT 13 14
REMARK Flexibility Score: inf
ROOT
ATOM      1  C   UNL     1      12.514  20.320  35.332  1.00  0.00     0.343 C 
ATOM      2  O   UNL     1      12.770  19.421  34.484  1.00  0.00    -0.248 OA
ENDROOT
BRANCH   1   3
ATOM      3  O   UNL     1      11.785  21.452  34.951  1.00  0.00    -0.455 OA
BRANCH   3   4
ATOM      4  C   UNL     1      10.559  21.394  34.226  1.00  0.00     0.307 C 
BRANCH   4   5
ATOM      5  C   UNL     1       9.504  20.709  35.056  1.00  0.00     0.137 C 
ATOM      6  C   UNL     1       9.448  18.651  33.570  1.00  0.00     0.145 C 
ATOM      7  N   UNL     1       8.867  19.475  34.633  1.00  0.00    -0.360 N 
ATOM      8  C   UNL     1       7.731  18.925  35.391  1.00  0.00     0.119 C 
ATOM      9  C   UNL     1       7.042  19.998  36.236  1.00  0.00     0.045 C 
ATOM     10  N   UNL     1       9.109  21.309  36.141  1.00  0.00    -0.269 NA
ATOM     11  C   UNL     1       8.091  20.764  37.034  1.00  0.00     0.146 C 
ENDBRANCH   4   5
ENDBRANCH   3   4
ENDBRANCH   1   3
BRANCH   1  12
ATOM     12  C   UNL     1      13.028  20.186  36.765  1.00  0.00     0.190 C 
BRANCH  12  13
ATOM     13  O   UNL     1      14.439  20.222  36.743  1.00  0.00    -0.374 OA
ATOM     14  H   UNL     1      14.769  20.024  37.660  1.00  0.00     0.212 HD
ENDBRANCH  12  13
BRANCH  12  15
ATOM     15  C   UNL     1      12.551  21.418  37.617  1.00  0.00     0.037 C 
ATOM     16  C   UNL     1      13.714  22.312  38.147  1.00  0.00     0.007 C 
ATOM     17  C   UNL     1      11.585  21.011  38.757  1.00  0.00     0.007 C 
ATOM     18  C   UNL     1      13.394  23.018  39.476  1.00  0.00     0.000 C 
ATOM     19  C   UNL     1      10.969  22.238  39.456  1.00  0.00     0.000 C 
ATOM     20  C   UNL     1      11.924  23.444  39.537  1.00  0.00     0.000 C 
ENDBRANCH  12  15
BRANCH  12  21
ATOM     21  C   UNL     1      12.598  18.863  37.431  1.00  0.00    -0.005 A 
ATOM     22  C   UNL     1      11.420  18.167  37.070  1.00  0.00     0.007 A 
ATOM     23  C   UNL     1      13.443  18.274  38.397  1.00  0.00     0.007 A 
ATOM     24  C   UNL     1      11.082  16.962  37.693  1.00  0.00     0.000 A 
ATOM     25  C   UNL     1      13.100  17.068  39.014  1.00  0.00     0.000 A 
ATOM     26  C   UNL     1      11.917  16.417  38.668  1.00  0.00     0.000 A 
ENDBRANCH  12  21
ENDBRANCH   1  12
TORSDOF 7
ENDMDL
MODEL 11
REMARK VINA RESULT:    -7.192      4.297      7.287
REMARK INTER + INTRA:         -10.554
REMARK INTER:                  -9.812
REMARK INTRA:                  -0.742
REMARK UNBOUND:                -0.629
REMARK SMILES CN1CCCN=C1COC(=O)C(O)(c1ccccc1)C1CCCCC1
REMARK SMILES IDX 10 1 11 2 9 3 8 4 7 5 1 6 2 7 3 8 4 9 6 10 5 11 12 12 13 13
REMARK SMILES IDX 20 15 21 16 25 17 22 18 24 19 23 20 14 21 15 22 19 23 16 24
REMARK SMILES IDX 18 25 17 26
REMARK H PARENT 13 14
REMARK Flexibility Score: inf
ROOT
ATOM      1  C   UNL     1      26.308  18.077  31.393  1.00  0.00     0.343 C 
ATOM      2  O   UNL     1      26.375  17.919  32.643  1.00  0.00    -0.248 OA
ENDROOT
BRANCH   1   3
ATOM      3  O   UNL     1      26.094  16.973  30.560  1.00  0.00    -0.455 OA
BRANCH   3   4
ATOM      4  C   UNL     1      26.176  15.621  31.005  1.00  0.00     0.307 C 
BRANCH   4   5
ATOM      5  C   UNL     1      24.793  15.037  31.133  1.00  0.00     0.137 C 
ATOM      6  C   UNL     1      24.880  13.927  28.852  1.00  0.00     0.145 C 
ATOM      7  N   UNL     1      24.128  14.372  30.028  1.00  0.00    -0.360 N 
ATOM      8  C   UNL     1      22.721  13.958  30.144  1.00  0.00     0.119 C 
ATOM      9  C   UNL     1      21.990  14.741  31.236  1.00  0.00     0.045 C 
ATOM     10  N   UNL     1      24.164  15.222  32.257  1.00  0.00    -0.269 NA
ATOM     11  C   UNL     1      22.819  14.718  32.516  1.00  0.00     0.146 C 
ENDBRANCH   4   5
ENDBRANCH   3   4
ENDBRANCH   1   3
BRANCH   1  12
ATOM     12  C   UNL     1      26.492  19.468  30.788  1.00  0.00     0.190 C 
BRANCH  12  13
ATOM     13  O   UNL     1      25.503  19.665  29.800  1.00  0.00    -0.374 OA
ATOM     14  H   UNL     1      25.941  19.614  28.909  1.00  0.00     0.212 HD
ENDBRANCH  12  13
BRANCH  12  15
ATOM     15  C   UNL     1      26.262  20.562  31.894  1.00  0.00     0.037 C 
ATOM     16  C   UNL     1      25.773  21.935  31.336  1.00  0.00     0.007 C 
ATOM     17  C   UNL     1      27.489  20.733  32.823  1.00  0.00     0.007 C 
ATOM     18  C   UNL     1      26.213  23.139  32.186  1.00  0.00     0.000 C 
ATOM     19  C   UNL     1      27.183  21.657  34.017  1.00  0.00     0.000 C 
ATOM     20  C   UNL     1      26.203  22.797  33.679  1.00  0.00     0.000 C 
ENDBRANCH  12  15
BRANCH  12  21
ATOM     21  C   UNL     1      27.871  19.650  30.120  1.00  0.00    -0.005 A 
ATOM     22  C   UNL     1      28.940  18.741  30.303  1.00  0.00     0.007 A 
ATOM     23  C   UNL     1      28.067  20.731  29.232  1.00  0.00     0.007 A 
ATOM     24  C   UNL     1      30.166  18.942  29.663  1.00  0.00     0.000 A 
ATOM     25  C   UNL     1      29.295  20.924  28.594  1.00  0.00     0.000 A 
ATOM     26  C   UNL     1      30.346  20.034  28.815  1.00  0.00     0.000 A 
ENDBRANCH  12  21
ENDBRANCH   1  12
TORSDOF 7
ENDMDL
MODEL 12
REMARK VINA RESULT:    -7.189     13.094     16.044
REMARK INTER + INTRA:         -10.550
REMARK INTER:                  -9.029
REMARK INTRA:                  -1.521
REMARK UNBOUND:                -0.629
REMARK SMILES CN1CCCN=C1COC(=O)C(O)(c1ccccc1)C1CCCCC1
REMARK SMILES IDX 10 1 11 2 9 3 8 4 7 5 1 6 2 7 3 8 4 9 6 10 5 11 12 12 13 13
REMARK SMILES IDX 20 15 21 16 25 17 22 18 24 19 23 20 14 21 15 22 19 23 16 24
REMARK SMILES IDX 18 25 17 26
REMARK H PARENT 13 14
REMARK Flexibility Score: inf
ROOT
ATOM      1  C   UNL     1      12.183  20.437  35.199  1.00  0.00     0.343 C 
ATOM      2  O   UNL     1      12.648  19.414  34.623  1.00  0.00    -0.248 OA
ENDROOT
BRANCH   1   3
ATOM      3  O   UNL     1      12.980  21.579  35.342  1.00  0.00    -0.455 OA
BRANCH   3   4
ATOM      4  C   UNL     1      14.114  21.647  36.203  1.00  0.00     0.307 C 
BRANCH   4   5
ATOM      5  C   UNL     1      13.680  21.502  37.638  1.00  0.00     0.137 C 
ATOM      6  C   UNL     1      14.902  19.299  37.950  1.00  0.00     0.145 C 
ATOM      7  N   UNL     1      13.927  20.294  38.404  1.00  0.00    -0.360 N 
ATOM      8  C   UNL     1      13.347  20.131  39.747  1.00  0.00     0.119 C 
ATOM      9  C   UNL     1      12.138  21.043  39.956  1.00  0.00     0.045 C 
ATOM     10  N   UNL     1      12.988  22.474  38.159  1.00  0.00    -0.269 NA
ATOM     11  C   UNL     1      12.497  22.464  39.533  1.00  0.00     0.146 C 
ENDBRANCH   4   5
ENDBRANCH   3   4
ENDBRANCH   1   3
BRANCH   1  12
ATOM     12  C   UNL     1      10.764  20.417  35.765  1.00  0.00     0.190 C 
BRANCH  12  13
ATOM     13  O   UNL     1      10.472  21.691  36.297  1.00  0.00    -0.374 OA
ATOM     14  H   UNL     1      10.435  21.613  37.288  1.00  0.00     0.212 HD
ENDBRANCH  12  13
BRANCH  12  15
ATOM     15  C   UNL     1       9.735  20.155  34.607  1.00  0.00     0.037 C 
ATOM     16  C   UNL     1       9.324  18.658  34.449  1.00  0.00     0.007 C 
ATOM     17  C   UNL     1      10.194  20.761  33.258  1.00  0.00     0.007 C 
ATOM     18  C   UNL     1       8.951  18.269  33.008  1.00  0.00     0.000 C 
ATOM     19  C   UNL     1       9.095  20.674  32.183  1.00  0.00     0.000 C 
ATOM     20  C   UNL     1       8.220  19.411  32.296  1.00  0.00     0.000 C 
ENDBRANCH  12  15
BRANCH  12  21
ATOM     21  C   UNL     1      10.589  19.380  36.895  1.00  0.00    -0.005 A 
ATOM     22  C   UNL     1      11.465  18.284  37.076  1.00  0.00     0.007 A 
ATOM     23  C   UNL     1       9.553  19.561  37.838  1.00  0.00     0.007 A 
ATOM     24  C   UNL     1      11.272  17.381  38.125  1.00  0.00     0.000 A 
ATOM     25  C   UNL     1       9.368  18.656  38.885  1.00  0.00     0.000 A 
ATOM     26  C   UNL     1      10.222  17.562  39.025  1.00  0.00     0.000 A 
ENDBRANCH  12  21
ENDBRANCH   1  12
TORSDOF 7
ENDMDL
MODEL 13
REMARK VINA RESULT:    -7.147      3.927      7.055
REMARK INTER + INTRA:         -10.491
REMARK INTER:                  -9.669
REMARK INTRA:                  -0.822
REMARK UNBOUND:                -0.629
REMARK SMILES CN1CCCN=C1COC(=O)C(O)(c1ccccc1)C1CCCCC1
REMARK SMILES IDX 10 1 11 2 9 3 8 4 7 5 1 6 2 7 3 8 4 9 6 10 5 11 12 12 13 13
REMARK SMILES IDX 20 15 21 16 25 17 22 18 24 19 23 20 14 21 15 22 19 23 16 24
REMARK SMILES IDX 18 25 17 26
REMARK H PARENT 13 14
REMARK Flexibility Score: inf
ROOT
ATOM      1  C   UNL     1      26.393  18.221  31.500  1.00  0.00     0.343 C 
ATOM      2  O   UNL     1      26.178  18.139  32.741  1.00  0.00    -0.248 OA
ENDROOT
BRANCH   1   3
ATOM      3  O   UNL     1      26.600  17.057  30.750  1.00  0.00    -0.455 OA
BRANCH   3   4
ATOM      4  C   UNL     1      26.878  15.784  31.328  1.00  0.00     0.307 C 
BRANCH   4   5
ATOM      5  C   UNL     1      28.342  15.685  31.673  1.00  0.00     0.137 C 
ATOM      6  C   UNL     1      27.917  15.753  34.175  1.00  0.00     0.145 C 
ATOM      7  N   UNL     1      28.829  15.840  33.032  1.00  0.00    -0.360 N 
ATOM      8  C   UNL     1      30.274  15.896  33.303  1.00  0.00     0.119 C 
ATOM      9  C   UNL     1      31.069  16.296  32.059  1.00  0.00     0.045 C 
ATOM     10  N   UNL     1      29.183  15.539  30.691  1.00  0.00    -0.269 NA
ATOM     11  C   UNL     1      30.627  15.436  30.879  1.00  0.00     0.146 C 
ENDBRANCH   4   5
ENDBRANCH   3   4
ENDBRANCH   1   3
BRANCH   1  12
ATOM     12  C   UNL     1      26.458  19.590  30.825  1.00  0.00     0.190 C 
BRANCH  12  13
ATOM     13  O   UNL     1      25.415  19.675  29.877  1.00  0.00    -0.374 OA
ATOM     14  H   UNL     1      25.633  20.409  29.242  1.00  0.00     0.212 HD
ENDBRANCH  12  13
BRANCH  12  15
ATOM     15  C   UNL     1      26.206  20.718  31.889  1.00  0.00     0.037 C 
ATOM     16  C   UNL     1      25.749  22.078  31.276  1.00  0.00     0.007 C 
ATOM     17  C   UNL     1      27.406  20.905  32.850  1.00  0.00     0.007 C 
ATOM     18  C   UNL     1      26.177  23.304  32.103  1.00  0.00     0.000 C 
ATOM     19  C   UNL     1      27.074  21.868  34.006  1.00  0.00     0.000 C 
ATOM     20  C   UNL     1      26.117  23.007  33.604  1.00  0.00     0.000 C 
ENDBRANCH  12  15
BRANCH  12  21
ATOM     21  C   UNL     1      27.791  19.827  30.084  1.00  0.00    -0.005 A 
ATOM     22  C   UNL     1      27.969  20.860  29.134  1.00  0.00     0.007 A 
ATOM     23  C   UNL     1      28.909  19.028  30.410  1.00  0.00     0.007 A 
ATOM     24  C   UNL     1      29.202  21.043  28.501  1.00  0.00     0.000 A 
ATOM     25  C   UNL     1      30.138  19.219  29.775  1.00  0.00     0.000 A 
ATOM     26  C   UNL     1      30.283  20.221  28.816  1.00  0.00     0.000 A 
ENDBRANCH  12  21
ENDBRANCH   1  12
TORSDOF 7
ENDMDL
MODEL 14
REMARK VINA RESULT:    -7.142     12.776     15.691
REMARK INTER + INTRA:         -10.486
REMARK INTER:                 -10.373
REMARK INTRA:                  -0.113
REMARK UNBOUND:                -0.629
REMARK SMILES CN1CCCN=C1COC(=O)C(O)(c1ccccc1)C1CCCCC1
REMARK SMILES IDX 10 1 11 2 9 3 8 4 7 5 1 6 2 7 3 8 4 9 6 10 5 11 12 12 13 13
REMARK SMILES IDX 20 15 21 16 25 17 22 18 24 19 23 20 14 21 15 22 19 23 16 24
REMARK SMILES IDX 18 25 17 26
REMARK H PARENT 13 14
REMARK Flexibility Score: inf
ROOT
ATOM      1  C   UNL     1      13.637  25.073  39.751  1.00  0.00     0.343 C 
ATOM      2  O   UNL     1      13.730  25.414  38.539  1.00  0.00    -0.248 OA
ENDROOT
BRANCH   1   3
ATOM      3  O   UNL     1      13.243  23.771  40.082  1.00  0.00    -0.455 OA
BRANCH   3   4
ATOM      4  C   UNL     1      12.193  23.072  39.419  1.00  0.00     0.307 C 
BRANCH   4   5
ATOM      5  C   UNL     1      12.758  21.904  38.652  1.00  0.00     0.137 C 
ATOM      6  C   UNL     1      12.098  20.216  40.429  1.00  0.00     0.145 C 
ATOM      7  N   UNL     1      12.852  20.574  39.225  1.00  0.00    -0.360 N 
ATOM      8  C   UNL     1      13.555  19.500  38.505  1.00  0.00     0.119 C 
ATOM      9  C   UNL     1      14.536  20.058  37.473  1.00  0.00     0.045 C 
ATOM     10  N   UNL     1      13.247  22.141  37.469  1.00  0.00    -0.269 NA
ATOM     11  C   UNL     1      13.830  21.108  36.620  1.00  0.00     0.146 C 
ENDBRANCH   4   5
ENDBRANCH   3   4
ENDBRANCH   1   3
BRANCH   1  12
ATOM     12  C   UNL     1      13.925  26.091  40.854  1.00  0.00     0.190 C 
BRANCH  12  13
ATOM     13  O   UNL     1      13.903  25.425  42.099  1.00  0.00    -0.374 OA
ATOM     14  H   UNL     1      14.752  24.916  42.193  1.00  0.00     0.212 HD
ENDBRANCH  12  13
BRANCH  12  15
ATOM     15  C   UNL     1      15.372  26.676  40.672  1.00  0.00     0.037 C 
ATOM     16  C   UNL     1      16.469  25.592  40.431  1.00  0.00     0.007 C 
ATOM     17  C   UNL     1      15.770  27.639  41.817  1.00  0.00     0.007 C 
ATOM     18  C   UNL     1      17.860  25.996  40.949  1.00  0.00     0.000 C 
ATOM     19  C   UNL     1      17.102  28.358  41.528  1.00  0.00     0.000 C 
ATOM     20  C   UNL     1      18.113  27.493  40.751  1.00  0.00     0.000 C 
ENDBRANCH  12  15
BRANCH  12  21
ATOM     21  C   UNL     1      12.880  27.225  40.906  1.00  0.00    -0.005 A 
ATOM     22  C   UNL     1      13.105  28.448  41.582  1.00  0.00     0.007 A 
ATOM     23  C   UNL     1      11.669  27.077  40.194  1.00  0.00     0.007 A 
ATOM     24  C   UNL     1      12.133  29.452  41.586  1.00  0.00     0.000 A 
ATOM     25  C   UNL     1      10.703  28.086  40.201  1.00  0.00     0.000 A 
ATOM     26  C   UNL     1      10.931  29.269  40.902  1.00  0.00     0.000 A 
ENDBRANCH  12  21
ENDBRANCH   1  12
TORSDOF 7
ENDMDL
MODEL 15
REMARK VINA RESULT:    -7.077      3.289      5.735
REMARK INTER + INTRA:         -10.395
REMARK INTER:                  -9.474
REMARK INTRA:                  -0.921
REMARK UNBOUND:                -0.629
REMARK SMILES CN1CCCN=C1COC(=O)C(O)(c1ccccc1)C1CCCCC1
REMARK SMILES IDX 10 1 11 2 9 3 8 4 7 5 1 6 2 7 3 8 4 9 6 10 5 11 12 12 13 13
REMARK SMILES IDX 20 15 21 16 25 17 22 18 24 19 23 20 14 21 15 22 19 23 16 24
REMARK SMILES IDX 18 25 17 26
REMARK H PARENT 13 14
REMARK Flexibility Score: inf
ROOT
ATOM      1  C   UNL     1      26.878  19.427  30.271  1.00  0.00     0.343 C 
ATOM      2  O   UNL     1      25.723  19.800  29.924  1.00  0.00    -0.248 OA
ENDROOT
BRANCH   1   3
ATOM      3  O   UNL     1      27.907  20.369  30.394  1.00  0.00    -0.455 OA
BRANCH   3   4
ATOM      4  C   UNL     1      28.341  20.904  31.641  1.00  0.00     0.307 C 
BRANCH   4   5
ATOM      5  C   UNL     1      27.769  22.285  31.834  1.00  0.00     0.137 C 
ATOM      6  C   UNL     1      26.615  21.674  34.011  1.00  0.00     0.145 C 
ATOM      7  N   UNL     1      26.812  22.587  32.883  1.00  0.00    -0.360 N 
ATOM      8  C   UNL     1      26.158  23.904  32.938  1.00  0.00     0.119 C 
ATOM      9  C   UNL     1      26.192  24.610  31.582  1.00  0.00     0.045 C 
ATOM     10  N   UNL     1      28.098  23.199  30.967  1.00  0.00    -0.269 NA
ATOM     11  C   UNL     1      27.613  24.574  31.028  1.00  0.00     0.146 C 
ENDBRANCH   4   5
ENDBRANCH   3   4
ENDBRANCH   1   3
BRANCH   1  12
ATOM     12  C   UNL     1      27.159  17.947  30.525  1.00  0.00     0.190 C 
BRANCH  12  13
ATOM     13  O   UNL     1      26.696  17.204  29.418  1.00  0.00    -0.374 OA
ATOM     14  H   UNL     1      26.744  16.238  29.650  1.00  0.00     0.212 HD
ENDBRANCH  12  13
BRANCH  12  15
ATOM     15  C   UNL     1      28.710  17.711  30.620  1.00  0.00     0.037 C 
ATOM     16  C   UNL     1      29.430  17.657  29.236  1.00  0.00     0.007 C 
ATOM     17  C   UNL     1      29.070  16.483  31.493  1.00  0.00     0.007 C 
ATOM     18  C   UNL     1      30.684  16.766  29.227  1.00  0.00     0.000 C 
ATOM     19  C   UNL     1      30.586  16.378  31.742  1.00  0.00     0.000 C 
ATOM     20  C   UNL     1      31.441  16.859  30.554  1.00  0.00     0.000 C 
ENDBRANCH  12  15
BRANCH  12  21
ATOM     21  C   UNL     1      26.448  17.413  31.785  1.00  0.00    -0.005 A 
ATOM     22  C   UNL     1      26.418  18.121  33.010  1.00  0.00     0.007 A 
ATOM     23  C   UNL     1      25.734  16.197  31.708  1.00  0.00     0.007 A 
ATOM     24  C   UNL     1      25.746  17.602  34.120  1.00  0.00     0.000 A 
ATOM     25  C   UNL     1      25.063  15.685  32.821  1.00  0.00     0.000 A 
ATOM     26  C   UNL     1      25.075  16.383  34.028  1.00  0.00     0.000 A 
ENDBRANCH  12  21
ENDBRANCH   1  12
TORSDOF 7
ENDMDL
