MODEL 1
REMARK VINA RESULT:    -1.049      0.000      0.000
REMARK INTER + INTRA:          -1.049
REMARK INTER:                  -1.049
REMARK INTRA:                   0.000
REMARK UNBOUND:                 0.000
REMARK SMILES C[N+]1(C)C2CCC1CC(OC(=O)C(O)c1ccccc1)C2.[Br-]
REMARK SMILES IDX 22 1
REMARK H PARENT
REMARK Flexibility Score: inf
ROOT
ATOM      1  Br  UNL     1      16.650  33.537  26.131  1.00  0.00    -1.000 Br
ENDROOT
TORSDOF 0
ENDMDL
MODEL 2
REMARK VINA RESULT:    -0.941     20.556     20.556
REMARK INTER + INTRA:          -0.941
REMARK INTER:                  -0.941
REMARK INTRA:                   0.000
REMARK UNBOUND:                 0.000
REMARK SMILES C[N+]1(C)C2CCC1CC(OC(=O)C(O)c1ccccc1)C2.[Br-]
REMARK SMILES IDX 22 1
REMARK H PARENT
REMARK Flexibility Score: inf
ROOT
ATOM      1  Br  UNL     1      14.879  28.694   6.233  1.00  0.00    -1.000 Br
ENDROOT
TORSDOF 0
ENDMDL
MODEL 3
REMARK VINA RESULT:    -0.933     25.427     25.427
REMARK INTER + INTRA:          -0.933
REMARK INTER:                  -0.933
REMARK INTRA:                   0.000
REMARK UNBOUND:                 0.000
REMARK SMILES C[N+]1(C)C2CCC1CC(OC(=O)C(O)c1ccccc1)C2.[Br-]
REMARK SMILES IDX 22 1
REMARK H PARENT
REMARK Flexibility Score: inf
ROOT
ATOM      1  Br  UNL     1      29.649  19.588   9.310  1.00  0.00    -1.000 Br
ENDROOT
TORSDOF 0
ENDMDL
MODEL 4
REMARK VINA RESULT:    -0.878     26.911     26.911
REMARK INTER + INTRA:          -0.878
REMARK INTER:                  -0.878
REMARK INTRA:                   0.000
REMARK UNBOUND:                 0.000
REMARK SMILES C[N+]1(C)C2CCC1CC(OC(=O)C(O)c1ccccc1)C2.[Br-]
REMARK SMILES IDX 22 1
REMARK H PARENT
REMARK Flexibility Score: inf
ROOT
ATOM      1  Br  UNL     1      18.655  24.521   0.856  1.00  0.00    -1.000 Br
ENDROOT
TORSDOF 0
ENDMDL
MODEL 5
REMARK VINA RESULT:    -0.827     10.477     10.477
REMARK INTER + INTRA:          -0.827
REMARK INTER:                  -0.827
REMARK INTRA:                   0.000
REMARK UNBOUND:                 0.000
REMARK SMILES C[N+]1(C)C2CCC1CC(OC(=O)C(O)c1ccccc1)C2.[Br-]
REMARK SMILES IDX 22 1
REMARK H PARENT
REMARK Flexibility Score: inf
ROOT
ATOM      1  Br  UNL     1      14.343  34.287  15.939  1.00  0.00    -1.000 Br
ENDROOT
TORSDOF 0
ENDMDL
MODEL 6
REMARK VINA RESULT:    -0.826     28.160     28.160
REMARK INTER + INTRA:          -0.826
REMARK INTER:                  -0.826
REMARK INTRA:                   0.000
REMARK UNBOUND:                 0.000
REMARK SMILES C[N+]1(C)C2CCC1CC(OC(=O)C(O)c1ccccc1)C2.[Br-]
REMARK SMILES IDX 22 1
REMARK H PARENT
REMARK Flexibility Score: inf
ROOT
ATOM      1  Br  UNL     1      23.181  34.141  -1.254  1.00  0.00    -1.000 Br
ENDROOT
TORSDOF 0
ENDMDL
MODEL 7
REMARK VINA RESULT:    -0.820     18.944     18.944
REMARK INTER + INTRA:          -0.820
REMARK INTER:                  -0.820
REMARK INTRA:                   0.000
REMARK UNBOUND:                 0.000
REMARK SMILES C[N+]1(C)C2CCC1CC(OC(=O)C(O)c1ccccc1)C2.[Br-]
REMARK SMILES IDX 22 1
REMARK H PARENT
REMARK Flexibility Score: inf
ROOT
ATOM      1  Br  UNL     1      14.274  29.706   7.732  1.00  0.00    -1.000 Br
ENDROOT
TORSDOF 0
ENDMDL
MODEL 8
REMARK VINA RESULT:    -0.819     21.789     21.789
REMARK INTER + INTRA:          -0.819
REMARK INTER:                  -0.819
REMARK INTRA:                   0.000
REMARK UNBOUND:                 0.000
REMARK SMILES C[N+]1(C)C2CCC1CC(OC(=O)C(O)c1ccccc1)C2.[Br-]
REMARK SMILES IDX 22 1
REMARK H PARENT
REMARK Flexibility Score: inf
ROOT
ATOM      1  Br  UNL     1       3.994  29.441   8.874  1.00  0.00    -1.000 Br
ENDROOT
TORSDOF 0
ENDMDL
MODEL 9
REMARK VINA RESULT:    -0.772      8.269      8.269
REMARK INTER + INTRA:          -0.772
REMARK INTER:                  -0.772
REMARK INTRA:                   0.000
REMARK UNBOUND:                 0.000
REMARK SMILES C[N+]1(C)C2CCC1CC(OC(=O)C(O)c1ccccc1)C2.[Br-]
REMARK SMILES IDX 22 1
REMARK H PARENT
REMARK Flexibility Score: inf
ROOT
ATOM      1  Br  UNL     1      14.869  36.119  18.480  1.00  0.00    -1.000 Br
ENDROOT
TORSDOF 0
ENDMDL
MODEL 10
REMARK VINA RESULT:    -0.770     21.265     21.265
REMARK INTER + INTRA:          -0.770
REMARK INTER:                  -0.770
REMARK INTRA:                   0.000
REMARK UNBOUND:                 0.000
REMARK SMILES C[N+]1(C)C2CCC1CC(OC(=O)C(O)c1ccccc1)C2.[Br-]
REMARK SMILES IDX 22 1
REMARK H PARENT
REMARK Flexibility Score: inf
ROOT
ATOM      1  Br  UNL     1      31.236  30.704  10.920  1.00  0.00    -1.000 Br
ENDROOT
TORSDOF 0
ENDMDL
MODEL 11
REMARK VINA RESULT:    -0.766     24.300     24.300
REMARK INTER + INTRA:          -0.766
REMARK INTER:                  -0.766
REMARK INTRA:                   0.000
REMARK UNBOUND:                 0.000
REMARK SMILES C[N+]1(C)C2CCC1CC(OC(=O)C(O)c1ccccc1)C2.[Br-]
REMARK SMILES IDX 22 1
REMARK H PARENT
REMARK Flexibility Score: inf
ROOT
ATOM      1  Br  UNL     1      29.971  27.937   6.595  1.00  0.00    -1.000 Br
ENDROOT
TORSDOF 0
ENDMDL
MODEL 12
REMARK VINA RESULT:    -0.761     15.684     15.684
REMARK INTER + INTRA:          -0.761
REMARK INTER:                  -0.761
REMARK INTRA:                   0.000
REMARK UNBOUND:                 0.000
REMARK SMILES C[N+]1(C)C2CCC1CC(OC(=O)C(O)c1ccccc1)C2.[Br-]
REMARK SMILES IDX 22 1
REMARK H PARENT
REMARK Flexibility Score: inf
ROOT
ATOM      1  Br  UNL     1      16.646  34.608  10.484  1.00  0.00    -1.000 Br
ENDROOT
TORSDOF 0
ENDMDL
MODEL 13
REMARK VINA RESULT:    -0.758     18.355     18.355
REMARK INTER + INTRA:          -0.758
REMARK INTER:                  -0.758
REMARK INTRA:                   0.000
REMARK UNBOUND:                 0.000
REMARK SMILES C[N+]1(C)C2CCC1CC(OC(=O)C(O)c1ccccc1)C2.[Br-]
REMARK SMILES IDX 22 1
REMARK H PARENT
REMARK Flexibility Score: inf
ROOT
ATOM      1  Br  UNL     1      16.855  33.172   7.781  1.00  0.00    -1.000 Br
ENDROOT
TORSDOF 0
ENDMDL
MODEL 14
REMARK VINA RESULT:    -0.733     19.644     19.644
REMARK INTER + INTRA:          -0.733
REMARK INTER:                  -0.733
REMARK INTRA:                   0.000
REMARK UNBOUND:                 0.000
REMARK SMILES C[N+]1(C)C2CCC1CC(OC(=O)C(O)c1ccccc1)C2.[Br-]
REMARK SMILES IDX 22 1
REMARK H PARENT
REMARK Flexibility Score: inf
ROOT
ATOM      1  Br  UNL     1       7.403  29.324   9.320  1.00  0.00    -1.000 Br
ENDROOT
TORSDOF 0
ENDMDL
MODEL 15
REMARK VINA RESULT:    -0.715     18.264     18.264
REMARK INTER + INTRA:          -0.715
REMARK INTER:                  -0.715
REMARK INTRA:                   0.000
REMARK UNBOUND:                 0.000
REMARK SMILES C[N+]1(C)C2CCC1CC(OC(=O)C(O)c1ccccc1)C2.[Br-]
REMARK SMILES IDX 22 1
REMARK H PARENT
REMARK Flexibility Score: inf
ROOT
ATOM      1  Br  UNL     1       6.741  45.085  16.029  1.00  0.00    -1.000 Br
ENDROOT
TORSDOF 0
ENDMDL
