MODEL 1
REMARK VINA RESULT:   -10.565      0.000      0.000
REMARK INTER + INTRA:         -14.455
REMARK INTER:                 -14.271
REMARK INTRA:                  -0.184
REMARK UNBOUND:                -0.184
REMARK SMILES CNC(=O)c1cc(Oc2ccc(NC(=O)Nc3ccc(Cl)c(C(F)(F)F)c3)cc2)ccn1
REMARK SMILES IDX 9 1 10 2 11 3 12 4 28 5 29 6 8 7 7 8 5 9 32 10 6 11 31 12
REMARK SMILES IDX 30 13 3 14 1 15 2 16 4 18 13 19 14 20 15 22 16 23 17 25
REMARK SMILES IDX 27 26 18 27 22 28 19 29 20 30 21 31 23 32 24 33 25 34 26 35
REMARK H PARENT 2 17 13 21 16 24
REMARK Flexibility Score: inf
ROOT
ATOM      1  C   UNL     1     -81.459 -19.990  85.443  1.00  0.00     0.127 A 
ATOM      2  C   UNL     1     -81.060 -19.037  84.500  1.00  0.00     0.049 A 
ATOM      3  C   UNL     1     -79.707 -18.723  84.341  1.00  0.00     0.030 A 
ATOM      4  C   UNL     1     -78.729 -19.380  85.100  1.00  0.00     0.043 A 
ATOM      5  C   UNL     1     -79.130 -20.337  86.049  1.00  0.00     0.030 A 
ATOM      6  C   UNL     1     -80.482 -20.650  86.210  1.00  0.00     0.049 A 
ENDROOT
BRANCH   1   7
ATOM      7  O   UNL     1     -82.824 -20.290  85.561  1.00  0.00    -0.457 OA
BRANCH   7   8
ATOM      8  C   UNL     1     -83.514 -20.481  86.767  1.00  0.00     0.131 A 
ATOM      9  C   UNL     1     -84.923 -19.573  88.522  1.00  0.00     0.131 A 
ATOM     10  N   UNL     1     -84.861 -20.771  89.167  1.00  0.00    -0.251 NA
ATOM     11  C   UNL     1     -84.236 -19.413  87.306  1.00  0.00     0.081 A 
ATOM     12  C   UNL     1     -84.153 -21.821  88.675  1.00  0.00     0.116 A 
ATOM     13  C   UNL     1     -83.461 -21.695  87.470  1.00  0.00     0.067 A 
BRANCH   9  14
ATOM     14  C   UNL     1     -85.707 -18.464  89.108  1.00  0.00     0.269 C 
ATOM     15  C   UNL     1     -87.343 -17.615  90.836  1.00  0.00     0.143 C 
ATOM     16  N   UNL     1     -86.554 -18.689  90.245  1.00  0.00    -0.354 N 
ATOM     17  H   UNL     1     -86.619 -19.641  90.670  1.00  0.00     0.163 HD
ATOM     18  O   UNL     1     -85.632 -17.309  88.606  1.00  0.00    -0.268 OA
ENDBRANCH   9  14
ENDBRANCH   7   8
ENDBRANCH   1   7
BRANCH   4  19
ATOM     19  N   UNL     1     -77.347 -19.020  84.933  1.00  0.00    -0.308 N 
ATOM     20  C   UNL     1     -76.680 -17.998  85.691  1.00  0.00     0.323 C 
ATOM     21  H   UNL     1     -76.763 -19.598  84.286  1.00  0.00     0.171 HD
ATOM     22  O   UNL     1     -77.238 -17.489  86.700  1.00  0.00    -0.248 OA
ATOM     23  N   UNL     1     -75.373 -17.563  85.288  1.00  0.00    -0.308 N 
ATOM     24  H   UNL     1     -75.062 -17.802  84.319  1.00  0.00     0.171 HD
BRANCH  23  25
ATOM     25  C   UNL     1     -74.527 -16.710  86.078  1.00  0.00     0.043 A 
ATOM     26  C   UNL     1     -74.882 -16.335  87.387  1.00  0.00     0.040 A 
ATOM     27  C   UNL     1     -73.296 -16.293  85.558  1.00  0.00     0.028 A 
ATOM     28  C   UNL     1     -74.034 -15.515  88.159  1.00  0.00     0.076 A 
ATOM     29  C   UNL     1     -72.448 -15.482  86.311  1.00  0.00     0.023 A 
ATOM     30  C   UNL     1     -72.808 -15.085  87.602  1.00  0.00     0.053 A 
ATOM     31  Cl  UNL     1     -71.687 -14.060  88.495  1.00  0.00    -0.084 Cl
BRANCH  28  32
ATOM     32  C   UNL     1     -74.428 -15.111  89.565  1.00  0.00     0.417 C 
ATOM     33  F   UNL     1     -75.686 -15.605  89.855  1.00  0.00    -0.166 F 
ATOM     34  F   UNL     1     -74.446 -13.731  89.662  1.00  0.00    -0.166 F 
ATOM     35  F   UNL     1     -73.542 -15.600  90.510  1.00  0.00    -0.166 F 
ENDBRANCH  28  32
ENDBRANCH  23  25
ENDBRANCH   4  19
TORSDOF 6
ENDMDL
MODEL 2
REMARK VINA RESULT:   -10.299      5.637     10.956
REMARK INTER + INTRA:         -14.096
REMARK INTER:                 -14.067
REMARK INTRA:                  -0.028
REMARK UNBOUND:                -0.184
REMARK SMILES CNC(=O)c1cc(Oc2ccc(NC(=O)Nc3ccc(Cl)c(C(F)(F)F)c3)cc2)ccn1
REMARK SMILES IDX 9 1 10 2 11 3 12 4 28 5 29 6 8 7 7 8 5 9 32 10 6 11 31 12
REMARK SMILES IDX 30 13 3 14 1 15 2 16 4 18 13 19 14 20 15 22 16 23 17 25
REMARK SMILES IDX 27 26 18 27 22 28 19 29 20 30 21 31 23 32 24 33 25 34 26 35
REMARK H PARENT 2 17 13 21 16 24
REMARK Flexibility Score: inf
ROOT
ATOM      1  C   UNL     1     -81.322 -20.755  86.821  1.00  0.00     0.127 A 
ATOM      2  C   UNL     1     -81.409 -21.135  88.164  1.00  0.00     0.049 A 
ATOM      3  C   UNL     1     -82.603 -20.969  88.872  1.00  0.00     0.030 A 
ATOM      4  C   UNL     1     -83.740 -20.449  88.237  1.00  0.00     0.043 A 
ATOM      5  C   UNL     1     -83.654 -20.067  86.887  1.00  0.00     0.030 A 
ATOM      6  C   UNL     1     -82.459 -20.231  86.180  1.00  0.00     0.049 A 
ENDROOT
BRANCH   1   7
ATOM      7  O   UNL     1     -80.111 -20.953  86.141  1.00  0.00    -0.457 OA
BRANCH   7   8
ATOM      8  C   UNL     1     -79.250 -19.937  85.701  1.00  0.00     0.131 A 
ATOM      9  C   UNL     1     -77.502 -18.331  86.206  1.00  0.00     0.131 A 
ATOM     10  N   UNL     1     -77.552 -17.898  84.917  1.00  0.00    -0.251 NA
ATOM     11  C   UNL     1     -78.365 -19.362  86.618  1.00  0.00     0.081 A 
ATOM     12  C   UNL     1     -78.414 -18.427  84.009  1.00  0.00     0.116 A 
ATOM     13  C   UNL     1     -79.283 -19.452  84.385  1.00  0.00     0.067 A 
BRANCH   9  14
ATOM     14  C   UNL     1     -76.547 -17.713  87.151  1.00  0.00     0.269 C 
ATOM     15  C   UNL     1     -75.601 -17.506  89.485  1.00  0.00     0.143 C 
ATOM     16  N   UNL     1     -76.527 -18.105  88.532  1.00  0.00    -0.354 N 
ATOM     17  H   UNL     1     -77.189 -18.835  88.879  1.00  0.00     0.163 HD
ATOM     18  O   UNL     1     -75.739 -16.834  86.742  1.00  0.00    -0.268 OA
ENDBRANCH   9  14
ENDBRANCH   7   8
ENDBRANCH   1   7
BRANCH   4  19
ATOM     19  N   UNL     1     -84.949 -20.268  88.995  1.00  0.00    -0.308 N 
ATOM     20  C   UNL     1     -85.506 -18.988  89.331  1.00  0.00     0.323 C 
ATOM     21  H   UNL     1     -85.508 -21.116  89.238  1.00  0.00     0.171 HD
ATOM     22  O   UNL     1     -85.057 -17.937  88.798  1.00  0.00    -0.248 OA
ATOM     23  N   UNL     1     -86.581 -18.916  90.280  1.00  0.00    -0.308 N 
ATOM     24  H   UNL     1     -86.743 -19.749  90.889  1.00  0.00     0.171 HD
BRANCH  23  25
ATOM     25  C   UNL     1     -87.354 -17.731  90.536  1.00  0.00     0.043 A 
ATOM     26  C   UNL     1     -87.821 -16.919  89.486  1.00  0.00     0.040 A 
ATOM     27  C   UNL     1     -87.701 -17.410  91.854  1.00  0.00     0.028 A 
ATOM     28  C   UNL     1     -88.595 -15.770  89.749  1.00  0.00     0.076 A 
ATOM     29  C   UNL     1     -88.466 -16.277  92.128  1.00  0.00     0.023 A 
ATOM     30  C   UNL     1     -88.910 -15.453  91.090  1.00  0.00     0.053 A 
ATOM     31  Cl  UNL     1     -89.873 -14.038  91.511  1.00  0.00    -0.084 Cl
BRANCH  28  32
ATOM     32  C   UNL     1     -89.087 -14.899  88.613  1.00  0.00     0.417 C 
ATOM     33  F   UNL     1     -89.810 -15.666  87.718  1.00  0.00    -0.166 F 
ATOM     34  F   UNL     1     -88.006 -14.335  87.959  1.00  0.00    -0.166 F 
ATOM     35  F   UNL     1     -89.903 -13.875  89.063  1.00  0.00    -0.166 F 
ENDBRANCH  28  32
ENDBRANCH  23  25
ENDBRANCH   4  19
TORSDOF 6
ENDMDL
MODEL 3
REMARK VINA RESULT:   -10.153      6.634     11.900
REMARK INTER + INTRA:         -13.898
REMARK INTER:                 -14.117
REMARK INTRA:                   0.219
REMARK UNBOUND:                -0.184
REMARK SMILES CNC(=O)c1cc(Oc2ccc(NC(=O)Nc3ccc(Cl)c(C(F)(F)F)c3)cc2)ccn1
REMARK SMILES IDX 9 1 10 2 11 3 12 4 28 5 29 6 8 7 7 8 5 9 32 10 6 11 31 12
REMARK SMILES IDX 30 13 3 14 1 15 2 16 4 18 13 19 14 20 15 22 16 23 17 25
REMARK SMILES IDX 27 26 18 27 22 28 19 29 20 30 21 31 23 32 24 33 25 34 26 35
REMARK H PARENT 2 17 13 21 16 24
REMARK Flexibility Score: inf
ROOT
ATOM      1  C   UNL     1     -72.665 -14.349  92.436  1.00  0.00     0.127 A 
ATOM      2  C   UNL     1     -72.107 -14.033  91.193  1.00  0.00     0.049 A 
ATOM      3  C   UNL     1     -72.817 -14.281  90.014  1.00  0.00     0.030 A 
ATOM      4  C   UNL     1     -74.110 -14.821  90.062  1.00  0.00     0.043 A 
ATOM      5  C   UNL     1     -74.671 -15.140  91.311  1.00  0.00     0.030 A 
ATOM      6  C   UNL     1     -73.960 -14.894  92.489  1.00  0.00     0.049 A 
ENDROOT
BRANCH   1   7
ATOM      7  O   UNL     1     -71.928 -14.070  93.596  1.00  0.00    -0.457 OA
BRANCH   7   8
ATOM      8  C   UNL     1     -72.191 -13.027  94.496  1.00  0.00     0.131 A 
ATOM      9  C   UNL     1     -72.234 -10.646  94.962  1.00  0.00     0.131 A 
ATOM     10  N   UNL     1     -72.647 -10.920  96.230  1.00  0.00    -0.251 NA
ATOM     11  C   UNL     1     -71.992 -11.709  94.075  1.00  0.00     0.081 A 
ATOM     12  C   UNL     1     -72.831 -12.192  96.672  1.00  0.00     0.116 A 
ATOM     13  C   UNL     1     -72.601 -13.269  95.816  1.00  0.00     0.067 A 
BRANCH   9  14
ATOM     14  C   UNL     1     -72.046  -9.241  94.539  1.00  0.00     0.269 C 
ATOM     15  C   UNL     1     -70.842  -7.031  94.763  1.00  0.00     0.143 C 
ATOM     16  N   UNL     1     -71.043  -8.420  95.156  1.00  0.00    -0.354 N 
ATOM     17  H   UNL     1     -70.433  -8.814  95.908  1.00  0.00     0.163 HD
ATOM     18  O   UNL     1     -72.772  -8.757  93.628  1.00  0.00    -0.268 OA
ENDBRANCH   9  14
ENDBRANCH   7   8
ENDBRANCH   1   7
BRANCH   4  19
ATOM     19  N   UNL     1     -74.808 -15.088  88.834  1.00  0.00    -0.308 N 
ATOM     20  C   UNL     1     -75.537 -16.296  88.565  1.00  0.00     0.323 C 
ATOM     21  H   UNL     1     -74.868 -14.321  88.126  1.00  0.00     0.171 HD
ATOM     22  O   UNL     1     -75.770 -17.119  89.492  1.00  0.00    -0.248 OA
ATOM     23  N   UNL     1     -76.000 -16.556  87.231  1.00  0.00    -0.308 N 
ATOM     24  H   UNL     1     -75.570 -16.005  86.455  1.00  0.00     0.171 HD
BRANCH  23  25
ATOM     25  C   UNL     1     -76.911 -17.614  86.886  1.00  0.00     0.043 A 
ATOM     26  C   UNL     1     -77.499 -17.689  85.611  1.00  0.00     0.040 A 
ATOM     27  C   UNL     1     -77.172 -18.625  87.819  1.00  0.00     0.028 A 
ATOM     28  C   UNL     1     -78.375 -18.742  85.277  1.00  0.00     0.076 A 
ATOM     29  C   UNL     1     -78.037 -19.673  87.503  1.00  0.00     0.023 A 
ATOM     30  C   UNL     1     -78.644 -19.737  86.245  1.00  0.00     0.053 A 
ATOM     31  Cl  UNL     1     -79.724 -21.089  85.916  1.00  0.00    -0.084 Cl
BRANCH  28  32
ATOM     32  C   UNL     1     -79.008 -18.810  83.904  1.00  0.00     0.417 C 
ATOM     33  F   UNL     1     -78.459 -17.836  83.090  1.00  0.00    -0.166 F 
ATOM     34  F   UNL     1     -80.371 -18.599  84.011  1.00  0.00    -0.166 F 
ATOM     35  F   UNL     1     -78.806 -20.041  83.302  1.00  0.00    -0.166 F 
ENDBRANCH  28  32
ENDBRANCH  23  25
ENDBRANCH   4  19
TORSDOF 6
ENDMDL
MODEL 4
REMARK VINA RESULT:   -10.009      5.926     11.221
REMARK INTER + INTRA:         -13.704
REMARK INTER:                 -13.963
REMARK INTRA:                   0.259
REMARK UNBOUND:                -0.184
REMARK SMILES CNC(=O)c1cc(Oc2ccc(NC(=O)Nc3ccc(Cl)c(C(F)(F)F)c3)cc2)ccn1
REMARK SMILES IDX 9 1 10 2 11 3 12 4 28 5 29 6 8 7 7 8 5 9 32 10 6 11 31 12
REMARK SMILES IDX 30 13 3 14 1 15 2 16 4 18 13 19 14 20 15 22 16 23 17 25
REMARK SMILES IDX 27 26 18 27 22 28 19 29 20 30 21 31 23 32 24 33 25 34 26 35
REMARK H PARENT 2 17 13 21 16 24
REMARK Flexibility Score: inf
ROOT
ATOM      1  C   UNL     1     -81.403 -20.733  86.763  1.00  0.00     0.127 A 
ATOM      2  C   UNL     1     -81.493 -21.213  88.074  1.00  0.00     0.049 A 
ATOM      3  C   UNL     1     -82.668 -21.041  88.812  1.00  0.00     0.030 A 
ATOM      4  C   UNL     1     -83.782 -20.412  88.239  1.00  0.00     0.043 A 
ATOM      5  C   UNL     1     -83.692 -19.928  86.922  1.00  0.00     0.030 A 
ATOM      6  C   UNL     1     -82.516 -20.099  86.185  1.00  0.00     0.049 A 
ENDROOT
BRANCH   1   7
ATOM      7  O   UNL     1     -80.213 -20.940  86.050  1.00  0.00    -0.457 OA
BRANCH   7   8
ATOM      8  C   UNL     1     -79.136 -20.044  85.985  1.00  0.00     0.131 A 
ATOM      9  C   UNL     1     -77.605 -18.729  84.637  1.00  0.00     0.131 A 
ATOM     10  N   UNL     1     -76.989 -18.311  85.777  1.00  0.00    -0.251 NA
ATOM     11  C   UNL     1     -78.692 -19.616  84.731  1.00  0.00     0.081 A 
ATOM     12  C   UNL     1     -77.389 -18.724  87.009  1.00  0.00     0.116 A 
ATOM     13  C   UNL     1     -78.465 -19.603  87.136  1.00  0.00     0.067 A 
BRANCH   9  14
ATOM     14  C   UNL     1     -77.122 -18.249  83.324  1.00  0.00     0.269 C 
ATOM     15  C   UNL     1     -75.214 -17.700  81.762  1.00  0.00     0.143 C 
ATOM     16  N   UNL     1     -75.716 -18.176  83.044  1.00  0.00    -0.354 N 
ATOM     17  H   UNL     1     -75.021 -18.468  83.769  1.00  0.00     0.163 HD
ATOM     18  O   UNL     1     -77.952 -17.900  82.440  1.00  0.00    -0.268 OA
ENDBRANCH   9  14
ENDBRANCH   7   8
ENDBRANCH   1   7
BRANCH   4  19
ATOM     19  N   UNL     1     -84.970 -20.227  89.029  1.00  0.00    -0.308 N 
ATOM     20  C   UNL     1     -85.537 -18.946  89.346  1.00  0.00     0.323 C 
ATOM     21  H   UNL     1     -85.508 -21.076  89.314  1.00  0.00     0.171 HD
ATOM     22  O   UNL     1     -85.121 -17.905  88.769  1.00  0.00    -0.248 OA
ATOM     23  N   UNL     1     -86.583 -18.864  90.326  1.00  0.00    -0.308 N 
ATOM     24  H   UNL     1     -86.713 -19.681  90.963  1.00  0.00     0.171 HD
BRANCH  23  25
ATOM     25  C   UNL     1     -87.367 -17.683  90.571  1.00  0.00     0.043 A 
ATOM     26  C   UNL     1     -87.840 -16.884  89.515  1.00  0.00     0.040 A 
ATOM     27  C   UNL     1     -87.718 -17.356  91.886  1.00  0.00     0.028 A 
ATOM     28  C   UNL     1     -88.624 -15.740  89.768  1.00  0.00     0.076 A 
ATOM     29  C   UNL     1     -88.493 -16.227  92.151  1.00  0.00     0.023 A 
ATOM     30  C   UNL     1     -88.944 -15.415  91.106  1.00  0.00     0.053 A 
ATOM     31  Cl  UNL     1     -89.919 -14.006  91.516  1.00  0.00    -0.084 Cl
BRANCH  28  32
ATOM     32  C   UNL     1     -89.123 -14.881  88.625  1.00  0.00     0.417 C 
ATOM     33  F   UNL     1     -88.049 -14.288  87.987  1.00  0.00    -0.166 F 
ATOM     34  F   UNL     1     -89.961 -13.896  89.117  1.00  0.00    -0.166 F 
ATOM     35  F   UNL     1     -89.826 -15.623  87.691  1.00  0.00    -0.166 F 
ENDBRANCH  28  32
ENDBRANCH  23  25
ENDBRANCH   4  19
TORSDOF 6
ENDMDL
MODEL 5
REMARK VINA RESULT:    -9.977      7.168     11.069
REMARK INTER + INTRA:         -13.659
REMARK INTER:                 -12.698
REMARK INTRA:                  -0.962
REMARK UNBOUND:                -0.184
REMARK SMILES CNC(=O)c1cc(Oc2ccc(NC(=O)Nc3ccc(Cl)c(C(F)(F)F)c3)cc2)ccn1
REMARK SMILES IDX 9 1 10 2 11 3 12 4 28 5 29 6 8 7 7 8 5 9 32 10 6 11 31 12
REMARK SMILES IDX 30 13 3 14 1 15 2 16 4 18 13 19 14 20 15 22 16 23 17 25
REMARK SMILES IDX 27 26 18 27 22 28 19 29 20 30 21 31 23 32 24 33 25 34 26 35
REMARK H PARENT 2 17 13 21 16 24
REMARK Flexibility Score: inf
ROOT
ATOM      1  C   UNL     1     -74.902 -15.669  94.354  1.00  0.00     0.127 A 
ATOM      2  C   UNL     1     -73.881 -15.283  93.479  1.00  0.00     0.049 A 
ATOM      3  C   UNL     1     -74.143 -15.112  92.116  1.00  0.00     0.030 A 
ATOM      4  C   UNL     1     -75.438 -15.294  91.612  1.00  0.00     0.043 A 
ATOM      5  C   UNL     1     -76.465 -15.683  92.491  1.00  0.00     0.030 A 
ATOM      6  C   UNL     1     -76.202 -15.857  93.853  1.00  0.00     0.049 A 
ENDROOT
BRANCH   1   7
ATOM      7  O   UNL     1     -74.603 -15.815  95.716  1.00  0.00    -0.457 OA
BRANCH   7   8
ATOM      8  C   UNL     1     -74.900 -14.881  96.719  1.00  0.00     0.131 A 
ATOM      9  C   UNL     1     -74.215 -12.968  98.047  1.00  0.00     0.131 A 
ATOM     10  N   UNL     1     -75.399 -13.032  98.717  1.00  0.00    -0.251 NA
ATOM     11  C   UNL     1     -73.948 -13.907  97.035  1.00  0.00     0.081 A 
ATOM     12  C   UNL     1     -76.335 -13.978  98.442  1.00  0.00     0.116 A 
ATOM     13  C   UNL     1     -76.101 -14.923  97.443  1.00  0.00     0.067 A 
BRANCH   9  14
ATOM     14  C   UNL     1     -73.232 -11.919  98.393  1.00  0.00     0.269 C 
ATOM     15  C   UNL     1     -71.258 -11.136  99.761  1.00  0.00     0.143 C 
ATOM     16  N   UNL     1     -72.233 -12.155  99.396  1.00  0.00    -0.354 N 
ATOM     17  H   UNL     1     -72.191 -13.077  99.888  1.00  0.00     0.163 HD
ATOM     18  O   UNL     1     -73.270 -10.804  97.802  1.00  0.00    -0.268 OA
ENDBRANCH   9  14
ENDBRANCH   7   8
ENDBRANCH   1   7
BRANCH   4  19
ATOM     19  N   UNL     1     -75.675 -15.134  90.203  1.00  0.00    -0.308 N 
ATOM     20  C   UNL     1     -75.471 -16.167  89.227  1.00  0.00     0.323 C 
ATOM     21  H   UNL     1     -76.110 -14.241  89.876  1.00  0.00     0.171 HD
ATOM     22  O   UNL     1     -75.256 -17.355  89.593  1.00  0.00    -0.248 OA
ATOM     23  N   UNL     1     -75.516 -15.836  87.831  1.00  0.00    -0.308 N 
ATOM     24  H   UNL     1     -75.427 -14.827  87.571  1.00  0.00     0.171 HD
BRANCH  23  25
ATOM     25  C   UNL     1     -75.537 -16.807  86.771  1.00  0.00     0.043 A 
ATOM     26  C   UNL     1     -76.733 -17.155  86.119  1.00  0.00     0.040 A 
ATOM     27  C   UNL     1     -74.333 -17.375  86.338  1.00  0.00     0.028 A 
ATOM     28  C   UNL     1     -76.738 -18.094  85.067  1.00  0.00     0.076 A 
ATOM     29  C   UNL     1     -74.322 -18.305  85.299  1.00  0.00     0.023 A 
ATOM     30  C   UNL     1     -75.513 -18.673  84.665  1.00  0.00     0.053 A 
ATOM     31  Cl  UNL     1     -75.423 -19.854  83.360  1.00  0.00    -0.084 Cl
BRANCH  28  32
ATOM     32  C   UNL     1     -78.032 -18.468  84.376  1.00  0.00     0.417 C 
ATOM     33  F   UNL     1     -77.955 -18.137  83.035  1.00  0.00    -0.166 F 
ATOM     34  F   UNL     1     -79.083 -17.778  84.955  1.00  0.00    -0.166 F 
ATOM     35  F   UNL     1     -78.297 -19.823  84.473  1.00  0.00    -0.166 F 
ENDBRANCH  28  32
ENDBRANCH  23  25
ENDBRANCH   4  19
TORSDOF 6
ENDMDL
MODEL 6
REMARK VINA RESULT:    -9.904      6.516     11.813
REMARK INTER + INTRA:         -13.562
REMARK INTER:                 -13.730
REMARK INTRA:                   0.168
REMARK UNBOUND:                -0.184
REMARK SMILES CNC(=O)c1cc(Oc2ccc(NC(=O)Nc3ccc(Cl)c(C(F)(F)F)c3)cc2)ccn1
REMARK SMILES IDX 9 1 10 2 11 3 12 4 28 5 29 6 8 7 7 8 5 9 32 10 6 11 31 12
REMARK SMILES IDX 30 13 3 14 1 15 2 16 4 18 13 19 14 20 15 22 16 23 17 25
REMARK SMILES IDX 27 26 18 27 22 28 19 29 20 30 21 31 23 32 24 33 25 34 26 35
REMARK H PARENT 2 17 13 21 16 24
REMARK Flexibility Score: inf
ROOT
ATOM      1  C   UNL     1     -72.610 -14.282  92.462  1.00  0.00     0.127 A 
ATOM      2  C   UNL     1     -72.060 -13.971  91.214  1.00  0.00     0.049 A 
ATOM      3  C   UNL     1     -72.768 -14.246  90.040  1.00  0.00     0.030 A 
ATOM      4  C   UNL     1     -74.051 -14.808  90.098  1.00  0.00     0.043 A 
ATOM      5  C   UNL     1     -74.603 -15.121  91.352  1.00  0.00     0.030 A 
ATOM      6  C   UNL     1     -73.895 -14.849  92.525  1.00  0.00     0.049 A 
ENDROOT
BRANCH   1   7
ATOM      7  O   UNL     1     -71.875 -13.975  93.617  1.00  0.00    -0.457 OA
BRANCH   7   8
ATOM      8  C   UNL     1     -72.162 -12.933  94.511  1.00  0.00     0.131 A 
ATOM      9  C   UNL     1     -72.228 -10.552  94.974  1.00  0.00     0.131 A 
ATOM     10  N   UNL     1     -72.663 -10.828  96.235  1.00  0.00    -0.251 NA
ATOM     11  C   UNL     1     -71.963 -11.614  94.093  1.00  0.00     0.081 A 
ATOM     12  C   UNL     1     -72.848 -12.100  96.674  1.00  0.00     0.116 A 
ATOM     13  C   UNL     1     -72.595 -13.177  95.823  1.00  0.00     0.067 A 
BRANCH   9  14
ATOM     14  C   UNL     1     -72.040  -9.147  94.554  1.00  0.00     0.269 C 
ATOM     15  C   UNL     1     -70.806  -6.951  94.751  1.00  0.00     0.143 C 
ATOM     16  N   UNL     1     -71.007  -8.340  95.141  1.00  0.00    -0.354 N 
ATOM     17  H   UNL     1     -70.377  -8.745  95.870  1.00  0.00     0.163 HD
ATOM     18  O   UNL     1     -72.792  -8.649  93.671  1.00  0.00    -0.268 OA
ENDBRANCH   9  14
ENDBRANCH   7   8
ENDBRANCH   1   7
BRANCH   4  19
ATOM     19  N   UNL     1     -74.747 -15.102  88.874  1.00  0.00    -0.308 N 
ATOM     20  C   UNL     1     -75.469 -16.319  88.628  1.00  0.00     0.323 C 
ATOM     21  H   UNL     1     -74.812 -14.349  88.152  1.00  0.00     0.171 HD
ATOM     22  O   UNL     1     -75.696 -17.126  89.570  1.00  0.00    -0.248 OA
ATOM     23  N   UNL     1     -75.929 -16.608  87.299  1.00  0.00    -0.308 N 
ATOM     24  H   UNL     1     -75.502 -16.068  86.513  1.00  0.00     0.171 HD
BRANCH  23  25
ATOM     25  C   UNL     1     -76.833 -17.677  86.973  1.00  0.00     0.043 A 
ATOM     26  C   UNL     1     -77.137 -18.689  87.901  1.00  0.00     0.040 A 
ATOM     27  C   UNL     1     -77.473 -17.677  85.728  1.00  0.00     0.028 A 
ATOM     28  C   UNL     1     -78.042 -19.721  87.577  1.00  0.00     0.076 A 
ATOM     29  C   UNL     1     -78.370 -18.692  85.394  1.00  0.00     0.023 A 
ATOM     30  C   UNL     1     -78.655 -19.715  86.303  1.00  0.00     0.053 A 
ATOM     31  Cl  UNL     1     -79.798 -20.962  85.813  1.00  0.00    -0.084 Cl
BRANCH  28  32
ATOM     32  C   UNL     1     -78.357 -20.810  88.580  1.00  0.00     0.417 C 
ATOM     33  F   UNL     1     -77.842 -20.466  89.817  1.00  0.00    -0.166 F 
ATOM     34  F   UNL     1     -77.788 -22.001  88.165  1.00  0.00    -0.166 F 
ATOM     35  F   UNL     1     -79.721 -21.007  88.718  1.00  0.00    -0.166 F 
ENDBRANCH  28  32
ENDBRANCH  23  25
ENDBRANCH   4  19
TORSDOF 6
ENDMDL
MODEL 7
REMARK VINA RESULT:    -9.883      6.779     11.719
REMARK INTER + INTRA:         -13.533
REMARK INTER:                 -13.751
REMARK INTRA:                   0.218
REMARK UNBOUND:                -0.184
REMARK SMILES CNC(=O)c1cc(Oc2ccc(NC(=O)Nc3ccc(Cl)c(C(F)(F)F)c3)cc2)ccn1
REMARK SMILES IDX 9 1 10 2 11 3 12 4 28 5 29 6 8 7 7 8 5 9 32 10 6 11 31 12
REMARK SMILES IDX 30 13 3 14 1 15 2 16 4 18 13 19 14 20 15 22 16 23 17 25
REMARK SMILES IDX 27 26 18 27 22 28 19 29 20 30 21 31 23 32 24 33 25 34 26 35
REMARK H PARENT 2 17 13 21 16 24
REMARK Flexibility Score: inf
ROOT
ATOM      1  C   UNL     1     -72.531 -14.234  92.296  1.00  0.00     0.127 A 
ATOM      2  C   UNL     1     -71.918 -14.024  91.056  1.00  0.00     0.049 A 
ATOM      3  C   UNL     1     -72.584 -14.354  89.872  1.00  0.00     0.030 A 
ATOM      4  C   UNL     1     -73.887 -14.871  89.908  1.00  0.00     0.043 A 
ATOM      5  C   UNL     1     -74.503 -15.082  91.154  1.00  0.00     0.030 A 
ATOM      6  C   UNL     1     -73.836 -14.754  92.338  1.00  0.00     0.049 A 
ENDROOT
BRANCH   1   7
ATOM      7  O   UNL     1     -71.836 -13.874  93.460  1.00  0.00    -0.457 OA
BRANCH   7   8
ATOM      8  C   UNL     1     -72.083 -12.732  94.235  1.00  0.00     0.131 A 
ATOM      9  C   UNL     1     -72.746 -11.765  96.360  1.00  0.00     0.131 A 
ATOM     10  N   UNL     1     -72.632 -10.524  95.811  1.00  0.00    -0.251 NA
ATOM     11  C   UNL     1     -72.477 -12.894  95.566  1.00  0.00     0.081 A 
ATOM     12  C   UNL     1     -72.267 -10.338  94.515  1.00  0.00     0.116 A 
ATOM     13  C   UNL     1     -71.992 -11.437  93.701  1.00  0.00     0.067 A 
BRANCH   9  14
ATOM     14  C   UNL     1     -73.151 -11.907  97.775  1.00  0.00     0.269 C 
ATOM     15  C   UNL     1     -72.689 -12.755 100.110  1.00  0.00     0.143 C 
ATOM     16  N   UNL     1     -72.309 -12.595  98.712  1.00  0.00    -0.354 N 
ATOM     17  H   UNL     1     -71.397 -12.999  98.398  1.00  0.00     0.163 HD
ATOM     18  O   UNL     1     -74.247 -11.418  98.166  1.00  0.00    -0.268 OA
ENDBRANCH   9  14
ENDBRANCH   7   8
ENDBRANCH   1   7
BRANCH   4  19
ATOM     19  N   UNL     1     -74.540 -15.223  88.677  1.00  0.00    -0.308 N 
ATOM     20  C   UNL     1     -75.380 -16.377  88.509  1.00  0.00     0.323 C 
ATOM     21  H   UNL     1     -74.478 -14.553  87.877  1.00  0.00     0.171 HD
ATOM     22  O   UNL     1     -75.751 -17.045  89.512  1.00  0.00    -0.248 OA
ATOM     23  N   UNL     1     -75.792 -16.761  87.189  1.00  0.00    -0.308 N 
ATOM     24  H   UNL     1     -75.262 -16.361  86.382  1.00  0.00     0.171 HD
BRANCH  23  25
ATOM     25  C   UNL     1     -76.791 -17.757  86.914  1.00  0.00     0.043 A 
ATOM     26  C   UNL     1     -77.470 -17.796  85.683  1.00  0.00     0.040 A 
ATOM     27  C   UNL     1     -77.051 -18.748  87.868  1.00  0.00     0.028 A 
ATOM     28  C   UNL     1     -78.434 -18.791  85.418  1.00  0.00     0.076 A 
ATOM     29  C   UNL     1     -78.001 -19.738  87.620  1.00  0.00     0.023 A 
ATOM     30  C   UNL     1     -78.697 -19.765  86.407  1.00  0.00     0.053 A 
ATOM     31  Cl  UNL     1     -79.882 -21.045  86.163  1.00  0.00    -0.084 Cl
BRANCH  28  32
ATOM     32  C   UNL     1     -79.164 -18.819  84.092  1.00  0.00     0.417 C 
ATOM     33  F   UNL     1     -78.965 -20.042  83.478  1.00  0.00    -0.166 F 
ATOM     34  F   UNL     1     -78.679 -17.815  83.274  1.00  0.00    -0.166 F 
ATOM     35  F   UNL     1     -80.527 -18.630  84.249  1.00  0.00    -0.166 F 
ENDBRANCH  28  32
ENDBRANCH  23  25
ENDBRANCH   4  19
TORSDOF 6
ENDMDL
MODEL 8
REMARK VINA RESULT:    -9.673      6.634     11.582
REMARK INTER + INTRA:         -13.249
REMARK INTER:                 -13.568
REMARK INTRA:                   0.319
REMARK UNBOUND:                -0.184
REMARK SMILES CNC(=O)c1cc(Oc2ccc(NC(=O)Nc3ccc(Cl)c(C(F)(F)F)c3)cc2)ccn1
REMARK SMILES IDX 9 1 10 2 11 3 12 4 28 5 29 6 8 7 7 8 5 9 32 10 6 11 31 12
REMARK SMILES IDX 30 13 3 14 1 15 2 16 4 18 13 19 14 20 15 22 16 23 17 25
REMARK SMILES IDX 27 26 18 27 22 28 19 29 20 30 21 31 23 32 24 33 25 34 26 35
REMARK H PARENT 2 17 13 21 16 24
REMARK Flexibility Score: inf
ROOT
ATOM      1  C   UNL     1     -72.616 -14.200  92.286  1.00  0.00     0.127 A 
ATOM      2  C   UNL     1     -72.069 -13.911  91.032  1.00  0.00     0.049 A 
ATOM      3  C   UNL     1     -72.768 -14.226  89.864  1.00  0.00     0.030 A 
ATOM      4  C   UNL     1     -74.042 -14.808  89.932  1.00  0.00     0.043 A 
ATOM      5  C   UNL     1     -74.593 -15.100  91.192  1.00  0.00     0.030 A 
ATOM      6  C   UNL     1     -73.892 -14.787  92.360  1.00  0.00     0.049 A 
ENDROOT
BRANCH   1   7
ATOM      7  O   UNL     1     -71.890 -13.853  93.435  1.00  0.00    -0.457 OA
BRANCH   7   8
ATOM      8  C   UNL     1     -72.124 -12.726  94.236  1.00  0.00     0.131 A 
ATOM      9  C   UNL     1     -72.767 -11.800  96.385  1.00  0.00     0.131 A 
ATOM     10  N   UNL     1     -72.647 -10.549  95.862  1.00  0.00    -0.251 NA
ATOM     11  C   UNL     1     -72.511 -12.913  95.566  1.00  0.00     0.081 A 
ATOM     12  C   UNL     1     -72.290 -10.337  94.568  1.00  0.00     0.116 A 
ATOM     13  C   UNL     1     -72.028 -11.420  93.729  1.00  0.00     0.067 A 
BRANCH   9  14
ATOM     14  C   UNL     1     -73.163 -11.969  97.800  1.00  0.00     0.269 C 
ATOM     15  C   UNL     1     -72.665 -12.821 100.126  1.00  0.00     0.143 C 
ATOM     16  N   UNL     1     -72.295 -12.635  98.729  1.00  0.00    -0.354 N 
ATOM     17  H   UNL     1     -71.370 -13.003  98.410  1.00  0.00     0.163 HD
ATOM     18  O   UNL     1     -74.276 -11.524  98.197  1.00  0.00    -0.268 OA
ENDBRANCH   9  14
ENDBRANCH   7   8
ENDBRANCH   1   7
BRANCH   4  19
ATOM     19  N   UNL     1     -74.730 -15.144  88.715  1.00  0.00    -0.308 N 
ATOM     20  C   UNL     1     -75.471 -16.357  88.514  1.00  0.00     0.323 C 
ATOM     21  H   UNL     1     -74.772 -14.423  87.959  1.00  0.00     0.171 HD
ATOM     22  O   UNL     1     -75.725 -17.117  89.488  1.00  0.00    -0.248 OA
ATOM     23  N   UNL     1     -75.922 -16.696  87.194  1.00  0.00    -0.308 N 
ATOM     24  H   UNL     1     -75.476 -16.200  86.389  1.00  0.00     0.171 HD
BRANCH  23  25
ATOM     25  C   UNL     1     -76.843 -17.762  86.905  1.00  0.00     0.043 A 
ATOM     26  C   UNL     1     -77.168 -18.732  87.870  1.00  0.00     0.040 A 
ATOM     27  C   UNL     1     -77.476 -17.800  85.657  1.00  0.00     0.028 A 
ATOM     28  C   UNL     1     -78.088 -19.761  87.581  1.00  0.00     0.076 A 
ATOM     29  C   UNL     1     -78.389 -18.812  85.358  1.00  0.00     0.023 A 
ATOM     30  C   UNL     1     -78.695 -19.793  86.305  1.00  0.00     0.053 A 
ATOM     31  Cl  UNL     1     -79.857 -21.040  85.857  1.00  0.00    -0.084 Cl
BRANCH  28  32
ATOM     32  C   UNL     1     -78.427 -20.804  88.624  1.00  0.00     0.417 C 
ATOM     33  F   UNL     1     -78.069 -20.343  89.877  1.00  0.00    -0.166 F 
ATOM     34  F   UNL     1     -77.734 -21.971  88.354  1.00  0.00    -0.166 F 
ATOM     35  F   UNL     1     -79.780 -21.098  88.641  1.00  0.00    -0.166 F 
ENDBRANCH  28  32
ENDBRANCH  23  25
ENDBRANCH   4  19
TORSDOF 6
ENDMDL
MODEL 9
REMARK VINA RESULT:    -9.517      1.540      2.570
REMARK INTER + INTRA:         -13.038
REMARK INTER:                 -13.117
REMARK INTRA:                   0.079
REMARK UNBOUND:                -0.184
REMARK SMILES CNC(=O)c1cc(Oc2ccc(NC(=O)Nc3ccc(Cl)c(C(F)(F)F)c3)cc2)ccn1
REMARK SMILES IDX 9 1 10 2 11 3 12 4 28 5 29 6 8 7 7 8 5 9 32 10 6 11 31 12
REMARK SMILES IDX 30 13 3 14 1 15 2 16 4 18 13 19 14 20 15 22 16 23 17 25
REMARK SMILES IDX 27 26 18 27 22 28 19 29 20 30 21 31 23 32 24 33 25 34 26 35
REMARK H PARENT 2 17 13 21 16 24
REMARK Flexibility Score: inf
ROOT
ATOM      1  C   UNL     1     -81.460 -20.019  85.515  1.00  0.00     0.127 A 
ATOM      2  C   UNL     1     -80.378 -20.533  86.238  1.00  0.00     0.049 A 
ATOM      3  C   UNL     1     -79.079 -20.080  85.987  1.00  0.00     0.030 A 
ATOM      4  C   UNL     1     -78.846 -19.083  85.029  1.00  0.00     0.043 A 
ATOM      5  C   UNL     1     -79.933 -18.567  84.302  1.00  0.00     0.030 A 
ATOM      6  C   UNL     1     -81.231 -19.022  84.551  1.00  0.00     0.049 A 
ENDROOT
BRANCH   1   7
ATOM      7  O   UNL     1     -82.749 -20.487  85.809  1.00  0.00    -0.457 OA
BRANCH   7   8
ATOM      8  C   UNL     1     -83.406 -20.346  87.039  1.00  0.00     0.131 A 
ATOM      9  C   UNL     1     -83.463 -20.778  89.427  1.00  0.00     0.131 A 
ATOM     10  N   UNL     1     -84.666 -20.144  89.495  1.00  0.00    -0.251 NA
ATOM     11  C   UNL     1     -82.818 -20.893  88.183  1.00  0.00     0.081 A 
ATOM     12  C   UNL     1     -85.269 -19.617  88.397  1.00  0.00     0.116 A 
ATOM     13  C   UNL     1     -84.654 -19.713  87.149  1.00  0.00     0.067 A 
BRANCH   9  14
ATOM     14  C   UNL     1     -82.857 -21.336  90.655  1.00  0.00     0.269 C 
ATOM     15  C   UNL     1     -81.019 -22.650  91.787  1.00  0.00     0.143 C 
ATOM     16  N   UNL     1     -81.632 -22.083  90.593  1.00  0.00    -0.354 N 
ATOM     17  H   UNL     1     -81.157 -22.234  89.674  1.00  0.00     0.163 HD
ATOM     18  O   UNL     1     -83.420 -21.156  91.770  1.00  0.00    -0.268 OA
ENDBRANCH   9  14
ENDBRANCH   7   8
ENDBRANCH   1   7
BRANCH   4  19
ATOM     19  N   UNL     1     -77.498 -18.653  84.774  1.00  0.00    -0.308 N 
ATOM     20  C   UNL     1     -76.769 -17.741  85.611  1.00  0.00     0.323 C 
ATOM     21  H   UNL     1     -76.981 -19.099  83.983  1.00  0.00     0.171 HD
ATOM     22  O   UNL     1     -77.219 -17.418  86.744  1.00  0.00    -0.248 OA
ATOM     23  N   UNL     1     -75.523 -17.201  85.145  1.00  0.00    -0.308 N 
ATOM     24  H   UNL     1     -75.318 -17.272  84.123  1.00  0.00     0.171 HD
BRANCH  23  25
ATOM     25  C   UNL     1     -74.610 -16.455  85.967  1.00  0.00     0.043 A 
ATOM     26  C   UNL     1     -74.907 -16.158  87.310  1.00  0.00     0.040 A 
ATOM     27  C   UNL     1     -73.372 -16.069  85.440  1.00  0.00     0.028 A 
ATOM     28  C   UNL     1     -73.994 -15.443  88.112  1.00  0.00     0.076 A 
ATOM     29  C   UNL     1     -72.459 -15.361  86.221  1.00  0.00     0.023 A 
ATOM     30  C   UNL     1     -72.761 -15.040  87.549  1.00  0.00     0.053 A 
ATOM     31  Cl  UNL     1     -71.560 -14.145  88.476  1.00  0.00    -0.084 Cl
BRANCH  28  32
ATOM     32  C   UNL     1     -74.325 -15.121  89.554  1.00  0.00     0.417 C 
ATOM     33  F   UNL     1     -73.404 -15.726  90.388  1.00  0.00    -0.166 F 
ATOM     34  F   UNL     1     -75.591 -15.593  89.854  1.00  0.00    -0.166 F 
ATOM     35  F   UNL     1     -74.301 -13.758  89.798  1.00  0.00    -0.166 F 
ENDBRANCH  28  32
ENDBRANCH  23  25
ENDBRANCH   4  19
TORSDOF 6
ENDMDL
MODEL 10
REMARK VINA RESULT:    -9.510      2.096      2.614
REMARK INTER + INTRA:         -13.030
REMARK INTER:                 -12.336
REMARK INTRA:                  -0.693
REMARK UNBOUND:                -0.184
REMARK SMILES CNC(=O)c1cc(Oc2ccc(NC(=O)Nc3ccc(Cl)c(C(F)(F)F)c3)cc2)ccn1
REMARK SMILES IDX 9 1 10 2 11 3 12 4 28 5 29 6 8 7 7 8 5 9 32 10 6 11 31 12
REMARK SMILES IDX 30 13 3 14 1 15 2 16 4 18 13 19 14 20 15 22 16 23 17 25
REMARK SMILES IDX 27 26 18 27 22 28 19 29 20 30 21 31 23 32 24 33 25 34 26 35
REMARK H PARENT 2 17 13 21 16 24
REMARK Flexibility Score: inf
ROOT
ATOM      1  C   UNL     1     -80.523 -20.412  86.272  1.00  0.00     0.127 A 
ATOM      2  C   UNL     1     -79.566 -19.785  85.467  1.00  0.00     0.049 A 
ATOM      3  C   UNL     1     -78.235 -19.700  85.886  1.00  0.00     0.030 A 
ATOM      4  C   UNL     1     -77.834 -20.268  87.103  1.00  0.00     0.043 A 
ATOM      5  C   UNL     1     -78.796 -20.897  87.913  1.00  0.00     0.030 A 
ATOM      6  C   UNL     1     -80.127 -20.980  87.495  1.00  0.00     0.049 A 
ENDROOT
BRANCH   1   7
ATOM      7  O   UNL     1     -81.845 -20.491  85.809  1.00  0.00    -0.457 OA
BRANCH   7   8
ATOM      8  C   UNL     1     -82.976 -20.710  86.609  1.00  0.00     0.131 A 
ATOM      9  C   UNL     1     -84.690 -19.814  88.075  1.00  0.00     0.131 A 
ATOM     10  N   UNL     1     -85.182 -21.073  88.240  1.00  0.00    -0.251 NA
ATOM     11  C   UNL     1     -83.565 -19.620  87.254  1.00  0.00     0.081 A 
ATOM     12  C   UNL     1     -84.618 -22.154  87.639  1.00  0.00     0.116 A 
ATOM     13  C   UNL     1     -83.502 -21.995  86.818  1.00  0.00     0.067 A 
BRANCH   9  14
ATOM     14  C   UNL     1     -85.342 -18.677  88.758  1.00  0.00     0.269 C 
ATOM     15  C   UNL     1     -86.903 -17.798  90.540  1.00  0.00     0.143 C 
ATOM     16  N   UNL     1     -86.242 -18.900  89.854  1.00  0.00    -0.354 N 
ATOM     17  H   UNL     1     -86.439 -19.874  90.180  1.00  0.00     0.163 HD
ATOM     18  O   UNL     1     -85.107 -17.497  88.377  1.00  0.00    -0.268 OA
ENDBRANCH   9  14
ENDBRANCH   7   8
ENDBRANCH   1   7
BRANCH   4  19
ATOM     19  N   UNL     1     -76.464 -20.146  87.521  1.00  0.00    -0.308 N 
ATOM     20  C   UNL     1     -75.974 -19.116  88.395  1.00  0.00     0.323 C 
ATOM     21  H   UNL     1     -75.797 -20.903  87.248  1.00  0.00     0.171 HD
ATOM     22  O   UNL     1     -76.781 -18.367  89.010  1.00  0.00    -0.248 OA
ATOM     23  N   UNL     1     -74.558 -18.950  88.562  1.00  0.00    -0.308 N 
ATOM     24  H   UNL     1     -73.933 -19.393  87.852  1.00  0.00     0.171 HD
BRANCH  23  25
ATOM     25  C   UNL     1     -73.958 -18.105  89.559  1.00  0.00     0.043 A 
ATOM     26  C   UNL     1     -73.830 -16.718  89.364  1.00  0.00     0.040 A 
ATOM     27  C   UNL     1     -73.547 -18.666  90.774  1.00  0.00     0.028 A 
ATOM     28  C   UNL     1     -73.257 -15.898  90.358  1.00  0.00     0.076 A 
ATOM     29  C   UNL     1     -72.980 -17.866  91.766  1.00  0.00     0.023 A 
ATOM     30  C   UNL     1     -72.826 -16.491  91.567  1.00  0.00     0.053 A 
ATOM     31  Cl  UNL     1     -72.102 -15.543  92.864  1.00  0.00    -0.084 Cl
BRANCH  28  32
ATOM     32  C   UNL     1     -73.117 -14.406  90.137  1.00  0.00     0.417 C 
ATOM     33  F   UNL     1     -74.048 -13.985  89.206  1.00  0.00    -0.166 F 
ATOM     34  F   UNL     1     -71.846 -14.125  89.669  1.00  0.00    -0.166 F 
ATOM     35  F   UNL     1     -73.318 -13.690  91.305  1.00  0.00    -0.166 F 
ENDBRANCH  28  32
ENDBRANCH  23  25
ENDBRANCH   4  19
TORSDOF 6
ENDMDL
MODEL 11
REMARK VINA RESULT:    -9.482      2.992      3.596
REMARK INTER + INTRA:         -12.991
REMARK INTER:                 -12.694
REMARK INTRA:                  -0.297
REMARK UNBOUND:                -0.184
REMARK SMILES CNC(=O)c1cc(Oc2ccc(NC(=O)Nc3ccc(Cl)c(C(F)(F)F)c3)cc2)ccn1
REMARK SMILES IDX 9 1 10 2 11 3 12 4 28 5 29 6 8 7 7 8 5 9 32 10 6 11 31 12
REMARK SMILES IDX 30 13 3 14 1 15 2 16 4 18 13 19 14 20 15 22 16 23 17 25
REMARK SMILES IDX 27 26 18 27 22 28 19 29 20 30 21 31 23 32 24 33 25 34 26 35
REMARK H PARENT 2 17 13 21 16 24
REMARK Flexibility Score: inf
ROOT
ATOM      1  C   UNL     1     -80.421 -20.747  86.748  1.00  0.00     0.127 A 
ATOM      2  C   UNL     1     -80.230 -21.145  88.075  1.00  0.00     0.049 A 
ATOM      3  C   UNL     1     -78.956 -21.105  88.650  1.00  0.00     0.030 A 
ATOM      4  C   UNL     1     -77.858 -20.636  87.915  1.00  0.00     0.043 A 
ATOM      5  C   UNL     1     -78.050 -20.236  86.580  1.00  0.00     0.030 A 
ATOM      6  C   UNL     1     -79.323 -20.279  86.005  1.00  0.00     0.049 A 
ENDROOT
BRANCH   1   7
ATOM      7  O   UNL     1     -81.717 -20.786  86.213  1.00  0.00    -0.457 OA
BRANCH   7   8
ATOM      8  C   UNL     1     -82.897 -20.955  86.951  1.00  0.00     0.131 A 
ATOM      9  C   UNL     1     -84.694 -19.971  88.252  1.00  0.00     0.131 A 
ATOM     10  N   UNL     1     -85.204 -21.217  88.457  1.00  0.00    -0.251 NA
ATOM     11  C   UNL     1     -83.518 -19.827  87.495  1.00  0.00     0.081 A 
ATOM     12  C   UNL     1     -84.612 -22.332  87.954  1.00  0.00     0.116 A 
ATOM     13  C   UNL     1     -83.445 -22.223  87.198  1.00  0.00     0.067 A 
BRANCH   9  14
ATOM     14  C   UNL     1     -85.380 -18.794  88.828  1.00  0.00     0.269 C 
ATOM     15  C   UNL     1     -86.974 -17.799  90.517  1.00  0.00     0.143 C 
ATOM     16  N   UNL     1     -86.280 -18.941  89.936  1.00  0.00    -0.354 N 
ATOM     17  H   UNL     1     -86.454 -19.887  90.348  1.00  0.00     0.163 HD
ATOM     18  O   UNL     1     -85.173 -17.647  88.342  1.00  0.00    -0.268 OA
ENDBRANCH   9  14
ENDBRANCH   7   8
ENDBRANCH   1   7
BRANCH   4  19
ATOM     19  N   UNL     1     -76.555 -20.627  88.523  1.00  0.00    -0.308 N 
ATOM     20  C   UNL     1     -76.097 -19.619  89.437  1.00  0.00     0.323 C 
ATOM     21  H   UNL     1     -75.932 -21.452  88.363  1.00  0.00     0.171 HD
ATOM     22  O   UNL     1     -76.906 -18.778  89.915  1.00  0.00    -0.248 OA
ATOM     23  N   UNL     1     -74.709 -19.579  89.803  1.00  0.00    -0.308 N 
ATOM     24  H   UNL     1     -74.036 -20.102  89.199  1.00  0.00     0.171 HD
BRANCH  23  25
ATOM     25  C   UNL     1     -74.177 -18.761  90.859  1.00  0.00     0.043 A 
ATOM     26  C   UNL     1     -74.729 -17.504  91.163  1.00  0.00     0.040 A 
ATOM     27  C   UNL     1     -73.126 -19.253  91.643  1.00  0.00     0.028 A 
ATOM     28  C   UNL     1     -74.212 -16.720  92.214  1.00  0.00     0.076 A 
ATOM     29  C   UNL     1     -72.604 -18.489  92.686  1.00  0.00     0.023 A 
ATOM     30  C   UNL     1     -73.133 -17.227  92.974  1.00  0.00     0.053 A 
ATOM     31  Cl  UNL     1     -72.423 -16.318  94.307  1.00  0.00    -0.084 Cl
BRANCH  28  32
ATOM     32  C   UNL     1     -74.808 -15.365  92.529  1.00  0.00     0.417 C 
ATOM     33  F   UNL     1     -73.835 -14.390  92.411  1.00  0.00    -0.166 F 
ATOM     34  F   UNL     1     -75.299 -15.364  93.822  1.00  0.00    -0.166 F 
ATOM     35  F   UNL     1     -75.847 -15.046  91.671  1.00  0.00    -0.166 F 
ENDBRANCH  28  32
ENDBRANCH  23  25
ENDBRANCH   4  19
TORSDOF 6
ENDMDL
MODEL 12
REMARK VINA RESULT:    -9.470      5.973     10.892
REMARK INTER + INTRA:         -12.976
REMARK INTER:                 -12.287
REMARK INTRA:                  -0.689
REMARK UNBOUND:                -0.184
REMARK SMILES CNC(=O)c1cc(Oc2ccc(NC(=O)Nc3ccc(Cl)c(C(F)(F)F)c3)cc2)ccn1
REMARK SMILES IDX 9 1 10 2 11 3 12 4 28 5 29 6 8 7 7 8 5 9 32 10 6 11 31 12
REMARK SMILES IDX 30 13 3 14 1 15 2 16 4 18 13 19 14 20 15 22 16 23 17 25
REMARK SMILES IDX 27 26 18 27 22 28 19 29 20 30 21 31 23 32 24 33 25 34 26 35
REMARK H PARENT 2 17 13 21 16 24
REMARK Flexibility Score: inf
ROOT
ATOM      1  C   UNL     1     -81.449 -21.076  88.161  1.00  0.00     0.127 A 
ATOM      2  C   UNL     1     -81.725 -21.000  89.530  1.00  0.00     0.049 A 
ATOM      3  C   UNL     1     -82.992 -20.611  89.977  1.00  0.00     0.030 A 
ATOM      4  C   UNL     1     -84.012 -20.321  89.060  1.00  0.00     0.043 A 
ATOM      5  C   UNL     1     -83.735 -20.396  87.684  1.00  0.00     0.030 A 
ATOM      6  C   UNL     1     -82.468 -20.783  87.237  1.00  0.00     0.049 A 
ENDROOT
BRANCH   1   7
ATOM      7  O   UNL     1     -80.171 -21.486  87.753  1.00  0.00    -0.457 OA
BRANCH   7   8
ATOM      8  C   UNL     1     -79.157 -20.640  87.282  1.00  0.00     0.131 A 
ATOM      9  C   UNL     1     -78.196 -19.366  85.454  1.00  0.00     0.131 A 
ATOM     10  N   UNL     1     -77.167 -19.005  86.270  1.00  0.00    -0.251 NA
ATOM     11  C   UNL     1     -79.208 -20.202  85.955  1.00  0.00     0.081 A 
ATOM     12  C   UNL     1     -77.083 -19.430  87.558  1.00  0.00     0.116 A 
ATOM     13  C   UNL     1     -78.072 -20.259  88.086  1.00  0.00     0.067 A 
BRANCH   9  14
ATOM     14  C   UNL     1     -78.231 -18.876  84.058  1.00  0.00     0.269 C 
ATOM     15  C   UNL     1     -79.544 -18.091  82.048  1.00  0.00     0.143 C 
ATOM     16  N   UNL     1     -79.481 -18.567  83.424  1.00  0.00    -0.354 N 
ATOM     17  H   UNL     1     -80.378 -18.682  83.948  1.00  0.00     0.163 HD
ATOM     18  O   UNL     1     -77.154 -18.728  83.418  1.00  0.00    -0.268 OA
ENDBRANCH   9  14
ENDBRANCH   7   8
ENDBRANCH   1   7
BRANCH   4  19
ATOM     19  N   UNL     1     -85.298 -19.901  89.547  1.00  0.00    -0.308 N 
ATOM     20  C   UNL     1     -85.840 -18.584  89.364  1.00  0.00     0.323 C 
ATOM     21  H   UNL     1     -85.919 -20.622  89.980  1.00  0.00     0.171 HD
ATOM     22  O   UNL     1     -85.283 -17.769  88.579  1.00  0.00    -0.248 OA
ATOM     23  N   UNL     1     -87.022 -18.203  90.084  1.00  0.00    -0.308 N 
ATOM     24  H   UNL     1     -87.295 -18.786  90.907  1.00  0.00     0.171 HD
BRANCH  23  25
ATOM     25  C   UNL     1     -87.771 -17.002  89.828  1.00  0.00     0.043 A 
ATOM     26  C   UNL     1     -87.756 -15.923  90.730  1.00  0.00     0.040 A 
ATOM     27  C   UNL     1     -88.480 -16.880  88.627  1.00  0.00     0.028 A 
ATOM     28  C   UNL     1     -88.478 -14.743  90.458  1.00  0.00     0.076 A 
ATOM     29  C   UNL     1     -89.197 -15.718  88.345  1.00  0.00     0.023 A 
ATOM     30  C   UNL     1     -89.208 -14.653  89.251  1.00  0.00     0.053 A 
ATOM     31  Cl  UNL     1     -90.136 -13.217  88.827  1.00  0.00    -0.084 Cl
BRANCH  28  32
ATOM     32  C   UNL     1     -88.462 -13.589  91.438  1.00  0.00     0.417 C 
ATOM     33  F   UNL     1     -87.721 -12.545  90.915  1.00  0.00    -0.166 F 
ATOM     34  F   UNL     1     -87.892 -14.001  92.629  1.00  0.00    -0.166 F 
ATOM     35  F   UNL     1     -89.738 -13.122  91.707  1.00  0.00    -0.166 F 
ENDBRANCH  28  32
ENDBRANCH  23  25
ENDBRANCH   4  19
TORSDOF 6
ENDMDL
MODEL 13
REMARK VINA RESULT:    -9.462      6.809     10.997
REMARK INTER + INTRA:         -12.964
REMARK INTER:                 -12.594
REMARK INTRA:                  -0.371
REMARK UNBOUND:                -0.184
REMARK SMILES CNC(=O)c1cc(Oc2ccc(NC(=O)Nc3ccc(Cl)c(C(F)(F)F)c3)cc2)ccn1
REMARK SMILES IDX 9 1 10 2 11 3 12 4 28 5 29 6 8 7 7 8 5 9 32 10 6 11 31 12
REMARK SMILES IDX 30 13 3 14 1 15 2 16 4 18 13 19 14 20 15 22 16 23 17 25
REMARK SMILES IDX 27 26 18 27 22 28 19 29 20 30 21 31 23 32 24 33 25 34 26 35
REMARK H PARENT 2 17 13 21 16 24
REMARK Flexibility Score: inf
ROOT
ATOM      1  C   UNL     1     -73.366 -14.936  93.232  1.00  0.00     0.127 A 
ATOM      2  C   UNL     1     -72.896 -14.427  92.016  1.00  0.00     0.049 A 
ATOM      3  C   UNL     1     -73.668 -14.539  90.856  1.00  0.00     0.030 A 
ATOM      4  C   UNL     1     -74.937 -15.134  90.900  1.00  0.00     0.043 A 
ATOM      5  C   UNL     1     -75.409 -15.646  92.121  1.00  0.00     0.030 A 
ATOM      6  C   UNL     1     -74.637 -15.536  93.280  1.00  0.00     0.049 A 
ENDROOT
BRANCH   1   7
ATOM      7  O   UNL     1     -72.569 -14.789  94.377  1.00  0.00    -0.457 OA
BRANCH   7   8
ATOM      8  C   UNL     1     -72.756 -13.827  95.380  1.00  0.00     0.131 A 
ATOM      9  C   UNL     1     -73.878 -13.142  97.419  1.00  0.00     0.131 A 
ATOM     10  N   UNL     1     -73.208 -11.958  97.370  1.00  0.00    -0.251 NA
ATOM     11  C   UNL     1     -73.662 -14.096  96.410  1.00  0.00     0.081 A 
ATOM     12  C   UNL     1     -72.334 -11.663  96.371  1.00  0.00     0.116 A 
ATOM     13  C   UNL     1     -72.096 -12.589  95.355  1.00  0.00     0.067 A 
BRANCH   9  14
ATOM     14  C   UNL     1     -74.821 -13.404  98.528  1.00  0.00     0.269 C 
ATOM     15  C   UNL     1     -75.966 -15.028 100.089  1.00  0.00     0.143 C 
ATOM     16  N   UNL     1     -75.037 -14.742  99.003  1.00  0.00    -0.354 N 
ATOM     17  H   UNL     1     -74.523 -15.542  98.568  1.00  0.00     0.163 HD
ATOM     18  O   UNL     1     -75.443 -12.446  99.064  1.00  0.00    -0.268 OA
ENDBRANCH   9  14
ENDBRANCH   7   8
ENDBRANCH   1   7
BRANCH   4  19
ATOM     19  N   UNL     1     -75.700 -15.256  89.687  1.00  0.00    -0.308 N 
ATOM     20  C   UNL     1     -75.367 -16.146  88.610  1.00  0.00     0.323 C 
ATOM     21  H   UNL     1     -76.604 -14.735  89.620  1.00  0.00     0.171 HD
ATOM     22  O   UNL     1     -74.477 -17.027  88.763  1.00  0.00    -0.248 OA
ATOM     23  N   UNL     1     -76.058 -16.024  87.358  1.00  0.00    -0.308 N 
ATOM     24  H   UNL     1     -76.581 -15.137  87.179  1.00  0.00     0.171 HD
BRANCH  23  25
ATOM     25  C   UNL     1     -75.965 -16.981  86.288  1.00  0.00     0.043 A 
ATOM     26  C   UNL     1     -77.085 -17.325  85.511  1.00  0.00     0.040 A 
ATOM     27  C   UNL     1     -74.719 -17.536  85.974  1.00  0.00     0.028 A 
ATOM     28  C   UNL     1     -76.976 -18.249  84.452  1.00  0.00     0.076 A 
ATOM     29  C   UNL     1     -74.596 -18.452  84.929  1.00  0.00     0.023 A 
ATOM     30  C   UNL     1     -75.712 -18.817  84.171  1.00  0.00     0.053 A 
ATOM     31  Cl  UNL     1     -75.482 -19.978  82.866  1.00  0.00    -0.084 Cl
BRANCH  28  32
ATOM     32  C   UNL     1     -78.190 -18.619  83.626  1.00  0.00     0.417 C 
ATOM     33  F   UNL     1     -78.337 -19.993  83.604  1.00  0.00    -0.166 F 
ATOM     34  F   UNL     1     -78.027 -18.157  82.332  1.00  0.00    -0.166 F 
ATOM     35  F   UNL     1     -79.352 -18.067  84.139  1.00  0.00    -0.166 F 
ENDBRANCH  28  32
ENDBRANCH  23  25
ENDBRANCH   4  19
TORSDOF 6
ENDMDL
MODEL 14
REMARK VINA RESULT:    -9.312      6.934     11.395
REMARK INTER + INTRA:         -12.761
REMARK INTER:                 -12.292
REMARK INTRA:                  -0.469
REMARK UNBOUND:                -0.184
REMARK SMILES CNC(=O)c1cc(Oc2ccc(NC(=O)Nc3ccc(Cl)c(C(F)(F)F)c3)cc2)ccn1
REMARK SMILES IDX 9 1 10 2 11 3 12 4 28 5 29 6 8 7 7 8 5 9 32 10 6 11 31 12
REMARK SMILES IDX 30 13 3 14 1 15 2 16 4 18 13 19 14 20 15 22 16 23 17 25
REMARK SMILES IDX 27 26 18 27 22 28 19 29 20 30 21 31 23 32 24 33 25 34 26 35
REMARK H PARENT 2 17 13 21 16 24
REMARK Flexibility Score: inf
ROOT
ATOM      1  C   UNL     1     -72.841 -15.493  93.087  1.00  0.00     0.127 A 
ATOM      2  C   UNL     1     -72.685 -16.808  92.635  1.00  0.00     0.049 A 
ATOM      3  C   UNL     1     -73.126 -17.175  91.360  1.00  0.00     0.030 A 
ATOM      4  C   UNL     1     -73.702 -16.225  90.505  1.00  0.00     0.043 A 
ATOM      5  C   UNL     1     -73.860 -14.904  90.960  1.00  0.00     0.030 A 
ATOM      6  C   UNL     1     -73.422 -14.537  92.235  1.00  0.00     0.049 A 
ENDROOT
BRANCH   1   7
ATOM      7  O   UNL     1     -72.371 -15.161  94.366  1.00  0.00    -0.457 OA
BRANCH   7   8
ATOM      8  C   UNL     1     -73.155 -14.663  95.417  1.00  0.00     0.131 A 
ATOM      9  C   UNL     1     -73.514 -12.975  97.123  1.00  0.00     0.131 A 
ATOM     10  N   UNL     1     -74.627 -13.647  97.529  1.00  0.00    -0.251 NA
ATOM     11  C   UNL     1     -72.755 -13.487  96.057  1.00  0.00     0.081 A 
ATOM     12  C   UNL     1     -75.030 -14.802  96.936  1.00  0.00     0.116 A 
ATOM     13  C   UNL     1     -74.299 -15.335  95.875  1.00  0.00     0.067 A 
BRANCH   9  14
ATOM     14  C   UNL     1     -73.122 -11.725  97.809  1.00  0.00     0.269 C 
ATOM     15  C   UNL     1     -72.163 -10.544  99.826  1.00  0.00     0.143 C 
ATOM     16  N   UNL     1     -72.550 -11.762  99.126  1.00  0.00    -0.354 N 
ATOM     17  H   UNL     1     -72.403 -12.677  99.608  1.00  0.00     0.163 HD
ATOM     18  O   UNL     1     -73.291 -10.614  97.234  1.00  0.00    -0.268 OA
ENDBRANCH   9  14
ENDBRANCH   7   8
ENDBRANCH   1   7
BRANCH   4  19
ATOM     19  N   UNL     1     -74.169 -16.635  89.208  1.00  0.00    -0.308 N 
ATOM     20  C   UNL     1     -75.306 -17.483  88.989  1.00  0.00     0.323 C 
ATOM     21  H   UNL     1     -73.710 -16.217  88.366  1.00  0.00     0.171 HD
ATOM     22  O   UNL     1     -76.088 -17.757  89.940  1.00  0.00    -0.248 OA
ATOM     23  N   UNL     1     -75.545 -18.015  87.677  1.00  0.00    -0.308 N 
ATOM     24  H   UNL     1     -74.754 -17.992  86.996  1.00  0.00     0.171 HD
BRANCH  23  25
ATOM     25  C   UNL     1     -76.752 -18.695  87.291  1.00  0.00     0.043 A 
ATOM     26  C   UNL     1     -77.354 -18.466  86.040  1.00  0.00     0.040 A 
ATOM     27  C   UNL     1     -77.306 -19.650  88.151  1.00  0.00     0.028 A 
ATOM     28  C   UNL     1     -78.526 -19.153  85.664  1.00  0.00     0.076 A 
ATOM     29  C   UNL     1     -78.465 -20.338  87.792  1.00  0.00     0.023 A 
ATOM     30  C   UNL     1     -79.082 -20.094  86.561  1.00  0.00     0.053 A 
ATOM     31  Cl  UNL     1     -80.543 -21.001  86.175  1.00  0.00    -0.084 Cl
BRANCH  28  32
ATOM     32  C   UNL     1     -79.171 -18.895  84.319  1.00  0.00     0.417 C 
ATOM     33  F   UNL     1     -79.128 -20.046  83.554  1.00  0.00    -0.166 F 
ATOM     34  F   UNL     1     -78.487 -17.887  83.663  1.00  0.00    -0.166 F 
ATOM     35  F   UNL     1     -80.495 -18.509  84.446  1.00  0.00    -0.166 F 
ENDBRANCH  28  32
ENDBRANCH  23  25
ENDBRANCH   4  19
TORSDOF 6
ENDMDL
MODEL 15
REMARK VINA RESULT:    -9.285      5.021     10.052
REMARK INTER + INTRA:         -12.726
REMARK INTER:                 -11.873
REMARK INTRA:                  -0.853
REMARK UNBOUND:                -0.184
REMARK SMILES CNC(=O)c1cc(Oc2ccc(NC(=O)Nc3ccc(Cl)c(C(F)(F)F)c3)cc2)ccn1
REMARK SMILES IDX 9 1 10 2 11 3 12 4 28 5 29 6 8 7 7 8 5 9 32 10 6 11 31 12
REMARK SMILES IDX 30 13 3 14 1 15 2 16 4 18 13 19 14 20 15 22 16 23 17 25
REMARK SMILES IDX 27 26 18 27 22 28 19 29 20 30 21 31 23 32 24 33 25 34 26 35
REMARK H PARENT 2 17 13 21 16 24
REMARK Flexibility Score: inf
ROOT
ATOM      1  C   UNL     1     -73.218 -16.700  86.680  1.00  0.00     0.127 A 
ATOM      2  C   UNL     1     -73.424 -18.061  86.927  1.00  0.00     0.049 A 
ATOM      3  C   UNL     1     -74.526 -18.722  86.376  1.00  0.00     0.030 A 
ATOM      4  C   UNL     1     -75.422 -18.038  85.543  1.00  0.00     0.043 A 
ATOM      5  C   UNL     1     -75.216 -16.669  85.295  1.00  0.00     0.030 A 
ATOM      6  C   UNL     1     -74.116 -16.008  85.848  1.00  0.00     0.049 A 
ENDROOT
BRANCH   1   7
ATOM      7  O   UNL     1     -72.092 -16.077  87.238  1.00  0.00    -0.457 OA
BRANCH   7   8
ATOM      8  C   UNL     1     -72.072 -15.358  88.442  1.00  0.00     0.131 A 
ATOM      9  C   UNL     1     -73.125 -14.830  90.564  1.00  0.00     0.131 A 
ATOM     10  N   UNL     1     -72.124 -13.942  90.819  1.00  0.00    -0.251 NA
ATOM     11  C   UNL     1     -73.113 -15.549  89.357  1.00  0.00     0.081 A 
ATOM     12  C   UNL     1     -71.110 -13.724  89.941  1.00  0.00     0.116 A 
ATOM     13  C   UNL     1     -71.068 -14.422  88.734  1.00  0.00     0.067 A 
BRANCH   9  14
ATOM     14  C   UNL     1     -74.205 -15.022  91.556  1.00  0.00     0.269 C 
ATOM     15  C   UNL     1     -76.650 -15.376  92.088  1.00  0.00     0.143 C 
ATOM     16  N   UNL     1     -75.566 -15.193  91.131  1.00  0.00    -0.354 N 
ATOM     17  H   UNL     1     -75.802 -15.187  90.113  1.00  0.00     0.163 HD
ATOM     18  O   UNL     1     -73.931 -15.036  92.788  1.00  0.00    -0.268 OA
ENDBRANCH   9  14
ENDBRANCH   7   8
ENDBRANCH   1   7
BRANCH   4  19
ATOM     19  N   UNL     1     -76.560 -18.736  85.007  1.00  0.00    -0.308 N 
ATOM     20  C   UNL     1     -77.751 -19.032  85.754  1.00  0.00     0.323 C 
ATOM     21  H   UNL     1     -76.563 -18.962  83.987  1.00  0.00     0.171 HD
ATOM     22  O   UNL     1     -77.939 -18.509  86.886  1.00  0.00    -0.248 OA
ATOM     23  N   UNL     1     -78.724 -19.929  85.199  1.00  0.00    -0.308 N 
ATOM     24  H   UNL     1     -78.422 -20.539  84.406  1.00  0.00     0.171 HD
BRANCH  23  25
ATOM     25  C   UNL     1     -80.037 -20.135  85.749  1.00  0.00     0.043 A 
ATOM     26  C   UNL     1     -80.222 -20.794  86.977  1.00  0.00     0.040 A 
ATOM     27  C   UNL     1     -81.150 -19.615  85.078  1.00  0.00     0.028 A 
ATOM     28  C   UNL     1     -81.512 -20.973  87.516  1.00  0.00     0.076 A 
ATOM     29  C   UNL     1     -82.432 -19.784  85.599  1.00  0.00     0.023 A 
ATOM     30  C   UNL     1     -82.623 -20.462  86.807  1.00  0.00     0.053 A 
ATOM     31  Cl  UNL     1     -84.271 -20.637  87.406  1.00  0.00    -0.084 Cl
BRANCH  28  32
ATOM     32  C   UNL     1     -81.702 -21.690  88.836  1.00  0.00     0.417 C 
ATOM     33  F   UNL     1     -82.489 -20.921  89.674  1.00  0.00    -0.166 F 
ATOM     34  F   UNL     1     -80.471 -21.898  89.432  1.00  0.00    -0.166 F 
ATOM     35  F   UNL     1     -82.317 -22.920  88.672  1.00  0.00    -0.166 F 
ENDBRANCH  28  32
ENDBRANCH  23  25
ENDBRANCH   4  19
TORSDOF 6
ENDMDL
