MODEL 1
REMARK VINA RESULT:    -8.143      0.000      0.000
REMARK INTER + INTRA:         -10.512
REMARK INTER:                 -10.047
REMARK INTRA:                  -0.465
REMARK UNBOUND:                -0.465
REMARK SMILES CC(C)C(=O)Nc1ccc([N+](=O)[O-])c(C(F)(F)F)c1
REMARK SMILES IDX 7 1 19 2 14 3 10 4 9 5 8 6 6 7 4 8 5 9 2 11 1 12 3 13 15 14
REMARK SMILES IDX 16 15 17 16 18 17 11 18 13 19 12 20
REMARK H PARENT 6 10
REMARK Flexibility Score: inf
ROOT
ATOM      1  C   UNL     1       9.294  75.301  -2.741  1.00  0.00     0.042 A 
ATOM      2  C   UNL     1      10.200  76.370  -2.655  1.00  0.00     0.046 A 
ATOM      3  C   UNL     1       9.792  77.636  -2.188  1.00  0.00     0.135 A 
ATOM      4  C   UNL     1       8.447  77.808  -1.758  1.00  0.00     0.281 A 
ATOM      5  C   UNL     1       7.541  76.742  -1.893  1.00  0.00     0.088 A 
ATOM      6  C   UNL     1       7.959  75.507  -2.387  1.00  0.00     0.033 A 
ENDROOT
BRANCH   1   7
ATOM      7  N   UNL     1       9.698  74.016  -3.248  1.00  0.00    -0.326 N 
ATOM      8  C   UNL     1      10.171  72.941  -2.422  1.00  0.00     0.226 C 
ATOM      9  O   UNL     1      10.001  72.975  -1.172  1.00  0.00    -0.274 OA
ATOM     10  H   UNL     1       9.556  73.825  -4.266  1.00  0.00     0.169 HD
BRANCH   8  11
ATOM     11  C   UNL     1      10.796  71.724  -3.057  1.00  0.00     0.072 C 
ATOM     12  C   UNL     1      11.924  72.142  -4.004  1.00  0.00     0.018 C 
ATOM     13  C   UNL     1       9.741  70.891  -3.793  1.00  0.00     0.018 C 
ENDBRANCH   8  11
ENDBRANCH   1   7
BRANCH   3  14
ATOM     14  C   UNL     1      10.795  78.773  -2.150  1.00  0.00     0.423 C 
ATOM     15  F   UNL     1      11.893  78.446  -2.924  1.00  0.00    -0.166 F 
ATOM     16  F   UNL     1      11.201  79.015  -0.850  1.00  0.00    -0.166 F 
ATOM     17  F   UNL     1      10.248  79.946  -2.642  1.00  0.00    -0.166 F 
ENDBRANCH   3  14
BRANCH   4  18
ATOM     18  N   UNL     1       7.975  79.043  -1.191  1.00  0.00     0.063 N 
ATOM     19  O   UNL     1       7.199  79.891  -1.945  1.00  0.00    -0.258 OA
ATOM     20  O   UNL     1       8.089  79.262   0.032  1.00  0.00    -0.258 OA
ENDBRANCH   4  18
TORSDOF 4
ENDMDL
MODEL 2
REMARK VINA RESULT:    -7.914      1.412      1.800
REMARK INTER + INTRA:         -10.230
REMARK INTER:                 -10.137
REMARK INTRA:                  -0.093
REMARK UNBOUND:                -0.465
REMARK SMILES CC(C)C(=O)Nc1ccc([N+](=O)[O-])c(C(F)(F)F)c1
REMARK SMILES IDX 7 1 19 2 14 3 10 4 9 5 8 6 6 7 4 8 5 9 2 11 1 12 3 13 15 14
REMARK SMILES IDX 16 15 17 16 18 17 11 18 13 19 12 20
REMARK H PARENT 6 10
REMARK Flexibility Score: inf
ROOT
ATOM      1  C   UNL     1       8.350  74.679  -2.296  1.00  0.00     0.042 A 
ATOM      2  C   UNL     1       8.946  75.948  -2.385  1.00  0.00     0.046 A 
ATOM      3  C   UNL     1       8.463  77.034  -1.628  1.00  0.00     0.135 A 
ATOM      4  C   UNL     1       7.383  76.818  -0.728  1.00  0.00     0.281 A 
ATOM      5  C   UNL     1       6.768  75.555  -0.684  1.00  0.00     0.088 A 
ATOM      6  C   UNL     1       7.241  74.502  -1.465  1.00  0.00     0.033 A 
ENDROOT
BRANCH   1   7
ATOM      7  N   UNL     1       8.818  73.575  -3.092  1.00  0.00    -0.326 N 
ATOM      8  C   UNL     1       9.758  72.594  -2.628  1.00  0.00     0.226 C 
ATOM      9  O   UNL     1      10.020  72.494  -1.397  1.00  0.00    -0.274 OA
ATOM     10  H   UNL     1       8.381  73.429  -4.030  1.00  0.00     0.169 HD
BRANCH   8  11
ATOM     11  C   UNL     1      10.370  71.620  -3.602  1.00  0.00     0.072 C 
ATOM     12  C   UNL     1      11.772  72.085  -4.006  1.00  0.00     0.018 C 
ATOM     13  C   UNL     1       9.475  71.444  -4.833  1.00  0.00     0.018 C 
ENDBRANCH   8  11
ENDBRANCH   1   7
BRANCH   3  14
ATOM     14  C   UNL     1       9.112  78.396  -1.785  1.00  0.00     0.423 C 
ATOM     15  F   UNL     1       9.457  78.890  -0.540  1.00  0.00    -0.166 F 
ATOM     16  F   UNL     1       8.245  79.276  -2.407  1.00  0.00    -0.166 F 
ATOM     17  F   UNL     1      10.258  78.323  -2.559  1.00  0.00    -0.166 F 
ENDBRANCH   3  14
BRANCH   4  18
ATOM     18  N   UNL     1       6.889  77.853   0.140  1.00  0.00     0.063 N 
ATOM     19  O   UNL     1       6.349  78.998  -0.397  1.00  0.00    -0.258 OA
ATOM     20  O   UNL     1       6.758  77.644   1.363  1.00  0.00    -0.258 OA
ENDBRANCH   4  18
TORSDOF 4
ENDMDL
MODEL 3
REMARK VINA RESULT:    -7.791      2.616      3.315
REMARK INTER + INTRA:         -10.078
REMARK INTER:                  -9.618
REMARK INTRA:                  -0.460
REMARK UNBOUND:                -0.465
REMARK SMILES CC(C)C(=O)Nc1ccc([N+](=O)[O-])c(C(F)(F)F)c1
REMARK SMILES IDX 7 1 19 2 14 3 10 4 9 5 8 6 6 7 4 8 5 9 2 11 1 12 3 13 15 14
REMARK SMILES IDX 16 15 17 16 18 17 11 18 13 19 12 20
REMARK H PARENT 6 10
REMARK Flexibility Score: inf
ROOT
ATOM      1  C   UNL     1       8.503  75.307  -2.306  1.00  0.00     0.042 A 
ATOM      2  C   UNL     1       7.553  75.427  -1.280  1.00  0.00     0.046 A 
ATOM      3  C   UNL     1       7.274  76.676  -0.687  1.00  0.00     0.135 A 
ATOM      4  C   UNL     1       7.941  77.832  -1.178  1.00  0.00     0.281 A 
ATOM      5  C   UNL     1       8.922  77.689  -2.173  1.00  0.00     0.088 A 
ATOM      6  C   UNL     1       9.205  76.440  -2.724  1.00  0.00     0.033 A 
ENDROOT
BRANCH   1   7
ATOM      7  N   UNL     1       8.815  74.030  -2.892  1.00  0.00    -0.326 N 
ATOM      8  C   UNL     1       9.722  73.081  -2.310  1.00  0.00     0.226 C 
ATOM      9  O   UNL     1      10.090  73.205  -1.109  1.00  0.00    -0.274 OA
ATOM     10  H   UNL     1       8.283  73.739  -3.744  1.00  0.00     0.169 HD
BRANCH   8  11
ATOM     11  C   UNL     1      10.171  71.883  -3.108  1.00  0.00     0.072 C 
ATOM     12  C   UNL     1       9.407  71.813  -4.433  1.00  0.00     0.018 C 
ATOM     13  C   UNL     1       9.989  70.592  -2.302  1.00  0.00     0.018 C 
ENDBRANCH   8  11
ENDBRANCH   1   7
BRANCH   3  14
ATOM     14  C   UNL     1       6.268  76.752   0.446  1.00  0.00     0.423 C 
ATOM     15  F   UNL     1       6.909  77.148   1.606  1.00  0.00    -0.166 F 
ATOM     16  F   UNL     1       5.670  75.522   0.645  1.00  0.00    -0.166 F 
ATOM     17  F   UNL     1       5.264  77.665   0.169  1.00  0.00    -0.166 F 
ENDBRANCH   3  14
BRANCH   4  18
ATOM     18  N   UNL     1       7.651  79.151  -0.684  1.00  0.00     0.063 N 
ATOM     19  O   UNL     1       8.445  79.709   0.291  1.00  0.00    -0.258 OA
ATOM     20  O   UNL     1       6.816  79.875  -1.265  1.00  0.00    -0.258 OA
ENDBRANCH   4  18
TORSDOF 4
ENDMDL
MODEL 4
REMARK VINA RESULT:    -7.725      1.063      1.508
REMARK INTER + INTRA:          -9.996
REMARK INTER:                  -9.479
REMARK INTRA:                  -0.517
REMARK UNBOUND:                -0.465
REMARK SMILES CC(C)C(=O)Nc1ccc([N+](=O)[O-])c(C(F)(F)F)c1
REMARK SMILES IDX 7 1 19 2 14 3 10 4 9 5 8 6 6 7 4 8 5 9 2 11 1 12 3 13 15 14
REMARK SMILES IDX 16 15 17 16 18 17 11 18 13 19 12 20
REMARK H PARENT 6 10
REMARK Flexibility Score: inf
ROOT
ATOM      1  C   UNL     1       9.137  75.684  -2.731  1.00  0.00     0.042 A 
ATOM      2  C   UNL     1      10.333  76.415  -2.799  1.00  0.00     0.046 A 
ATOM      3  C   UNL     1      10.379  77.774  -2.428  1.00  0.00     0.135 A 
ATOM      4  C   UNL     1       9.196  78.391  -1.936  1.00  0.00     0.281 A 
ATOM      5  C   UNL     1       7.997  77.660  -1.916  1.00  0.00     0.088 A 
ATOM      6  C   UNL     1       7.967  76.325  -2.318  1.00  0.00     0.033 A 
ENDROOT
BRANCH   1   7
ATOM      7  N   UNL     1       9.077  74.305  -3.140  1.00  0.00    -0.326 N 
ATOM      8  C   UNL     1       9.602  73.216  -2.366  1.00  0.00     0.226 C 
ATOM      9  O   UNL     1       9.904  73.384  -1.152  1.00  0.00    -0.274 OA
ATOM     10  H   UNL     1       8.543  74.075  -4.008  1.00  0.00     0.169 HD
BRANCH   8  11
ATOM     11  C   UNL     1       9.710  71.842  -2.977  1.00  0.00     0.072 C 
ATOM     12  C   UNL     1      10.529  70.921  -2.068  1.00  0.00     0.018 C 
ATOM     13  C   UNL     1      10.326  71.916  -4.379  1.00  0.00     0.018 C 
ENDBRANCH   8  11
ENDBRANCH   1   7
BRANCH   3  14
ATOM     14  C   UNL     1      11.685  78.535  -2.556  1.00  0.00     0.423 C 
ATOM     15  F   UNL     1      12.154  78.863  -1.296  1.00  0.00    -0.166 F 
ATOM     16  F   UNL     1      11.502  79.689  -3.296  1.00  0.00    -0.166 F 
ATOM     17  F   UNL     1      12.651  77.778  -3.197  1.00  0.00    -0.166 F 
ENDBRANCH   3  14
BRANCH   4  18
ATOM     18  N   UNL     1       9.182  79.748  -1.459  1.00  0.00     0.063 N 
ATOM     19  O   UNL     1       8.705  80.754  -2.266  1.00  0.00    -0.258 OA
ATOM     20  O   UNL     1       9.405  79.999  -0.257  1.00  0.00    -0.258 OA
ENDBRANCH   4  18
TORSDOF 4
ENDMDL
MODEL 5
REMARK VINA RESULT:    -7.658      5.493      7.344
REMARK INTER + INTRA:          -9.914
REMARK INTER:                  -9.414
REMARK INTRA:                  -0.499
REMARK UNBOUND:                -0.465
REMARK SMILES CC(C)C(=O)Nc1ccc([N+](=O)[O-])c(C(F)(F)F)c1
REMARK SMILES IDX 7 1 19 2 14 3 10 4 9 5 8 6 6 7 4 8 5 9 2 11 1 12 3 13 15 14
REMARK SMILES IDX 16 15 17 16 18 17 11 18 13 19 12 20
REMARK H PARENT 6 10
REMARK Flexibility Score: inf
ROOT
ATOM      1  C   UNL     1      14.994  79.475  -3.671  1.00  0.00     0.042 A 
ATOM      2  C   UNL     1      14.947  79.978  -2.361  1.00  0.00     0.046 A 
ATOM      3  C   UNL     1      13.836  79.740  -1.527  1.00  0.00     0.135 A 
ATOM      4  C   UNL     1      12.771  78.936  -2.017  1.00  0.00     0.281 A 
ATOM      5  C   UNL     1      12.810  78.477  -3.344  1.00  0.00     0.088 A 
ATOM      6  C   UNL     1      13.905  78.751  -4.163  1.00  0.00     0.033 A 
ENDROOT
BRANCH   1   7
ATOM      7  N   UNL     1      16.110  79.743  -4.538  1.00  0.00    -0.326 N 
ATOM      8  C   UNL     1      16.083  80.699  -5.608  1.00  0.00     0.226 C 
ATOM      9  O   UNL     1      15.158  81.556  -5.674  1.00  0.00    -0.274 OA
ATOM     10  H   UNL     1      17.021  79.279  -4.320  1.00  0.00     0.169 HD
BRANCH   8  11
ATOM     11  C   UNL     1      17.210  80.741  -6.609  1.00  0.00     0.072 C 
ATOM     12  C   UNL     1      16.846  81.662  -7.777  1.00  0.00     0.018 C 
ATOM     13  C   UNL     1      17.549  79.332  -7.107  1.00  0.00     0.018 C 
ENDBRANCH   8  11
ENDBRANCH   1   7
BRANCH   3  14
ATOM     14  C   UNL     1      13.812  80.337  -0.133  1.00  0.00     0.423 C 
ATOM     15  F   UNL     1      14.951  81.098   0.064  1.00  0.00    -0.166 F 
ATOM     16  F   UNL     1      13.754  79.337   0.820  1.00  0.00    -0.166 F 
ATOM     17  F   UNL     1      12.707  81.151   0.049  1.00  0.00    -0.166 F 
ENDBRANCH   3  14
BRANCH   4  18
ATOM     18  N   UNL     1      11.643  78.577  -1.200  1.00  0.00     0.063 N 
ATOM     19  O   UNL     1      10.493  79.331  -1.247  1.00  0.00    -0.258 OA
ATOM     20  O   UNL     1      11.617  77.482  -0.602  1.00  0.00    -0.258 OA
ENDBRANCH   4  18
TORSDOF 4
ENDMDL
MODEL 6
REMARK VINA RESULT:    -7.618      6.939      8.633
REMARK INTER + INTRA:          -9.864
REMARK INTER:                  -9.653
REMARK INTRA:                  -0.210
REMARK UNBOUND:                -0.465
REMARK SMILES CC(C)C(=O)Nc1ccc([N+](=O)[O-])c(C(F)(F)F)c1
REMARK SMILES IDX 7 1 19 2 14 3 10 4 9 5 8 6 6 7 4 8 5 9 2 11 1 12 3 13 15 14
REMARK SMILES IDX 16 15 17 16 18 17 11 18 13 19 12 20
REMARK H PARENT 6 10
REMARK Flexibility Score: inf
ROOT
ATOM      1  C   UNL     1      13.917  80.192  -4.915  1.00  0.00     0.042 A 
ATOM      2  C   UNL     1      14.901  79.351  -5.459  1.00  0.00     0.046 A 
ATOM      3  C   UNL     1      15.952  79.869  -6.241  1.00  0.00     0.135 A 
ATOM      4  C   UNL     1      16.032  81.276  -6.439  1.00  0.00     0.281 A 
ATOM      5  C   UNL     1      15.016  82.100  -5.927  1.00  0.00     0.088 A 
ATOM      6  C   UNL     1      13.967  81.563  -5.182  1.00  0.00     0.033 A 
ENDROOT
BRANCH   1   7
ATOM      7  N   UNL     1      12.823  79.665  -4.143  1.00  0.00    -0.326 N 
ATOM      8  C   UNL     1      12.894  79.389  -2.736  1.00  0.00     0.226 C 
ATOM      9  O   UNL     1      13.842  79.853  -2.043  1.00  0.00    -0.274 OA
ATOM     10  H   UNL     1      11.897  79.558  -4.616  1.00  0.00     0.169 HD
BRANCH   8  11
ATOM     11  C   UNL     1      11.787  78.618  -2.064  1.00  0.00     0.072 C 
ATOM     12  C   UNL     1      11.358  77.437  -2.939  1.00  0.00     0.018 C 
ATOM     13  C   UNL     1      10.596  79.531  -1.753  1.00  0.00     0.018 C 
ENDBRANCH   8  11
ENDBRANCH   1   7
BRANCH   3  14
ATOM     14  C   UNL     1      16.971  78.919  -6.841  1.00  0.00     0.423 C 
ATOM     15  F   UNL     1      17.318  79.352  -8.108  1.00  0.00    -0.166 F 
ATOM     16  F   UNL     1      16.451  77.639  -6.917  1.00  0.00    -0.166 F 
ATOM     17  F   UNL     1      18.120  78.857  -6.071  1.00  0.00    -0.166 F 
ENDBRANCH   3  14
BRANCH   4  18
ATOM     18  N   UNL     1      17.119  81.889  -7.153  1.00  0.00     0.063 N 
ATOM     19  O   UNL     1      16.861  82.689  -8.242  1.00  0.00    -0.258 OA
ATOM     20  O   UNL     1      18.275  81.871  -6.683  1.00  0.00    -0.258 OA
ENDBRANCH   4  18
TORSDOF 4
ENDMDL
MODEL 7
REMARK VINA RESULT:    -7.575      3.887      6.746
REMARK INTER + INTRA:          -9.811
REMARK INTER:                  -9.393
REMARK INTRA:                  -0.417
REMARK UNBOUND:                -0.465
REMARK SMILES CC(C)C(=O)Nc1ccc([N+](=O)[O-])c(C(F)(F)F)c1
REMARK SMILES IDX 7 1 19 2 14 3 10 4 9 5 8 6 6 7 4 8 5 9 2 11 1 12 3 13 15 14
REMARK SMILES IDX 16 15 17 16 18 17 11 18 13 19 12 20
REMARK H PARENT 6 10
REMARK Flexibility Score: inf
ROOT
ATOM      1  C   UNL     1       7.888  74.367  -2.350  1.00  0.00     0.042 A 
ATOM      2  C   UNL     1       8.829  73.386  -2.000  1.00  0.00     0.046 A 
ATOM      3  C   UNL     1       9.475  72.611  -2.985  1.00  0.00     0.135 A 
ATOM      4  C   UNL     1       9.192  72.868  -4.355  1.00  0.00     0.281 A 
ATOM      5  C   UNL     1       8.215  73.821  -4.688  1.00  0.00     0.088 A 
ATOM      6  C   UNL     1       7.565  74.554  -3.697  1.00  0.00     0.033 A 
ENDROOT
BRANCH   1   7
ATOM      7  N   UNL     1       7.201  75.138  -1.348  1.00  0.00    -0.326 N 
ATOM      8  C   UNL     1       7.729  76.335  -0.756  1.00  0.00     0.226 C 
ATOM      9  O   UNL     1       8.710  76.928  -1.284  1.00  0.00    -0.274 OA
ATOM     10  H   UNL     1       6.225  74.859  -1.100  1.00  0.00     0.169 HD
BRANCH   8  11
ATOM     11  C   UNL     1       7.054  76.938   0.449  1.00  0.00     0.072 C 
ATOM     12  C   UNL     1       5.745  76.201   0.748  1.00  0.00     0.018 C 
ATOM     13  C   UNL     1       6.805  78.436   0.243  1.00  0.00     0.018 C 
ENDBRANCH   8  11
ENDBRANCH   1   7
BRANCH   3  14
ATOM     14  C   UNL     1      10.456  71.536  -2.559  1.00  0.00     0.423 C 
ATOM     15  F   UNL     1      10.517  71.487  -1.178  1.00  0.00    -0.166 F 
ATOM     16  F   UNL     1      11.714  71.800  -3.067  1.00  0.00    -0.166 F 
ATOM     17  F   UNL     1      10.072  70.289  -3.023  1.00  0.00    -0.166 F 
ENDBRANCH   3  14
BRANCH   4  18
ATOM     18  N   UNL     1       9.871  72.180  -5.420  1.00  0.00     0.063 N 
ATOM     19  O   UNL     1      11.114  72.604  -5.828  1.00  0.00    -0.258 OA
ATOM     20  O   UNL     1       9.443  71.086  -5.841  1.00  0.00    -0.258 OA
ENDBRANCH   4  18
TORSDOF 4
ENDMDL
MODEL 8
REMARK VINA RESULT:    -7.359      2.149      2.797
REMARK INTER + INTRA:          -9.544
REMARK INTER:                  -9.095
REMARK INTRA:                  -0.449
REMARK UNBOUND:                -0.465
REMARK SMILES CC(C)C(=O)Nc1ccc([N+](=O)[O-])c(C(F)(F)F)c1
REMARK SMILES IDX 7 1 19 2 14 3 10 4 9 5 8 6 6 7 4 8 5 9 2 11 1 12 3 13 15 14
REMARK SMILES IDX 16 15 17 16 18 17 11 18 13 19 12 20
REMARK H PARENT 6 10
REMARK Flexibility Score: inf
ROOT
ATOM      1  C   UNL     1       9.335  75.902  -2.565  1.00  0.00     0.042 A 
ATOM      2  C   UNL     1       8.389  76.684  -1.884  1.00  0.00     0.046 A 
ATOM      3  C   UNL     1       8.665  78.021  -1.532  1.00  0.00     0.135 A 
ATOM      4  C   UNL     1       9.911  78.589  -1.920  1.00  0.00     0.281 A 
ATOM      5  C   UNL     1      10.865  77.781  -2.561  1.00  0.00     0.088 A 
ATOM      6  C   UNL     1      10.582  76.451  -2.871  1.00  0.00     0.033 A 
ENDROOT
BRANCH   1   7
ATOM      7  N   UNL     1       9.070  74.527  -2.897  1.00  0.00    -0.326 N 
ATOM      8  C   UNL     1       9.603  73.410  -2.169  1.00  0.00     0.226 C 
ATOM      9  O   UNL     1      10.117  73.579  -1.028  1.00  0.00    -0.274 OA
ATOM     10  H   UNL     1       8.380  74.331  -3.657  1.00  0.00     0.169 HD
BRANCH   8  11
ATOM     11  C   UNL     1       9.471  72.016  -2.728  1.00  0.00     0.072 C 
ATOM     12  C   UNL     1      10.557  71.107  -2.145  1.00  0.00     0.018 C 
ATOM     13  C   UNL     1       9.535  72.034  -4.259  1.00  0.00     0.018 C 
ENDBRANCH   8  11
ENDBRANCH   1   7
BRANCH   3  14
ATOM     14  C   UNL     1       7.629  78.817  -0.762  1.00  0.00     0.423 C 
ATOM     15  F   UNL     1       7.026  79.730  -1.607  1.00  0.00    -0.166 F 
ATOM     16  F   UNL     1       8.220  79.485   0.295  1.00  0.00    -0.166 F 
ATOM     17  F   UNL     1       6.647  77.993  -0.238  1.00  0.00    -0.166 F 
ENDBRANCH   3  14
BRANCH   4  18
ATOM     18  N   UNL     1      10.233  79.969  -1.674  1.00  0.00     0.063 N 
ATOM     19  O   UNL     1      11.140  80.297  -0.693  1.00  0.00    -0.258 OA
ATOM     20  O   UNL     1       9.859  80.858  -2.466  1.00  0.00    -0.258 OA
ENDBRANCH   4  18
TORSDOF 4
ENDMDL
MODEL 9
REMARK VINA RESULT:    -7.180      6.272      8.055
REMARK INTER + INTRA:          -9.324
REMARK INTER:                  -8.840
REMARK INTRA:                  -0.484
REMARK UNBOUND:                -0.465
REMARK SMILES CC(C)C(=O)Nc1ccc([N+](=O)[O-])c(C(F)(F)F)c1
REMARK SMILES IDX 7 1 19 2 14 3 10 4 9 5 8 6 6 7 4 8 5 9 2 11 1 12 3 13 15 14
REMARK SMILES IDX 16 15 17 16 18 17 11 18 13 19 12 20
REMARK H PARENT 6 10
REMARK Flexibility Score: inf
ROOT
ATOM      1  C   UNL     1      15.179  80.710  -4.728  1.00  0.00     0.042 A 
ATOM      2  C   UNL     1      15.322  80.160  -3.444  1.00  0.00     0.046 A 
ATOM      3  C   UNL     1      14.201  79.727  -2.707  1.00  0.00     0.135 A 
ATOM      4  C   UNL     1      12.913  79.814  -3.304  1.00  0.00     0.281 A 
ATOM      5  C   UNL     1      12.780  80.409  -4.569  1.00  0.00     0.088 A 
ATOM      6  C   UNL     1      13.899  80.859  -5.268  1.00  0.00     0.033 A 
ENDROOT
BRANCH   1   7
ATOM      7  N   UNL     1      16.316  81.184  -5.471  1.00  0.00    -0.326 N 
ATOM      8  C   UNL     1      17.200  80.331  -6.215  1.00  0.00     0.226 C 
ATOM      9  O   UNL     1      16.866  79.143  -6.479  1.00  0.00    -0.274 OA
ATOM     10  H   UNL     1      16.456  82.217  -5.546  1.00  0.00     0.169 HD
BRANCH   8  11
ATOM     11  C   UNL     1      18.494  80.881  -6.759  1.00  0.00     0.072 C 
ATOM     12  C   UNL     1      19.285  81.573  -5.646  1.00  0.00     0.018 C 
ATOM     13  C   UNL     1      18.231  81.841  -7.924  1.00  0.00     0.018 C 
ENDBRANCH   8  11
ENDBRANCH   1   7
BRANCH   3  14
ATOM     14  C   UNL     1      14.400  79.175  -1.308  1.00  0.00     0.423 C 
ATOM     15  F   UNL     1      15.752  79.030  -1.057  1.00  0.00    -0.166 F 
ATOM     16  F   UNL     1      13.771  77.951  -1.178  1.00  0.00    -0.166 F 
ATOM     17  F   UNL     1      13.867  80.022  -0.351  1.00  0.00    -0.166 F 
ENDBRANCH   3  14
BRANCH   4  18
ATOM     18  N   UNL     1      11.731  79.316  -2.651  1.00  0.00     0.063 N 
ATOM     19  O   UNL     1      10.961  80.163  -1.888  1.00  0.00    -0.258 OA
ATOM     20  O   UNL     1      11.284  78.184  -2.927  1.00  0.00    -0.258 OA
ENDBRANCH   4  18
TORSDOF 4
ENDMDL
MODEL 10
REMARK VINA RESULT:    -7.160      2.369      3.006
REMARK INTER + INTRA:          -9.299
REMARK INTER:                  -8.821
REMARK INTRA:                  -0.478
REMARK UNBOUND:                -0.465
REMARK SMILES CC(C)C(=O)Nc1ccc([N+](=O)[O-])c(C(F)(F)F)c1
REMARK SMILES IDX 7 1 19 2 14 3 10 4 9 5 8 6 6 7 4 8 5 9 2 11 1 12 3 13 15 14
REMARK SMILES IDX 16 15 17 16 18 17 11 18 13 19 12 20
REMARK H PARENT 6 10
REMARK Flexibility Score: inf
ROOT
ATOM      1  C   UNL     1      10.199  76.725  -2.010  1.00  0.00     0.042 A 
ATOM      2  C   UNL     1       9.354  77.824  -2.236  1.00  0.00     0.046 A 
ATOM      3  C   UNL     1       9.598  79.070  -1.623  1.00  0.00     0.135 A 
ATOM      4  C   UNL     1      10.749  79.216  -0.800  1.00  0.00     0.281 A 
ATOM      5  C   UNL     1      11.560  78.097  -0.548  1.00  0.00     0.088 A 
ATOM      6  C   UNL     1      11.282  76.865  -1.139  1.00  0.00     0.033 A 
ENDROOT
BRANCH   1   7
ATOM      7  N   UNL     1       9.936  75.443  -2.606  1.00  0.00    -0.326 N 
ATOM      8  C   UNL     1       9.288  74.359  -1.923  1.00  0.00     0.226 C 
ATOM      9  O   UNL     1       8.669  74.566  -0.843  1.00  0.00    -0.274 OA
ATOM     10  H   UNL     1      10.149  75.323  -3.623  1.00  0.00     0.169 HD
BRANCH   8  11
ATOM     11  C   UNL     1       9.271  72.983  -2.541  1.00  0.00     0.072 C 
ATOM     12  C   UNL     1      10.431  72.145  -1.997  1.00  0.00     0.018 C 
ATOM     13  C   UNL     1       9.328  73.071  -4.070  1.00  0.00     0.018 C 
ENDBRANCH   8  11
ENDBRANCH   1   7
BRANCH   3  14
ATOM     14  C   UNL     1       8.636  80.217  -1.864  1.00  0.00     0.423 C 
ATOM     15  F   UNL     1       9.273  81.210  -2.586  1.00  0.00    -0.166 F 
ATOM     16  F   UNL     1       8.189  80.734  -0.662  1.00  0.00    -0.166 F 
ATOM     17  F   UNL     1       7.525  79.803  -2.579  1.00  0.00    -0.166 F 
ENDBRANCH   3  14
BRANCH   4  18
ATOM     18  N   UNL     1      11.113  80.475  -0.209  1.00  0.00     0.063 N 
ATOM     19  O   UNL     1      10.648  80.805   1.043  1.00  0.00    -0.258 OA
ATOM     20  O   UNL     1      12.003  81.183  -0.724  1.00  0.00    -0.258 OA
ENDBRANCH   4  18
TORSDOF 4
ENDMDL
MODEL 11
REMARK VINA RESULT:    -7.118      5.117      7.114
REMARK INTER + INTRA:          -9.247
REMARK INTER:                  -8.872
REMARK INTRA:                  -0.375
REMARK UNBOUND:                -0.465
REMARK SMILES CC(C)C(=O)Nc1ccc([N+](=O)[O-])c(C(F)(F)F)c1
REMARK SMILES IDX 7 1 19 2 14 3 10 4 9 5 8 6 6 7 4 8 5 9 2 11 1 12 3 13 15 14
REMARK SMILES IDX 16 15 17 16 18 17 11 18 13 19 12 20
REMARK H PARENT 6 10
REMARK Flexibility Score: inf
ROOT
ATOM      1  C   UNL     1      14.631  79.374  -3.444  1.00  0.00     0.042 A 
ATOM      2  C   UNL     1      13.417  78.670  -3.434  1.00  0.00     0.046 A 
ATOM      3  C   UNL     1      12.571  78.691  -2.307  1.00  0.00     0.135 A 
ATOM      4  C   UNL     1      12.944  79.480  -1.184  1.00  0.00     0.281 A 
ATOM      5  C   UNL     1      14.183  80.142  -1.190  1.00  0.00     0.088 A 
ATOM      6  C   UNL     1      15.020  80.082  -2.304  1.00  0.00     0.033 A 
ENDROOT
BRANCH   1   7
ATOM      7  N   UNL     1      15.514  79.329  -4.580  1.00  0.00    -0.326 N 
ATOM      8  C   UNL     1      15.612  80.372  -5.561  1.00  0.00     0.226 C 
ATOM      9  O   UNL     1      15.122  81.512  -5.330  1.00  0.00    -0.274 OA
ATOM     10  H   UNL     1      16.186  78.531  -4.646  1.00  0.00     0.169 HD
BRANCH   8  11
ATOM     11  C   UNL     1      16.380  80.136  -6.837  1.00  0.00     0.072 C 
ATOM     12  C   UNL     1      17.574  79.214  -6.572  1.00  0.00     0.018 C 
ATOM     13  C   UNL     1      16.837  81.462  -7.453  1.00  0.00     0.018 C 
ENDBRANCH   8  11
ENDBRANCH   1   7
BRANCH   3  14
ATOM     14  C   UNL     1      11.287  77.883  -2.326  1.00  0.00     0.423 C 
ATOM     15  F   UNL     1      11.325  76.981  -3.374  1.00  0.00    -0.166 F 
ATOM     16  F   UNL     1      10.194  78.717  -2.473  1.00  0.00    -0.166 F 
ATOM     17  F   UNL     1      11.118  77.176  -1.148  1.00  0.00    -0.166 F 
ENDBRANCH   3  14
BRANCH   4  18
ATOM     18  N   UNL     1      12.096  79.620  -0.031  1.00  0.00     0.063 N 
ATOM     19  O   UNL     1      12.462  79.044   1.164  1.00  0.00    -0.258 OA
ATOM     20  O   UNL     1      11.140  80.422  -0.042  1.00  0.00    -0.258 OA
ENDBRANCH   4  18
TORSDOF 4
ENDMDL
MODEL 12
REMARK VINA RESULT:    -7.072      3.056      4.323
REMARK INTER + INTRA:          -9.191
REMARK INTER:                  -8.695
REMARK INTRA:                  -0.496
REMARK UNBOUND:                -0.465
REMARK SMILES CC(C)C(=O)Nc1ccc([N+](=O)[O-])c(C(F)(F)F)c1
REMARK SMILES IDX 7 1 19 2 14 3 10 4 9 5 8 6 6 7 4 8 5 9 2 11 1 12 3 13 15 14
REMARK SMILES IDX 16 15 17 16 18 17 11 18 13 19 12 20
REMARK H PARENT 6 10
REMARK Flexibility Score: inf
ROOT
ATOM      1  C   UNL     1      10.149  77.874  -2.004  1.00  0.00     0.042 A 
ATOM      2  C   UNL     1       9.748  78.994  -1.258  1.00  0.00     0.046 A 
ATOM      3  C   UNL     1      10.694  79.816  -0.612  1.00  0.00     0.135 A 
ATOM      4  C   UNL     1      12.077  79.521  -0.764  1.00  0.00     0.281 A 
ATOM      5  C   UNL     1      12.461  78.372  -1.475  1.00  0.00     0.088 A 
ATOM      6  C   UNL     1      11.507  77.554  -2.080  1.00  0.00     0.033 A 
ENDROOT
BRANCH   1   7
ATOM      7  N   UNL     1       9.186  77.013  -2.638  1.00  0.00    -0.326 N 
ATOM      8  C   UNL     1       8.675  75.809  -2.047  1.00  0.00     0.226 C 
ATOM      9  O   UNL     1       8.841  75.584  -0.816  1.00  0.00    -0.274 OA
ATOM     10  H   UNL     1       8.769  77.329  -3.544  1.00  0.00     0.169 HD
BRANCH   8  11
ATOM     11  C   UNL     1       7.860  74.851  -2.877  1.00  0.00     0.072 C 
ATOM     12  C   UNL     1       8.765  73.778  -3.489  1.00  0.00     0.018 C 
ATOM     13  C   UNL     1       7.082  75.597  -3.966  1.00  0.00     0.018 C 
ENDBRANCH   8  11
ENDBRANCH   1   7
BRANCH   3  14
ATOM     14  C   UNL     1      10.213  80.992   0.217  1.00  0.00     0.423 C 
ATOM     15  F   UNL     1       8.847  81.141   0.059  1.00  0.00    -0.166 F 
ATOM     16  F   UNL     1      10.853  82.153  -0.176  1.00  0.00    -0.166 F 
ATOM     17  F   UNL     1      10.479  80.804   1.563  1.00  0.00    -0.166 F 
ENDBRANCH   3  14
BRANCH   4  18
ATOM     18  N   UNL     1      13.105  80.358  -0.206  1.00  0.00     0.063 N 
ATOM     19  O   UNL     1      13.517  80.167   1.092  1.00  0.00    -0.258 OA
ATOM     20  O   UNL     1      13.768  81.120  -0.940  1.00  0.00    -0.258 OA
ENDBRANCH   4  18
TORSDOF 4
ENDMDL
MODEL 13
REMARK VINA RESULT:    -7.005      3.441      5.642
REMARK INTER + INTRA:          -9.108
REMARK INTER:                  -8.673
REMARK INTRA:                  -0.435
REMARK UNBOUND:                -0.465
REMARK SMILES CC(C)C(=O)Nc1ccc([N+](=O)[O-])c(C(F)(F)F)c1
REMARK SMILES IDX 7 1 19 2 14 3 10 4 9 5 8 6 6 7 4 8 5 9 2 11 1 12 3 13 15 14
REMARK SMILES IDX 16 15 17 16 18 17 11 18 13 19 12 20
REMARK H PARENT 6 10
REMARK Flexibility Score: inf
ROOT
ATOM      1  C   UNL     1      10.192  77.551  -2.256  1.00  0.00     0.042 A 
ATOM      2  C   UNL     1      10.211  76.240  -2.758  1.00  0.00     0.046 A 
ATOM      3  C   UNL     1       9.185  75.324  -2.446  1.00  0.00     0.135 A 
ATOM      4  C   UNL     1       8.096  75.763  -1.644  1.00  0.00     0.281 A 
ATOM      5  C   UNL     1       8.113  77.063  -1.112  1.00  0.00     0.088 A 
ATOM      6  C   UNL     1       9.154  77.942  -1.408  1.00  0.00     0.033 A 
ENDROOT
BRANCH   1   7
ATOM      7  N   UNL     1      11.253  78.479  -2.545  1.00  0.00    -0.326 N 
ATOM      8  C   UNL     1      12.379  78.703  -1.682  1.00  0.00     0.226 C 
ATOM      9  O   UNL     1      12.636  77.895  -0.748  1.00  0.00    -0.274 OA
ATOM     10  H   UNL     1      11.250  78.952  -3.477  1.00  0.00     0.169 HD
BRANCH   8  11
ATOM     11  C   UNL     1      13.310  79.860  -1.946  1.00  0.00     0.072 C 
ATOM     12  C   UNL     1      14.723  79.346  -2.235  1.00  0.00     0.018 C 
ATOM     13  C   UNL     1      13.312  80.838  -0.767  1.00  0.00     0.018 C 
ENDBRANCH   8  11
ENDBRANCH   1   7
BRANCH   3  14
ATOM     14  C   UNL     1       9.268  73.906  -2.978  1.00  0.00     0.423 C 
ATOM     15  F   UNL     1      10.527  73.683  -3.504  1.00  0.00    -0.166 F 
ATOM     16  F   UNL     1       8.314  73.703  -3.959  1.00  0.00    -0.166 F 
ATOM     17  F   UNL     1       9.041  72.977  -1.977  1.00  0.00    -0.166 F 
ENDBRANCH   3  14
BRANCH   4  18
ATOM     18  N   UNL     1       6.970  74.916  -1.352  1.00  0.00     0.063 N 
ATOM     19  O   UNL     1       6.783  74.442  -0.074  1.00  0.00    -0.258 OA
ATOM     20  O   UNL     1       6.054  74.769  -2.187  1.00  0.00    -0.258 OA
ENDBRANCH   4  18
TORSDOF 4
ENDMDL
MODEL 14
REMARK VINA RESULT:    -6.997      5.652      7.247
REMARK INTER + INTRA:          -9.098
REMARK INTER:                  -8.750
REMARK INTRA:                  -0.348
REMARK UNBOUND:                -0.465
REMARK SMILES CC(C)C(=O)Nc1ccc([N+](=O)[O-])c(C(F)(F)F)c1
REMARK SMILES IDX 7 1 19 2 14 3 10 4 9 5 8 6 6 7 4 8 5 9 2 11 1 12 3 13 15 14
REMARK SMILES IDX 16 15 17 16 18 17 11 18 13 19 12 20
REMARK H PARENT 6 10
REMARK Flexibility Score: inf
ROOT
ATOM      1  C   UNL     1      14.545  79.329  -3.229  1.00  0.00     0.042 A 
ATOM      2  C   UNL     1      13.198  79.641  -2.985  1.00  0.00     0.046 A 
ATOM      3  C   UNL     1      12.694  79.721  -1.671  1.00  0.00     0.135 A 
ATOM      4  C   UNL     1      13.587  79.523  -0.581  1.00  0.00     0.281 A 
ATOM      5  C   UNL     1      14.920  79.167  -0.840  1.00  0.00     0.088 A 
ATOM      6  C   UNL     1      15.390  79.063  -2.149  1.00  0.00     0.033 A 
ENDROOT
BRANCH   1   7
ATOM      7  N   UNL     1      15.057  79.214  -4.569  1.00  0.00    -0.326 N 
ATOM      8  C   UNL     1      15.930  80.177  -5.179  1.00  0.00     0.226 C 
ATOM      9  O   UNL     1      16.515  81.044  -4.473  1.00  0.00    -0.274 OA
ATOM     10  H   UNL     1      14.852  78.336  -5.097  1.00  0.00     0.169 HD
BRANCH   8  11
ATOM     11  C   UNL     1      16.219  80.100  -6.656  1.00  0.00     0.072 C 
ATOM     12  C   UNL     1      17.142  78.915  -6.953  1.00  0.00     0.018 C 
ATOM     13  C   UNL     1      16.831  81.411  -7.162  1.00  0.00     0.018 C 
ENDBRANCH   8  11
ENDBRANCH   1   7
BRANCH   3  14
ATOM     14  C   UNL     1      11.223  80.022  -1.456  1.00  0.00     0.423 C 
ATOM     15  F   UNL     1      10.564  79.995  -2.671  1.00  0.00    -0.166 F 
ATOM     16  F   UNL     1      11.065  81.266  -0.872  1.00  0.00    -0.166 F 
ATOM     17  F   UNL     1      10.634  79.090  -0.619  1.00  0.00    -0.166 F 
ENDBRANCH   3  14
BRANCH   4  18
ATOM     18  N   UNL     1      13.169  79.670   0.788  1.00  0.00     0.063 N 
ATOM     19  O   UNL     1      12.997  78.556   1.576  1.00  0.00    -0.258 OA
ATOM     20  O   UNL     1      13.154  80.796   1.328  1.00  0.00    -0.258 OA
ENDBRANCH   4  18
TORSDOF 4
ENDMDL
MODEL 15
REMARK VINA RESULT:    -6.805      2.562      3.614
REMARK INTER + INTRA:          -8.861
REMARK INTER:                  -8.318
REMARK INTRA:                  -0.543
REMARK UNBOUND:                -0.465
REMARK SMILES CC(C)C(=O)Nc1ccc([N+](=O)[O-])c(C(F)(F)F)c1
REMARK SMILES IDX 7 1 19 2 14 3 10 4 9 5 8 6 6 7 4 8 5 9 2 11 1 12 3 13 15 14
REMARK SMILES IDX 16 15 17 16 18 17 11 18 13 19 12 20
REMARK H PARENT 6 10
REMARK Flexibility Score: inf
ROOT
ATOM      1  C   UNL     1       9.250  78.067  -1.725  1.00  0.00     0.042 A 
ATOM      2  C   UNL     1      10.650  78.146  -1.780  1.00  0.00     0.046 A 
ATOM      3  C   UNL     1      11.349  79.176  -1.119  1.00  0.00     0.135 A 
ATOM      4  C   UNL     1      10.614  80.119  -0.349  1.00  0.00     0.281 A 
ATOM      5  C   UNL     1       9.210  80.055  -0.340  1.00  0.00     0.088 A 
ATOM      6  C   UNL     1       8.537  79.046  -1.028  1.00  0.00     0.033 A 
ENDROOT
BRANCH   1   7
ATOM      7  N   UNL     1       8.529  77.037  -2.425  1.00  0.00    -0.326 N 
ATOM      8  C   UNL     1       8.351  75.702  -1.927  1.00  0.00     0.226 C 
ATOM      9  O   UNL     1       8.588  75.438  -0.716  1.00  0.00    -0.274 OA
ATOM     10  H   UNL     1       8.032  77.300  -3.307  1.00  0.00     0.169 HD
BRANCH   8  11
ATOM     11  C   UNL     1       7.795  74.630  -2.829  1.00  0.00     0.072 C 
ATOM     12  C   UNL     1       8.932  73.781  -3.405  1.00  0.00     0.018 C 
ATOM     13  C   UNL     1       6.949  75.244  -3.949  1.00  0.00     0.018 C 
ENDBRANCH   8  11
ENDBRANCH   1   7
BRANCH   3  14
ATOM     14  C   UNL     1      12.860  79.245  -1.239  1.00  0.00     0.423 C 
ATOM     15  F   UNL     1      13.226  80.473  -1.760  1.00  0.00    -0.166 F 
ATOM     16  F   UNL     1      13.325  78.236  -2.062  1.00  0.00    -0.166 F 
ATOM     17  F   UNL     1      13.471  79.094  -0.006  1.00  0.00    -0.166 F 
ENDBRANCH   3  14
BRANCH   4  18
ATOM     18  N   UNL     1      11.259  81.148   0.422  1.00  0.00     0.063 N 
ATOM     19  O   UNL     1      11.395  82.413  -0.100  1.00  0.00    -0.258 OA
ATOM     20  O   UNL     1      11.515  80.967   1.630  1.00  0.00    -0.258 OA
ENDBRANCH   4  18
TORSDOF 4
ENDMDL
