MODEL 1
REMARK VINA RESULT:    -9.354      0.000      0.000
REMARK INTER + INTRA:         -22.900
REMARK INTER:                 -20.017
REMARK INTRA:                  -2.883
REMARK UNBOUND:                -2.883
REMARK SMILES CC(C)c1nc(CN(C)C(=O)N[C@H](C(=O)N[C@@H](Cc2ccccc2)C[C@H](O)[C@H](Cc2ccccc2)NC(=O)OCc2cncs2)C(C)C)cs1
REMARK SMILES IDX 17 1 16 2 14 3 15 4 13 6 46 7 47 8 48 9 12 10 10 11 11 13
REMARK SMILES IDX 8 14 9 15 7 16 6 17 49 18 5 19 50 20 4 21 2 22 1 23 3 24
REMARK SMILES IDX 25 25 26 26 27 27 28 29 29 30 30 31 31 32 35 33 32 34 34 35
REMARK SMILES IDX 33 36 36 37 37 38 38 40 39 41 40 42 41 43 42 44 45 45 43 46
REMARK SMILES IDX 44 47 18 48 19 49 20 50 24 51 21 52 23 53 22 54
REMARK H PARENT 16 5 12 12 27 28 36 39
REMARK Flexibility Score: inf
ROOT
ATOM      1  C   UNL     1      13.444  78.594  -3.368  1.00  0.00     0.089 C 
ENDROOT
BRANCH   1   2
ATOM      2  N   UNL     1      11.985  78.745  -3.289  1.00  0.00    -0.351 N 
ATOM      3  C   UNL     1      11.208  78.139  -2.244  1.00  0.00     0.243 C 
ATOM      4  O   UNL     1      11.770  77.406  -1.385  1.00  0.00    -0.273 OA
ATOM      5  H   UNL     1      11.510  79.461  -3.880  1.00  0.00     0.163 HD
BRANCH   3   6
ATOM      6  C   UNL     1       9.726  78.424  -2.148  1.00  0.00     0.175 C 
BRANCH   6   7
ATOM      7  C   UNL     1       9.429  79.819  -1.522  1.00  0.00     0.015 C 
ATOM      8  C   UNL     1       8.322  79.727  -0.460  1.00  0.00     0.010 C 
ATOM      9  C   UNL     1       9.018  80.842  -2.597  1.00  0.00     0.010 C 
ENDBRANCH   6   7
BRANCH   6  10
ATOM     10  N   UNL     1       9.030  77.328  -1.450  1.00  0.00    -0.326 N 
ATOM     11  C   UNL     1       7.956  76.541  -2.004  1.00  0.00     0.318 C 
ATOM     12  H   UNL     1       9.387  77.080  -0.503  1.00  0.00     0.166 HD
ATOM     13  O   UNL     1       7.580  76.737  -3.190  1.00  0.00    -0.249 OA
BRANCH  11  14
ATOM     14  N   UNL     1       7.318  75.512  -1.222  1.00  0.00    -0.322 N 
ATOM     15  C   UNL     1       6.752  75.823   0.095  1.00  0.00     0.149 C 
BRANCH  14  16
ATOM     16  C   UNL     1       7.169  74.158  -1.771  1.00  0.00     0.178 C 
BRANCH  16  17
ATOM     17  C   UNL     1       8.468  73.675  -2.345  1.00  0.00     0.071 A 
ATOM     18  C   UNL     1       9.606  73.445  -1.574  1.00  0.00     0.092 A 
ATOM     19  N   UNL     1       8.610  73.425  -3.675  1.00  0.00    -0.244 NA
ATOM     20  S   UNL     1      10.821  72.895  -2.601  1.00  0.00    -0.127 S 
ATOM     21  C   UNL     1       9.857  72.996  -3.980  1.00  0.00     0.095 A 
BRANCH  21  22
ATOM     22  C   UNL     1      10.262  72.567  -5.364  1.00  0.00     0.042 C 
ATOM     23  C   UNL     1      11.785  72.564  -5.517  1.00  0.00     0.015 C 
ATOM     24  C   UNL     1       9.675  71.189  -5.686  1.00  0.00     0.015 C 
ENDBRANCH  21  22
ENDBRANCH  16  17
ENDBRANCH  14  16
ENDBRANCH  11  14
ENDBRANCH   6  10
ENDBRANCH   3   6
ENDBRANCH   1   2
BRANCH   1  25
ATOM     25  C   UNL     1      14.121  79.807  -2.682  1.00  0.00     0.059 C 
BRANCH  25  26
ATOM     26  C   UNL     1      15.107  79.511  -1.520  1.00  0.00     0.139 C 
BRANCH  26  27
ATOM     27  O   UNL     1      16.057  78.552  -1.901  1.00  0.00    -0.391 OA
ATOM     28  H   UNL     1      16.390  78.811  -2.799  1.00  0.00     0.211 HD
ENDBRANCH  26  27
BRANCH  26  29
ATOM     29  C   UNL     1      14.425  79.129  -0.172  1.00  0.00     0.118 C 
BRANCH  29  30
ATOM     30  C   UNL     1      14.358  80.334   0.795  1.00  0.00     0.063 C 
BRANCH  30  31
ATOM     31  C   UNL     1      12.981  80.949   0.836  1.00  0.00    -0.046 A 
ATOM     32  C   UNL     1      12.096  80.648   1.885  1.00  0.00     0.004 A 
ATOM     33  C   UNL     1      12.560  81.811  -0.191  1.00  0.00     0.004 A 
ATOM     34  C   UNL     1      10.811  81.198   1.904  1.00  0.00     0.000 A 
ATOM     35  C   UNL     1      11.270  82.352  -0.171  1.00  0.00     0.000 A 
ATOM     36  C   UNL     1      10.396  82.046   0.874  1.00  0.00     0.000 A 
ENDBRANCH  30  31
ENDBRANCH  29  30
BRANCH  29  37
ATOM     37  N   UNL     1      15.044  77.954   0.468  1.00  0.00    -0.316 N 
ATOM     38  C   UNL     1      14.389  77.022   1.343  1.00  0.00     0.407 C 
ATOM     39  H   UNL     1      16.034  77.734   0.218  1.00  0.00     0.167 HD
ATOM     40  O   UNL     1      13.143  77.080   1.534  1.00  0.00    -0.225 OA
BRANCH  38  41
ATOM     41  O   UNL     1      15.153  76.039   1.977  1.00  0.00    -0.444 OA
BRANCH  41  42
ATOM     42  C   UNL     1      14.588  74.829   2.469  1.00  0.00     0.283 C 
BRANCH  42  43
ATOM     43  C   UNL     1      14.481  74.906   3.953  1.00  0.00     0.062 A 
ATOM     44  C   UNL     1      13.489  75.565   4.668  1.00  0.00     0.130 A 
ATOM     45  S   UNL     1      15.476  74.104   5.045  1.00  0.00    -0.124 S 
ATOM     46  N   UNL     1      13.579  75.430   6.019  1.00  0.00    -0.253 NA
ATOM     47  C   UNL     1      14.626  74.657   6.388  1.00  0.00     0.175 A 
ENDBRANCH  42  43
ENDBRANCH  41  42
ENDBRANCH  38  41
ENDBRANCH  29  37
ENDBRANCH  26  29
ENDBRANCH  25  26
ENDBRANCH   1  25
BRANCH   1  48
ATOM     48  C   UNL     1      13.902  78.343  -4.830  1.00  0.00     0.060 C 
BRANCH  48  49
ATOM     49  C   UNL     1      14.673  79.487  -5.455  1.00  0.00    -0.046 A 
ATOM     50  C   UNL     1      15.895  79.240  -6.108  1.00  0.00     0.004 A 
ATOM     51  C   UNL     1      14.190  80.805  -5.391  1.00  0.00     0.004 A 
ATOM     52  C   UNL     1      16.603  80.288  -6.706  1.00  0.00     0.000 A 
ATOM     53  C   UNL     1      14.902  81.849  -5.990  1.00  0.00     0.000 A 
ATOM     54  C   UNL     1      16.106  81.591  -6.649  1.00  0.00     0.000 A 
ENDBRANCH  48  49
ENDBRANCH   1  48
TORSDOF 20
ENDMDL
MODEL 2
REMARK VINA RESULT:    -8.265      2.908      7.124
REMARK INTER + INTRA:         -20.571
REMARK INTER:                 -18.731
REMARK INTRA:                  -1.840
REMARK UNBOUND:                -2.883
REMARK SMILES CC(C)c1nc(CN(C)C(=O)N[C@H](C(=O)N[C@@H](Cc2ccccc2)C[C@H](O)[C@H](Cc2ccccc2)NC(=O)OCc2cncs2)C(C)C)cs1
REMARK SMILES IDX 17 1 16 2 14 3 15 4 13 6 46 7 47 8 48 9 12 10 10 11 11 13
REMARK SMILES IDX 8 14 9 15 7 16 6 17 49 18 5 19 50 20 4 21 2 22 1 23 3 24
REMARK SMILES IDX 25 25 26 26 27 27 28 29 29 30 30 31 31 32 35 33 32 34 34 35
REMARK SMILES IDX 33 36 36 37 37 38 38 40 39 41 40 42 41 43 42 44 45 45 43 46
REMARK SMILES IDX 44 47 18 48 19 49 20 50 24 51 21 52 23 53 22 54
REMARK H PARENT 16 5 12 12 27 28 36 39
REMARK Flexibility Score: inf
ROOT
ATOM      1  C   UNL     1      13.014  78.042   0.486  1.00  0.00     0.089 C 
ENDROOT
BRANCH   1   2
ATOM      2  N   UNL     1      11.727  78.028  -0.222  1.00  0.00    -0.351 N 
ATOM      3  C   UNL     1      10.919  79.207  -0.365  1.00  0.00     0.243 C 
ATOM      4  O   UNL     1      11.283  80.289   0.171  1.00  0.00    -0.273 OA
ATOM      5  H   UNL     1      11.471  77.202  -0.804  1.00  0.00     0.163 HD
BRANCH   3   6
ATOM      6  C   UNL     1       9.661  79.158  -1.202  1.00  0.00     0.175 C 
BRANCH   6   7
ATOM      7  C   UNL     1       8.857  80.490  -1.145  1.00  0.00     0.015 C 
ATOM      8  C   UNL     1       7.713  80.407  -0.122  1.00  0.00     0.010 C 
ATOM      9  C   UNL     1       8.278  80.858  -2.524  1.00  0.00     0.010 C 
ENDBRANCH   6   7
BRANCH   6  10
ATOM     10  N   UNL     1       8.844  77.985  -0.844  1.00  0.00    -0.326 N 
ATOM     11  C   UNL     1       8.277  77.050  -1.784  1.00  0.00     0.318 C 
ATOM     12  H   UNL     1       8.717  77.801   0.174  1.00  0.00     0.166 HD
ATOM     13  O   UNL     1       8.509  77.177  -3.015  1.00  0.00    -0.249 OA
BRANCH  11  14
ATOM     14  N   UNL     1       7.459  75.952  -1.329  1.00  0.00    -0.322 N 
ATOM     15  C   UNL     1       6.931  75.936   0.039  1.00  0.00     0.149 C 
BRANCH  14  16
ATOM     16  C   UNL     1       7.095  74.874  -2.258  1.00  0.00     0.178 C 
BRANCH  16  17
ATOM     17  C   UNL     1       8.308  74.089  -2.658  1.00  0.00     0.071 A 
ATOM     18  C   UNL     1       9.261  73.635  -1.748  1.00  0.00     0.092 A 
ATOM     19  N   UNL     1       8.550  73.765  -3.958  1.00  0.00    -0.244 NA
ATOM     20  S   UNL     1      10.433  72.788  -2.608  1.00  0.00    -0.127 S 
ATOM     21  C   UNL     1       9.693  73.054  -4.099  1.00  0.00     0.095 A 
BRANCH  21  22
ATOM     22  C   UNL     1      10.153  72.494  -5.418  1.00  0.00     0.042 C 
ATOM     23  C   UNL     1      11.682  72.419  -5.481  1.00  0.00     0.015 C 
ATOM     24  C   UNL     1       9.526  71.118  -5.659  1.00  0.00     0.015 C 
ENDBRANCH  21  22
ENDBRANCH  16  17
ENDBRANCH  14  16
ENDBRANCH  11  14
ENDBRANCH   6  10
ENDBRANCH   3   6
ENDBRANCH   1   2
BRANCH   1  25
ATOM     25  C   UNL     1      13.861  79.237  -0.018  1.00  0.00     0.059 C 
BRANCH  25  26
ATOM     26  C   UNL     1      14.853  78.969  -1.182  1.00  0.00     0.139 C 
BRANCH  26  27
ATOM     27  O   UNL     1      16.175  78.933  -0.713  1.00  0.00    -0.391 OA
ATOM     28  H   UNL     1      16.288  78.079  -0.221  1.00  0.00     0.211 HD
ENDBRANCH  26  27
BRANCH  26  29
ATOM     29  C   UNL     1      14.708  79.935  -2.394  1.00  0.00     0.118 C 
BRANCH  29  30
ATOM     30  C   UNL     1      13.325  79.797  -3.072  1.00  0.00     0.063 C 
BRANCH  30  31
ATOM     31  C   UNL     1      13.126  78.428  -3.675  1.00  0.00    -0.046 A 
ATOM     32  C   UNL     1      12.114  77.578  -3.196  1.00  0.00     0.004 A 
ATOM     33  C   UNL     1      13.968  77.979  -4.705  1.00  0.00     0.004 A 
ATOM     34  C   UNL     1      11.952  76.300  -3.738  1.00  0.00     0.000 A 
ATOM     35  C   UNL     1      13.806  76.696  -5.239  1.00  0.00     0.000 A 
ATOM     36  C   UNL     1      12.800  75.857  -4.755  1.00  0.00     0.000 A 
ENDBRANCH  30  31
ENDBRANCH  29  30
BRANCH  29  37
ATOM     37  N   UNL     1      15.806  79.798  -3.369  1.00  0.00    -0.316 N 
ATOM     38  C   UNL     1      15.936  80.518  -4.605  1.00  0.00     0.407 C 
ATOM     39  H   UNL     1      16.600  79.169  -3.115  1.00  0.00     0.167 HD
ATOM     40  O   UNL     1      15.141  81.453  -4.897  1.00  0.00    -0.225 OA
BRANCH  38  41
ATOM     41  O   UNL     1      16.966  80.171  -5.483  1.00  0.00    -0.444 OA
BRANCH  41  42
ATOM     42  C   UNL     1      17.179  80.845  -6.718  1.00  0.00     0.283 C 
BRANCH  42  43
ATOM     43  C   UNL     1      18.512  81.512  -6.689  1.00  0.00     0.062 A 
ATOM     44  C   UNL     1      19.186  82.040  -7.782  1.00  0.00     0.130 A 
ATOM     45  S   UNL     1      19.397  81.859  -5.303  1.00  0.00    -0.124 S 
ATOM     46  N   UNL     1      20.360  82.657  -7.480  1.00  0.00    -0.253 NA
ATOM     47  C   UNL     1      20.623  82.638  -6.154  1.00  0.00     0.175 A 
ENDBRANCH  42  43
ENDBRANCH  41  42
ENDBRANCH  38  41
ENDBRANCH  29  37
ENDBRANCH  26  29
ENDBRANCH  25  26
ENDBRANCH   1  25
BRANCH   1  48
ATOM     48  C   UNL     1      13.723  76.664   0.386  1.00  0.00     0.060 C 
BRANCH  48  49
ATOM     49  C   UNL     1      14.016  76.006   1.718  1.00  0.00    -0.046 A 
ATOM     50  C   UNL     1      15.116  75.138   1.848  1.00  0.00     0.004 A 
ATOM     51  C   UNL     1      13.199  76.243   2.836  1.00  0.00     0.004 A 
ATOM     52  C   UNL     1      15.405  74.542   3.081  1.00  0.00     0.000 A 
ATOM     53  C   UNL     1      13.492  75.644   4.066  1.00  0.00     0.000 A 
ATOM     54  C   UNL     1      14.595  74.796   4.189  1.00  0.00     0.000 A 
ENDBRANCH  48  49
ENDBRANCH   1  48
TORSDOF 20
ENDMDL
MODEL 3
REMARK VINA RESULT:    -8.170      3.198      6.722
REMARK INTER + INTRA:         -20.367
REMARK INTER:                 -18.440
REMARK INTRA:                  -1.927
REMARK UNBOUND:                -2.883
REMARK SMILES CC(C)c1nc(CN(C)C(=O)N[C@H](C(=O)N[C@@H](Cc2ccccc2)C[C@H](O)[C@H](Cc2ccccc2)NC(=O)OCc2cncs2)C(C)C)cs1
REMARK SMILES IDX 17 1 16 2 14 3 15 4 13 6 46 7 47 8 48 9 12 10 10 11 11 13
REMARK SMILES IDX 8 14 9 15 7 16 6 17 49 18 5 19 50 20 4 21 2 22 1 23 3 24
REMARK SMILES IDX 25 25 26 26 27 27 28 29 29 30 30 31 31 32 35 33 32 34 34 35
REMARK SMILES IDX 33 36 36 37 37 38 38 40 39 41 40 42 41 43 42 44 45 45 43 46
REMARK SMILES IDX 44 47 18 48 19 49 20 50 24 51 21 52 23 53 22 54
REMARK H PARENT 16 5 12 12 27 28 36 39
REMARK Flexibility Score: inf
ROOT
ATOM      1  C   UNL     1      10.500  80.279  -2.610  1.00  0.00     0.089 C 
ENDROOT
BRANCH   1   2
ATOM      2  N   UNL     1       9.476  79.510  -1.891  1.00  0.00    -0.351 N 
ATOM      3  C   UNL     1       8.076  79.814  -1.995  1.00  0.00     0.243 C 
ATOM      4  O   UNL     1       7.695  80.802  -2.681  1.00  0.00    -0.273 OA
ATOM      5  H   UNL     1       9.734  78.603  -1.447  1.00  0.00     0.163 HD
BRANCH   3   6
ATOM      6  C   UNL     1       7.061  78.917  -1.325  1.00  0.00     0.175 C 
BRANCH   6   7
ATOM      7  C   UNL     1       6.462  79.555  -0.037  1.00  0.00     0.015 C 
ATOM      8  C   UNL     1       7.503  80.421   0.690  1.00  0.00     0.010 C 
ATOM      9  C   UNL     1       5.933  78.479   0.930  1.00  0.00     0.010 C 
ENDBRANCH   6   7
BRANCH   6  10
ATOM     10  N   UNL     1       7.628  77.578  -1.086  1.00  0.00    -0.326 N 
ATOM     11  C   UNL     1       7.795  76.555  -2.088  1.00  0.00     0.318 C 
ATOM     12  H   UNL     1       7.979  77.388  -0.122  1.00  0.00     0.166 HD
ATOM     13  O   UNL     1       7.491  76.794  -3.287  1.00  0.00    -0.249 OA
BRANCH  11  14
ATOM     14  N   UNL     1       8.330  75.262  -1.740  1.00  0.00    -0.322 N 
ATOM     15  C   UNL     1       7.441  74.106  -1.592  1.00  0.00     0.149 C 
BRANCH  14  16
ATOM     16  C   UNL     1       9.781  75.082  -1.597  1.00  0.00     0.178 C 
BRANCH  16  17
ATOM     17  C   UNL     1      10.205  73.751  -2.143  1.00  0.00     0.071 A 
ATOM     18  C   UNL     1      10.472  72.644  -1.339  1.00  0.00     0.092 A 
ATOM     19  N   UNL     1      10.351  73.544  -3.480  1.00  0.00    -0.244 NA
ATOM     20  S   UNL     1      10.890  71.364  -2.348  1.00  0.00    -0.127 S 
ATOM     21  C   UNL     1      10.736  72.276  -3.758  1.00  0.00     0.095 A 
BRANCH  21  22
ATOM     22  C   UNL     1      10.888  71.753  -5.161  1.00  0.00     0.042 C 
ATOM     23  C   UNL     1       9.541  71.723  -5.887  1.00  0.00     0.015 C 
ATOM     24  C   UNL     1      11.910  72.594  -5.932  1.00  0.00     0.015 C 
ENDBRANCH  21  22
ENDBRANCH  16  17
ENDBRANCH  14  16
ENDBRANCH  11  14
ENDBRANCH   6  10
ENDBRANCH   3   6
ENDBRANCH   1   2
BRANCH   1  25
ATOM     25  C   UNL     1      11.672  79.340  -2.989  1.00  0.00     0.059 C 
BRANCH  25  26
ATOM     26  C   UNL     1      12.993  80.003  -3.467  1.00  0.00     0.139 C 
BRANCH  26  27
ATOM     27  O   UNL     1      12.841  80.553  -4.748  1.00  0.00    -0.391 OA
ATOM     28  H   UNL     1      12.481  81.470  -4.633  1.00  0.00     0.211 HD
ENDBRANCH  26  27
BRANCH  26  29
ATOM     29  C   UNL     1      14.246  79.082  -3.390  1.00  0.00     0.118 C 
BRANCH  29  30
ATOM     30  C   UNL     1      14.969  79.215  -2.029  1.00  0.00     0.063 C 
BRANCH  30  31
ATOM     31  C   UNL     1      14.314  78.380  -0.956  1.00  0.00    -0.046 A 
ATOM     32  C   UNL     1      13.026  77.854  -1.150  1.00  0.00     0.004 A 
ATOM     33  C   UNL     1      14.977  78.142   0.259  1.00  0.00     0.004 A 
ATOM     34  C   UNL     1      12.411  77.106  -0.142  1.00  0.00     0.000 A 
ATOM     35  C   UNL     1      14.354  77.399   1.267  1.00  0.00     0.000 A 
ATOM     36  C   UNL     1      13.073  76.882   1.068  1.00  0.00     0.000 A 
ENDBRANCH  30  31
ENDBRANCH  29  30
BRANCH  29  37
ATOM     37  N   UNL     1      15.173  79.282  -4.519  1.00  0.00    -0.316 N 
ATOM     38  C   UNL     1      15.029  78.738  -5.840  1.00  0.00     0.407 C 
ATOM     39  H   UNL     1      15.979  79.930  -4.371  1.00  0.00     0.167 HD
ATOM     40  O   UNL     1      13.982  78.122  -6.176  1.00  0.00    -0.225 OA
BRANCH  38  41
ATOM     41  O   UNL     1      16.068  78.910  -6.758  1.00  0.00    -0.444 OA
BRANCH  41  42
ATOM     42  C   UNL     1      17.390  79.258  -6.362  1.00  0.00     0.283 C 
BRANCH  42  43
ATOM     43  C   UNL     1      17.808  80.496  -7.081  1.00  0.00     0.062 A 
ATOM     44  C   UNL     1      17.130  81.098  -8.133  1.00  0.00     0.130 A 
ATOM     45  S   UNL     1      19.118  81.465  -6.670  1.00  0.00    -0.124 S 
ATOM     46  N   UNL     1      17.685  82.260  -8.573  1.00  0.00    -0.253 NA
ATOM     47  C   UNL     1      18.792  82.597  -7.873  1.00  0.00     0.175 A 
ENDBRANCH  42  43
ENDBRANCH  41  42
ENDBRANCH  38  41
ENDBRANCH  29  37
ENDBRANCH  26  29
ENDBRANCH  25  26
ENDBRANCH   1  25
BRANCH   1  48
ATOM     48  C   UNL     1      10.920  81.540  -1.807  1.00  0.00     0.060 C 
BRANCH  48  49
ATOM     49  C   UNL     1      11.398  81.261  -0.397  1.00  0.00    -0.046 A 
ATOM     50  C   UNL     1      10.464  81.080   0.640  1.00  0.00     0.004 A 
ATOM     51  C   UNL     1      12.769  81.184  -0.101  1.00  0.00     0.004 A 
ATOM     52  C   UNL     1      10.896  80.802   1.941  1.00  0.00     0.000 A 
ATOM     53  C   UNL     1      13.196  80.906   1.202  1.00  0.00     0.000 A 
ATOM     54  C   UNL     1      12.261  80.713   2.222  1.00  0.00     0.000 A 
ENDBRANCH  48  49
ENDBRANCH   1  48
TORSDOF 20
ENDMDL
MODEL 4
REMARK VINA RESULT:    -7.973      3.323      7.864
REMARK INTER + INTRA:         -19.946
REMARK INTER:                 -18.156
REMARK INTRA:                  -1.790
REMARK UNBOUND:                -2.883
REMARK SMILES CC(C)c1nc(CN(C)C(=O)N[C@H](C(=O)N[C@@H](Cc2ccccc2)C[C@H](O)[C@H](Cc2ccccc2)NC(=O)OCc2cncs2)C(C)C)cs1
REMARK SMILES IDX 17 1 16 2 14 3 15 4 13 6 46 7 47 8 48 9 12 10 10 11 11 13
REMARK SMILES IDX 8 14 9 15 7 16 6 17 49 18 5 19 50 20 4 21 2 22 1 23 3 24
REMARK SMILES IDX 25 25 26 26 27 27 28 29 29 30 30 31 31 32 35 33 32 34 34 35
REMARK SMILES IDX 33 36 36 37 37 38 38 40 39 41 40 42 41 43 42 44 45 45 43 46
REMARK SMILES IDX 44 47 18 48 19 49 20 50 24 51 21 52 23 53 22 54
REMARK H PARENT 16 5 12 12 27 28 36 39
REMARK Flexibility Score: inf
ROOT
ATOM      1  C   UNL     1      11.634  75.601  -3.369  1.00  0.00     0.089 C 
ENDROOT
BRANCH   1   2
ATOM      2  N   UNL     1      10.224  75.447  -2.990  1.00  0.00    -0.351 N 
ATOM      3  C   UNL     1       9.776  75.587  -1.632  1.00  0.00     0.243 C 
ATOM      4  O   UNL     1      10.612  75.799  -0.711  1.00  0.00    -0.273 OA
ATOM      5  H   UNL     1       9.492  75.427  -3.732  1.00  0.00     0.163 HD
BRANCH   3   6
ATOM      6  C   UNL     1       8.298  75.532  -1.319  1.00  0.00     0.175 C 
BRANCH   6   7
ATOM      7  C   UNL     1       7.452  75.041  -2.530  1.00  0.00     0.015 C 
ATOM      8  C   UNL     1       7.232  76.170  -3.550  1.00  0.00     0.010 C 
ATOM      9  C   UNL     1       6.085  74.494  -2.077  1.00  0.00     0.010 C 
ENDBRANCH   6   7
BRANCH   6  10
ATOM     10  N   UNL     1       7.832  76.825  -0.786  1.00  0.00    -0.326 N 
ATOM     11  C   UNL     1       6.824  76.989   0.232  1.00  0.00     0.318 C 
ATOM     12  H   UNL     1       8.313  77.677  -1.147  1.00  0.00     0.166 HD
ATOM     13  O   UNL     1       6.307  75.976   0.773  1.00  0.00    -0.249 OA
BRANCH  11  14
ATOM     14  N   UNL     1       6.414  78.304   0.658  1.00  0.00    -0.322 N 
ATOM     15  C   UNL     1       6.133  78.574   2.071  1.00  0.00     0.149 C 
BRANCH  14  16
ATOM     16  C   UNL     1       6.341  79.401  -0.317  1.00  0.00     0.178 C 
BRANCH  16  17
ATOM     17  C   UNL     1       7.715  79.815  -0.751  1.00  0.00     0.071 A 
ATOM     18  C   UNL     1       8.084  79.963  -2.087  1.00  0.00     0.092 A 
ATOM     19  N   UNL     1       8.698  80.079   0.153  1.00  0.00    -0.244 NA
ATOM     20  S   UNL     1       9.691  80.457  -2.126  1.00  0.00    -0.127 S 
ATOM     21  C   UNL     1       9.856  80.438  -0.448  1.00  0.00     0.095 A 
BRANCH  21  22
ATOM     22  C   UNL     1      11.079  80.866   0.317  1.00  0.00     0.042 C 
ATOM     23  C   UNL     1      11.554  82.251  -0.133  1.00  0.00     0.015 C 
ATOM     24  C   UNL     1      10.799  80.844   1.822  1.00  0.00     0.015 C 
ENDBRANCH  21  22
ENDBRANCH  16  17
ENDBRANCH  14  16
ENDBRANCH  11  14
ENDBRANCH   6  10
ENDBRANCH   3   6
ENDBRANCH   1   2
BRANCH   1  25
ATOM     25  C   UNL     1      11.904  77.079  -3.744  1.00  0.00     0.059 C 
BRANCH  25  26
ATOM     26  C   UNL     1      13.232  77.398  -4.482  1.00  0.00     0.139 C 
BRANCH  26  27
ATOM     27  O   UNL     1      13.911  76.219  -4.822  1.00  0.00    -0.391 OA
ATOM     28  H   UNL     1      13.444  75.827  -5.605  1.00  0.00     0.211 HD
ENDBRANCH  26  27
BRANCH  26  29
ATOM     29  C   UNL     1      14.167  78.394  -3.735  1.00  0.00     0.118 C 
BRANCH  29  30
ATOM     30  C   UNL     1      13.362  79.382  -2.857  1.00  0.00     0.063 C 
BRANCH  30  31
ATOM     31  C   UNL     1      13.672  79.216  -1.390  1.00  0.00    -0.046 A 
ATOM     32  C   UNL     1      13.166  78.117  -0.675  1.00  0.00     0.004 A 
ATOM     33  C   UNL     1      14.448  80.174  -0.717  1.00  0.00     0.004 A 
ATOM     34  C   UNL     1      13.431  77.983   0.691  1.00  0.00     0.000 A 
ATOM     35  C   UNL     1      14.704  80.039   0.652  1.00  0.00     0.000 A 
ATOM     36  C   UNL     1      14.195  78.945   1.355  1.00  0.00     0.000 A 
ENDBRANCH  30  31
ENDBRANCH  29  30
BRANCH  29  37
ATOM     37  N   UNL     1      15.090  79.102  -4.641  1.00  0.00    -0.316 N 
ATOM     38  C   UNL     1      14.765  80.226  -5.473  1.00  0.00     0.407 C 
ATOM     39  H   UNL     1      16.092  78.806  -4.635  1.00  0.00     0.167 HD
ATOM     40  O   UNL     1      13.640  80.790  -5.389  1.00  0.00    -0.225 OA
BRANCH  38  41
ATOM     41  O   UNL     1      15.721  80.695  -6.378  1.00  0.00    -0.444 OA
BRANCH  41  42
ATOM     42  C   UNL     1      16.883  79.949  -6.719  1.00  0.00     0.283 C 
BRANCH  42  43
ATOM     43  C   UNL     1      18.076  80.840  -6.648  1.00  0.00     0.062 A 
ATOM     44  C   UNL     1      18.721  81.432  -7.727  1.00  0.00     0.130 A 
ATOM     45  S   UNL     1      18.795  81.395  -5.233  1.00  0.00    -0.124 S 
ATOM     46  N   UNL     1      19.748  82.258  -7.390  1.00  0.00    -0.253 NA
ATOM     47  C   UNL     1      19.921  82.341  -6.051  1.00  0.00     0.175 A 
ENDBRANCH  42  43
ENDBRANCH  41  42
ENDBRANCH  38  41
ENDBRANCH  29  37
ENDBRANCH  26  29
ENDBRANCH  25  26
ENDBRANCH   1  25
BRANCH   1  48
ATOM     48  C   UNL     1      12.035  74.577  -4.465  1.00  0.00     0.060 C 
BRANCH  48  49
ATOM     49  C   UNL     1      11.230  73.293  -4.455  1.00  0.00    -0.046 A 
ATOM     50  C   UNL     1      11.237  72.466  -3.317  1.00  0.00     0.004 A 
ATOM     51  C   UNL     1      10.474  72.906  -5.574  1.00  0.00     0.004 A 
ATOM     52  C   UNL     1      10.481  71.290  -3.292  1.00  0.00     0.000 A 
ATOM     53  C   UNL     1       9.719  71.729  -5.545  1.00  0.00     0.000 A 
ATOM     54  C   UNL     1       9.721  70.922  -4.404  1.00  0.00     0.000 A 
ENDBRANCH  48  49
ENDBRANCH   1  48
TORSDOF 20
ENDMDL
MODEL 5
REMARK VINA RESULT:    -7.815      2.534      8.519
REMARK INTER + INTRA:         -19.607
REMARK INTER:                 -18.322
REMARK INTRA:                  -1.285
REMARK UNBOUND:                -2.883
REMARK SMILES CC(C)c1nc(CN(C)C(=O)N[C@H](C(=O)N[C@@H](Cc2ccccc2)C[C@H](O)[C@H](Cc2ccccc2)NC(=O)OCc2cncs2)C(C)C)cs1
REMARK SMILES IDX 17 1 16 2 14 3 15 4 13 6 46 7 47 8 48 9 12 10 10 11 11 13
REMARK SMILES IDX 8 14 9 15 7 16 6 17 49 18 5 19 50 20 4 21 2 22 1 23 3 24
REMARK SMILES IDX 25 25 26 26 27 27 28 29 29 30 30 31 31 32 35 33 32 34 34 35
REMARK SMILES IDX 33 36 36 37 37 38 38 40 39 41 40 42 41 43 42 44 45 45 43 46
REMARK SMILES IDX 44 47 18 48 19 49 20 50 24 51 21 52 23 53 22 54
REMARK H PARENT 16 5 12 12 27 28 36 39
REMARK Flexibility Score: inf
ROOT
ATOM      1  C   UNL     1       8.926  78.007  -1.707  1.00  0.00     0.089 C 
ENDROOT
BRANCH   1   2
ATOM      2  N   UNL     1      10.206  78.685  -1.955  1.00  0.00    -0.351 N 
ATOM      3  C   UNL     1      10.984  79.263  -0.895  1.00  0.00     0.243 C 
ATOM      4  O   UNL     1      10.549  79.244   0.289  1.00  0.00    -0.273 OA
ATOM      5  H   UNL     1      10.668  78.584  -2.885  1.00  0.00     0.163 HD
BRANCH   3   6
ATOM      6  C   UNL     1      12.347  79.844  -1.196  1.00  0.00     0.175 C 
BRANCH   6   7
ATOM      7  C   UNL     1      12.628  81.146  -0.389  1.00  0.00     0.015 C 
ATOM      8  C   UNL     1      13.339  80.836   0.938  1.00  0.00     0.010 C 
ATOM      9  C   UNL     1      11.329  81.920  -0.099  1.00  0.00     0.010 C 
ENDBRANCH   6   7
BRANCH   6  10
ATOM     10  N   UNL     1      12.527  80.025  -2.648  1.00  0.00    -0.326 N 
ATOM     11  C   UNL     1      13.658  79.556  -3.409  1.00  0.00     0.318 C 
ATOM     12  H   UNL     1      11.743  80.484  -3.158  1.00  0.00     0.166 HD
ATOM     13  O   UNL     1      14.567  78.894  -2.841  1.00  0.00    -0.249 OA
BRANCH  11  14
ATOM     14  N   UNL     1      13.753  79.818  -4.824  1.00  0.00    -0.322 N 
ATOM     15  C   UNL     1      13.443  81.148  -5.356  1.00  0.00     0.149 C 
BRANCH  14  16
ATOM     16  C   UNL     1      14.228  78.767  -5.734  1.00  0.00     0.178 C 
BRANCH  16  17
ATOM     17  C   UNL     1      15.625  79.058  -6.195  1.00  0.00     0.071 A 
ATOM     18  C   UNL     1      16.351  78.205  -7.023  1.00  0.00     0.092 A 
ATOM     19  N   UNL     1      16.273  80.197  -5.826  1.00  0.00    -0.244 NA
ATOM     20  S   UNL     1      17.848  78.917  -7.311  1.00  0.00    -0.127 S 
ATOM     21  C   UNL     1      17.519  80.264  -6.353  1.00  0.00     0.095 A 
BRANCH  21  22
ATOM     22  C   UNL     1      18.421  81.455  -6.176  1.00  0.00     0.042 C 
ATOM     23  C   UNL     1      19.496  81.180  -5.120  1.00  0.00     0.015 C 
ATOM     24  C   UNL     1      19.054  81.845  -7.516  1.00  0.00     0.015 C 
ENDBRANCH  21  22
ENDBRANCH  16  17
ENDBRANCH  14  16
ENDBRANCH  11  14
ENDBRANCH   6  10
ENDBRANCH   3   6
ENDBRANCH   1   2
BRANCH   1  25
ATOM     25  C   UNL     1       8.607  77.069  -2.898  1.00  0.00     0.059 C 
BRANCH  25  26
ATOM     26  C   UNL     1       8.661  75.539  -2.636  1.00  0.00     0.139 C 
BRANCH  26  27
ATOM     27  O   UNL     1       7.872  75.193  -1.529  1.00  0.00    -0.391 OA
ATOM     28  H   UNL     1       7.010  75.676  -1.621  1.00  0.00     0.211 HD
ENDBRANCH  26  27
BRANCH  26  29
ATOM     29  C   UNL     1      10.098  74.953  -2.512  1.00  0.00     0.118 C 
BRANCH  29  30
ATOM     30  C   UNL     1      10.074  73.415  -2.344  1.00  0.00     0.063 C 
BRANCH  30  31
ATOM     31  C   UNL     1      10.236  72.700  -3.663  1.00  0.00    -0.046 A 
ATOM     32  C   UNL     1       9.316  71.713  -4.057  1.00  0.00     0.004 A 
ATOM     33  C   UNL     1      11.324  72.997  -4.501  1.00  0.00     0.004 A 
ATOM     34  C   UNL     1       9.486  71.033  -5.266  1.00  0.00     0.000 A 
ATOM     35  C   UNL     1      11.493  72.307  -5.707  1.00  0.00     0.000 A 
ATOM     36  C   UNL     1      10.576  71.327  -6.088  1.00  0.00     0.000 A 
ENDBRANCH  30  31
ENDBRANCH  29  30
BRANCH  29  37
ATOM     37  N   UNL     1      10.891  75.601  -1.452  1.00  0.00    -0.316 N 
ATOM     38  C   UNL     1      10.760  75.379  -0.039  1.00  0.00     0.407 C 
ATOM     39  H   UNL     1      11.667  76.235  -1.749  1.00  0.00     0.167 HD
ATOM     40  O   UNL     1      10.000  74.475   0.406  1.00  0.00    -0.225 OA
BRANCH  38  41
ATOM     41  O   UNL     1      11.495  76.176   0.842  1.00  0.00    -0.444 OA
BRANCH  41  42
ATOM     42  C   UNL     1      12.834  76.578   0.575  1.00  0.00     0.283 C 
BRANCH  42  43
ATOM     43  C   UNL     1      13.752  75.883   1.522  1.00  0.00     0.062 A 
ATOM     44  C   UNL     1      15.009  75.378   1.220  1.00  0.00     0.130 A 
ATOM     45  S   UNL     1      13.485  75.688   3.171  1.00  0.00    -0.124 S 
ATOM     46  N   UNL     1      15.677  74.847   2.280  1.00  0.00    -0.253 NA
ATOM     47  C   UNL     1      14.969  74.935   3.428  1.00  0.00     0.175 A 
ENDBRANCH  42  43
ENDBRANCH  41  42
ENDBRANCH  38  41
ENDBRANCH  29  37
ENDBRANCH  26  29
ENDBRANCH  25  26
ENDBRANCH   1  25
BRANCH   1  48
ATOM     48  C   UNL     1       7.806  79.030  -1.376  1.00  0.00     0.060 C 
BRANCH  48  49
ATOM     49  C   UNL     1       6.963  78.675  -0.168  1.00  0.00    -0.046 A 
ATOM     50  C   UNL     1       6.130  79.644   0.418  1.00  0.00     0.004 A 
ATOM     51  C   UNL     1       7.003  77.384   0.386  1.00  0.00     0.004 A 
ATOM     52  C   UNL     1       5.333  79.319   1.521  1.00  0.00     0.000 A 
ATOM     53  C   UNL     1       6.204  77.064   1.489  1.00  0.00     0.000 A 
ATOM     54  C   UNL     1       5.368  78.030   2.055  1.00  0.00     0.000 A 
ENDBRANCH  48  49
ENDBRANCH   1  48
TORSDOF 20
ENDMDL
MODEL 6
REMARK VINA RESULT:    -7.803      2.801      8.551
REMARK INTER + INTRA:         -19.580
REMARK INTER:                 -18.609
REMARK INTRA:                  -0.971
REMARK UNBOUND:                -2.883
REMARK SMILES CC(C)c1nc(CN(C)C(=O)N[C@H](C(=O)N[C@@H](Cc2ccccc2)C[C@H](O)[C@H](Cc2ccccc2)NC(=O)OCc2cncs2)C(C)C)cs1
REMARK SMILES IDX 17 1 16 2 14 3 15 4 13 6 46 7 47 8 48 9 12 10 10 11 11 13
REMARK SMILES IDX 8 14 9 15 7 16 6 17 49 18 5 19 50 20 4 21 2 22 1 23 3 24
REMARK SMILES IDX 25 25 26 26 27 27 28 29 29 30 30 31 31 32 35 33 32 34 34 35
REMARK SMILES IDX 33 36 36 37 37 38 38 40 39 41 40 42 41 43 42 44 45 45 43 46
REMARK SMILES IDX 44 47 18 48 19 49 20 50 24 51 21 52 23 53 22 54
REMARK H PARENT 16 5 12 12 27 28 36 39
REMARK Flexibility Score: inf
ROOT
ATOM      1  C   UNL     1      12.377  76.873   0.108  1.00  0.00     0.089 C 
ENDROOT
BRANCH   1   2
ATOM      2  N   UNL     1      12.206  78.160  -0.579  1.00  0.00    -0.351 N 
ATOM      3  C   UNL     1      12.952  79.330  -0.210  1.00  0.00     0.243 C 
ATOM      4  O   UNL     1      13.749  79.288   0.768  1.00  0.00    -0.273 OA
ATOM      5  H   UNL     1      11.681  78.195  -1.480  1.00  0.00     0.163 HD
BRANCH   3   6
ATOM      6  C   UNL     1      12.819  80.595  -1.027  1.00  0.00     0.175 C 
BRANCH   6   7
ATOM      7  C   UNL     1      11.504  81.368  -0.716  1.00  0.00     0.015 C 
ATOM      8  C   UNL     1      11.163  81.307   0.781  1.00  0.00     0.010 C 
ATOM      9  C   UNL     1      10.319  80.813  -1.528  1.00  0.00     0.010 C 
ENDBRANCH   6   7
BRANCH   6  10
ATOM     10  N   UNL     1      12.983  80.306  -2.463  1.00  0.00    -0.326 N 
ATOM     11  C   UNL     1      14.085  79.580  -3.044  1.00  0.00     0.318 C 
ATOM     12  H   UNL     1      12.207  80.611  -3.089  1.00  0.00     0.166 HD
ATOM     13  O   UNL     1      14.980  79.095  -2.301  1.00  0.00    -0.249 OA
BRANCH  11  14
ATOM     14  N   UNL     1      14.167  79.383  -4.470  1.00  0.00    -0.322 N 
ATOM     15  C   UNL     1      13.878  78.071  -5.056  1.00  0.00     0.149 C 
BRANCH  14  16
ATOM     16  C   UNL     1      14.476  80.517  -5.351  1.00  0.00     0.178 C 
BRANCH  16  17
ATOM     17  C   UNL     1      15.907  80.466  -5.796  1.00  0.00     0.071 A 
ATOM     18  C   UNL     1      16.399  79.511  -6.685  1.00  0.00     0.092 A 
ATOM     19  N   UNL     1      16.824  81.369  -5.353  1.00  0.00    -0.244 NA
ATOM     20  S   UNL     1      18.033  79.827  -6.929  1.00  0.00    -0.127 S 
ATOM     21  C   UNL     1      18.051  81.146  -5.879  1.00  0.00     0.095 A 
BRANCH  21  22
ATOM     22  C   UNL     1      19.230  82.046  -5.624  1.00  0.00     0.042 C 
ATOM     23  C   UNL     1      20.274  81.351  -4.746  1.00  0.00     0.015 C 
ATOM     24  C   UNL     1      19.844  82.504  -6.950  1.00  0.00     0.015 C 
ENDBRANCH  21  22
ENDBRANCH  16  17
ENDBRANCH  14  16
ENDBRANCH  11  14
ENDBRANCH   6  10
ENDBRANCH   3   6
ENDBRANCH   1   2
BRANCH   1  25
ATOM     25  C   UNL     1      11.077  76.042  -0.034  1.00  0.00     0.059 C 
BRANCH  25  26
ATOM     26  C   UNL     1      10.471  75.902  -1.457  1.00  0.00     0.139 C 
BRANCH  26  27
ATOM     27  O   UNL     1      10.754  77.035  -2.235  1.00  0.00    -0.391 OA
ATOM     28  H   UNL     1      11.721  77.005  -2.455  1.00  0.00     0.211 HD
ENDBRANCH  26  27
BRANCH  26  29
ATOM     29  C   UNL     1       8.951  75.562  -1.484  1.00  0.00     0.118 C 
BRANCH  29  30
ATOM     30  C   UNL     1       8.321  75.653  -0.074  1.00  0.00     0.063 C 
BRANCH  30  31
ATOM     31  C   UNL     1       7.506  76.911   0.100  1.00  0.00    -0.046 A 
ATOM     32  C   UNL     1       7.879  78.098  -0.553  1.00  0.00     0.004 A 
ATOM     33  C   UNL     1       6.378  76.914   0.938  1.00  0.00     0.004 A 
ATOM     34  C   UNL     1       7.137  79.269  -0.365  1.00  0.00     0.000 A 
ATOM     35  C   UNL     1       5.644  78.089   1.128  1.00  0.00     0.000 A 
ATOM     36  C   UNL     1       6.024  79.265   0.478  1.00  0.00     0.000 A 
ENDBRANCH  30  31
ENDBRANCH  29  30
BRANCH  29  37
ATOM     37  N   UNL     1       8.668  74.263  -2.121  1.00  0.00    -0.316 N 
ATOM     38  C   UNL     1       9.322  73.017  -1.834  1.00  0.00     0.407 C 
ATOM     39  H   UNL     1       7.875  74.222  -2.800  1.00  0.00     0.167 HD
ATOM     40  O   UNL     1      10.141  72.921  -0.880  1.00  0.00    -0.225 OA
BRANCH  38  41
ATOM     41  O   UNL     1       9.030  71.903  -2.625  1.00  0.00    -0.444 OA
BRANCH  41  42
ATOM     42  C   UNL     1      10.040  71.040  -3.134  1.00  0.00     0.283 C 
BRANCH  42  43
ATOM     43  C   UNL     1      10.915  71.805  -4.068  1.00  0.00     0.062 A 
ATOM     44  C   UNL     1      12.236  72.166  -3.840  1.00  0.00     0.130 A 
ATOM     45  S   UNL     1      10.501  72.271  -5.629  1.00  0.00    -0.124 S 
ATOM     46  N   UNL     1      12.837  72.805  -4.880  1.00  0.00    -0.253 NA
ATOM     47  C   UNL     1      12.011  72.946  -5.941  1.00  0.00     0.175 A 
ENDBRANCH  42  43
ENDBRANCH  41  42
ENDBRANCH  38  41
ENDBRANCH  29  37
ENDBRANCH  26  29
ENDBRANCH  25  26
ENDBRANCH   1  25
BRANCH   1  48
ATOM     48  C   UNL     1      12.852  77.078   1.571  1.00  0.00     0.060 C 
BRANCH  48  49
ATOM     49  C   UNL     1      13.855  76.054   2.060  1.00  0.00    -0.046 A 
ATOM     50  C   UNL     1      14.797  75.509   1.168  1.00  0.00     0.004 A 
ATOM     51  C   UNL     1      13.859  75.629   3.399  1.00  0.00     0.004 A 
ATOM     52  C   UNL     1      15.740  74.578   1.616  1.00  0.00     0.000 A 
ATOM     53  C   UNL     1      14.804  74.698   3.842  1.00  0.00     0.000 A 
ATOM     54  C   UNL     1      15.745  74.173   2.953  1.00  0.00     0.000 A 
ENDBRANCH  48  49
ENDBRANCH   1  48
TORSDOF 20
ENDMDL
MODEL 7
REMARK VINA RESULT:    -7.763      2.828      8.490
REMARK INTER + INTRA:         -19.495
REMARK INTER:                 -18.120
REMARK INTRA:                  -1.375
REMARK UNBOUND:                -2.883
REMARK SMILES CC(C)c1nc(CN(C)C(=O)N[C@H](C(=O)N[C@@H](Cc2ccccc2)C[C@H](O)[C@H](Cc2ccccc2)NC(=O)OCc2cncs2)C(C)C)cs1
REMARK SMILES IDX 17 1 16 2 14 3 15 4 13 6 46 7 47 8 48 9 12 10 10 11 11 13
REMARK SMILES IDX 8 14 9 15 7 16 6 17 49 18 5 19 50 20 4 21 2 22 1 23 3 24
REMARK SMILES IDX 25 25 26 26 27 27 28 29 29 30 30 31 31 32 35 33 32 34 34 35
REMARK SMILES IDX 33 36 36 37 37 38 38 40 39 41 40 42 41 43 42 44 45 45 43 46
REMARK SMILES IDX 44 47 18 48 19 49 20 50 24 51 21 52 23 53 22 54
REMARK H PARENT 16 5 12 12 27 28 36 39
REMARK Flexibility Score: inf
ROOT
ATOM      1  C   UNL     1      10.045  78.430  -1.682  1.00  0.00     0.089 C 
ENDROOT
BRANCH   1   2
ATOM      2  N   UNL     1      11.485  78.539  -1.947  1.00  0.00    -0.351 N 
ATOM      3  C   UNL     1      12.474  78.136  -0.987  1.00  0.00     0.243 C 
ATOM      4  O   UNL     1      12.117  77.720   0.150  1.00  0.00    -0.273 OA
ATOM      5  H   UNL     1      11.815  78.728  -2.919  1.00  0.00     0.163 HD
BRANCH   3   6
ATOM      6  C   UNL     1      13.939  78.163  -1.360  1.00  0.00     0.175 C 
BRANCH   6   7
ATOM      7  C   UNL     1      14.824  78.798  -0.247  1.00  0.00     0.015 C 
ATOM      8  C   UNL     1      14.622  78.084   1.099  1.00  0.00     0.010 C 
ATOM      9  C   UNL     1      14.523  80.298  -0.075  1.00  0.00     0.010 C 
ENDBRANCH   6   7
BRANCH   6  10
ATOM     10  N   UNL     1      14.129  78.805  -2.673  1.00  0.00    -0.326 N 
ATOM     11  C   UNL     1      13.717  78.248  -3.937  1.00  0.00     0.318 C 
ATOM     12  H   UNL     1      14.550  79.759  -2.666  1.00  0.00     0.166 HD
ATOM     13  O   UNL     1      13.100  77.151  -3.970  1.00  0.00    -0.249 OA
BRANCH  11  14
ATOM     14  N   UNL     1      13.984  78.945  -5.171  1.00  0.00    -0.322 N 
ATOM     15  C   UNL     1      14.057  78.211  -6.438  1.00  0.00     0.149 C 
BRANCH  14  16
ATOM     16  C   UNL     1      14.117  80.408  -5.174  1.00  0.00     0.178 C 
BRANCH  16  17
ATOM     17  C   UNL     1      15.530  80.810  -5.475  1.00  0.00     0.071 A 
ATOM     18  C   UNL     1      16.584  80.630  -4.580  1.00  0.00     0.092 A 
ATOM     19  N   UNL     1      15.871  81.381  -6.662  1.00  0.00    -0.244 NA
ATOM     20  S   UNL     1      17.987  81.193  -5.318  1.00  0.00    -0.127 S 
ATOM     21  C   UNL     1      17.193  81.662  -6.729  1.00  0.00     0.095 A 
BRANCH  21  22
ATOM     22  C   UNL     1      17.853  82.219  -7.962  1.00  0.00     0.042 C 
ATOM     23  C   UNL     1      19.364  82.361  -7.762  1.00  0.00     0.015 C 
ATOM     24  C   UNL     1      17.540  81.338  -9.175  1.00  0.00     0.015 C 
ENDBRANCH  21  22
ENDBRANCH  16  17
ENDBRANCH  14  16
ENDBRANCH  11  14
ENDBRANCH   6  10
ENDBRANCH   3   6
ENDBRANCH   1   2
BRANCH   1  25
ATOM     25  C   UNL     1       9.393  77.531  -2.762  1.00  0.00     0.059 C 
BRANCH  25  26
ATOM     26  C   UNL     1       9.629  76.000  -2.654  1.00  0.00     0.139 C 
BRANCH  26  27
ATOM     27  O   UNL     1      10.910  75.657  -3.113  1.00  0.00    -0.391 OA
ATOM     28  H   UNL     1      10.832  74.780  -3.569  1.00  0.00     0.211 HD
ENDBRANCH  26  27
BRANCH  26  29
ATOM     29  C   UNL     1       8.532  75.125  -3.330  1.00  0.00     0.118 C 
BRANCH  29  30
ATOM     30  C   UNL     1       7.118  75.714  -3.113  1.00  0.00     0.063 C 
BRANCH  30  31
ATOM     31  C   UNL     1       6.724  75.715  -1.657  1.00  0.00    -0.046 A 
ATOM     32  C   UNL     1       5.965  74.660  -1.123  1.00  0.00     0.004 A 
ATOM     33  C   UNL     1       7.090  76.786  -0.824  1.00  0.00     0.004 A 
ATOM     34  C   UNL     1       5.577  74.679   0.220  1.00  0.00     0.000 A 
ATOM     35  C   UNL     1       6.693  76.803   0.517  1.00  0.00     0.000 A 
ATOM     36  C   UNL     1       5.936  75.752   1.038  1.00  0.00     0.000 A 
ENDBRANCH  30  31
ENDBRANCH  29  30
BRANCH  29  37
ATOM     37  N   UNL     1       8.598  73.709  -2.922  1.00  0.00    -0.316 N 
ATOM     38  C   UNL     1       9.279  73.190  -1.770  1.00  0.00     0.407 C 
ATOM     39  H   UNL     1       8.047  73.021  -3.482  1.00  0.00     0.167 HD
ATOM     40  O   UNL     1       9.791  73.966  -0.917  1.00  0.00    -0.225 OA
BRANCH  38  41
ATOM     41  O   UNL     1       9.361  71.806  -1.600  1.00  0.00    -0.444 OA
BRANCH  41  42
ATOM     42  C   UNL     1      10.431  71.031  -2.128  1.00  0.00     0.283 C 
BRANCH  42  43
ATOM     43  C   UNL     1      10.638  71.392  -3.560  1.00  0.00     0.062 A 
ATOM     44  C   UNL     1       9.783  71.087  -4.611  1.00  0.00     0.130 A 
ATOM     45  S   UNL     1      11.890  72.344  -4.154  1.00  0.00    -0.124 S 
ATOM     46  N   UNL     1      10.167  71.588  -5.817  1.00  0.00    -0.253 NA
ATOM     47  C   UNL     1      11.312  72.301  -5.734  1.00  0.00     0.175 A 
ENDBRANCH  42  43
ENDBRANCH  41  42
ENDBRANCH  38  41
ENDBRANCH  29  37
ENDBRANCH  26  29
ENDBRANCH  25  26
ENDBRANCH   1  25
BRANCH   1  48
ATOM     48  C   UNL     1       9.395  79.832  -1.534  1.00  0.00     0.060 C 
BRANCH  48  49
ATOM     49  C   UNL     1      10.141  80.782  -0.622  1.00  0.00    -0.046 A 
ATOM     50  C   UNL     1      10.070  80.620   0.774  1.00  0.00     0.004 A 
ATOM     51  C   UNL     1      10.907  81.836  -1.148  1.00  0.00     0.004 A 
ATOM     52  C   UNL     1      10.773  81.482   1.623  1.00  0.00     0.000 A 
ATOM     53  C   UNL     1      11.609  82.695  -0.294  1.00  0.00     0.000 A 
ATOM     54  C   UNL     1      11.543  82.517   1.090  1.00  0.00     0.000 A 
ENDBRANCH  48  49
ENDBRANCH   1  48
TORSDOF 20
ENDMDL
MODEL 8
REMARK VINA RESULT:    -7.685      2.782      9.149
REMARK INTER + INTRA:         -19.329
REMARK INTER:                 -19.065
REMARK INTRA:                  -0.264
REMARK UNBOUND:                -2.883
REMARK SMILES CC(C)c1nc(CN(C)C(=O)N[C@H](C(=O)N[C@@H](Cc2ccccc2)C[C@H](O)[C@H](Cc2ccccc2)NC(=O)OCc2cncs2)C(C)C)cs1
REMARK SMILES IDX 17 1 16 2 14 3 15 4 13 6 46 7 47 8 48 9 12 10 10 11 11 13
REMARK SMILES IDX 8 14 9 15 7 16 6 17 49 18 5 19 50 20 4 21 2 22 1 23 3 24
REMARK SMILES IDX 25 25 26 26 27 27 28 29 29 30 30 31 31 32 35 33 32 34 34 35
REMARK SMILES IDX 33 36 36 37 37 38 38 40 39 41 40 42 41 43 42 44 45 45 43 46
REMARK SMILES IDX 44 47 18 48 19 49 20 50 24 51 21 52 23 53 22 54
REMARK H PARENT 16 5 12 12 27 28 36 39
REMARK Flexibility Score: inf
ROOT
ATOM      1  C   UNL     1      12.124  76.657   0.033  1.00  0.00     0.089 C 
ENDROOT
BRANCH   1   2
ATOM      2  N   UNL     1      11.992  77.935  -0.678  1.00  0.00    -0.351 N 
ATOM      3  C   UNL     1      12.726  79.107  -0.290  1.00  0.00     0.243 C 
ATOM      4  O   UNL     1      13.475  79.074   0.725  1.00  0.00    -0.273 OA
ATOM      5  H   UNL     1      11.510  77.961  -1.603  1.00  0.00     0.163 HD
BRANCH   3   6
ATOM      6  C   UNL     1      12.637  80.361  -1.129  1.00  0.00     0.175 C 
BRANCH   6   7
ATOM      7  C   UNL     1      11.330  81.165  -0.860  1.00  0.00     0.015 C 
ATOM      8  C   UNL     1      10.846  80.973   0.586  1.00  0.00     0.010 C 
ATOM      9  C   UNL     1      10.207  80.753  -1.830  1.00  0.00     0.010 C 
ENDBRANCH   6   7
BRANCH   6  10
ATOM     10  N   UNL     1      12.828  80.047  -2.556  1.00  0.00    -0.326 N 
ATOM     11  C   UNL     1      14.026  79.488  -3.130  1.00  0.00     0.318 C 
ATOM     12  H   UNL     1      12.005  80.198  -3.178  1.00  0.00     0.166 HD
ATOM     13  O   UNL     1      14.997  79.183  -2.387  1.00  0.00    -0.249 OA
BRANCH  11  14
ATOM     14  N   UNL     1      14.122  79.251  -4.549  1.00  0.00    -0.322 N 
ATOM     15  C   UNL     1      13.849  77.920  -5.101  1.00  0.00     0.149 C 
BRANCH  14  16
ATOM     16  C   UNL     1      14.428  80.363  -5.459  1.00  0.00     0.178 C 
BRANCH  16  17
ATOM     17  C   UNL     1      15.877  80.346  -5.846  1.00  0.00     0.071 A 
ATOM     18  C   UNL     1      16.436  79.378  -6.680  1.00  0.00     0.092 A 
ATOM     19  N   UNL     1      16.745  81.294  -5.398  1.00  0.00    -0.244 NA
ATOM     20  S   UNL     1      18.067  79.742  -6.869  1.00  0.00    -0.127 S 
ATOM     21  C   UNL     1      17.999  81.096  -5.867  1.00  0.00     0.095 A 
BRANCH  21  22
ATOM     22  C   UNL     1      19.136  82.044  -5.598  1.00  0.00     0.042 C 
ATOM     23  C   UNL     1      20.184  81.403  -4.684  1.00  0.00     0.015 C 
ATOM     24  C   UNL     1      19.764  82.507  -6.915  1.00  0.00     0.015 C 
ENDBRANCH  21  22
ENDBRANCH  16  17
ENDBRANCH  14  16
ENDBRANCH  11  14
ENDBRANCH   6  10
ENDBRANCH   3   6
ENDBRANCH   1   2
BRANCH   1  25
ATOM     25  C   UNL     1      10.823  75.835  -0.147  1.00  0.00     0.059 C 
BRANCH  25  26
ATOM     26  C   UNL     1      10.431  75.426  -1.592  1.00  0.00     0.139 C 
BRANCH  26  27
ATOM     27  O   UNL     1      10.346  76.551  -2.426  1.00  0.00    -0.391 OA
ATOM     28  H   UNL     1      11.258  76.936  -2.492  1.00  0.00     0.211 HD
ENDBRANCH  26  27
BRANCH  26  29
ATOM     29  C   UNL     1       9.149  74.548  -1.693  1.00  0.00     0.118 C 
BRANCH  29  30
ATOM     30  C   UNL     1       8.587  74.521  -3.134  1.00  0.00     0.063 C 
BRANCH  30  31
ATOM     31  C   UNL     1       8.961  73.254  -3.862  1.00  0.00    -0.046 A 
ATOM     32  C   UNL     1       9.570  72.190  -3.175  1.00  0.00     0.004 A 
ATOM     33  C   UNL     1       8.726  73.134  -5.242  1.00  0.00     0.004 A 
ATOM     34  C   UNL     1       9.941  71.028  -3.859  1.00  0.00     0.000 A 
ATOM     35  C   UNL     1       9.107  71.973  -5.924  1.00  0.00     0.000 A 
ATOM     36  C   UNL     1       9.713  70.922  -5.233  1.00  0.00     0.000 A 
ENDBRANCH  30  31
ENDBRANCH  29  30
BRANCH  29  37
ATOM     37  N   UNL     1       8.114  74.934  -0.716  1.00  0.00    -0.316 N 
ATOM     38  C   UNL     1       6.696  74.949  -0.944  1.00  0.00     0.407 C 
ATOM     39  H   UNL     1       8.428  75.157   0.255  1.00  0.00     0.167 HD
ATOM     40  O   UNL     1       6.208  74.492  -2.013  1.00  0.00    -0.225 OA
BRANCH  38  41
ATOM     41  O   UNL     1       5.858  75.472   0.044  1.00  0.00    -0.444 OA
BRANCH  41  42
ATOM     42  C   UNL     1       6.321  76.378   1.040  1.00  0.00     0.283 C 
BRANCH  42  43
ATOM     43  C   UNL     1       6.474  77.732   0.437  1.00  0.00     0.062 A 
ATOM     44  C   UNL     1       5.638  78.821   0.650  1.00  0.00     0.130 A 
ATOM     45  S   UNL     1       7.761  78.233  -0.522  1.00  0.00    -0.124 S 
ATOM     46  N   UNL     1       6.033  79.968   0.034  1.00  0.00    -0.253 NA
ATOM     47  C   UNL     1       7.184  79.808  -0.658  1.00  0.00     0.175 A 
ENDBRANCH  42  43
ENDBRANCH  41  42
ENDBRANCH  38  41
ENDBRANCH  29  37
ENDBRANCH  26  29
ENDBRANCH  25  26
ENDBRANCH   1  25
BRANCH   1  48
ATOM     48  C   UNL     1      12.546  76.879   1.510  1.00  0.00     0.060 C 
BRANCH  48  49
ATOM     49  C   UNL     1      13.680  75.994   1.984  1.00  0.00    -0.046 A 
ATOM     50  C   UNL     1      13.755  75.607   3.335  1.00  0.00     0.004 A 
ATOM     51  C   UNL     1      14.671  75.550   1.093  1.00  0.00     0.004 A 
ATOM     52  C   UNL     1      14.788  74.774   3.776  1.00  0.00     0.000 A 
ATOM     53  C   UNL     1      15.702  74.717   1.539  1.00  0.00     0.000 A 
ATOM     54  C   UNL     1      15.760  74.327   2.879  1.00  0.00     0.000 A 
ENDBRANCH  48  49
ENDBRANCH   1  48
TORSDOF 20
ENDMDL
MODEL 9
REMARK VINA RESULT:    -7.671      1.761      5.115
REMARK INTER + INTRA:         -19.298
REMARK INTER:                 -16.570
REMARK INTRA:                  -2.728
REMARK UNBOUND:                -2.883
REMARK SMILES CC(C)c1nc(CN(C)C(=O)N[C@H](C(=O)N[C@@H](Cc2ccccc2)C[C@H](O)[C@H](Cc2ccccc2)NC(=O)OCc2cncs2)C(C)C)cs1
REMARK SMILES IDX 17 1 16 2 14 3 15 4 13 6 46 7 47 8 48 9 12 10 10 11 11 13
REMARK SMILES IDX 8 14 9 15 7 16 6 17 49 18 5 19 50 20 4 21 2 22 1 23 3 24
REMARK SMILES IDX 25 25 26 26 27 27 28 29 29 30 30 31 31 32 35 33 32 34 34 35
REMARK SMILES IDX 33 36 36 37 37 38 38 40 39 41 40 42 41 43 42 44 45 45 43 46
REMARK SMILES IDX 44 47 18 48 19 49 20 50 24 51 21 52 23 53 22 54
REMARK H PARENT 16 5 12 12 27 28 36 39
REMARK Flexibility Score: inf
ROOT
ATOM      1  C   UNL     1      10.771  80.487  -2.605  1.00  0.00     0.089 C 
ENDROOT
BRANCH   1   2
ATOM      2  N   UNL     1       9.814  79.643  -1.877  1.00  0.00    -0.351 N 
ATOM      3  C   UNL     1       8.394  79.833  -1.978  1.00  0.00     0.243 C 
ATOM      4  O   UNL     1       7.932  80.783  -2.668  1.00  0.00    -0.273 OA
ATOM      5  H   UNL     1      10.145  78.762  -1.428  1.00  0.00     0.163 HD
BRANCH   3   6
ATOM      6  C   UNL     1       7.456  78.861  -1.299  1.00  0.00     0.175 C 
BRANCH   6   7
ATOM      7  C   UNL     1       6.618  79.534  -0.171  1.00  0.00     0.015 C 
ATOM      8  C   UNL     1       7.487  80.467   0.686  1.00  0.00     0.010 C 
ATOM      9  C   UNL     1       5.953  78.483   0.738  1.00  0.00     0.010 C 
ENDBRANCH   6   7
BRANCH   6  10
ATOM     10  N   UNL     1       8.189  77.672  -0.830  1.00  0.00    -0.326 N 
ATOM     11  C   UNL     1       8.511  76.523  -1.639  1.00  0.00     0.318 C 
ATOM     12  H   UNL     1       8.541  77.700   0.151  1.00  0.00     0.166 HD
ATOM     13  O   UNL     1       8.203  76.507  -2.861  1.00  0.00    -0.249 OA
BRANCH  11  14
ATOM     14  N   UNL     1       9.203  75.392  -1.071  1.00  0.00    -0.322 N 
ATOM     15  C   UNL     1      10.460  75.581  -0.340  1.00  0.00     0.149 C 
BRANCH  14  16
ATOM     16  C   UNL     1       8.615  74.049  -1.164  1.00  0.00     0.178 C 
BRANCH  16  17
ATOM     17  C   UNL     1       9.437  73.174  -2.062  1.00  0.00     0.071 A 
ATOM     18  C   UNL     1      10.210  72.111  -1.597  1.00  0.00     0.092 A 
ATOM     19  N   UNL     1       9.471  73.367  -3.409  1.00  0.00    -0.244 NA
ATOM     20  S   UNL     1      10.945  71.388  -2.926  1.00  0.00    -0.127 S 
ATOM     21  C   UNL     1      10.269  72.467  -4.031  1.00  0.00     0.095 A 
BRANCH  21  22
ATOM     22  C   UNL     1      10.420  72.400  -5.526  1.00  0.00     0.042 C 
ATOM     23  C   UNL     1      11.888  72.545  -5.938  1.00  0.00     0.015 C 
ATOM     24  C   UNL     1       9.826  71.094  -6.062  1.00  0.00     0.015 C 
ENDBRANCH  21  22
ENDBRANCH  16  17
ENDBRANCH  14  16
ENDBRANCH  11  14
ENDBRANCH   6  10
ENDBRANCH   3   6
ENDBRANCH   1   2
BRANCH   1  25
ATOM     25  C   UNL     1      11.883  79.594  -3.209  1.00  0.00     0.059 C 
BRANCH  25  26
ATOM     26  C   UNL     1      13.129  80.308  -3.801  1.00  0.00     0.139 C 
BRANCH  26  27
ATOM     27  O   UNL     1      12.895  80.704  -5.126  1.00  0.00    -0.391 OA
ATOM     28  H   UNL     1      12.298  81.496  -5.095  1.00  0.00     0.211 HD
ENDBRANCH  26  27
BRANCH  26  29
ATOM     29  C   UNL     1      14.457  79.506  -3.675  1.00  0.00     0.118 C 
BRANCH  29  30
ATOM     30  C   UNL     1      14.812  78.779  -4.994  1.00  0.00     0.063 C 
BRANCH  30  31
ATOM     31  C   UNL     1      16.032  79.370  -5.654  1.00  0.00    -0.046 A 
ATOM     32  C   UNL     1      16.574  80.584  -5.196  1.00  0.00     0.004 A 
ATOM     33  C   UNL     1      16.626  78.726  -6.753  1.00  0.00     0.004 A 
ATOM     34  C   UNL     1      17.687  81.143  -5.830  1.00  0.00     0.000 A 
ATOM     35  C   UNL     1      17.735  79.294  -7.388  1.00  0.00     0.000 A 
ATOM     36  C   UNL     1      18.265  80.501  -6.928  1.00  0.00     0.000 A 
ENDBRANCH  30  31
ENDBRANCH  29  30
BRANCH  29  37
ATOM     37  N   UNL     1      14.459  78.579  -2.528  1.00  0.00    -0.316 N 
ATOM     38  C   UNL     1      15.011  78.841  -1.228  1.00  0.00     0.407 C 
ATOM     39  H   UNL     1      13.958  77.670  -2.642  1.00  0.00     0.167 HD
ATOM     40  O   UNL     1      15.445  79.986  -0.928  1.00  0.00    -0.225 OA
BRANCH  38  41
ATOM     41  O   UNL     1      15.054  77.805  -0.292  1.00  0.00    -0.444 OA
BRANCH  41  42
ATOM     42  C   UNL     1      13.898  77.069   0.090  1.00  0.00     0.283 C 
BRANCH  42  43
ATOM     43  C   UNL     1      14.173  76.351   1.367  1.00  0.00     0.062 A 
ATOM     44  C   UNL     1      13.492  76.524   2.565  1.00  0.00     0.130 A 
ATOM     45  S   UNL     1      15.284  75.105   1.564  1.00  0.00    -0.124 S 
ATOM     46  N   UNL     1      13.893  75.697   3.569  1.00  0.00    -0.253 NA
ATOM     47  C   UNL     1      14.878  74.858   3.179  1.00  0.00     0.175 A 
ENDBRANCH  42  43
ENDBRANCH  41  42
ENDBRANCH  38  41
ENDBRANCH  29  37
ENDBRANCH  26  29
ENDBRANCH  25  26
ENDBRANCH   1  25
BRANCH   1  48
ATOM     48  C   UNL     1      11.290  81.644  -1.709  1.00  0.00     0.060 C 
BRANCH  48  49
ATOM     49  C   UNL     1      11.524  81.267  -0.261  1.00  0.00    -0.046 A 
ATOM     50  C   UNL     1      10.603  81.660   0.727  1.00  0.00     0.004 A 
ATOM     51  C   UNL     1      12.657  80.528   0.119  1.00  0.00     0.004 A 
ATOM     52  C   UNL     1      10.801  81.298   2.064  1.00  0.00     0.000 A 
ATOM     53  C   UNL     1      12.851  80.168   1.457  1.00  0.00     0.000 A 
ATOM     54  C   UNL     1      11.923  80.552   2.429  1.00  0.00     0.000 A 
ENDBRANCH  48  49
ENDBRANCH   1  48
TORSDOF 20
ENDMDL
MODEL 10
REMARK VINA RESULT:    -7.667      2.866      8.530
REMARK INTER + INTRA:         -19.289
REMARK INTER:                 -19.302
REMARK INTRA:                   0.013
REMARK UNBOUND:                -2.883
REMARK SMILES CC(C)c1nc(CN(C)C(=O)N[C@H](C(=O)N[C@@H](Cc2ccccc2)C[C@H](O)[C@H](Cc2ccccc2)NC(=O)OCc2cncs2)C(C)C)cs1
REMARK SMILES IDX 17 1 16 2 14 3 15 4 13 6 46 7 47 8 48 9 12 10 10 11 11 13
REMARK SMILES IDX 8 14 9 15 7 16 6 17 49 18 5 19 50 20 4 21 2 22 1 23 3 24
REMARK SMILES IDX 25 25 26 26 27 27 28 29 29 30 30 31 31 32 35 33 32 34 34 35
REMARK SMILES IDX 33 36 36 37 37 38 38 40 39 41 40 42 41 43 42 44 45 45 43 46
REMARK SMILES IDX 44 47 18 48 19 49 20 50 24 51 21 52 23 53 22 54
REMARK H PARENT 16 5 12 12 27 28 36 39
REMARK Flexibility Score: inf
ROOT
ATOM      1  C   UNL     1      10.315  77.937  -1.996  1.00  0.00     0.089 C 
ENDROOT
BRANCH   1   2
ATOM      2  N   UNL     1      11.741  78.174  -2.256  1.00  0.00    -0.351 N 
ATOM      3  C   UNL     1      12.710  78.247  -1.198  1.00  0.00     0.243 C 
ATOM      4  O   UNL     1      12.338  78.160   0.005  1.00  0.00    -0.273 OA
ATOM      5  H   UNL     1      12.105  78.095  -3.230  1.00  0.00     0.163 HD
BRANCH   3   6
ATOM      6  C   UNL     1      14.178  78.376  -1.532  1.00  0.00     0.175 C 
BRANCH   6   7
ATOM      7  C   UNL     1      15.019  78.890  -0.326  1.00  0.00     0.015 C 
ATOM      8  C   UNL     1      14.850  77.979   0.900  1.00  0.00     0.010 C 
ATOM      9  C   UNL     1      14.633  80.331   0.056  1.00  0.00     0.010 C 
ENDBRANCH   6   7
BRANCH   6  10
ATOM     10  N   UNL     1      14.366  79.192  -2.745  1.00  0.00    -0.326 N 
ATOM     11  C   UNL     1      14.240  78.710  -4.098  1.00  0.00     0.318 C 
ATOM     12  H   UNL     1      14.553  80.207  -2.597  1.00  0.00     0.166 HD
ATOM     13  O   UNL     1      13.899  77.516  -4.311  1.00  0.00    -0.249 OA
BRANCH  11  14
ATOM     14  N   UNL     1      14.480  79.586  -5.217  1.00  0.00    -0.322 N 
ATOM     15  C   UNL     1      13.940  80.949  -5.224  1.00  0.00     0.149 C 
BRANCH  14  16
ATOM     16  C   UNL     1      15.328  79.138  -6.331  1.00  0.00     0.178 C 
BRANCH  16  17
ATOM     17  C   UNL     1      16.519  80.036  -6.483  1.00  0.00     0.071 A 
ATOM     18  C   UNL     1      16.756  80.808  -7.620  1.00  0.00     0.092 A 
ATOM     19  N   UNL     1      17.452  80.154  -5.499  1.00  0.00    -0.244 NA
ATOM     20  S   UNL     1      18.175  81.675  -7.367  1.00  0.00    -0.127 S 
ATOM     21  C   UNL     1      18.440  81.016  -5.838  1.00  0.00     0.095 A 
BRANCH  21  22
ATOM     22  C   UNL     1      19.554  81.397  -4.901  1.00  0.00     0.042 C 
ATOM     23  C   UNL     1      20.413  80.182  -4.542  1.00  0.00     0.015 C 
ATOM     24  C   UNL     1      20.406  82.511  -5.515  1.00  0.00     0.015 C 
ENDBRANCH  21  22
ENDBRANCH  16  17
ENDBRANCH  14  16
ENDBRANCH  11  14
ENDBRANCH   6  10
ENDBRANCH   3   6
ENDBRANCH   1   2
BRANCH   1  25
ATOM     25  C   UNL     1       9.782  76.883  -2.998  1.00  0.00     0.059 C 
BRANCH  25  26
ATOM     26  C   UNL     1       8.267  76.547  -2.942  1.00  0.00     0.139 C 
BRANCH  26  27
ATOM     27  O   UNL     1       7.491  77.707  -3.089  1.00  0.00    -0.391 OA
ATOM     28  H   UNL     1       8.098  78.426  -3.404  1.00  0.00     0.211 HD
ENDBRANCH  26  27
BRANCH  26  29
ATOM     29  C   UNL     1       7.829  75.728  -1.692  1.00  0.00     0.118 C 
BRANCH  29  30
ATOM     30  C   UNL     1       8.310  76.391  -0.379  1.00  0.00     0.063 C 
BRANCH  30  31
ATOM     31  C   UNL     1       7.236  77.242   0.251  1.00  0.00    -0.046 A 
ATOM     32  C   UNL     1       7.070  78.583  -0.137  1.00  0.00     0.004 A 
ATOM     33  C   UNL     1       6.405  76.710   1.251  1.00  0.00     0.004 A 
ATOM     34  C   UNL     1       6.093  79.377   0.470  1.00  0.00     0.000 A 
ATOM     35  C   UNL     1       5.434  77.511   1.860  1.00  0.00     0.000 A 
ATOM     36  C   UNL     1       5.278  78.843   1.471  1.00  0.00     0.000 A 
ENDBRANCH  30  31
ENDBRANCH  29  30
BRANCH  29  37
ATOM     37  N   UNL     1       8.235  74.312  -1.764  1.00  0.00    -0.316 N 
ATOM     38  C   UNL     1       9.413  73.737  -1.179  1.00  0.00     0.407 C 
ATOM     39  H   UNL     1       7.577  73.646  -2.228  1.00  0.00     0.167 HD
ATOM     40  O   UNL     1      10.156  74.417  -0.419  1.00  0.00    -0.225 OA
BRANCH  38  41
ATOM     41  O   UNL     1       9.723  72.404  -1.457  1.00  0.00    -0.444 OA
BRANCH  41  42
ATOM     42  C   UNL     1      10.933  72.017  -2.099  1.00  0.00     0.283 C 
BRANCH  42  43
ATOM     43  C   UNL     1      10.668  71.793  -3.549  1.00  0.00     0.062 A 
ATOM     44  C   UNL     1       9.652  71.012  -4.084  1.00  0.00     0.130 A 
ATOM     45  S   UNL     1      11.481  72.544  -4.814  1.00  0.00    -0.124 S 
ATOM     46  N   UNL     1       9.583  71.025  -5.443  1.00  0.00    -0.253 NA
ATOM     47  C   UNL     1      10.527  71.818  -5.996  1.00  0.00     0.175 A 
ENDBRANCH  42  43
ENDBRANCH  41  42
ENDBRANCH  38  41
ENDBRANCH  29  37
ENDBRANCH  26  29
ENDBRANCH  25  26
ENDBRANCH   1  25
BRANCH   1  48
ATOM     48  C   UNL     1       9.520  79.271  -1.983  1.00  0.00     0.060 C 
BRANCH  48  49
ATOM     49  C   UNL     1      10.059  80.319  -1.033  1.00  0.00    -0.046 A 
ATOM     50  C   UNL     1       9.648  80.329   0.313  1.00  0.00     0.004 A 
ATOM     51  C   UNL     1      10.968  81.295  -1.474  1.00  0.00     0.004 A 
ATOM     52  C   UNL     1      10.157  81.281   1.202  1.00  0.00     0.000 A 
ATOM     53  C   UNL     1      11.474  82.246  -0.581  1.00  0.00     0.000 A 
ATOM     54  C   UNL     1      11.071  82.238   0.756  1.00  0.00     0.000 A 
ENDBRANCH  48  49
ENDBRANCH   1  48
TORSDOF 20
ENDMDL
MODEL 11
REMARK VINA RESULT:    -7.652      1.573      4.522
REMARK INTER + INTRA:         -19.258
REMARK INTER:                 -16.853
REMARK INTRA:                  -2.404
REMARK UNBOUND:                -2.883
REMARK SMILES CC(C)c1nc(CN(C)C(=O)N[C@H](C(=O)N[C@@H](Cc2ccccc2)C[C@H](O)[C@H](Cc2ccccc2)NC(=O)OCc2cncs2)C(C)C)cs1
REMARK SMILES IDX 17 1 16 2 14 3 15 4 13 6 46 7 47 8 48 9 12 10 10 11 11 13
REMARK SMILES IDX 8 14 9 15 7 16 6 17 49 18 5 19 50 20 4 21 2 22 1 23 3 24
REMARK SMILES IDX 25 25 26 26 27 27 28 29 29 30 30 31 31 32 35 33 32 34 34 35
REMARK SMILES IDX 33 36 36 37 37 38 38 40 39 41 40 42 41 43 42 44 45 45 43 46
REMARK SMILES IDX 44 47 18 48 19 49 20 50 24 51 21 52 23 53 22 54
REMARK H PARENT 16 5 12 12 27 28 36 39
REMARK Flexibility Score: inf
ROOT
ATOM      1  C   UNL     1       9.684  80.483  -1.917  1.00  0.00     0.089 C 
ENDROOT
BRANCH   1   2
ATOM      2  N   UNL     1       8.901  79.578  -1.066  1.00  0.00    -0.351 N 
ATOM      3  C   UNL     1       7.473  79.463  -1.180  1.00  0.00     0.243 C 
ATOM      4  O   UNL     1       6.845  80.193  -1.995  1.00  0.00    -0.273 OA
ATOM      5  H   UNL     1       9.392  78.854  -0.497  1.00  0.00     0.163 HD
BRANCH   3   6
ATOM      6  C   UNL     1       6.735  78.431  -0.358  1.00  0.00     0.175 C 
BRANCH   6   7
ATOM      7  C   UNL     1       6.186  79.016   0.977  1.00  0.00     0.015 C 
ATOM      8  C   UNL     1       5.964  77.909   2.019  1.00  0.00     0.010 C 
ATOM      9  C   UNL     1       4.865  79.777   0.756  1.00  0.00     0.010 C 
ENDBRANCH   6   7
BRANCH   6  10
ATOM     10  N   UNL     1       7.571  77.234  -0.153  1.00  0.00    -0.326 N 
ATOM     11  C   UNL     1       7.869  76.247  -1.161  1.00  0.00     0.318 C 
ATOM     12  H   UNL     1       8.016  77.134   0.784  1.00  0.00     0.166 HD
ATOM     13  O   UNL     1       7.443  76.400  -2.337  1.00  0.00    -0.249 OA
BRANCH  11  14
ATOM     14  N   UNL     1       8.670  75.091  -0.845  1.00  0.00    -0.322 N 
ATOM     15  C   UNL     1       9.897  75.231  -0.055  1.00  0.00     0.149 C 
BRANCH  14  16
ATOM     16  C   UNL     1       8.224  73.754  -1.258  1.00  0.00     0.178 C 
BRANCH  16  17
ATOM     17  C   UNL     1       9.265  73.087  -2.106  1.00  0.00     0.071 A 
ATOM     18  C   UNL     1      10.274  72.278  -1.585  1.00  0.00     0.092 A 
ATOM     19  N   UNL     1       9.283  73.234  -3.459  1.00  0.00    -0.244 NA
ATOM     20  S   UNL     1      11.203  71.720  -2.872  1.00  0.00    -0.127 S 
ATOM     21  C   UNL     1      10.300  72.548  -4.031  1.00  0.00     0.095 A 
BRANCH  21  22
ATOM     22  C   UNL     1      10.502  72.467  -5.520  1.00  0.00     0.042 C 
ATOM     23  C   UNL     1      11.986  72.575  -5.882  1.00  0.00     0.015 C 
ATOM     24  C   UNL     1       9.895  71.172  -6.068  1.00  0.00     0.015 C 
ENDBRANCH  21  22
ENDBRANCH  16  17
ENDBRANCH  14  16
ENDBRANCH  11  14
ENDBRANCH   6  10
ENDBRANCH   3   6
ENDBRANCH   1   2
BRANCH   1  25
ATOM     25  C   UNL     1      10.807  79.680  -2.619  1.00  0.00     0.059 C 
BRANCH  25  26
ATOM     26  C   UNL     1      11.294  78.379  -1.926  1.00  0.00     0.139 C 
BRANCH  26  27
ATOM     27  O   UNL     1      10.550  78.120  -0.766  1.00  0.00    -0.391 OA
ATOM     28  H   UNL     1      10.811  78.801  -0.093  1.00  0.00     0.211 HD
ENDBRANCH  26  27
BRANCH  26  29
ATOM     29  C   UNL     1      12.824  78.330  -1.640  1.00  0.00     0.118 C 
BRANCH  29  30
ATOM     30  C   UNL     1      13.602  77.674  -2.806  1.00  0.00     0.063 C 
BRANCH  30  31
ATOM     31  C   UNL     1      14.080  78.693  -3.810  1.00  0.00    -0.046 A 
ATOM     32  C   UNL     1      14.178  78.360  -5.172  1.00  0.00     0.004 A 
ATOM     33  C   UNL     1      14.457  79.979  -3.390  1.00  0.00     0.004 A 
ATOM     34  C   UNL     1      14.649  79.299  -6.095  1.00  0.00     0.000 A 
ATOM     35  C   UNL     1      14.935  80.912  -4.316  1.00  0.00     0.000 A 
ATOM     36  C   UNL     1      15.032  80.572  -5.667  1.00  0.00     0.000 A 
ENDBRANCH  30  31
ENDBRANCH  29  30
BRANCH  29  37
ATOM     37  N   UNL     1      13.145  77.693  -0.349  1.00  0.00    -0.316 N 
ATOM     38  C   UNL     1      14.410  77.741   0.328  1.00  0.00     0.407 C 
ATOM     39  H   UNL     1      12.367  77.215   0.158  1.00  0.00     0.167 HD
ATOM     40  O   UNL     1      15.346  78.471  -0.098  1.00  0.00    -0.225 OA
BRANCH  38  41
ATOM     41  O   UNL     1      14.589  76.969   1.479  1.00  0.00    -0.444 OA
BRANCH  41  42
ATOM     42  C   UNL     1      13.638  76.002   1.909  1.00  0.00     0.283 C 
BRANCH  42  43
ATOM     43  C   UNL     1      14.129  75.352   3.157  1.00  0.00     0.062 A 
ATOM     44  C   UNL     1      15.395  74.817   3.356  1.00  0.00     0.130 A 
ATOM     45  S   UNL     1      13.279  75.253   4.604  1.00  0.00    -0.124 S 
ATOM     46  N   UNL     1      15.617  74.339   4.611  1.00  0.00    -0.253 NA
ATOM     47  C   UNL     1      14.545  74.500   5.418  1.00  0.00     0.175 A 
ENDBRANCH  42  43
ENDBRANCH  41  42
ENDBRANCH  38  41
ENDBRANCH  29  37
ENDBRANCH  26  29
ENDBRANCH  25  26
ENDBRANCH   1  25
BRANCH   1  48
ATOM     48  C   UNL     1      10.181  81.716  -1.114  1.00  0.00     0.060 C 
BRANCH  48  49
ATOM     49  C   UNL     1      11.222  81.406  -0.059  1.00  0.00    -0.046 A 
ATOM     50  C   UNL     1      10.824  81.096   1.254  1.00  0.00     0.004 A 
ATOM     51  C   UNL     1      12.592  81.426  -0.369  1.00  0.00     0.004 A 
ATOM     52  C   UNL     1      11.778  80.788   2.230  1.00  0.00     0.000 A 
ATOM     53  C   UNL     1      13.543  81.118   0.610  1.00  0.00     0.000 A 
ATOM     54  C   UNL     1      13.137  80.798   1.908  1.00  0.00     0.000 A 
ENDBRANCH  48  49
ENDBRANCH   1  48
TORSDOF 20
ENDMDL
MODEL 12
REMARK VINA RESULT:    -7.644      3.165      8.867
REMARK INTER + INTRA:         -19.241
REMARK INTER:                 -17.842
REMARK INTRA:                  -1.400
REMARK UNBOUND:                -2.883
REMARK SMILES CC(C)c1nc(CN(C)C(=O)N[C@H](C(=O)N[C@@H](Cc2ccccc2)C[C@H](O)[C@H](Cc2ccccc2)NC(=O)OCc2cncs2)C(C)C)cs1
REMARK SMILES IDX 17 1 16 2 14 3 15 4 13 6 46 7 47 8 48 9 12 10 10 11 11 13
REMARK SMILES IDX 8 14 9 15 7 16 6 17 49 18 5 19 50 20 4 21 2 22 1 23 3 24
REMARK SMILES IDX 25 25 26 26 27 27 28 29 29 30 30 31 31 32 35 33 32 34 34 35
REMARK SMILES IDX 33 36 36 37 37 38 38 40 39 41 40 42 41 43 42 44 45 45 43 46
REMARK SMILES IDX 44 47 18 48 19 49 20 50 24 51 21 52 23 53 22 54
REMARK H PARENT 16 5 12 12 27 28 36 39
REMARK Flexibility Score: inf
ROOT
ATOM      1  C   UNL     1      10.123  78.003  -1.634  1.00  0.00     0.089 C 
ENDROOT
BRANCH   1   2
ATOM      2  N   UNL     1      11.531  78.418  -1.688  1.00  0.00    -0.351 N 
ATOM      3  C   UNL     1      12.545  77.794  -0.886  1.00  0.00     0.243 C 
ATOM      4  O   UNL     1      12.231  76.891  -0.062  1.00  0.00    -0.273 OA
ATOM      5  H   UNL     1      11.852  79.044  -2.458  1.00  0.00     0.163 HD
BRANCH   3   6
ATOM      6  C   UNL     1      13.994  78.184  -1.068  1.00  0.00     0.175 C 
BRANCH   6   7
ATOM      7  C   UNL     1      14.529  79.050   0.110  1.00  0.00     0.015 C 
ATOM      8  C   UNL     1      13.599  78.965   1.330  1.00  0.00     0.010 C 
ATOM      9  C   UNL     1      14.690  80.525  -0.303  1.00  0.00     0.010 C 
ENDBRANCH   6   7
BRANCH   6  10
ATOM     10  N   UNL     1      14.199  78.822  -2.382  1.00  0.00    -0.326 N 
ATOM     11  C   UNL     1      13.794  78.264  -3.648  1.00  0.00     0.318 C 
ATOM     12  H   UNL     1      14.625  79.773  -2.374  1.00  0.00     0.166 HD
ATOM     13  O   UNL     1      13.171  77.169  -3.683  1.00  0.00    -0.249 OA
BRANCH  11  14
ATOM     14  N   UNL     1      14.076  78.956  -4.881  1.00  0.00    -0.322 N 
ATOM     15  C   UNL     1      14.133  78.222  -6.149  1.00  0.00     0.149 C 
BRANCH  14  16
ATOM     16  C   UNL     1      14.240  80.416  -4.882  1.00  0.00     0.178 C 
BRANCH  16  17
ATOM     17  C   UNL     1      15.638  80.790  -5.274  1.00  0.00     0.071 A 
ATOM     18  C   UNL     1      16.747  80.567  -4.460  1.00  0.00     0.092 A 
ATOM     19  N   UNL     1      15.909  81.377  -6.472  1.00  0.00    -0.244 NA
ATOM     20  S   UNL     1      18.109  81.111  -5.284  1.00  0.00    -0.127 S 
ATOM     21  C   UNL     1      17.231  81.628  -6.626  1.00  0.00     0.095 A 
BRANCH  21  22
ATOM     22  C   UNL     1      17.816  82.194  -7.892  1.00  0.00     0.042 C 
ATOM     23  C   UNL     1      19.345  82.246  -7.816  1.00  0.00     0.015 C 
ATOM     24  C   UNL     1      17.353  81.378  -9.102  1.00  0.00     0.015 C 
ENDBRANCH  21  22
ENDBRANCH  16  17
ENDBRANCH  14  16
ENDBRANCH  11  14
ENDBRANCH   6  10
ENDBRANCH   3   6
ENDBRANCH   1   2
BRANCH   1  25
ATOM     25  C   UNL     1       9.716  77.399  -3.001  1.00  0.00     0.059 C 
BRANCH  25  26
ATOM     26  C   UNL     1       8.263  76.870  -3.143  1.00  0.00     0.139 C 
BRANCH  26  27
ATOM     27  O   UNL     1       7.368  77.661  -2.408  1.00  0.00    -0.391 OA
ATOM     28  H   UNL     1       7.889  78.414  -2.025  1.00  0.00     0.211 HD
ENDBRANCH  26  27
BRANCH  26  29
ATOM     29  C   UNL     1       8.088  75.358  -2.812  1.00  0.00     0.118 C 
BRANCH  29  30
ATOM     30  C   UNL     1       7.758  74.531  -4.077  1.00  0.00     0.063 C 
BRANCH  30  31
ATOM     31  C   UNL     1       8.659  73.329  -4.216  1.00  0.00    -0.046 A 
ATOM     32  C   UNL     1       8.858  72.729  -5.471  1.00  0.00     0.004 A 
ATOM     33  C   UNL     1       9.288  72.780  -3.086  1.00  0.00     0.004 A 
ATOM     34  C   UNL     1       9.670  71.597  -5.591  1.00  0.00     0.000 A 
ATOM     35  C   UNL     1      10.093  71.643  -3.210  1.00  0.00     0.000 A 
ATOM     36  C   UNL     1      10.284  71.052  -4.461  1.00  0.00     0.000 A 
ENDBRANCH  30  31
ENDBRANCH  29  30
BRANCH  29  37
ATOM     37  N   UNL     1       7.107  75.119  -1.737  1.00  0.00    -0.316 N 
ATOM     38  C   UNL     1       7.398  74.995  -0.336  1.00  0.00     0.407 C 
ATOM     39  H   UNL     1       6.097  75.100  -2.002  1.00  0.00     0.167 HD
ATOM     40  O   UNL     1       8.559  75.217   0.106  1.00  0.00    -0.225 OA
BRANCH  38  41
ATOM     41  O   UNL     1       6.371  74.632   0.538  1.00  0.00    -0.444 OA
BRANCH  41  42
ATOM     42  C   UNL     1       5.163  75.376   0.652  1.00  0.00     0.283 C 
BRANCH  42  43
ATOM     43  C   UNL     1       5.477  76.746   1.147  1.00  0.00     0.062 A 
ATOM     44  C   UNL     1       5.611  77.125   2.477  1.00  0.00     0.130 A 
ATOM     45  S   UNL     1       5.849  78.070   0.180  1.00  0.00    -0.124 S 
ATOM     46  N   UNL     1       5.967  78.425   2.663  1.00  0.00    -0.253 NA
ATOM     47  C   UNL     1       6.132  79.084   1.494  1.00  0.00     0.175 A 
ENDBRANCH  42  43
ENDBRANCH  41  42
ENDBRANCH  38  41
ENDBRANCH  29  37
ENDBRANCH  26  29
ENDBRANCH  25  26
ENDBRANCH   1  25
BRANCH   1  48
ATOM     48  C   UNL     1       9.215  79.164  -1.148  1.00  0.00     0.060 C 
BRANCH  48  49
ATOM     49  C   UNL     1       9.948  80.292  -0.452  1.00  0.00    -0.046 A 
ATOM     50  C   UNL     1       9.949  80.370   0.953  1.00  0.00     0.004 A 
ATOM     51  C   UNL     1      10.629  81.275  -1.190  1.00  0.00     0.004 A 
ATOM     52  C   UNL     1      10.641  81.397   1.604  1.00  0.00     0.000 A 
ATOM     53  C   UNL     1      11.320  82.299  -0.534  1.00  0.00     0.000 A 
ATOM     54  C   UNL     1      11.327  82.360   0.862  1.00  0.00     0.000 A 
ENDBRANCH  48  49
ENDBRANCH   1  48
TORSDOF 20
ENDMDL
MODEL 13
REMARK VINA RESULT:    -7.640      2.874      6.431
REMARK INTER + INTRA:         -19.233
REMARK INTER:                 -18.208
REMARK INTRA:                  -1.025
REMARK UNBOUND:                -2.883
REMARK SMILES CC(C)c1nc(CN(C)C(=O)N[C@H](C(=O)N[C@@H](Cc2ccccc2)C[C@H](O)[C@H](Cc2ccccc2)NC(=O)OCc2cncs2)C(C)C)cs1
REMARK SMILES IDX 17 1 16 2 14 3 15 4 13 6 46 7 47 8 48 9 12 10 10 11 11 13
REMARK SMILES IDX 8 14 9 15 7 16 6 17 49 18 5 19 50 20 4 21 2 22 1 23 3 24
REMARK SMILES IDX 25 25 26 26 27 27 28 29 29 30 30 31 31 32 35 33 32 34 34 35
REMARK SMILES IDX 33 36 36 37 37 38 38 40 39 41 40 42 41 43 42 44 45 45 43 46
REMARK SMILES IDX 44 47 18 48 19 49 20 50 24 51 21 52 23 53 22 54
REMARK H PARENT 16 5 12 12 27 28 36 39
REMARK Flexibility Score: inf
ROOT
ATOM      1  C   UNL     1      11.075  78.542  -1.400  1.00  0.00     0.089 C 
ENDROOT
BRANCH   1   2
ATOM      2  N   UNL     1       9.703  78.037  -1.268  1.00  0.00    -0.351 N 
ATOM      3  C   UNL     1       8.683  78.764  -0.563  1.00  0.00     0.243 C 
ATOM      4  O   UNL     1       8.967  79.850   0.013  1.00  0.00    -0.273 OA
ATOM      5  H   UNL     1       9.393  77.232  -1.854  1.00  0.00     0.163 HD
BRANCH   3   6
ATOM      6  C   UNL     1       7.262  78.251  -0.559  1.00  0.00     0.175 C 
BRANCH   6   7
ATOM      7  C   UNL     1       6.575  78.413   0.830  1.00  0.00     0.015 C 
ATOM      8  C   UNL     1       6.039  77.069   1.346  1.00  0.00     0.010 C 
ATOM      9  C   UNL     1       5.421  79.431   0.771  1.00  0.00     0.010 C 
ENDBRANCH   6   7
BRANCH   6  10
ATOM     10  N   UNL     1       7.207  76.866  -1.062  1.00  0.00    -0.326 N 
ATOM     11  C   UNL     1       7.489  76.463  -2.417  1.00  0.00     0.318 C 
ATOM     12  H   UNL     1       6.997  76.125  -0.359  1.00  0.00     0.166 HD
ATOM     13  O   UNL     1       7.861  77.319  -3.263  1.00  0.00    -0.249 OA
BRANCH  11  14
ATOM     14  N   UNL     1       7.371  75.082  -2.814  1.00  0.00    -0.322 N 
ATOM     15  C   UNL     1       6.981  74.733  -4.183  1.00  0.00     0.149 C 
BRANCH  14  16
ATOM     16  C   UNL     1       7.710  74.014  -1.864  1.00  0.00     0.178 C 
BRANCH  16  17
ATOM     17  C   UNL     1       8.950  73.292  -2.299  1.00  0.00     0.071 A 
ATOM     18  C   UNL     1       9.988  72.961  -1.430  1.00  0.00     0.092 A 
ATOM     19  N   UNL     1       9.134  72.908  -3.592  1.00  0.00    -0.244 NA
ATOM     20  S   UNL     1      11.163  72.146  -2.317  1.00  0.00    -0.127 S 
ATOM     21  C   UNL     1      10.315  72.270  -3.768  1.00  0.00     0.095 A 
BRANCH  21  22
ATOM     22  C   UNL     1      10.732  71.665  -5.081  1.00  0.00     0.042 C 
ATOM     23  C   UNL     1       9.516  71.358  -5.959  1.00  0.00     0.015 C 
ATOM     24  C   UNL     1      11.712  72.593  -5.805  1.00  0.00     0.015 C 
ENDBRANCH  21  22
ENDBRANCH  16  17
ENDBRANCH  14  16
ENDBRANCH  11  14
ENDBRANCH   6  10
ENDBRANCH   3   6
ENDBRANCH   1   2
BRANCH   1  25
ATOM     25  C   UNL     1      11.136  79.556  -2.570  1.00  0.00     0.059 C 
BRANCH  25  26
ATOM     26  C   UNL     1      12.495  79.721  -3.302  1.00  0.00     0.139 C 
BRANCH  26  27
ATOM     27  O   UNL     1      12.755  78.618  -4.130  1.00  0.00    -0.391 OA
ATOM     28  H   UNL     1      11.930  78.066  -4.149  1.00  0.00     0.211 HD
ENDBRANCH  26  27
BRANCH  26  29
ATOM     29  C   UNL     1      13.703  80.024  -2.367  1.00  0.00     0.118 C 
BRANCH  29  30
ATOM     30  C   UNL     1      13.569  81.409  -1.692  1.00  0.00     0.063 C 
BRANCH  30  31
ATOM     31  C   UNL     1      12.832  81.328  -0.378  1.00  0.00    -0.046 A 
ATOM     32  C   UNL     1      13.313  80.511   0.660  1.00  0.00     0.004 A 
ATOM     33  C   UNL     1      11.642  82.050  -0.187  1.00  0.00     0.004 A 
ATOM     34  C   UNL     1      12.612  80.417   1.866  1.00  0.00     0.000 A 
ATOM     35  C   UNL     1      10.941  81.946   1.019  1.00  0.00     0.000 A 
ATOM     36  C   UNL     1      11.424  81.130   2.043  1.00  0.00     0.000 A 
ENDBRANCH  30  31
ENDBRANCH  29  30
BRANCH  29  37
ATOM     37  N   UNL     1      15.004  79.876  -3.047  1.00  0.00    -0.316 N 
ATOM     38  C   UNL     1      15.339  80.373  -4.352  1.00  0.00     0.407 C 
ATOM     39  H   UNL     1      15.779  79.425  -2.511  1.00  0.00     0.167 HD
ATOM     40  O   UNL     1      14.541  81.115  -4.987  1.00  0.00    -0.225 OA
BRANCH  38  41
ATOM     41  O   UNL     1      16.573  80.029  -4.908  1.00  0.00    -0.444 OA
BRANCH  41  42
ATOM     42  C   UNL     1      16.813  80.047  -6.311  1.00  0.00     0.283 C 
BRANCH  42  43
ATOM     43  C   UNL     1      17.917  81.005  -6.607  1.00  0.00     0.062 A 
ATOM     44  C   UNL     1      19.020  81.256  -5.802  1.00  0.00     0.130 A 
ATOM     45  S   UNL     1      18.095  81.874  -8.035  1.00  0.00    -0.124 S 
ATOM     46  N   UNL     1      19.921  82.127  -6.331  1.00  0.00    -0.253 NA
ATOM     47  C   UNL     1      19.554  82.563  -7.556  1.00  0.00     0.175 A 
ENDBRANCH  42  43
ENDBRANCH  41  42
ENDBRANCH  38  41
ENDBRANCH  29  37
ENDBRANCH  26  29
ENDBRANCH  25  26
ENDBRANCH   1  25
BRANCH   1  48
ATOM     48  C   UNL     1      12.094  77.376  -1.507  1.00  0.00     0.060 C 
BRANCH  48  49
ATOM     49  C   UNL     1      12.741  76.980  -0.196  1.00  0.00    -0.046 A 
ATOM     50  C   UNL     1      12.140  76.005   0.620  1.00  0.00     0.004 A 
ATOM     51  C   UNL     1      13.941  77.577   0.226  1.00  0.00     0.004 A 
ATOM     52  C   UNL     1      12.742  75.619   1.823  1.00  0.00     0.000 A 
ATOM     53  C   UNL     1      14.539  77.187   1.429  1.00  0.00     0.000 A 
ATOM     54  C   UNL     1      13.942  76.208   2.226  1.00  0.00     0.000 A 
ENDBRANCH  48  49
ENDBRANCH   1  48
TORSDOF 20
ENDMDL
MODEL 14
REMARK VINA RESULT:    -7.624      2.805      6.576
REMARK INTER + INTRA:         -19.198
REMARK INTER:                 -18.418
REMARK INTRA:                  -0.780
REMARK UNBOUND:                -2.883
REMARK SMILES CC(C)c1nc(CN(C)C(=O)N[C@H](C(=O)N[C@@H](Cc2ccccc2)C[C@H](O)[C@H](Cc2ccccc2)NC(=O)OCc2cncs2)C(C)C)cs1
REMARK SMILES IDX 17 1 16 2 14 3 15 4 13 6 46 7 47 8 48 9 12 10 10 11 11 13
REMARK SMILES IDX 8 14 9 15 7 16 6 17 49 18 5 19 50 20 4 21 2 22 1 23 3 24
REMARK SMILES IDX 25 25 26 26 27 27 28 29 29 30 30 31 31 32 35 33 32 34 34 35
REMARK SMILES IDX 33 36 36 37 37 38 38 40 39 41 40 42 41 43 42 44 45 45 43 46
REMARK SMILES IDX 44 47 18 48 19 49 20 50 24 51 21 52 23 53 22 54
REMARK H PARENT 16 5 12 12 27 28 36 39
REMARK Flexibility Score: inf
ROOT
ATOM      1  C   UNL     1      12.379  77.391  -0.082  1.00  0.00     0.089 C 
ENDROOT
BRANCH   1   2
ATOM      2  N   UNL     1      11.355  77.634  -1.107  1.00  0.00    -0.351 N 
ATOM      3  C   UNL     1      10.263  78.543  -0.898  1.00  0.00     0.243 C 
ATOM      4  O   UNL     1      10.130  79.125   0.214  1.00  0.00    -0.273 OA
ATOM      5  H   UNL     1      11.514  77.298  -2.081  1.00  0.00     0.163 HD
BRANCH   3   6
ATOM      6  C   UNL     1       9.305  78.840  -2.029  1.00  0.00     0.175 C 
BRANCH   6   7
ATOM      7  C   UNL     1       8.537  80.179  -1.823  1.00  0.00     0.015 C 
ATOM      8  C   UNL     1       7.018  79.968  -1.912  1.00  0.00     0.010 C 
ATOM      9  C   UNL     1       8.964  81.238  -2.856  1.00  0.00     0.010 C 
ENDBRANCH   6   7
BRANCH   6  10
ATOM     10  N   UNL     1       8.404  77.697  -2.261  1.00  0.00    -0.326 N 
ATOM     11  C   UNL     1       7.948  76.780  -1.246  1.00  0.00     0.318 C 
ATOM     12  H   UNL     1       8.035  77.587  -3.230  1.00  0.00     0.166 HD
ATOM     13  O   UNL     1       8.281  76.956  -0.044  1.00  0.00    -0.249 OA
BRANCH  11  14
ATOM     14  N   UNL     1       7.092  75.670  -1.587  1.00  0.00    -0.322 N 
ATOM     15  C   UNL     1       6.021  75.252  -0.679  1.00  0.00     0.149 C 
BRANCH  14  16
ATOM     16  C   UNL     1       7.248  74.995  -2.882  1.00  0.00     0.178 C 
BRANCH  16  17
ATOM     17  C   UNL     1       8.411  74.048  -2.848  1.00  0.00     0.071 A 
ATOM     18  C   UNL     1       9.091  73.713  -1.679  1.00  0.00     0.092 A 
ATOM     19  N   UNL     1       8.874  73.448  -3.979  1.00  0.00    -0.244 NA
ATOM     20  S   UNL     1      10.301  72.616  -2.083  1.00  0.00    -0.127 S 
ATOM     21  C   UNL     1       9.924  72.632  -3.726  1.00  0.00     0.095 A 
BRANCH  21  22
ATOM     22  C   UNL     1      10.574  71.780  -4.782  1.00  0.00     0.042 C 
ATOM     23  C   UNL     1       9.525  71.124  -5.685  1.00  0.00     0.015 C 
ATOM     24  C   UNL     1      11.561  72.615  -5.604  1.00  0.00     0.015 C 
ENDBRANCH  21  22
ENDBRANCH  16  17
ENDBRANCH  14  16
ENDBRANCH  11  14
ENDBRANCH   6  10
ENDBRANCH   3   6
ENDBRANCH   1   2
BRANCH   1  25
ATOM     25  C   UNL     1      13.770  77.762  -0.653  1.00  0.00     0.059 C 
BRANCH  25  26
ATOM     26  C   UNL     1      13.806  78.627  -1.942  1.00  0.00     0.139 C 
BRANCH  26  27
ATOM     27  O   UNL     1      14.044  77.831  -3.072  1.00  0.00    -0.391 OA
ATOM     28  H   UNL     1      13.187  77.388  -3.303  1.00  0.00     0.211 HD
ENDBRANCH  26  27
BRANCH  26  29
ATOM     29  C   UNL     1      14.784  79.837  -1.884  1.00  0.00     0.118 C 
BRANCH  29  30
ATOM     30  C   UNL     1      14.025  81.180  -1.771  1.00  0.00     0.063 C 
BRANCH  30  31
ATOM     31  C   UNL     1      13.125  81.220  -0.561  1.00  0.00    -0.046 A 
ATOM     32  C   UNL     1      11.885  81.880  -0.616  1.00  0.00     0.004 A 
ATOM     33  C   UNL     1      13.530  80.620   0.643  1.00  0.00     0.004 A 
ATOM     34  C   UNL     1      11.067  81.940   0.516  1.00  0.00     0.000 A 
ATOM     35  C   UNL     1      12.711  80.689   1.775  1.00  0.00     0.000 A 
ATOM     36  C   UNL     1      11.482  81.348   1.712  1.00  0.00     0.000 A 
ENDBRANCH  30  31
ENDBRANCH  29  30
BRANCH  29  37
ATOM     37  N   UNL     1      15.744  79.850  -3.004  1.00  0.00    -0.316 N 
ATOM     38  C   UNL     1      15.431  80.084  -4.386  1.00  0.00     0.407 C 
ATOM     39  H   UNL     1      16.757  79.744  -2.771  1.00  0.00     0.167 HD
ATOM     40  O   UNL     1      14.271  80.434  -4.737  1.00  0.00    -0.225 OA
BRANCH  38  41
ATOM     41  O   UNL     1      16.437  79.926  -5.342  1.00  0.00    -0.444 OA
BRANCH  41  42
ATOM     42  C   UNL     1      16.554  80.774  -6.479  1.00  0.00     0.283 C 
BRANCH  42  43
ATOM     43  C   UNL     1      17.923  81.363  -6.512  1.00  0.00     0.062 A 
ATOM     44  C   UNL     1      18.566  81.873  -7.632  1.00  0.00     0.130 A 
ATOM     45  S   UNL     1      18.902  81.631  -5.172  1.00  0.00    -0.124 S 
ATOM     46  N   UNL     1      19.789  82.416  -7.385  1.00  0.00    -0.253 NA
ATOM     47  C   UNL     1      20.122  82.355  -6.077  1.00  0.00     0.175 A 
ENDBRANCH  42  43
ENDBRANCH  41  42
ENDBRANCH  38  41
ENDBRANCH  29  37
ENDBRANCH  26  29
ENDBRANCH  25  26
ENDBRANCH   1  25
BRANCH   1  48
ATOM     48  C   UNL     1      12.279  75.947   0.478  1.00  0.00     0.060 C 
BRANCH  48  49
ATOM     49  C   UNL     1      13.368  75.574   1.463  1.00  0.00    -0.046 A 
ATOM     50  C   UNL     1      13.119  75.639   2.846  1.00  0.00     0.004 A 
ATOM     51  C   UNL     1      14.635  75.165   1.016  1.00  0.00     0.004 A 
ATOM     52  C   UNL     1      14.113  75.277   3.761  1.00  0.00     0.000 A 
ATOM     53  C   UNL     1      15.626  74.803   1.936  1.00  0.00     0.000 A 
ATOM     54  C   UNL     1      15.365  74.858   3.307  1.00  0.00     0.000 A 
ENDBRANCH  48  49
ENDBRANCH   1  48
TORSDOF 20
ENDMDL
MODEL 15
REMARK VINA RESULT:    -7.587      3.210      9.011
REMARK INTER + INTRA:         -19.119
REMARK INTER:                 -18.992
REMARK INTRA:                  -0.127
REMARK UNBOUND:                -2.883
REMARK SMILES CC(C)c1nc(CN(C)C(=O)N[C@H](C(=O)N[C@@H](Cc2ccccc2)C[C@H](O)[C@H](Cc2ccccc2)NC(=O)OCc2cncs2)C(C)C)cs1
REMARK SMILES IDX 17 1 16 2 14 3 15 4 13 6 46 7 47 8 48 9 12 10 10 11 11 13
REMARK SMILES IDX 8 14 9 15 7 16 6 17 49 18 5 19 50 20 4 21 2 22 1 23 3 24
REMARK SMILES IDX 25 25 26 26 27 27 28 29 29 30 30 31 31 32 35 33 32 34 34 35
REMARK SMILES IDX 33 36 36 37 37 38 38 40 39 41 40 42 41 43 42 44 45 45 43 46
REMARK SMILES IDX 44 47 18 48 19 49 20 50 24 51 21 52 23 53 22 54
REMARK H PARENT 16 5 12 12 27 28 36 39
REMARK Flexibility Score: inf
ROOT
ATOM      1  C   UNL     1      10.620  76.653  -1.261  1.00  0.00     0.089 C 
ENDROOT
BRANCH   1   2
ATOM      2  N   UNL     1      11.662  77.687  -1.313  1.00  0.00    -0.351 N 
ATOM      3  C   UNL     1      12.759  77.716  -0.387  1.00  0.00     0.243 C 
ATOM      4  O   UNL     1      12.823  76.865   0.542  1.00  0.00    -0.273 OA
ATOM      5  H   UNL     1      11.730  78.306  -2.150  1.00  0.00     0.163 HD
BRANCH   3   6
ATOM      6  C   UNL     1      13.862  78.735  -0.561  1.00  0.00     0.175 C 
BRANCH   6   7
ATOM      7  C   UNL     1      13.481  80.129   0.020  1.00  0.00     0.015 C 
ATOM      8  C   UNL     1      14.716  81.034   0.149  1.00  0.00     0.010 C 
ATOM      9  C   UNL     1      12.802  79.998   1.396  1.00  0.00     0.010 C 
ENDBRANCH   6   7
BRANCH   6  10
ATOM     10  N   UNL     1      14.290  78.803  -1.970  1.00  0.00    -0.326 N 
ATOM     11  C   UNL     1      13.536  79.412  -3.037  1.00  0.00     0.318 C 
ATOM     12  H   UNL     1      15.236  78.422  -2.187  1.00  0.00     0.166 HD
ATOM     13  O   UNL     1      12.442  79.985  -2.788  1.00  0.00    -0.249 OA
BRANCH  11  14
ATOM     14  N   UNL     1      14.030  79.393  -4.392  1.00  0.00    -0.322 N 
ATOM     15  C   UNL     1      13.949  78.169  -5.195  1.00  0.00     0.149 C 
BRANCH  14  16
ATOM     16  C   UNL     1      14.557  80.623  -4.998  1.00  0.00     0.178 C 
BRANCH  16  17
ATOM     17  C   UNL     1      15.882  80.365  -5.651  1.00  0.00     0.071 A 
ATOM     18  C   UNL     1      16.105  79.317  -6.544  1.00  0.00     0.092 A 
ATOM     19  N   UNL     1      16.962  81.156  -5.409  1.00  0.00    -0.244 NA
ATOM     20  S   UNL     1      17.706  79.404  -7.051  1.00  0.00    -0.127 S 
ATOM     21  C   UNL     1      18.054  80.751  -6.100  1.00  0.00     0.095 A 
BRANCH  21  22
ATOM     22  C   UNL     1      19.360  81.498  -6.083  1.00  0.00     0.042 C 
ATOM     23  C   UNL     1      19.483  82.423  -7.297  1.00  0.00     0.015 C 
ATOM     24  C   UNL     1      19.504  82.284  -4.776  1.00  0.00     0.015 C 
ENDBRANCH  21  22
ENDBRANCH  16  17
ENDBRANCH  14  16
ENDBRANCH  11  14
ENDBRANCH   6  10
ENDBRANCH   3   6
ENDBRANCH   1   2
BRANCH   1  25
ATOM     25  C   UNL     1      10.390  76.087  -2.685  1.00  0.00     0.059 C 
BRANCH  25  26
ATOM     26  C   UNL     1       9.134  75.203  -2.908  1.00  0.00     0.139 C 
BRANCH  26  27
ATOM     27  O   UNL     1       8.002  75.995  -3.153  1.00  0.00    -0.391 OA
ATOM     28  H   UNL     1       8.062  76.310  -4.092  1.00  0.00     0.211 HD
ENDBRANCH  26  27
BRANCH  26  29
ATOM     29  C   UNL     1       8.864  74.163  -1.781  1.00  0.00     0.118 C 
BRANCH  29  30
ATOM     30  C   UNL     1       8.818  72.720  -2.336  1.00  0.00     0.063 C 
BRANCH  30  31
ATOM     31  C   UNL     1       9.800  72.516  -3.463  1.00  0.00    -0.046 A 
ATOM     32  C   UNL     1      11.173  72.377  -3.196  1.00  0.00     0.004 A 
ATOM     33  C   UNL     1       9.354  72.488  -4.795  1.00  0.00     0.004 A 
ATOM     34  C   UNL     1      12.082  72.218  -4.246  1.00  0.00     0.000 A 
ATOM     35  C   UNL     1      10.269  72.336  -5.842  1.00  0.00     0.000 A 
ATOM     36  C   UNL     1      11.632  72.202  -5.568  1.00  0.00     0.000 A 
ENDBRANCH  30  31
ENDBRANCH  29  30
BRANCH  29  37
ATOM     37  N   UNL     1       7.661  74.477  -0.988  1.00  0.00    -0.316 N 
ATOM     38  C   UNL     1       6.326  74.622  -1.496  1.00  0.00     0.407 C 
ATOM     39  H   UNL     1       7.770  74.539   0.049  1.00  0.00     0.167 HD
ATOM     40  O   UNL     1       6.058  74.355  -2.699  1.00  0.00    -0.225 OA
BRANCH  38  41
ATOM     41  O   UNL     1       5.318  75.058  -0.631  1.00  0.00    -0.444 OA
BRANCH  41  42
ATOM     42  C   UNL     1       5.545  75.290   0.754  1.00  0.00     0.283 C 
BRANCH  42  43
ATOM     43  C   UNL     1       5.668  76.757   0.991  1.00  0.00     0.062 A 
ATOM     44  C   UNL     1       5.702  77.743   0.015  1.00  0.00     0.130 A 
ATOM     45  S   UNL     1       5.665  77.503   2.498  1.00  0.00    -0.124 S 
ATOM     46  N   UNL     1       5.752  79.015   0.495  1.00  0.00    -0.253 NA
ATOM     47  C   UNL     1       5.744  79.053   1.847  1.00  0.00     0.175 A 
ENDBRANCH  42  43
ENDBRANCH  41  42
ENDBRANCH  38  41
ENDBRANCH  29  37
ENDBRANCH  26  29
ENDBRANCH  25  26
ENDBRANCH   1  25
BRANCH   1  48
ATOM     48  C   UNL     1       9.338  77.184  -0.566  1.00  0.00     0.060 C 
BRANCH  48  49
ATOM     49  C   UNL     1       8.951  78.598  -0.948  1.00  0.00    -0.046 A 
ATOM     50  C   UNL     1       9.362  79.681  -0.149  1.00  0.00     0.004 A 
ATOM     51  C   UNL     1       8.178  78.851  -2.094  1.00  0.00     0.004 A 
ATOM     52  C   UNL     1       9.026  80.991  -0.506  1.00  0.00     0.000 A 
ATOM     53  C   UNL     1       7.845  80.163  -2.446  1.00  0.00     0.000 A 
ATOM     54  C   UNL     1       8.270  81.233  -1.655  1.00  0.00     0.000 A 
ENDBRANCH  48  49
ENDBRANCH   1  48
TORSDOF 20
ENDMDL
