MODEL 1
REMARK VINA RESULT:    -7.818      0.000      0.000
REMARK INTER + INTRA:         -11.125
REMARK INTER:                 -10.332
REMARK INTRA:                  -0.792
REMARK UNBOUND:                -0.792
REMARK SMILES OC(CCN1CCCCC1)(c1ccccc1)C1CCCC1
REMARK SMILES IDX 3 1 2 2 1 3 17 5 18 6 21 7 19 8 20 9 11 10 12 11 16 12 13 13
REMARK SMILES IDX 15 14 14 15 4 16 5 17 6 18 10 19 7 20 9 21 8 22
REMARK H PARENT 1 4
REMARK Flexibility Score: inf
ROOT
ATOM      1  C   UNL     1      16.302  32.575  11.055  1.00  0.00     0.056 C 
ENDROOT
BRANCH   1   2
ATOM      2  C   UNL     1      16.805  33.739  11.983  1.00  0.00     0.094 C 
BRANCH   2   3
ATOM      3  O   UNL     1      16.846  34.923  11.212  1.00  0.00    -0.385 OA
ATOM      4  H   UNL     1      16.276  34.795  10.408  1.00  0.00     0.211 HD
ENDBRANCH   2   3
BRANCH   2   5
ATOM      5  C   UNL     1      18.238  33.532  12.601  1.00  0.00     0.025 C 
ATOM      6  C   UNL     1      18.415  32.360  13.573  1.00  0.00     0.007 C 
ATOM      7  C   UNL     1      19.394  33.410  11.590  1.00  0.00     0.007 C 
ATOM      8  C   UNL     1      19.906  32.090  13.579  1.00  0.00     0.000 C 
ATOM      9  C   UNL     1      20.373  32.387  12.163  1.00  0.00     0.000 C 
ENDBRANCH   2   5
BRANCH   2  10
ATOM     10  C   UNL     1      15.815  33.931  13.152  1.00  0.00    -0.016 A 
ATOM     11  C   UNL     1      14.496  33.428  13.069  1.00  0.00     0.007 A 
ATOM     12  C   UNL     1      16.158  34.704  14.284  1.00  0.00     0.007 A 
ATOM     13  C   UNL     1      13.583  33.636  14.108  1.00  0.00     0.000 A 
ATOM     14  C   UNL     1      15.239  34.909  15.318  1.00  0.00     0.000 A 
ATOM     15  C   UNL     1      13.956  34.370  15.232  1.00  0.00     0.000 A 
ENDBRANCH   2  10
ENDBRANCH   1   2
BRANCH   1  16
ATOM     16  C   UNL     1      16.529  32.810   9.542  1.00  0.00     0.088 C 
BRANCH  16  17
ATOM     17  N   UNL     1      16.377  31.597   8.708  1.00  0.00    -0.303 NA
ATOM     18  C   UNL     1      17.617  31.227   7.986  1.00  0.00     0.084 C 
ATOM     19  C   UNL     1      15.192  31.613   7.831  1.00  0.00     0.084 C 
ATOM     20  C   UNL     1      17.379  30.119   6.937  1.00  0.00     0.016 C 
ATOM     21  C   UNL     1      14.877  30.189   7.338  1.00  0.00     0.016 C 
ATOM     22  C   UNL     1      16.131  29.298   7.269  1.00  0.00     0.003 C 
ENDBRANCH  16  17
ENDBRANCH   1  16
TORSDOF 6
ENDMDL
MODEL 2
REMARK VINA RESULT:    -7.759      2.428      4.605
REMARK INTER + INTRA:         -11.047
REMARK INTER:                 -10.314
REMARK INTRA:                  -0.733
REMARK UNBOUND:                -0.792
REMARK SMILES OC(CCN1CCCCC1)(c1ccccc1)C1CCCC1
REMARK SMILES IDX 3 1 2 2 1 3 17 5 18 6 21 7 19 8 20 9 11 10 12 11 16 12 13 13
REMARK SMILES IDX 15 14 14 15 4 16 5 17 6 18 10 19 7 20 9 21 8 22
REMARK H PARENT 1 4
REMARK Flexibility Score: inf
ROOT
ATOM      1  C   UNL     1      17.408  34.161  12.498  1.00  0.00     0.056 C 
ENDROOT
BRANCH   1   2
ATOM      2  C   UNL     1      17.635  34.080  14.050  1.00  0.00     0.094 C 
BRANCH   2   3
ATOM      3  O   UNL     1      17.880  32.730  14.386  1.00  0.00    -0.385 OA
ATOM      4  H   UNL     1      17.530  32.565  15.302  1.00  0.00     0.211 HD
ENDBRANCH   2   3
BRANCH   2   5
ATOM      5  C   UNL     1      16.424  34.570  14.931  1.00  0.00     0.025 C 
ATOM      6  C   UNL     1      15.016  34.290  14.395  1.00  0.00     0.007 C 
ATOM      7  C   UNL     1      16.417  34.082  16.392  1.00  0.00     0.007 C 
ATOM      8  C   UNL     1      14.120  34.371  15.615  1.00  0.00     0.000 C 
ATOM      9  C   UNL     1      14.957  33.828  16.763  1.00  0.00     0.000 C 
ENDBRANCH   2   5
BRANCH   2  10
ATOM     10  C   UNL     1      18.866  34.928  14.436  1.00  0.00    -0.016 A 
ATOM     11  C   UNL     1      20.163  34.547  14.021  1.00  0.00     0.007 A 
ATOM     12  C   UNL     1      18.749  36.041  15.299  1.00  0.00     0.007 A 
ATOM     13  C   UNL     1      21.285  35.288  14.403  1.00  0.00     0.000 A 
ATOM     14  C   UNL     1      19.876  36.777  15.679  1.00  0.00     0.000 A 
ATOM     15  C   UNL     1      21.141  36.404  15.225  1.00  0.00     0.000 A 
ENDBRANCH   2  10
ENDBRANCH   1   2
BRANCH   1  16
ATOM     16  C   UNL     1      17.241  32.790  11.797  1.00  0.00     0.088 C 
BRANCH  16  17
ATOM     17  N   UNL     1      16.972  32.878  10.344  1.00  0.00    -0.303 NA
ATOM     18  C   UNL     1      17.972  32.160   9.522  1.00  0.00     0.084 C 
ATOM     19  C   UNL     1      16.717  34.247   9.862  1.00  0.00     0.084 C 
ATOM     20  C   UNL     1      17.823  32.465   8.015  1.00  0.00     0.016 C 
ATOM     21  C   UNL     1      16.041  34.206   8.480  1.00  0.00     0.016 C 
ATOM     22  C   UNL     1      16.407  32.942   7.681  1.00  0.00     0.003 C 
ENDBRANCH  16  17
ENDBRANCH   1  16
TORSDOF 6
ENDMDL
MODEL 3
REMARK VINA RESULT:    -7.713      2.190      6.330
REMARK INTER + INTRA:         -10.985
REMARK INTER:                  -9.591
REMARK INTRA:                  -1.394
REMARK UNBOUND:                -0.792
REMARK SMILES OC(CCN1CCCCC1)(c1ccccc1)C1CCCC1
REMARK SMILES IDX 3 1 2 2 1 3 17 5 18 6 21 7 19 8 20 9 11 10 12 11 16 12 13 13
REMARK SMILES IDX 15 14 14 15 4 16 5 17 6 18 10 19 7 20 9 21 8 22
REMARK H PARENT 1 4
REMARK Flexibility Score: inf
ROOT
ATOM      1  C   UNL     1      16.588  34.319  12.184  1.00  0.00     0.056 C 
ENDROOT
BRANCH   1   2
ATOM      2  C   UNL     1      17.260  32.986  11.694  1.00  0.00     0.094 C 
BRANCH   2   3
ATOM      3  O   UNL     1      16.477  31.907  12.161  1.00  0.00    -0.385 OA
ATOM      4  H   UNL     1      16.906  31.058  11.871  1.00  0.00     0.211 HD
ENDBRANCH   2   3
BRANCH   2   5
ATOM      5  C   UNL     1      18.732  32.752  12.202  1.00  0.00     0.025 C 
ATOM      6  C   UNL     1      19.741  33.879  11.957  1.00  0.00     0.007 C 
ATOM      7  C   UNL     1      18.878  32.383  13.691  1.00  0.00     0.007 C 
ATOM      8  C   UNL     1      20.847  33.628  12.962  1.00  0.00     0.000 C 
ATOM      9  C   UNL     1      20.152  33.062  14.190  1.00  0.00     0.000 C 
ENDBRANCH   2   5
BRANCH   2  10
ATOM     10  C   UNL     1      17.288  32.959  10.151  1.00  0.00    -0.016 A 
ATOM     11  C   UNL     1      16.487  33.850   9.400  1.00  0.00     0.007 A 
ATOM     12  C   UNL     1      18.027  31.980   9.448  1.00  0.00     0.007 A 
ATOM     13  C   UNL     1      16.477  33.801   8.003  1.00  0.00     0.000 A 
ATOM     14  C   UNL     1      18.011  31.937   8.050  1.00  0.00     0.000 A 
ATOM     15  C   UNL     1      17.242  32.850   7.329  1.00  0.00     0.000 A 
ENDBRANCH   2  10
ENDBRANCH   1   2
BRANCH   1  16
ATOM     16  C   UNL     1      15.317  34.124  13.047  1.00  0.00     0.088 C 
BRANCH  16  17
ATOM     17  N   UNL     1      15.558  34.186  14.506  1.00  0.00    -0.303 NA
ATOM     18  C   UNL     1      14.331  34.460  15.288  1.00  0.00     0.084 C 
ATOM     19  C   UNL     1      16.685  35.054  14.894  1.00  0.00     0.084 C 
ATOM     20  C   UNL     1      14.634  34.768  16.771  1.00  0.00     0.016 C 
ATOM     21  C   UNL     1      17.130  34.736  16.332  1.00  0.00     0.016 C 
ATOM     22  C   UNL     1      15.982  34.181  17.197  1.00  0.00     0.003 C 
ENDBRANCH  16  17
ENDBRANCH   1  16
TORSDOF 6
ENDMDL
MODEL 4
REMARK VINA RESULT:    -7.623      2.488      6.400
REMARK INTER + INTRA:         -10.866
REMARK INTER:                 -10.009
REMARK INTRA:                  -0.857
REMARK UNBOUND:                -0.792
REMARK SMILES OC(CCN1CCCCC1)(c1ccccc1)C1CCCC1
REMARK SMILES IDX 3 1 2 2 1 3 17 5 18 6 21 7 19 8 20 9 11 10 12 11 16 12 13 13
REMARK SMILES IDX 15 14 14 15 4 16 5 17 6 18 10 19 7 20 9 21 8 22
REMARK H PARENT 1 4
REMARK Flexibility Score: inf
ROOT
ATOM      1  C   UNL     1      16.703  34.688  12.961  1.00  0.00     0.056 C 
ENDROOT
BRANCH   1   2
ATOM      2  C   UNL     1      17.390  33.628  12.028  1.00  0.00     0.094 C 
BRANCH   2   3
ATOM      3  O   UNL     1      17.014  32.343  12.478  1.00  0.00    -0.385 OA
ATOM      4  H   UNL     1      17.834  31.852  12.752  1.00  0.00     0.211 HD
ENDBRANCH   2   3
BRANCH   2   5
ATOM      5  C   UNL     1      18.965  33.674  12.006  1.00  0.00     0.025 C 
ATOM      6  C   UNL     1      19.663  34.184  13.272  1.00  0.00     0.007 C 
ATOM      7  C   UNL     1      19.670  32.353  11.647  1.00  0.00     0.007 C 
ATOM      8  C   UNL     1      21.075  33.639  13.175  1.00  0.00     0.000 C 
ATOM      9  C   UNL     1      20.935  32.284  12.500  1.00  0.00     0.000 C 
ENDBRANCH   2   5
BRANCH   2  10
ATOM     10  C   UNL     1      16.897  33.820  10.578  1.00  0.00    -0.016 A 
ATOM     11  C   UNL     1      16.188  34.986  10.207  1.00  0.00     0.007 A 
ATOM     12  C   UNL     1      17.043  32.799   9.612  1.00  0.00     0.007 A 
ATOM     13  C   UNL     1      15.703  35.146   8.905  1.00  0.00     0.000 A 
ATOM     14  C   UNL     1      16.553  32.966   8.313  1.00  0.00     0.000 A 
ATOM     15  C   UNL     1      15.890  34.140   7.958  1.00  0.00     0.000 A 
ENDBRANCH   2  10
ENDBRANCH   1   2
BRANCH   1  16
ATOM     16  C   UNL     1      15.701  34.098  13.984  1.00  0.00     0.088 C 
BRANCH  16  17
ATOM     17  N   UNL     1      15.868  34.608  15.363  1.00  0.00    -0.303 NA
ATOM     18  C   UNL     1      17.135  34.175  15.995  1.00  0.00     0.084 C 
ATOM     19  C   UNL     1      14.696  34.390  16.231  1.00  0.00     0.084 C 
ATOM     20  C   UNL     1      17.182  34.502  17.504  1.00  0.00     0.016 C 
ATOM     21  C   UNL     1      14.777  35.299  17.470  1.00  0.00     0.016 C 
ATOM     22  C   UNL     1      16.227  35.645  17.855  1.00  0.00     0.003 C 
ENDBRANCH  16  17
ENDBRANCH   1  16
TORSDOF 6
ENDMDL
MODEL 5
REMARK VINA RESULT:    -7.559      3.801      6.068
REMARK INTER + INTRA:         -10.782
REMARK INTER:                  -8.967
REMARK INTRA:                  -1.814
REMARK UNBOUND:                -0.792
REMARK SMILES OC(CCN1CCCCC1)(c1ccccc1)C1CCCC1
REMARK SMILES IDX 3 1 2 2 1 3 17 5 18 6 21 7 19 8 20 9 11 10 12 11 16 12 13 13
REMARK SMILES IDX 15 14 14 15 4 16 5 17 6 18 10 19 7 20 9 21 8 22
REMARK H PARENT 1 4
REMARK Flexibility Score: inf
ROOT
ATOM      1  C   UNL     1      19.126  35.480  14.895  1.00  0.00     0.056 C 
ENDROOT
BRANCH   1   2
ATOM      2  C   UNL     1      18.462  34.061  15.011  1.00  0.00     0.094 C 
BRANCH   2   3
ATOM      3  O   UNL     1      19.143  33.342  16.019  1.00  0.00    -0.385 OA
ATOM      4  H   UNL     1      18.472  32.842  16.556  1.00  0.00     0.211 HD
ENDBRANCH   2   3
BRANCH   2   5
ATOM      5  C   UNL     1      18.510  33.188  13.701  1.00  0.00     0.025 C 
ATOM      6  C   UNL     1      18.795  33.923  12.386  1.00  0.00     0.007 C 
ATOM      7  C   UNL     1      19.480  31.992  13.726  1.00  0.00     0.007 C 
ATOM      8  C   UNL     1      19.293  32.843  11.445  1.00  0.00     0.000 C 
ATOM      9  C   UNL     1      20.071  31.875  12.322  1.00  0.00     0.000 C 
ENDBRANCH   2   5
BRANCH   2  10
ATOM     10  C   UNL     1      16.980  34.216  15.415  1.00  0.00    -0.016 A 
ATOM     11  C   UNL     1      16.601  34.226  16.777  1.00  0.00     0.007 A 
ATOM     12  C   UNL     1      15.955  34.244  14.442  1.00  0.00     0.007 A 
ATOM     13  C   UNL     1      15.256  34.323  17.146  1.00  0.00     0.000 A 
ATOM     14  C   UNL     1      14.611  34.341  14.820  1.00  0.00     0.000 A 
ATOM     15  C   UNL     1      14.264  34.387  16.169  1.00  0.00     0.000 A 
ENDBRANCH   2  10
ENDBRANCH   1   2
BRANCH   1  16
ATOM     16  C   UNL     1      20.572  35.564  15.442  1.00  0.00     0.088 C 
BRANCH  16  17
ATOM     17  N   UNL     1      21.555  34.753  14.689  1.00  0.00    -0.303 NA
ATOM     18  C   UNL     1      22.568  34.111  15.558  1.00  0.00     0.084 C 
ATOM     19  C   UNL     1      22.155  35.452  13.538  1.00  0.00     0.084 C 
ATOM     20  C   UNL     1      23.723  33.480  14.749  1.00  0.00     0.016 C 
ATOM     21  C   UNL     1      22.814  34.438  12.586  1.00  0.00     0.016 C 
ATOM     22  C   UNL     1      23.291  33.168  13.314  1.00  0.00     0.003 C 
ENDBRANCH  16  17
ENDBRANCH   1  16
TORSDOF 6
ENDMDL
MODEL 6
REMARK VINA RESULT:    -7.532      2.806      6.303
REMARK INTER + INTRA:         -10.745
REMARK INTER:                  -9.390
REMARK INTRA:                  -1.356
REMARK UNBOUND:                -0.792
REMARK SMILES OC(CCN1CCCCC1)(c1ccccc1)C1CCCC1
REMARK SMILES IDX 3 1 2 2 1 3 17 5 18 6 21 7 19 8 20 9 11 10 12 11 16 12 13 13
REMARK SMILES IDX 15 14 14 15 4 16 5 17 6 18 10 19 7 20 9 21 8 22
REMARK H PARENT 1 4
REMARK Flexibility Score: inf
ROOT
ATOM      1  C   UNL     1      18.698  34.644  13.935  1.00  0.00     0.056 C 
ENDROOT
BRANCH   1   2
ATOM      2  C   UNL     1      19.050  33.324  13.158  1.00  0.00     0.094 C 
BRANCH   2   3
ATOM      3  O   UNL     1      18.502  32.238  13.875  1.00  0.00    -0.385 OA
ATOM      4  H   UNL     1      18.217  31.543  13.223  1.00  0.00     0.211 HD
ENDBRANCH   2   3
BRANCH   2   5
ATOM      5  C   UNL     1      20.590  33.041  12.983  1.00  0.00     0.025 C 
ATOM      6  C   UNL     1      21.479  34.234  12.614  1.00  0.00     0.007 C 
ATOM      7  C   UNL     1      21.286  32.357  14.174  1.00  0.00     0.007 C 
ATOM      8  C   UNL     1      22.876  33.809  13.023  1.00  0.00     0.000 C 
ATOM      9  C   UNL     1      22.687  32.958  14.269  1.00  0.00     0.000 C 
ENDBRANCH   2   5
BRANCH   2  10
ATOM     10  C   UNL     1      18.420  33.371  11.750  1.00  0.00    -0.016 A 
ATOM     11  C   UNL     1      17.407  34.309  11.444  1.00  0.00     0.007 A 
ATOM     12  C   UNL     1      18.756  32.415  10.765  1.00  0.00     0.007 A 
ATOM     13  C   UNL     1      16.803  34.326  10.183  1.00  0.00     0.000 A 
ATOM     14  C   UNL     1      18.147  32.439   9.506  1.00  0.00     0.000 A 
ATOM     15  C   UNL     1      17.177  33.397   9.214  1.00  0.00     0.000 A 
ENDBRANCH   2  10
ENDBRANCH   1   2
BRANCH   1  16
ATOM     16  C   UNL     1      18.345  34.441  15.429  1.00  0.00     0.088 C 
BRANCH  16  17
ATOM     17  N   UNL     1      16.899  34.262  15.693  1.00  0.00    -0.303 NA
ATOM     18  C   UNL     1      16.038  35.014  14.752  1.00  0.00     0.084 C 
ATOM     19  C   UNL     1      16.516  34.466  17.101  1.00  0.00     0.084 C 
ATOM     20  C   UNL     1      14.556  35.020  15.187  1.00  0.00     0.016 C 
ATOM     21  C   UNL     1      15.126  33.859  17.366  1.00  0.00     0.016 C 
ATOM     22  C   UNL     1      14.241  33.837  16.107  1.00  0.00     0.003 C 
ENDBRANCH  16  17
ENDBRANCH   1  16
TORSDOF 6
ENDMDL
MODEL 7
REMARK VINA RESULT:    -7.507      2.486      5.669
REMARK INTER + INTRA:         -10.713
REMARK INTER:                  -9.673
REMARK INTRA:                  -1.041
REMARK UNBOUND:                -0.792
REMARK SMILES OC(CCN1CCCCC1)(c1ccccc1)C1CCCC1
REMARK SMILES IDX 3 1 2 2 1 3 17 5 18 6 21 7 19 8 20 9 11 10 12 11 16 12 13 13
REMARK SMILES IDX 15 14 14 15 4 16 5 17 6 18 10 19 7 20 9 21 8 22
REMARK H PARENT 1 4
REMARK Flexibility Score: inf
ROOT
ATOM      1  C   UNL     1      18.892  33.970  11.725  1.00  0.00     0.056 C 
ENDROOT
BRANCH   1   2
ATOM      2  C   UNL     1      17.437  33.413  11.927  1.00  0.00     0.094 C 
BRANCH   2   3
ATOM      3  O   UNL     1      17.521  32.008  12.043  1.00  0.00    -0.385 OA
ATOM      4  H   UNL     1      17.551  31.618  11.129  1.00  0.00     0.211 HD
ENDBRANCH   2   3
BRANCH   2   5
ATOM      5  C   UNL     1      16.431  33.727  10.757  1.00  0.00     0.025 C 
ATOM      6  C   UNL     1      16.348  35.182  10.282  1.00  0.00     0.007 C 
ATOM      7  C   UNL     1      16.603  32.884   9.479  1.00  0.00     0.007 C 
ATOM      8  C   UNL     1      15.756  35.096   8.888  1.00  0.00     0.000 C 
ATOM      9  C   UNL     1      16.306  33.807   8.299  1.00  0.00     0.000 C 
ENDBRANCH   2   5
BRANCH   2  10
ATOM     10  C   UNL     1      16.838  33.994  13.226  1.00  0.00    -0.016 A 
ATOM     11  C   UNL     1      17.669  34.607  14.191  1.00  0.00     0.007 A 
ATOM     12  C   UNL     1      15.469  33.833  13.538  1.00  0.00     0.007 A 
ATOM     13  C   UNL     1      17.137  35.096  15.389  1.00  0.00     0.000 A 
ATOM     14  C   UNL     1      14.945  34.324  14.738  1.00  0.00     0.000 A 
ATOM     15  C   UNL     1      15.777  34.960  15.658  1.00  0.00     0.000 A 
ENDBRANCH   2  10
ENDBRANCH   1   2
BRANCH   1  16
ATOM     16  C   UNL     1      20.015  32.916  11.880  1.00  0.00     0.088 C 
BRANCH  16  17
ATOM     17  N   UNL     1      21.357  33.489  12.132  1.00  0.00    -0.303 NA
ATOM     18  C   UNL     1      22.391  32.459  12.388  1.00  0.00     0.084 C 
ATOM     19  C   UNL     1      21.370  34.569  13.135  1.00  0.00     0.084 C 
ATOM     20  C   UNL     1      23.717  33.070  12.893  1.00  0.00     0.016 C 
ATOM     21  C   UNL     1      22.676  35.377  13.027  1.00  0.00     0.016 C 
ATOM     22  C   UNL     1      23.846  34.538  12.479  1.00  0.00     0.003 C 
ENDBRANCH  16  17
ENDBRANCH   1  16
TORSDOF 6
ENDMDL
MODEL 8
REMARK VINA RESULT:    -7.474      2.811      5.775
REMARK INTER + INTRA:         -10.669
REMARK INTER:                  -9.726
REMARK INTRA:                  -0.943
REMARK UNBOUND:                -0.792
REMARK SMILES OC(CCN1CCCCC1)(c1ccccc1)C1CCCC1
REMARK SMILES IDX 3 1 2 2 1 3 17 5 18 6 21 7 19 8 20 9 11 10 12 11 16 12 13 13
REMARK SMILES IDX 15 14 14 15 4 16 5 17 6 18 10 19 7 20 9 21 8 22
REMARK H PARENT 1 4
REMARK Flexibility Score: inf
ROOT
ATOM      1  C   UNL     1      18.754  34.616  13.704  1.00  0.00     0.056 C 
ENDROOT
BRANCH   1   2
ATOM      2  C   UNL     1      17.465  33.724  13.602  1.00  0.00     0.094 C 
BRANCH   2   3
ATOM      3  O   UNL     1      17.854  32.376  13.758  1.00  0.00    -0.385 OA
ATOM      4  H   UNL     1      18.846  32.338  13.810  1.00  0.00     0.211 HD
ENDBRANCH   2   3
BRANCH   2   5
ATOM      5  C   UNL     1      16.683  33.831  12.238  1.00  0.00     0.025 C 
ATOM      6  C   UNL     1      17.361  34.612  11.107  1.00  0.00     0.007 C 
ATOM      7  C   UNL     1      16.241  32.495  11.612  1.00  0.00     0.007 C 
ATOM      8  C   UNL     1      16.685  34.118   9.843  1.00  0.00     0.000 C 
ATOM      9  C   UNL     1      16.381  32.651  10.099  1.00  0.00     0.000 C 
ENDBRANCH   2   5
BRANCH   2  10
ATOM     10  C   UNL     1      16.485  34.103  14.732  1.00  0.00    -0.016 A 
ATOM     11  C   UNL     1      15.110  34.293  14.461  1.00  0.00     0.007 A 
ATOM     12  C   UNL     1      16.945  34.376  16.041  1.00  0.00     0.007 A 
ATOM     13  C   UNL     1      14.226  34.678  15.474  1.00  0.00     0.000 A 
ATOM     14  C   UNL     1      16.054  34.762  17.048  1.00  0.00     0.000 A 
ATOM     15  C   UNL     1      14.696  34.906  16.766  1.00  0.00     0.000 A 
ENDBRANCH   2  10
ENDBRANCH   1   2
BRANCH   1  16
ATOM     16  C   UNL     1      20.056  33.837  14.018  1.00  0.00     0.088 C 
BRANCH  16  17
ATOM     17  N   UNL     1      21.268  34.397  13.380  1.00  0.00    -0.303 NA
ATOM     18  C   UNL     1      22.209  33.357  12.904  1.00  0.00     0.084 C 
ATOM     19  C   UNL     1      21.935  35.446  14.173  1.00  0.00     0.084 C 
ATOM     20  C   UNL     1      23.569  33.947  12.472  1.00  0.00     0.016 C 
ATOM     21  C   UNL     1      22.898  36.252  13.284  1.00  0.00     0.016 C 
ATOM     22  C   UNL     1      23.442  35.427  12.103  1.00  0.00     0.003 C 
ENDBRANCH  16  17
ENDBRANCH   1  16
TORSDOF 6
ENDMDL
MODEL 9
REMARK VINA RESULT:    -7.413      3.939      6.474
REMARK INTER + INTRA:         -10.589
REMARK INTER:                  -9.683
REMARK INTRA:                  -0.907
REMARK UNBOUND:                -0.792
REMARK SMILES OC(CCN1CCCCC1)(c1ccccc1)C1CCCC1
REMARK SMILES IDX 3 1 2 2 1 3 17 5 18 6 21 7 19 8 20 9 11 10 12 11 16 12 13 13
REMARK SMILES IDX 15 14 14 15 4 16 5 17 6 18 10 19 7 20 9 21 8 22
REMARK H PARENT 1 4
REMARK Flexibility Score: inf
ROOT
ATOM      1  C   UNL     1      18.859  35.912  15.225  1.00  0.00     0.056 C 
ENDROOT
BRANCH   1   2
ATOM      2  C   UNL     1      18.023  34.681  15.730  1.00  0.00     0.094 C 
BRANCH   2   3
ATOM      3  O   UNL     1      18.908  33.791  16.378  1.00  0.00    -0.385 OA
ATOM      4  H   UNL     1      19.592  33.493  15.721  1.00  0.00     0.211 HD
ENDBRANCH   2   3
BRANCH   2   5
ATOM      5  C   UNL     1      17.280  33.868  14.604  1.00  0.00     0.025 C 
ATOM      6  C   UNL     1      16.646  34.675  13.466  1.00  0.00     0.007 C 
ATOM      7  C   UNL     1      18.106  32.763  13.918  1.00  0.00     0.007 C 
ATOM      8  C   UNL     1      16.494  33.681  12.331  1.00  0.00     0.000 C 
ATOM      9  C   UNL     1      17.694  32.754  12.448  1.00  0.00     0.000 C 
ENDBRANCH   2   5
BRANCH   2  10
ATOM     10  C   UNL     1      16.959  35.160  16.740  1.00  0.00    -0.016 A 
ATOM     11  C   UNL     1      15.594  34.839  16.555  1.00  0.00     0.007 A 
ATOM     12  C   UNL     1      17.297  36.019  17.810  1.00  0.00     0.007 A 
ATOM     13  C   UNL     1      14.621  35.307  17.443  1.00  0.00     0.000 A 
ATOM     14  C   UNL     1      16.317  36.483  18.694  1.00  0.00     0.000 A 
ATOM     15  C   UNL     1      14.982  36.122  18.514  1.00  0.00     0.000 A 
ENDBRANCH   2  10
ENDBRANCH   1   2
BRANCH   1  16
ATOM     16  C   UNL     1      20.358  35.878  15.611  1.00  0.00     0.088 C 
BRANCH  16  17
ATOM     17  N   UNL     1      21.282  35.788  14.458  1.00  0.00    -0.303 NA
ATOM     18  C   UNL     1      21.464  34.403  13.966  1.00  0.00     0.084 C 
ATOM     19  C   UNL     1      22.560  36.494  14.655  1.00  0.00     0.084 C 
ATOM     20  C   UNL     1      22.609  34.290  12.936  1.00  0.00     0.016 C 
ATOM     21  C   UNL     1      23.260  36.713  13.301  1.00  0.00     0.016 C 
ATOM     22  C   UNL     1      22.887  35.637  12.264  1.00  0.00     0.003 C 
ENDBRANCH  16  17
ENDBRANCH   1  16
TORSDOF 6
ENDMDL
MODEL 10
REMARK VINA RESULT:    -7.406      1.119      4.007
REMARK INTER + INTRA:         -10.580
REMARK INTER:                  -9.631
REMARK INTRA:                  -0.949
REMARK UNBOUND:                -0.792
REMARK SMILES OC(CCN1CCCCC1)(c1ccccc1)C1CCCC1
REMARK SMILES IDX 3 1 2 2 1 3 17 5 18 6 21 7 19 8 20 9 11 10 12 11 16 12 13 13
REMARK SMILES IDX 15 14 14 15 4 16 5 17 6 18 10 19 7 20 9 21 8 22
REMARK H PARENT 1 4
REMARK Flexibility Score: inf
ROOT
ATOM      1  C   UNL     1      17.303  34.179  10.541  1.00  0.00     0.056 C 
ENDROOT
BRANCH   1   2
ATOM      2  C   UNL     1      17.045  33.470  11.919  1.00  0.00     0.094 C 
BRANCH   2   3
ATOM      3  O   UNL     1      16.354  32.264  11.667  1.00  0.00    -0.385 OA
ATOM      4  H   UNL     1      15.637  32.164  12.348  1.00  0.00     0.211 HD
ENDBRANCH   2   3
BRANCH   2   5
ATOM      5  C   UNL     1      16.184  34.297  12.946  1.00  0.00     0.025 C 
ATOM      6  C   UNL     1      14.939  33.613  13.521  1.00  0.00     0.007 C 
ATOM      7  C   UNL     1      16.946  34.859  14.161  1.00  0.00     0.007 C 
ATOM      8  C   UNL     1      14.639  34.373  14.798  1.00  0.00     0.000 C 
ATOM      9  C   UNL     1      15.997  34.770  15.355  1.00  0.00     0.000 C 
ENDBRANCH   2   5
BRANCH   2  10
ATOM     10  C   UNL     1      18.395  33.148  12.594  1.00  0.00    -0.016 A 
ATOM     11  C   UNL     1      19.607  33.628  12.047  1.00  0.00     0.007 A 
ATOM     12  C   UNL     1      18.470  32.281  13.707  1.00  0.00     0.007 A 
ATOM     13  C   UNL     1      20.836  33.304  12.630  1.00  0.00     0.000 A 
ATOM     14  C   UNL     1      19.703  31.960  14.285  1.00  0.00     0.000 A 
ATOM     15  C   UNL     1      20.883  32.476  13.751  1.00  0.00     0.000 A 
ENDBRANCH   2  10
ENDBRANCH   1   2
BRANCH   1  16
ATOM     16  C   UNL     1      16.218  33.919   9.467  1.00  0.00     0.088 C 
BRANCH  16  17
ATOM     17  N   UNL     1      16.588  32.895   8.464  1.00  0.00    -0.303 NA
ATOM     18  C   UNL     1      15.578  31.820   8.328  1.00  0.00     0.084 C 
ATOM     19  C   UNL     1      17.958  32.372   8.616  1.00  0.00     0.084 C 
ATOM     20  C   UNL     1      16.086  30.640   7.472  1.00  0.00     0.016 C 
ATOM     21  C   UNL     1      18.401  31.661   7.324  1.00  0.00     0.016 C 
ATOM     22  C   UNL     1      17.214  31.077   6.535  1.00  0.00     0.003 C 
ENDBRANCH  16  17
ENDBRANCH   1  16
TORSDOF 6
ENDMDL
MODEL 11
REMARK VINA RESULT:    -7.393      2.827      6.315
REMARK INTER + INTRA:         -10.563
REMARK INTER:                  -9.366
REMARK INTRA:                  -1.197
REMARK UNBOUND:                -0.792
REMARK SMILES OC(CCN1CCCCC1)(c1ccccc1)C1CCCC1
REMARK SMILES IDX 3 1 2 2 1 3 17 5 18 6 21 7 19 8 20 9 11 10 12 11 16 12 13 13
REMARK SMILES IDX 15 14 14 15 4 16 5 17 6 18 10 19 7 20 9 21 8 22
REMARK H PARENT 1 4
REMARK Flexibility Score: inf
ROOT
ATOM      1  C   UNL     1      18.734  34.615  13.690  1.00  0.00     0.056 C 
ENDROOT
BRANCH   1   2
ATOM      2  C   UNL     1      17.429  33.743  13.623  1.00  0.00     0.094 C 
BRANCH   2   3
ATOM      3  O   UNL     1      17.794  32.396  13.843  1.00  0.00    -0.385 OA
ATOM      4  H   UNL     1      18.654  32.223  13.376  1.00  0.00     0.211 HD
ENDBRANCH   2   3
BRANCH   2   5
ATOM      5  C   UNL     1      16.653  33.801  12.254  1.00  0.00     0.025 C 
ATOM      6  C   UNL     1      17.260  34.671  11.147  1.00  0.00     0.007 C 
ATOM      7  C   UNL     1      16.352  32.442  11.595  1.00  0.00     0.007 C 
ATOM      8  C   UNL     1      16.648  34.140   9.865  1.00  0.00     0.000 C 
ATOM      9  C   UNL     1      16.490  32.644  10.087  1.00  0.00     0.000 C 
ENDBRANCH   2   5
BRANCH   2  10
ATOM     10  C   UNL     1      16.453  34.190  14.732  1.00  0.00    -0.016 A 
ATOM     11  C   UNL     1      16.926  34.487  16.032  1.00  0.00     0.007 A 
ATOM     12  C   UNL     1      15.057  34.211  14.516  1.00  0.00     0.007 A 
ATOM     13  C   UNL     1      16.040  34.851  17.051  1.00  0.00     0.000 A 
ATOM     14  C   UNL     1      14.177  34.575  15.541  1.00  0.00     0.000 A 
ATOM     15  C   UNL     1      14.670  34.901  16.804  1.00  0.00     0.000 A 
ENDBRANCH   2  10
ENDBRANCH   1   2
BRANCH   1  16
ATOM     16  C   UNL     1      20.050  33.829  13.467  1.00  0.00     0.088 C 
BRANCH  16  17
ATOM     17  N   UNL     1      20.824  33.576  14.703  1.00  0.00    -0.303 NA
ATOM     18  C   UNL     1      20.552  34.564  15.773  1.00  0.00     0.084 C 
ATOM     19  C   UNL     1      22.265  33.365  14.477  1.00  0.00     0.084 C 
ATOM     20  C   UNL     1      21.540  34.439  16.954  1.00  0.00     0.016 C 
ATOM     21  C   UNL     1      22.904  32.702  15.711  1.00  0.00     0.016 C 
ATOM     22  C   UNL     1      22.159  33.040  17.015  1.00  0.00     0.003 C 
ENDBRANCH  16  17
ENDBRANCH   1  16
TORSDOF 6
ENDMDL
MODEL 12
REMARK VINA RESULT:    -7.379      3.671      7.023
REMARK INTER + INTRA:         -10.544
REMARK INTER:                  -9.271
REMARK INTRA:                  -1.273
REMARK UNBOUND:                -0.792
REMARK SMILES OC(CCN1CCCCC1)(c1ccccc1)C1CCCC1
REMARK SMILES IDX 3 1 2 2 1 3 17 5 18 6 21 7 19 8 20 9 11 10 12 11 16 12 13 13
REMARK SMILES IDX 15 14 14 15 4 16 5 17 6 18 10 19 7 20 9 21 8 22
REMARK H PARENT 1 4
REMARK Flexibility Score: inf
ROOT
ATOM      1  C   UNL     1      19.087  35.442  15.298  1.00  0.00     0.056 C 
ENDROOT
BRANCH   1   2
ATOM      2  C   UNL     1      19.367  34.114  14.508  1.00  0.00     0.094 C 
BRANCH   2   3
ATOM      3  O   UNL     1      19.207  33.032  15.402  1.00  0.00    -0.385 OA
ATOM      4  H   UNL     1      20.014  32.454  15.344  1.00  0.00     0.211 HD
ENDBRANCH   2   3
BRANCH   2   5
ATOM      5  C   UNL     1      20.808  33.997  13.883  1.00  0.00     0.025 C 
ATOM      6  C   UNL     1      21.754  35.185  14.088  1.00  0.00     0.007 C 
ATOM      7  C   UNL     1      21.615  32.749  14.288  1.00  0.00     0.007 C 
ATOM      8  C   UNL     1      23.141  34.610  13.875  1.00  0.00     0.000 C 
ATOM      9  C   UNL     1      23.073  33.190  14.414  1.00  0.00     0.000 C 
ENDBRANCH   2   5
BRANCH   2  10
ATOM     10  C   UNL     1      18.347  33.974  13.358  1.00  0.00    -0.016 A 
ATOM     11  C   UNL     1      18.782  33.884  12.015  1.00  0.00     0.007 A 
ATOM     12  C   UNL     1      16.956  34.041  13.599  1.00  0.00     0.007 A 
ATOM     13  C   UNL     1      17.860  33.800  10.967  1.00  0.00     0.000 A 
ATOM     14  C   UNL     1      16.040  33.958  12.545  1.00  0.00     0.000 A 
ATOM     15  C   UNL     1      16.492  33.831  11.232  1.00  0.00     0.000 A 
ENDBRANCH   2  10
ENDBRANCH   1   2
BRANCH   1  16
ATOM     16  C   UNL     1      18.694  35.241  16.783  1.00  0.00     0.088 C 
BRANCH  16  17
ATOM     17  N   UNL     1      17.240  35.328  17.044  1.00  0.00    -0.303 NA
ATOM     18  C   UNL     1      16.895  36.312  18.096  1.00  0.00     0.084 C 
ATOM     19  C   UNL     1      16.587  34.023  17.251  1.00  0.00     0.084 C 
ATOM     20  C   UNL     1      15.416  36.215  18.531  1.00  0.00     0.016 C 
ATOM     21  C   UNL     1      15.062  34.161  17.089  1.00  0.00     0.016 C 
ATOM     22  C   UNL     1      14.556  35.572  17.440  1.00  0.00     0.003 C 
ENDBRANCH  16  17
ENDBRANCH   1  16
TORSDOF 6
ENDMDL
MODEL 13
REMARK VINA RESULT:    -7.323      3.337      5.563
REMARK INTER + INTRA:         -10.470
REMARK INTER:                  -9.083
REMARK INTRA:                  -1.387
REMARK UNBOUND:                -0.792
REMARK SMILES OC(CCN1CCCCC1)(c1ccccc1)C1CCCC1
REMARK SMILES IDX 3 1 2 2 1 3 17 5 18 6 21 7 19 8 20 9 11 10 12 11 16 12 13 13
REMARK SMILES IDX 15 14 14 15 4 16 5 17 6 18 10 19 7 20 9 21 8 22
REMARK H PARENT 1 4
REMARK Flexibility Score: inf
ROOT
ATOM      1  C   UNL     1      19.288  33.840  15.981  1.00  0.00     0.056 C 
ENDROOT
BRANCH   1   2
ATOM      2  C   UNL     1      18.460  35.152  16.232  1.00  0.00     0.094 C 
BRANCH   2   3
ATOM      3  O   UNL     1      18.767  36.066  15.200  1.00  0.00    -0.385 OA
ATOM      4  H   UNL     1      19.413  36.734  15.553  1.00  0.00     0.211 HD
ENDBRANCH   2   3
BRANCH   2   5
ATOM      5  C   UNL     1      18.751  35.876  17.601  1.00  0.00     0.025 C 
ATOM      6  C   UNL     1      17.659  36.804  18.143  1.00  0.00     0.007 C 
ATOM      7  C   UNL     1      19.136  34.958  18.776  1.00  0.00     0.007 C 
ATOM      8  C   UNL     1      17.957  36.921  19.625  1.00  0.00     0.000 C 
ATOM      9  C   UNL     1      18.507  35.562  20.030  1.00  0.00     0.000 C 
ENDBRANCH   2   5
BRANCH   2  10
ATOM     10  C   UNL     1      16.952  34.826  16.188  1.00  0.00    -0.016 A 
ATOM     11  C   UNL     1      16.372  33.966  17.149  1.00  0.00     0.007 A 
ATOM     12  C   UNL     1      16.133  35.285  15.131  1.00  0.00     0.007 A 
ATOM     13  C   UNL     1      15.015  33.634  17.087  1.00  0.00     0.000 A 
ATOM     14  C   UNL     1      14.777  34.948  15.076  1.00  0.00     0.000 A 
ATOM     15  C   UNL     1      14.218  34.129  16.056  1.00  0.00     0.000 A 
ENDBRANCH   2  10
ENDBRANCH   1   2
BRANCH   1  16
ATOM     16  C   UNL     1      19.877  33.711  14.554  1.00  0.00     0.088 C 
BRANCH  16  17
ATOM     17  N   UNL     1      18.863  33.702  13.476  1.00  0.00    -0.303 NA
ATOM     18  C   UNL     1      17.877  32.606  13.613  1.00  0.00     0.084 C 
ATOM     19  C   UNL     1      19.428  33.792  12.118  1.00  0.00     0.084 C 
ATOM     20  C   UNL     1      16.985  32.456  12.361  1.00  0.00     0.016 C 
ATOM     21  C   UNL     1      18.336  34.201  11.114  1.00  0.00     0.016 C 
ATOM     22  C   UNL     1      16.929  33.759  11.559  1.00  0.00     0.003 C 
ENDBRANCH  16  17
ENDBRANCH   1  16
TORSDOF 6
ENDMDL
MODEL 14
REMARK VINA RESULT:    -7.261      2.764      6.846
REMARK INTER + INTRA:         -10.387
REMARK INTER:                  -9.042
REMARK INTRA:                  -1.345
REMARK UNBOUND:                -0.792
REMARK SMILES OC(CCN1CCCCC1)(c1ccccc1)C1CCCC1
REMARK SMILES IDX 3 1 2 2 1 3 17 5 18 6 21 7 19 8 20 9 11 10 12 11 16 12 13 13
REMARK SMILES IDX 15 14 14 15 4 16 5 17 6 18 10 19 7 20 9 21 8 22
REMARK H PARENT 1 4
REMARK Flexibility Score: inf
ROOT
ATOM      1  C   UNL     1      18.396  32.434  13.806  1.00  0.00     0.056 C 
ENDROOT
BRANCH   1   2
ATOM      2  C   UNL     1      18.083  33.832  13.161  1.00  0.00     0.094 C 
BRANCH   2   3
ATOM      3  O   UNL     1      19.265  34.603  13.196  1.00  0.00    -0.385 OA
ATOM      4  H   UNL     1      20.037  33.990  13.322  1.00  0.00     0.211 HD
ENDBRANCH   2   3
BRANCH   2   5
ATOM      5  C   UNL     1      16.958  34.666  13.882  1.00  0.00     0.025 C 
ATOM      6  C   UNL     1      15.629  33.952  14.156  1.00  0.00     0.007 C 
ATOM      7  C   UNL     1      17.359  35.320  15.218  1.00  0.00     0.007 C 
ATOM      8  C   UNL     1      14.984  34.758  15.266  1.00  0.00     0.000 C 
ATOM      9  C   UNL     1      16.137  35.244  16.130  1.00  0.00     0.000 C 
ENDBRANCH   2   5
BRANCH   2  10
ATOM     10  C   UNL     1      17.650  33.636  11.692  1.00  0.00    -0.016 A 
ATOM     11  C   UNL     1      18.113  32.528  10.946  1.00  0.00     0.007 A 
ATOM     12  C   UNL     1      16.873  34.608  11.021  1.00  0.00     0.007 A 
ATOM     13  C   UNL     1      17.758  32.370   9.603  1.00  0.00     0.000 A 
ATOM     14  C   UNL     1      16.524  34.443   9.677  1.00  0.00     0.000 A 
ATOM     15  C   UNL     1      16.960  33.322   8.971  1.00  0.00     0.000 A 
ENDBRANCH   2  10
ENDBRANCH   1   2
BRANCH   1  16
ATOM     16  C   UNL     1      19.899  32.162  14.062  1.00  0.00     0.088 C 
BRANCH  16  17
ATOM     17  N   UNL     1      20.494  32.993  15.132  1.00  0.00    -0.303 NA
ATOM     18  C   UNL     1      21.954  32.796  15.278  1.00  0.00     0.084 C 
ATOM     19  C   UNL     1      19.779  32.918  16.419  1.00  0.00     0.084 C 
ATOM     20  C   UNL     1      22.515  33.472  16.549  1.00  0.00     0.016 C 
ATOM     21  C   UNL     1      20.184  34.098  17.321  1.00  0.00     0.016 C 
ATOM     22  C   UNL     1      21.605  34.609  17.022  1.00  0.00     0.003 C 
ENDBRANCH  16  17
ENDBRANCH   1  16
TORSDOF 6
ENDMDL
MODEL 15
REMARK VINA RESULT:    -7.220      4.181      6.465
REMARK INTER + INTRA:         -10.333
REMARK INTER:                  -8.907
REMARK INTRA:                  -1.426
REMARK UNBOUND:                -0.792
REMARK SMILES OC(CCN1CCCCC1)(c1ccccc1)C1CCCC1
REMARK SMILES IDX 3 1 2 2 1 3 17 5 18 6 21 7 19 8 20 9 11 10 12 11 16 12 13 13
REMARK SMILES IDX 15 14 14 15 4 16 5 17 6 18 10 19 7 20 9 21 8 22
REMARK H PARENT 1 4
REMARK Flexibility Score: inf
ROOT
ATOM      1  C   UNL     1      19.155  33.483  17.066  1.00  0.00     0.056 C 
ENDROOT
BRANCH   1   2
ATOM      2  C   UNL     1      18.301  34.802  17.067  1.00  0.00     0.094 C 
BRANCH   2   3
ATOM      3  O   UNL     1      19.012  35.782  16.339  1.00  0.00    -0.385 OA
ATOM      4  H   UNL     1      19.057  36.610  16.888  1.00  0.00     0.211 HD
ENDBRANCH   2   3
BRANCH   2   5
ATOM      5  C   UNL     1      17.999  35.404  18.492  1.00  0.00     0.025 C 
ATOM      6  C   UNL     1      19.135  35.362  19.520  1.00  0.00     0.007 C 
ATOM      7  C   UNL     1      17.476  36.852  18.511  1.00  0.00     0.007 C 
ATOM      8  C   UNL     1      18.769  36.425  20.537  1.00  0.00     0.000 C 
ATOM      9  C   UNL     1      18.086  37.524  19.740  1.00  0.00     0.000 C 
ENDBRANCH   2   5
BRANCH   2  10
ATOM     10  C   UNL     1      16.947  34.540  16.375  1.00  0.00    -0.016 A 
ATOM     11  C   UNL     1      16.788  34.777  14.990  1.00  0.00     0.007 A 
ATOM     12  C   UNL     1      15.804  34.164  17.117  1.00  0.00     0.007 A 
ATOM     13  C   UNL     1      15.552  34.583  14.366  1.00  0.00     0.000 A 
ATOM     14  C   UNL     1      14.570  33.973  16.486  1.00  0.00     0.000 A 
ATOM     15  C   UNL     1      14.447  34.175  15.112  1.00  0.00     0.000 A 
ENDBRANCH   2  10
ENDBRANCH   1   2
BRANCH   1  16
ATOM     16  C   UNL     1      20.476  33.569  16.264  1.00  0.00     0.088 C 
BRANCH  16  17
ATOM     17  N   UNL     1      20.298  33.543  14.794  1.00  0.00    -0.303 NA
ATOM     18  C   UNL     1      19.575  32.342  14.317  1.00  0.00     0.084 C 
ATOM     19  C   UNL     1      21.534  33.802  14.034  1.00  0.00     0.084 C 
ATOM     20  C   UNL     1      19.616  32.203  12.779  1.00  0.00     0.016 C 
ATOM     21  C   UNL     1      21.195  34.176  12.580  1.00  0.00     0.016 C 
ATOM     22  C   UNL     1      19.868  33.554  12.105  1.00  0.00     0.003 C 
ENDBRANCH  16  17
ENDBRANCH   1  16
TORSDOF 6
ENDMDL
