MODEL 1
REMARK VINA RESULT:    -8.494      0.000      0.000
REMARK INTER + INTRA:          -9.793
REMARK INTER:                  -9.736
REMARK INTRA:                  -0.058
REMARK UNBOUND:                -0.058
REMARK SMILES CCC(=O)[C@@]1(C)[C@H](C)C[C@H]2[C@@H]3CCC4=CC(=O)C=C[C@]4(C)[C@H]3[C@@H](O)C[C@@]21C
REMARK SMILES IDX 10 1 9 2 7 3 8 4 5 5 6 6 26 7 27 8 25 9 23 10 22 11 11 12
REMARK SMILES IDX 12 13 13 14 14 15 15 16 16 17 17 18 18 19 19 20 20 21 21 22
REMARK SMILES IDX 3 23 4 24 2 25 1 26 24 27
REMARK H PARENT 24 28
REMARK Flexibility Score: inf
ROOT
ATOM      1  C   UNL     1      27.438  19.716  32.203  1.00  0.00    -0.000 C 
ATOM      2  C   UNL     1      26.354  20.409  33.016  1.00  0.00     0.008 C 
ATOM      3  C   UNL     1      26.362  21.881  32.533  1.00  0.00    -0.000 C 
ATOM      4  C   UNL     1      26.597  22.852  33.706  1.00  0.00     0.009 C 
ATOM      5  C   UNL     1      27.390  21.975  31.329  1.00  0.00     0.034 C 
ATOM      6  C   UNL     1      28.769  22.529  31.800  1.00  0.00     0.020 C 
ATOM      7  C   UNL     1      27.466  20.465  30.859  1.00  0.00    -0.014 C 
ATOM      8  C   UNL     1      26.210  20.141  29.972  1.00  0.00     0.013 C 
ATOM      9  C   UNL     1      28.759  20.025  30.113  1.00  0.00     0.040 C 
ATOM     10  C   UNL     1      28.858  18.485  29.922  1.00  0.00     0.119 C 
ATOM     11  C   UNL     1      28.645  17.695  31.262  1.00  0.00     0.035 C 
ATOM     12  C   UNL     1      27.381  18.174  32.063  1.00  0.00    -0.000 C 
ATOM     13  C   UNL     1      27.343  17.516  33.460  1.00  0.00     0.009 C 
ATOM     14  C   UNL     1      27.368  15.992  33.366  1.00  0.00     0.032 C 
ATOM     15  C   UNL     1      28.569  15.554  32.571  1.00  0.00    -0.056 C 
ATOM     16  C   UNL     1      29.448  14.698  33.119  1.00  0.00     0.052 C 
ATOM     17  C   UNL     1      30.662  14.309  32.404  1.00  0.00     0.178 C 
ATOM     18  O   UNL     1      31.469  13.493  32.923  1.00  0.00    -0.290 OA
ATOM     19  C   UNL     1      30.942  14.884  31.092  1.00  0.00     0.048 C 
ATOM     20  C   UNL     1      30.081  15.731  30.525  1.00  0.00    -0.012 C 
ATOM     21  C   UNL     1      28.741  16.121  31.152  1.00  0.00     0.013 C 
ATOM     22  C   UNL     1      27.637  15.498  30.263  1.00  0.00     0.021 C 
ENDROOT
BRANCH   5  23
ATOM     23  C   UNL     1      26.942  22.907  30.189  1.00  0.00     0.139 C 
ATOM     24  O   UNL     1      27.416  22.724  29.075  1.00  0.00    -0.299 OA
BRANCH  23  25
ATOM     25  C   UNL     1      25.922  24.015  30.373  1.00  0.00     0.073 C 
ATOM     26  C   UNL     1      26.562  25.371  30.671  1.00  0.00     0.012 C 
ENDBRANCH  23  25
ENDBRANCH   5  23
BRANCH  10  27
ATOM     27  O   UNL     1      27.969  18.055  28.926  1.00  0.00    -0.393 OA
ATOM     28  H   UNL     1      27.917  18.780  28.249  1.00  0.00     0.210 HD
ENDBRANCH  10  27
TORSDOF 3
ENDMDL
MODEL 2
REMARK VINA RESULT:    -8.311      1.751      6.966
REMARK INTER + INTRA:          -9.583
REMARK INTER:                  -9.194
REMARK INTRA:                  -0.389
REMARK UNBOUND:                -0.058
REMARK SMILES CCC(=O)[C@@]1(C)[C@H](C)C[C@H]2[C@@H]3CCC4=CC(=O)C=C[C@]4(C)[C@H]3[C@@H](O)C[C@@]21C
REMARK SMILES IDX 10 1 9 2 7 3 8 4 5 5 6 6 26 7 27 8 25 9 23 10 22 11 11 12
REMARK SMILES IDX 12 13 13 14 14 15 15 16 16 17 17 18 18 19 19 20 20 21 21 22
REMARK SMILES IDX 3 23 4 24 2 25 1 26 24 27
REMARK H PARENT 24 28
REMARK Flexibility Score: inf
ROOT
ATOM      1  C   UNL     1      27.357  17.732  32.567  1.00  0.00    -0.000 C 
ATOM      2  C   UNL     1      27.768  17.044  33.861  1.00  0.00     0.008 C 
ATOM      3  C   UNL     1      27.202  15.607  33.756  1.00  0.00    -0.000 C 
ATOM      4  C   UNL     1      26.271  15.285  34.941  1.00  0.00     0.009 C 
ATOM      5  C   UNL     1      26.570  15.455  32.308  1.00  0.00     0.034 C 
ATOM      6  C   UNL     1      25.024  15.646  32.339  1.00  0.00     0.020 C 
ATOM      7  C   UNL     1      27.313  16.608  31.517  1.00  0.00    -0.014 C 
ATOM      8  C   UNL     1      28.750  16.113  31.118  1.00  0.00     0.013 C 
ATOM      9  C   UNL     1      26.591  17.177  30.261  1.00  0.00     0.040 C 
ATOM     10  C   UNL     1      27.259  18.466  29.706  1.00  0.00     0.119 C 
ATOM     11  C   UNL     1      27.480  19.558  30.812  1.00  0.00     0.035 C 
ATOM     12  C   UNL     1      28.147  18.985  32.115  1.00  0.00    -0.000 C 
ATOM     13  C   UNL     1      28.144  20.047  33.236  1.00  0.00     0.009 C 
ATOM     14  C   UNL     1      28.846  21.330  32.799  1.00  0.00     0.032 C 
ATOM     15  C   UNL     1      28.213  21.848  31.535  1.00  0.00    -0.056 C 
ATOM     16  C   UNL     1      27.723  23.098  31.505  1.00  0.00     0.052 C 
ATOM     17  C   UNL     1      27.036  23.607  30.319  1.00  0.00     0.178 C 
ATOM     18  O   UNL     1      26.595  24.787  30.298  1.00  0.00    -0.290 OA
ATOM     19  C   UNL     1      26.850  22.734  29.164  1.00  0.00     0.048 C 
ATOM     20  C   UNL     1      27.334  21.491  29.168  1.00  0.00    -0.012 C 
ATOM     21  C   UNL     1      28.148  20.904  30.322  1.00  0.00     0.013 C 
ATOM     22  C   UNL     1      29.593  20.719  29.797  1.00  0.00     0.021 C 
ENDROOT
BRANCH   5  23
ATOM     23  C   UNL     1      26.801  14.077  31.661  1.00  0.00     0.139 C 
ATOM     24  O   UNL     1      27.726  13.392  32.078  1.00  0.00    -0.299 OA
BRANCH  23  25
ATOM     25  C   UNL     1      25.919  13.518  30.560  1.00  0.00     0.073 C 
ATOM     26  C   UNL     1      26.569  13.598  29.178  1.00  0.00     0.012 C 
ENDBRANCH  23  25
ENDBRANCH   5  23
BRANCH  10  27
ATOM     27  O   UNL     1      28.457  18.153  29.047  1.00  0.00    -0.393 OA
ATOM     28  H   UNL     1      28.775  18.985  28.608  1.00  0.00     0.210 HD
ENDBRANCH  10  27
TORSDOF 3
ENDMDL
MODEL 3
REMARK VINA RESULT:    -8.243      1.699      7.064
REMARK INTER + INTRA:          -9.506
REMARK INTER:                  -9.045
REMARK INTRA:                  -0.460
REMARK UNBOUND:                -0.058
REMARK SMILES CCC(=O)[C@@]1(C)[C@H](C)C[C@H]2[C@@H]3CCC4=CC(=O)C=C[C@]4(C)[C@H]3[C@@H](O)C[C@@]21C
REMARK SMILES IDX 10 1 9 2 7 3 8 4 5 5 6 6 26 7 27 8 25 9 23 10 22 11 11 12
REMARK SMILES IDX 12 13 13 14 14 15 15 16 16 17 17 18 18 19 19 20 20 21 21 22
REMARK SMILES IDX 3 23 4 24 2 25 1 26 24 27
REMARK H PARENT 24 28
REMARK Flexibility Score: inf
ROOT
ATOM      1  C   UNL     1      26.694  17.941  32.805  1.00  0.00    -0.000 C 
ATOM      2  C   UNL     1      26.427  17.132  34.066  1.00  0.00     0.008 C 
ATOM      3  C   UNL     1      26.368  15.656  33.598  1.00  0.00    -0.000 C 
ATOM      4  C   UNL     1      25.028  15.002  33.983  1.00  0.00     0.009 C 
ATOM      5  C   UNL     1      26.741  15.638  32.057  1.00  0.00     0.034 C 
ATOM      6  C   UNL     1      25.465  15.565  31.163  1.00  0.00     0.020 C 
ATOM      7  C   UNL     1      27.519  17.008  31.902  1.00  0.00    -0.014 C 
ATOM      8  C   UNL     1      28.989  16.824  32.424  1.00  0.00     0.013 C 
ATOM      9  C   UNL     1      27.546  17.645  30.482  1.00  0.00     0.040 C 
ATOM     10  C   UNL     1      28.099  19.098  30.477  1.00  0.00     0.119 C 
ATOM     11  C   UNL     1      27.388  20.019  31.530  1.00  0.00     0.035 C 
ATOM     12  C   UNL     1      27.292  19.362  32.955  1.00  0.00    -0.000 C 
ATOM     13  C   UNL     1      26.402  20.216  33.885  1.00  0.00     0.009 C 
ATOM     14  C   UNL     1      26.914  21.650  33.995  1.00  0.00     0.032 C 
ATOM     15  C   UNL     1      27.029  22.253  32.619  1.00  0.00    -0.056 C 
ATOM     16  C   UNL     1      26.378  23.395  32.342  1.00  0.00     0.052 C 
ATOM     17  C   UNL     1      26.407  23.968  30.998  1.00  0.00     0.178 C 
ATOM     18  O   UNL     1      25.805  25.047  30.755  1.00  0.00    -0.290 OA
ATOM     19  C   UNL     1      27.124  23.272  29.933  1.00  0.00     0.048 C 
ATOM     20  C   UNL     1      27.782  22.141  30.186  1.00  0.00    -0.012 C 
ATOM     21  C   UNL     1      27.890  21.518  31.579  1.00  0.00     0.013 C 
ATOM     22  C   UNL     1      29.369  21.658  32.015  1.00  0.00     0.021 C 
ENDROOT
BRANCH   5  23
ATOM     23  C   UNL     1      27.606  14.437  31.632  1.00  0.00     0.139 C 
ATOM     24  O   UNL     1      28.104  13.746  32.511  1.00  0.00    -0.299 OA
BRANCH  23  25
ATOM     25  C   UNL     1      27.842  14.054  30.183  1.00  0.00     0.073 C 
ATOM     26  C   UNL     1      29.272  14.334  29.718  1.00  0.00     0.012 C 
ENDBRANCH  23  25
ENDBRANCH   5  23
BRANCH  10  27
ATOM     27  O   UNL     1      29.490  19.094  30.654  1.00  0.00    -0.393 OA
ATOM     28  H   UNL     1      29.740  19.981  31.027  1.00  0.00     0.210 HD
ENDBRANCH  10  27
TORSDOF 3
ENDMDL
MODEL 4
REMARK VINA RESULT:    -7.746      1.733      7.344
REMARK INTER + INTRA:          -8.936
REMARK INTER:                  -8.488
REMARK INTRA:                  -0.448
REMARK UNBOUND:                -0.058
REMARK SMILES CCC(=O)[C@@]1(C)[C@H](C)C[C@H]2[C@@H]3CCC4=CC(=O)C=C[C@]4(C)[C@H]3[C@@H](O)C[C@@]21C
REMARK SMILES IDX 10 1 9 2 7 3 8 4 5 5 6 6 26 7 27 8 25 9 23 10 22 11 11 12
REMARK SMILES IDX 12 13 13 14 14 15 15 16 16 17 17 18 18 19 19 20 20 21 21 22
REMARK SMILES IDX 3 23 4 24 2 25 1 26 24 27
REMARK H PARENT 24 28
REMARK Flexibility Score: inf
ROOT
ATOM      1  C   UNL     1      29.072  18.318  30.658  1.00  0.00    -0.000 C 
ATOM      2  C   UNL     1      29.503  17.373  29.546  1.00  0.00     0.008 C 
ATOM      3  C   UNL     1      30.016  16.103  30.267  1.00  0.00    -0.000 C 
ATOM      4  C   UNL     1      31.469  15.783  29.869  1.00  0.00     0.009 C 
ATOM      5  C   UNL     1      29.742  16.300  31.818  1.00  0.00     0.034 C 
ATOM      6  C   UNL     1      31.025  16.773  32.567  1.00  0.00     0.020 C 
ATOM      7  C   UNL     1      28.604  17.401  31.800  1.00  0.00    -0.014 C 
ATOM      8  C   UNL     1      27.229  16.710  31.481  1.00  0.00     0.013 C 
ATOM      9  C   UNL     1      28.460  18.284  33.073  1.00  0.00     0.040 C 
ATOM     10  C   UNL     1      27.505  19.493  32.871  1.00  0.00     0.119 C 
ATOM     11  C   UNL     1      27.860  20.338  31.596  1.00  0.00     0.035 C 
ATOM     12  C   UNL     1      28.075  19.454  30.315  1.00  0.00    -0.000 C 
ATOM     13  C   UNL     1      28.627  20.310  29.153  1.00  0.00     0.009 C 
ATOM     14  C   UNL     1      27.710  21.490  28.838  1.00  0.00     0.032 C 
ATOM     15  C   UNL     1      27.491  22.308  30.084  1.00  0.00    -0.056 C 
ATOM     16  C   UNL     1      27.790  23.617  30.075  1.00  0.00     0.052 C 
ATOM     17  C   UNL     1      27.660  24.425  31.286  1.00  0.00     0.178 C 
ATOM     18  O   UNL     1      27.928  25.655  31.260  1.00  0.00    -0.290 OA
ATOM     19  C   UNL     1      27.233  23.793  32.531  1.00  0.00     0.048 C 
ATOM     20  C   UNL     1      26.925  22.496  32.562  1.00  0.00    -0.012 C 
ATOM     21  C   UNL     1      26.937  21.593  31.327  1.00  0.00     0.013 C 
ATOM     22  C   UNL     1      25.463  21.222  31.035  1.00  0.00     0.021 C 
ENDROOT
BRANCH   5  23
ATOM     23  C   UNL     1      29.291  15.021  32.546  1.00  0.00     0.139 C 
ATOM     24  O   UNL     1      28.935  14.067  31.867  1.00  0.00    -0.299 OA
BRANCH  23  25
ATOM     25  C   UNL     1      29.298  14.878  34.056  1.00  0.00     0.073 C 
ATOM     26  C   UNL     1      27.899  14.958  34.669  1.00  0.00     0.012 C 
ENDBRANCH  23  25
ENDBRANCH   5  23
BRANCH  10  27
ATOM     27  O   UNL     1      26.169  19.065  32.847  1.00  0.00    -0.393 OA
ATOM     28  H   UNL     1      26.148  18.152  33.239  1.00  0.00     0.210 HD
ENDBRANCH  10  27
TORSDOF 3
ENDMDL
MODEL 5
REMARK VINA RESULT:    -7.165     17.291     18.931
REMARK INTER + INTRA:          -8.270
REMARK INTER:                  -7.908
REMARK INTRA:                  -0.362
REMARK UNBOUND:                -0.058
REMARK SMILES CCC(=O)[C@@]1(C)[C@H](C)C[C@H]2[C@@H]3CCC4=CC(=O)C=C[C@]4(C)[C@H]3[C@@H](O)C[C@@]21C
REMARK SMILES IDX 10 1 9 2 7 3 8 4 5 5 6 6 26 7 27 8 25 9 23 10 22 11 11 12
REMARK SMILES IDX 12 13 13 14 14 15 15 16 16 17 17 18 18 19 19 20 20 21 21 22
REMARK SMILES IDX 3 23 4 24 2 25 1 26 24 27
REMARK H PARENT 24 28
REMARK Flexibility Score: inf
ROOT
ATOM      1  C   UNL     1      12.318  18.813  40.610  1.00  0.00    -0.000 C 
ATOM      2  C   UNL     1      12.287  20.334  40.577  1.00  0.00     0.008 C 
ATOM      3  C   UNL     1      12.840  20.722  39.183  1.00  0.00    -0.000 C 
ATOM      4  C   UNL     1      14.062  21.652  39.308  1.00  0.00     0.009 C 
ATOM      5  C   UNL     1      13.064  19.376  38.375  1.00  0.00     0.034 C 
ATOM      6  C   UNL     1      14.557  18.930  38.414  1.00  0.00     0.020 C 
ATOM      7  C   UNL     1      12.107  18.379  39.149  1.00  0.00    -0.014 C 
ATOM      8  C   UNL     1      10.629  18.611  38.669  1.00  0.00     0.013 C 
ATOM      9  C   UNL     1      12.451  16.864  39.062  1.00  0.00     0.040 C 
ATOM     10  C   UNL     1      11.626  15.995  40.052  1.00  0.00     0.119 C 
ATOM     11  C   UNL     1      11.682  16.535  41.524  1.00  0.00     0.035 C 
ATOM     12  C   UNL     1      11.404  18.079  41.622  1.00  0.00    -0.000 C 
ATOM     13  C   UNL     1      11.681  18.589  43.054  1.00  0.00     0.009 C 
ATOM     14  C   UNL     1      10.855  17.833  44.091  1.00  0.00     0.032 C 
ATOM     15  C   UNL     1      11.113  16.354  43.963  1.00  0.00    -0.056 C 
ATOM     16  C   UNL     1      11.545  15.663  45.031  1.00  0.00     0.052 C 
ATOM     17  C   UNL     1      11.875  14.244  44.923  1.00  0.00     0.178 C 
ATOM     18  O   UNL     1      12.264  13.604  45.935  1.00  0.00    -0.290 OA
ATOM     19  C   UNL     1      11.767  13.575  43.629  1.00  0.00     0.048 C 
ATOM     20  C   UNL     1      11.333  14.239  42.557  1.00  0.00    -0.012 C 
ATOM     21  C   UNL     1      10.873  15.697  42.593  1.00  0.00     0.013 C 
ATOM     22  C   UNL     1       9.346  15.687  42.340  1.00  0.00     0.021 C 
ENDROOT
BRANCH   5  23
ATOM     23  C   UNL     1      12.703  19.470  36.881  1.00  0.00     0.139 C 
ATOM     24  O   UNL     1      12.756  18.448  36.210  1.00  0.00    -0.299 OA
BRANCH  23  25
ATOM     25  C   UNL     1      12.256  20.758  36.214  1.00  0.00     0.073 C 
ATOM     26  C   UNL     1      13.419  21.565  35.637  1.00  0.00     0.012 C 
ENDBRANCH  23  25
ENDBRANCH   5  23
BRANCH  10  27
ATOM     27  O   UNL     1      10.304  15.862  39.604  1.00  0.00    -0.393 OA
ATOM     28  H   UNL     1      10.172  16.530  38.880  1.00  0.00     0.210 HD
ENDBRANCH  10  27
TORSDOF 3
ENDMDL
MODEL 6
REMARK VINA RESULT:    -7.147     17.285     18.975
REMARK INTER + INTRA:          -8.250
REMARK INTER:                  -7.911
REMARK INTRA:                  -0.339
REMARK UNBOUND:                -0.058
REMARK SMILES CCC(=O)[C@@]1(C)[C@H](C)C[C@H]2[C@@H]3CCC4=CC(=O)C=C[C@]4(C)[C@H]3[C@@H](O)C[C@@]21C
REMARK SMILES IDX 10 1 9 2 7 3 8 4 5 5 6 6 26 7 27 8 25 9 23 10 22 11 11 12
REMARK SMILES IDX 12 13 13 14 14 15 15 16 16 17 17 18 18 19 19 20 20 21 21 22
REMARK SMILES IDX 3 23 4 24 2 25 1 26 24 27
REMARK H PARENT 24 28
REMARK Flexibility Score: inf
ROOT
ATOM      1  C   UNL     1       9.605  18.221  36.395  1.00  0.00    -0.000 C 
ATOM      2  C   UNL     1       8.977  17.414  35.268  1.00  0.00     0.008 C 
ATOM      3  C   UNL     1       8.435  18.465  34.268  1.00  0.00    -0.000 C 
ATOM      4  C   UNL     1       6.925  18.278  34.025  1.00  0.00     0.009 C 
ATOM      5  C   UNL     1       8.889  19.891  34.793  1.00  0.00     0.034 C 
ATOM      6  C   UNL     1       7.740  20.605  35.567  1.00  0.00     0.020 C 
ATOM      7  C   UNL     1      10.110  19.511  35.726  1.00  0.00    -0.014 C 
ATOM      8  C   UNL     1      11.378  19.258  34.832  1.00  0.00     0.013 C 
ATOM      9  C   UNL     1      10.466  20.512  36.863  1.00  0.00     0.040 C 
ATOM     10  C   UNL     1      11.495  19.942  37.878  1.00  0.00     0.119 C 
ATOM     11  C   UNL     1      11.081  18.533  38.432  1.00  0.00     0.035 C 
ATOM     12  C   UNL     1      10.654  17.529  37.301  1.00  0.00    -0.000 C 
ATOM     13  C   UNL     1      10.058  16.243  37.915  1.00  0.00     0.009 C 
ATOM     14  C   UNL     1      11.035  15.574  38.878  1.00  0.00     0.032 C 
ATOM     15  C   UNL     1      11.456  16.559  39.937  1.00  0.00    -0.056 C 
ATOM     16  C   UNL     1      11.273  16.254  41.233  1.00  0.00     0.052 C 
ATOM     17  C   UNL     1      11.602  17.215  42.284  1.00  0.00     0.178 C 
ATOM     18  O   UNL     1      11.440  16.911  43.495  1.00  0.00    -0.290 OA
ATOM     19  C   UNL     1      12.102  18.538  41.919  1.00  0.00     0.048 C 
ATOM     20  C   UNL     1      12.298  18.860  40.640  1.00  0.00    -0.012 C 
ATOM     21  C   UNL     1      12.076  17.889  39.479  1.00  0.00     0.013 C 
ATOM     22  C   UNL     1      13.472  17.575  38.889  1.00  0.00     0.021 C 
ENDROOT
BRANCH   5  23
ATOM     23  C   UNL     1       9.303  20.871  33.680  1.00  0.00     0.139 C 
ATOM     24  O   UNL     1       9.396  22.058  33.962  1.00  0.00    -0.299 OA
BRANCH  23  25
ATOM     25  C   UNL     1       9.632  20.430  32.265  1.00  0.00     0.073 C 
ATOM     26  C   UNL     1       8.412  20.431  31.342  1.00  0.00     0.012 C 
ENDBRANCH  23  25
ENDBRANCH   5  23
BRANCH  10  27
ATOM     27  O   UNL     1      12.778  19.913  37.312  1.00  0.00    -0.393 OA
ATOM     28  H   UNL     1      13.056  20.857  37.170  1.00  0.00     0.210 HD
ENDBRANCH  10  27
TORSDOF 3
ENDMDL
MODEL 7
REMARK VINA RESULT:    -7.144     17.191     18.830
REMARK INTER + INTRA:          -8.246
REMARK INTER:                  -8.086
REMARK INTRA:                  -0.160
REMARK UNBOUND:                -0.058
REMARK SMILES CCC(=O)[C@@]1(C)[C@H](C)C[C@H]2[C@@H]3CCC4=CC(=O)C=C[C@]4(C)[C@H]3[C@@H](O)C[C@@]21C
REMARK SMILES IDX 10 1 9 2 7 3 8 4 5 5 6 6 26 7 27 8 25 9 23 10 22 11 11 12
REMARK SMILES IDX 12 13 13 14 14 15 15 16 16 17 17 18 18 19 19 20 20 21 21 22
REMARK SMILES IDX 3 23 4 24 2 25 1 26 24 27
REMARK H PARENT 24 28
REMARK Flexibility Score: inf
ROOT
ATOM      1  C   UNL     1      11.413  19.258  39.616  1.00  0.00    -0.000 C 
ATOM      2  C   UNL     1      10.843  20.594  39.163  1.00  0.00     0.008 C 
ATOM      3  C   UNL     1      12.036  21.353  38.531  1.00  0.00    -0.000 C 
ATOM      4  C   UNL     1      12.263  22.711  39.221  1.00  0.00     0.009 C 
ATOM      5  C   UNL     1      13.271  20.357  38.518  1.00  0.00     0.034 C 
ATOM      6  C   UNL     1      14.234  20.629  39.713  1.00  0.00     0.020 C 
ATOM      7  C   UNL     1      12.547  18.953  38.623  1.00  0.00    -0.014 C 
ATOM      8  C   UNL     1      12.002  18.550  37.205  1.00  0.00     0.013 C 
ATOM      9  C   UNL     1      13.377  17.777  39.215  1.00  0.00     0.040 C 
ATOM     10  C   UNL     1      12.517  16.518  39.520  1.00  0.00     0.119 C 
ATOM     11  C   UNL     1      11.248  16.847  40.384  1.00  0.00     0.035 C 
ATOM     12  C   UNL     1      10.436  18.076  39.837  1.00  0.00    -0.000 C 
ATOM     13  C   UNL     1       9.330  18.483  40.837  1.00  0.00     0.009 C 
ATOM     14  C   UNL     1       8.392  17.318  41.143  1.00  0.00     0.032 C 
ATOM     15  C   UNL     1       9.190  16.141  41.637  1.00  0.00    -0.056 C 
ATOM     16  C   UNL     1       8.897  15.597  42.830  1.00  0.00     0.052 C 
ATOM     17  C   UNL     1       9.698  14.502  43.373  1.00  0.00     0.178 C 
ATOM     18  O   UNL     1       9.403  13.990  44.485  1.00  0.00    -0.290 OA
ATOM     19  C   UNL     1      10.854  14.015  42.625  1.00  0.00     0.048 C 
ATOM     20  C   UNL     1      11.160  14.535  41.436  1.00  0.00    -0.012 C 
ATOM     21  C   UNL     1      10.326  15.614  40.744  1.00  0.00     0.013 C 
ATOM     22  C   UNL     1       9.677  14.948  39.507  1.00  0.00     0.021 C 
ENDROOT
BRANCH   5  23
ATOM     23  C   UNL     1      14.147  20.456  37.256  1.00  0.00     0.139 C 
ATOM     24  O   UNL     1      14.983  19.583  37.064  1.00  0.00    -0.299 OA
BRANCH  23  25
ATOM     25  C   UNL     1      14.001  21.562  36.227  1.00  0.00     0.073 C 
ATOM     26  C   UNL     1      12.919  21.268  35.186  1.00  0.00     0.012 C 
ENDBRANCH  23  25
ENDBRANCH   5  23
BRANCH  10  27
ATOM     27  O   UNL     1      12.172  15.860  38.331  1.00  0.00    -0.393 OA
ATOM     28  H   UNL     1      12.316  14.888  38.483  1.00  0.00     0.210 HD
ENDBRANCH  10  27
TORSDOF 3
ENDMDL
MODEL 8
REMARK VINA RESULT:    -7.102      2.283      3.222
REMARK INTER + INTRA:          -8.198
REMARK INTER:                  -7.887
REMARK INTRA:                  -0.310
REMARK UNBOUND:                -0.058
REMARK SMILES CCC(=O)[C@@]1(C)[C@H](C)C[C@H]2[C@@H]3CCC4=CC(=O)C=C[C@]4(C)[C@H]3[C@@H](O)C[C@@]21C
REMARK SMILES IDX 10 1 9 2 7 3 8 4 5 5 6 6 26 7 27 8 25 9 23 10 22 11 11 12
REMARK SMILES IDX 12 13 13 14 14 15 15 16 16 17 17 18 18 19 19 20 20 21 21 22
REMARK SMILES IDX 3 23 4 24 2 25 1 26 24 27
REMARK H PARENT 24 28
REMARK Flexibility Score: inf
ROOT
ATOM      1  C   UNL     1      27.023  19.307  32.374  1.00  0.00    -0.000 C 
ATOM      2  C   UNL     1      26.211  20.579  32.183  1.00  0.00     0.008 C 
ATOM      3  C   UNL     1      27.086  21.489  31.285  1.00  0.00    -0.000 C 
ATOM      4  C   UNL     1      27.361  22.844  31.964  1.00  0.00     0.009 C 
ATOM      5  C   UNL     1      28.362  20.645  30.863  1.00  0.00     0.034 C 
ATOM      6  C   UNL     1      29.594  20.994  31.751  1.00  0.00     0.020 C 
ATOM      7  C   UNL     1      27.848  19.164  31.084  1.00  0.00    -0.014 C 
ATOM      8  C   UNL     1      26.963  18.740  29.857  1.00  0.00     0.013 C 
ATOM      9  C   UNL     1      28.930  18.076  31.345  1.00  0.00     0.040 C 
ATOM     10  C   UNL     1      28.330  16.718  31.805  1.00  0.00     0.119 C 
ATOM     11  C   UNL     1      27.336  16.872  33.010  1.00  0.00     0.035 C 
ATOM     12  C   UNL     1      26.278  18.014  32.791  1.00  0.00    -0.000 C 
ATOM     13  C   UNL     1      25.472  18.260  34.086  1.00  0.00     0.009 C 
ATOM     14  C   UNL     1      24.787  16.986  34.574  1.00  0.00     0.032 C 
ATOM     15  C   UNL     1      25.812  15.896  34.750  1.00  0.00    -0.056 C 
ATOM     16  C   UNL     1      25.932  15.288  35.942  1.00  0.00     0.052 C 
ATOM     17  C   UNL     1      26.964  14.279  36.168  1.00  0.00     0.178 C 
ATOM     18  O   UNL     1      27.057  13.706  37.286  1.00  0.00    -0.290 OA
ATOM     19  C   UNL     1      27.900  13.951  35.096  1.00  0.00     0.048 C 
ATOM     20  C   UNL     1      27.795  14.537  33.903  1.00  0.00    -0.012 C 
ATOM     21  C   UNL     1      26.690  15.531  33.542  1.00  0.00     0.013 C 
ATOM     22  C   UNL     1      25.785  14.829  32.501  1.00  0.00     0.021 C 
ENDROOT
BRANCH   5  23
ATOM     23  C   UNL     1      28.822  20.881  29.413  1.00  0.00     0.139 C 
ATOM     24  O   UNL     1      29.899  20.414  29.067  1.00  0.00    -0.299 OA
BRANCH  23  25
ATOM     25  C   UNL     1      27.991  21.633  28.389  1.00  0.00     0.073 C 
ATOM     26  C   UNL     1      28.841  22.293  27.302  1.00  0.00     0.012 C 
ENDBRANCH  23  25
ENDBRANCH   5  23
BRANCH  10  27
ATOM     27  O   UNL     1      27.727  16.057  30.724  1.00  0.00    -0.393 OA
ATOM     28  H   UNL     1      28.035  15.113  30.751  1.00  0.00     0.210 HD
ENDBRANCH  10  27
TORSDOF 3
ENDMDL
MODEL 9
REMARK VINA RESULT:    -6.908     18.098     19.834
REMARK INTER + INTRA:          -7.975
REMARK INTER:                  -7.651
REMARK INTRA:                  -0.324
REMARK UNBOUND:                -0.058
REMARK SMILES CCC(=O)[C@@]1(C)[C@H](C)C[C@H]2[C@@H]3CCC4=CC(=O)C=C[C@]4(C)[C@H]3[C@@H](O)C[C@@]21C
REMARK SMILES IDX 10 1 9 2 7 3 8 4 5 5 6 6 26 7 27 8 25 9 23 10 22 11 11 12
REMARK SMILES IDX 12 13 13 14 14 15 15 16 16 17 17 18 18 19 19 20 20 21 21 22
REMARK SMILES IDX 3 23 4 24 2 25 1 26 24 27
REMARK H PARENT 24 28
REMARK Flexibility Score: inf
ROOT
ATOM      1  C   UNL     1      11.046  17.286  38.978  1.00  0.00    -0.000 C 
ATOM      2  C   UNL     1      11.456  17.109  37.523  1.00  0.00     0.008 C 
ATOM      3  C   UNL     1      12.062  18.471  37.103  1.00  0.00    -0.000 C 
ATOM      4  C   UNL     1      11.328  19.056  35.882  1.00  0.00     0.009 C 
ATOM      5  C   UNL     1      12.105  19.386  38.399  1.00  0.00     0.034 C 
ATOM      6  C   UNL     1      10.900  20.374  38.438  1.00  0.00     0.020 C 
ATOM      7  C   UNL     1      12.046  18.303  39.552  1.00  0.00    -0.014 C 
ATOM      8  C   UNL     1      13.477  17.683  39.746  1.00  0.00     0.013 C 
ATOM      9  C   UNL     1      11.491  18.771  40.929  1.00  0.00     0.040 C 
ATOM     10  C   UNL     1      11.228  17.596  41.911  1.00  0.00     0.119 C 
ATOM     11  C   UNL     1      10.356  16.457  41.273  1.00  0.00     0.035 C 
ATOM     12  C   UNL     1      10.865  16.019  39.851  1.00  0.00    -0.000 C 
ATOM     13  C   UNL     1       9.854  15.058  39.188  1.00  0.00     0.009 C 
ATOM     14  C   UNL     1       9.587  13.832  40.058  1.00  0.00     0.032 C 
ATOM     15  C   UNL     1       9.130  14.272  41.424  1.00  0.00    -0.056 C 
ATOM     16  C   UNL     1       7.956  13.827  41.903  1.00  0.00     0.052 C 
ATOM     17  C   UNL     1       7.447  14.291  43.192  1.00  0.00     0.178 C 
ATOM     18  O   UNL     1       6.352  13.855  43.636  1.00  0.00    -0.290 OA
ATOM     19  C   UNL     1       8.208  15.276  43.955  1.00  0.00     0.048 C 
ATOM     20  C   UNL     1       9.380  15.726  43.503  1.00  0.00    -0.012 C 
ATOM     21  C   UNL     1      10.037  15.228  42.215  1.00  0.00     0.013 C 
ATOM     22  C   UNL     1      11.297  14.434  42.639  1.00  0.00     0.021 C 
ENDROOT
BRANCH   5  23
ATOM     23  C   UNL     1      13.362  20.268  38.506  1.00  0.00     0.139 C 
ATOM     24  O   UNL     1      13.542  20.892  39.544  1.00  0.00    -0.299 OA
BRANCH  23  25
ATOM     25  C   UNL     1      14.400  20.374  37.404  1.00  0.00     0.073 C 
ATOM     26  C   UNL     1      14.088  21.481  36.395  1.00  0.00     0.012 C 
ENDBRANCH  23  25
ENDBRANCH   5  23
BRANCH  10  27
ATOM     27  O   UNL     1      12.438  17.095  42.413  1.00  0.00    -0.393 OA
ATOM     28  H   UNL     1      12.780  16.438  41.751  1.00  0.00     0.210 HD
ENDBRANCH  10  27
TORSDOF 3
ENDMDL
MODEL 10
REMARK VINA RESULT:    -6.812     18.530     21.755
REMARK INTER + INTRA:          -7.866
REMARK INTER:                  -7.464
REMARK INTRA:                  -0.401
REMARK UNBOUND:                -0.058
REMARK SMILES CCC(=O)[C@@]1(C)[C@H](C)C[C@H]2[C@@H]3CCC4=CC(=O)C=C[C@]4(C)[C@H]3[C@@H](O)C[C@@]21C
REMARK SMILES IDX 10 1 9 2 7 3 8 4 5 5 6 6 26 7 27 8 25 9 23 10 22 11 11 12
REMARK SMILES IDX 12 13 13 14 14 15 15 16 16 17 17 18 18 19 19 20 20 21 21 22
REMARK SMILES IDX 3 23 4 24 2 25 1 26 24 27
REMARK H PARENT 24 28
REMARK Flexibility Score: inf
ROOT
ATOM      1  C   UNL     1      10.865  29.825  40.913  1.00  0.00    -0.000 C 
ATOM      2  C   UNL     1      10.404  31.159  41.481  1.00  0.00     0.008 C 
ATOM      3  C   UNL     1       9.036  31.436  40.809  1.00  0.00    -0.000 C 
ATOM      4  C   UNL     1       9.043  32.785  40.065  1.00  0.00     0.009 C 
ATOM      5  C   UNL     1       8.671  30.159  39.943  1.00  0.00     0.034 C 
ATOM      6  C   UNL     1       9.016  30.374  38.438  1.00  0.00     0.020 C 
ATOM      7  C   UNL     1       9.570  29.047  40.623  1.00  0.00    -0.014 C 
ATOM      8  C   UNL     1       8.867  28.554  41.939  1.00  0.00     0.013 C 
ATOM      9  C   UNL     1       9.955  27.820  39.747  1.00  0.00     0.040 C 
ATOM     10  C   UNL     1      11.039  26.919  40.402  1.00  0.00     0.119 C 
ATOM     11  C   UNL     1      12.297  27.732  40.873  1.00  0.00     0.035 C 
ATOM     12  C   UNL     1      11.923  29.014  41.703  1.00  0.00    -0.000 C 
ATOM     13  C   UNL     1      13.177  29.880  41.954  1.00  0.00     0.009 C 
ATOM     14  C   UNL     1      14.275  29.091  42.661  1.00  0.00     0.032 C 
ATOM     15  C   UNL     1      14.599  27.852  41.867  1.00  0.00    -0.056 C 
ATOM     16  C   UNL     1      15.862  27.637  41.465  1.00  0.00     0.052 C 
ATOM     17  C   UNL     1      16.198  26.484  40.631  1.00  0.00     0.178 C 
ATOM     18  O   UNL     1      17.389  26.285  40.273  1.00  0.00    -0.290 OA
ATOM     19  C   UNL     1      15.141  25.574  40.200  1.00  0.00     0.048 C 
ATOM     20  C   UNL     1      13.881  25.764  40.593  1.00  0.00    -0.012 C 
ATOM     21  C   UNL     1      13.450  26.883  41.543  1.00  0.00     0.013 C 
ATOM     22  C   UNL     1      13.024  26.203  42.866  1.00  0.00     0.021 C 
ENDROOT
BRANCH   5  23
ATOM     23  C   UNL     1       7.178  29.783  39.971  1.00  0.00     0.139 C 
ATOM     24  O   UNL     1       6.453  30.364  40.768  1.00  0.00    -0.299 OA
BRANCH  23  25
ATOM     25  C   UNL     1       6.562  28.758  39.038  1.00  0.00     0.073 C 
ATOM     26  C   UNL     1       6.345  27.399  39.706  1.00  0.00     0.012 C 
ENDBRANCH  23  25
ENDBRANCH   5  23
BRANCH  10  27
ATOM     27  O   UNL     1      10.487  26.172  41.453  1.00  0.00    -0.393 OA
ATOM     28  H   UNL     1      11.226  25.642  41.854  1.00  0.00     0.210 HD
ENDBRANCH  10  27
TORSDOF 3
ENDMDL
MODEL 11
REMARK VINA RESULT:    -6.789     17.551     19.874
REMARK INTER + INTRA:          -7.839
REMARK INTER:                  -7.397
REMARK INTRA:                  -0.442
REMARK UNBOUND:                -0.058
REMARK SMILES CCC(=O)[C@@]1(C)[C@H](C)C[C@H]2[C@@H]3CCC4=CC(=O)C=C[C@]4(C)[C@H]3[C@@H](O)C[C@@]21C
REMARK SMILES IDX 10 1 9 2 7 3 8 4 5 5 6 6 26 7 27 8 25 9 23 10 22 11 11 12
REMARK SMILES IDX 12 13 13 14 14 15 15 16 16 17 17 18 18 19 19 20 20 21 21 22
REMARK SMILES IDX 3 23 4 24 2 25 1 26 24 27
REMARK H PARENT 24 28
REMARK Flexibility Score: inf
ROOT
ATOM      1  C   UNL     1       9.454  17.156  36.937  1.00  0.00    -0.000 C 
ATOM      2  C   UNL     1       8.681  16.269  37.902  1.00  0.00     0.008 C 
ATOM      3  C   UNL     1       9.748  15.676  38.854  1.00  0.00    -0.000 C 
ATOM      4  C   UNL     1       9.719  14.136  38.837  1.00  0.00     0.009 C 
ATOM      5  C   UNL     1      11.134  16.355  38.487  1.00  0.00     0.034 C 
ATOM      6  C   UNL     1      11.996  15.431  37.574  1.00  0.00     0.020 C 
ATOM      7  C   UNL     1      10.657  17.670  37.747  1.00  0.00    -0.014 C 
ATOM      8  C   UNL     1      10.236  18.738  38.822  1.00  0.00     0.013 C 
ATOM      9  C   UNL     1      11.653  18.312  36.739  1.00  0.00     0.040 C 
ATOM     10  C   UNL     1      11.009  19.434  35.877  1.00  0.00     0.119 C 
ATOM     11  C   UNL     1       9.675  18.978  35.188  1.00  0.00     0.035 C 
ATOM     12  C   UNL     1       8.685  18.267  36.180  1.00  0.00    -0.000 C 
ATOM     13  C   UNL     1       7.493  17.655  35.409  1.00  0.00     0.009 C 
ATOM     14  C   UNL     1       6.756  18.707  34.584  1.00  0.00     0.032 C 
ATOM     15  C   UNL     1       7.726  19.398  33.662  1.00  0.00    -0.056 C 
ATOM     16  C   UNL     1       7.489  19.406  32.340  1.00  0.00     0.052 C 
ATOM     17  C   UNL     1       8.445  20.003  31.410  1.00  0.00     0.178 C 
ATOM     18  O   UNL     1       8.204  20.018  30.174  1.00  0.00    -0.290 OA
ATOM     19  C   UNL     1       9.692  20.567  31.920  1.00  0.00     0.048 C 
ATOM     20  C   UNL     1       9.945  20.576  33.230  1.00  0.00    -0.012 C 
ATOM     21  C   UNL     1       8.964  20.064  34.285  1.00  0.00     0.013 C 
ATOM     22  C   UNL     1       8.479  21.302  35.078  1.00  0.00     0.021 C 
ENDROOT
BRANCH   5  23
ATOM     23  C   UNL     1      12.023  16.673  39.703  1.00  0.00     0.139 C 
ATOM     24  O   UNL     1      11.551  16.508  40.821  1.00  0.00    -0.299 OA
BRANCH  23  25
ATOM     25  C   UNL     1      13.460  17.146  39.582  1.00  0.00     0.073 C 
ATOM     26  C   UNL     1      13.641  18.610  39.985  1.00  0.00     0.012 C 
ENDBRANCH  23  25
ENDBRANCH   5  23
BRANCH  10  27
ATOM     27  O   UNL     1      10.822  20.594  36.643  1.00  0.00    -0.393 OA
ATOM     28  H   UNL     1       9.879  20.588  36.956  1.00  0.00     0.210 HD
ENDBRANCH  10  27
TORSDOF 3
ENDMDL
MODEL 12
REMARK VINA RESULT:    -6.602     16.564     19.798
REMARK INTER + INTRA:          -7.625
REMARK INTER:                  -7.383
REMARK INTRA:                  -0.241
REMARK UNBOUND:                -0.058
REMARK SMILES CCC(=O)[C@@]1(C)[C@H](C)C[C@H]2[C@@H]3CCC4=CC(=O)C=C[C@]4(C)[C@H]3[C@@H](O)C[C@@]21C
REMARK SMILES IDX 10 1 9 2 7 3 8 4 5 5 6 6 26 7 27 8 25 9 23 10 22 11 11 12
REMARK SMILES IDX 12 13 13 14 14 15 15 16 16 17 17 18 18 19 19 20 20 21 21 22
REMARK SMILES IDX 3 23 4 24 2 25 1 26 24 27
REMARK H PARENT 24 28
REMARK Flexibility Score: inf
ROOT
ATOM      1  C   UNL     1      12.901  21.787  39.260  1.00  0.00    -0.000 C 
ATOM      2  C   UNL     1      13.829  21.268  38.171  1.00  0.00     0.008 C 
ATOM      3  C   UNL     1      13.578  19.741  38.117  1.00  0.00    -0.000 C 
ATOM      4  C   UNL     1      14.881  18.952  38.344  1.00  0.00     0.009 C 
ATOM      5  C   UNL     1      12.385  19.425  39.114  1.00  0.00     0.034 C 
ATOM      6  C   UNL     1      12.912  18.898  40.483  1.00  0.00     0.020 C 
ATOM      7  C   UNL     1      11.688  20.842  39.232  1.00  0.00    -0.014 C 
ATOM      8  C   UNL     1      10.783  21.075  37.969  1.00  0.00     0.013 C 
ATOM      9  C   UNL     1      10.861  21.114  40.522  1.00  0.00     0.040 C 
ATOM     10  C   UNL     1      10.436  22.602  40.671  1.00  0.00     0.119 C 
ATOM     11  C   UNL     1      11.642  23.594  40.516  1.00  0.00     0.035 C 
ATOM     12  C   UNL     1      12.528  23.291  39.254  1.00  0.00    -0.000 C 
ATOM     13  C   UNL     1      13.808  24.155  39.271  1.00  0.00     0.009 C 
ATOM     14  C   UNL     1      13.481  25.645  39.346  1.00  0.00     0.032 C 
ATOM     15  C   UNL     1      12.608  25.911  40.544  1.00  0.00    -0.056 C 
ATOM     16  C   UNL     1      13.004  26.807  41.464  1.00  0.00     0.052 C 
ATOM     17  C   UNL     1      12.218  27.036  42.675  1.00  0.00     0.178 C 
ATOM     18  O   UNL     1      12.592  27.890  43.522  1.00  0.00    -0.290 OA
ATOM     19  C   UNL     1      11.005  26.257  42.904  1.00  0.00     0.048 C 
ATOM     20  C   UNL     1      10.589  25.367  42.002  1.00  0.00    -0.012 C 
ATOM     21  C   UNL     1      11.290  25.129  40.664  1.00  0.00     0.013 C 
ATOM     22  C   UNL     1      10.335  25.650  39.563  1.00  0.00     0.021 C 
ENDROOT
BRANCH   5  23
ATOM     23  C   UNL     1      11.408  18.348  38.608  1.00  0.00     0.139 C 
ATOM     24  O   UNL     1      10.356  18.194  39.214  1.00  0.00    -0.299 OA
BRANCH  23  25
ATOM     25  C   UNL     1      11.673  17.497  37.381  1.00  0.00     0.073 C 
ATOM     26  C   UNL     1      11.842  16.012  37.710  1.00  0.00     0.012 C 
ENDBRANCH  23  25
ENDBRANCH   5  23
BRANCH  10  27
ATOM     27  O   UNL     1       9.401  22.908  39.775  1.00  0.00    -0.393 OA
ATOM     28  H   UNL     1       9.359  22.169  39.113  1.00  0.00     0.210 HD
ENDBRANCH  10  27
TORSDOF 3
ENDMDL
MODEL 13
REMARK VINA RESULT:    -6.422     17.287     19.073
REMARK INTER + INTRA:          -7.418
REMARK INTER:                  -7.141
REMARK INTRA:                  -0.277
REMARK UNBOUND:                -0.058
REMARK SMILES CCC(=O)[C@@]1(C)[C@H](C)C[C@H]2[C@@H]3CCC4=CC(=O)C=C[C@]4(C)[C@H]3[C@@H](O)C[C@@]21C
REMARK SMILES IDX 10 1 9 2 7 3 8 4 5 5 6 6 26 7 27 8 25 9 23 10 22 11 11 12
REMARK SMILES IDX 12 13 13 14 14 15 15 16 16 17 17 18 18 19 19 20 20 21 21 22
REMARK SMILES IDX 3 23 4 24 2 25 1 26 24 27
REMARK H PARENT 24 28
REMARK Flexibility Score: inf
ROOT
ATOM      1  C   UNL     1      11.885  19.125  38.175  1.00  0.00    -0.000 C 
ATOM      2  C   UNL     1      13.204  19.439  37.484  1.00  0.00     0.008 C 
ATOM      3  C   UNL     1      13.338  20.981  37.545  1.00  0.00    -0.000 C 
ATOM      4  C   UNL     1      13.497  21.583  36.136  1.00  0.00     0.009 C 
ATOM      5  C   UNL     1      12.121  21.524  38.407  1.00  0.00     0.034 C 
ATOM      6  C   UNL     1      10.969  22.048  37.497  1.00  0.00     0.020 C 
ATOM      7  C   UNL     1      11.713  20.233  39.227  1.00  0.00    -0.014 C 
ATOM      8  C   UNL     1      12.702  20.061  40.437  1.00  0.00     0.013 C 
ATOM      9  C   UNL     1      10.246  20.160  39.740  1.00  0.00     0.040 C 
ATOM     10  C   UNL     1       9.865  18.762  40.302  1.00  0.00     0.119 C 
ATOM     11  C   UNL     1      10.207  17.597  39.306  1.00  0.00     0.035 C 
ATOM     12  C   UNL     1      11.665  17.694  38.727  1.00  0.00    -0.000 C 
ATOM     13  C   UNL     1      11.870  16.654  37.602  1.00  0.00     0.009 C 
ATOM     14  C   UNL     1      11.583  15.235  38.087  1.00  0.00     0.032 C 
ATOM     15  C   UNL     1      10.194  15.169  38.666  1.00  0.00    -0.056 C 
ATOM     16  C   UNL     1       9.315  14.281  38.174  1.00  0.00     0.052 C 
ATOM     17  C   UNL     1       7.938  14.240  38.661  1.00  0.00     0.178 C 
ATOM     18  O   UNL     1       7.127  13.392  38.202  1.00  0.00    -0.290 OA
ATOM     19  C   UNL     1       7.502  15.199  39.671  1.00  0.00     0.048 C 
ATOM     20  C   UNL     1       8.359  16.086  40.179  1.00  0.00    -0.012 C 
ATOM     21  C   UNL     1       9.841  16.141  39.803  1.00  0.00     0.013 C 
ATOM     22  C   UNL     1      10.633  15.701  41.058  1.00  0.00     0.021 C 
ENDROOT
BRANCH   5  23
ATOM     23  C   UNL     1      12.480  22.701  39.332  1.00  0.00     0.139 C 
ATOM     24  O   UNL     1      11.624  23.105  40.108  1.00  0.00    -0.299 OA
BRANCH  23  25
ATOM     25  C   UNL     1      13.849  23.356  39.351  1.00  0.00     0.073 C 
ATOM     26  C   UNL     1      13.780  24.882  39.265  1.00  0.00     0.012 C 
ENDBRANCH  23  25
ENDBRANCH   5  23
BRANCH  10  27
ATOM     27  O   UNL     1      10.460  18.558  41.555  1.00  0.00    -0.393 OA
ATOM     28  H   UNL     1      10.661  17.587  41.629  1.00  0.00     0.210 HD
ENDBRANCH  10  27
TORSDOF 3
ENDMDL
MODEL 14
REMARK VINA RESULT:    -6.348     17.790     19.712
REMARK INTER + INTRA:          -7.334
REMARK INTER:                  -6.919
REMARK INTRA:                  -0.414
REMARK UNBOUND:                -0.058
REMARK SMILES CCC(=O)[C@@]1(C)[C@H](C)C[C@H]2[C@@H]3CCC4=CC(=O)C=C[C@]4(C)[C@H]3[C@@H](O)C[C@@]21C
REMARK SMILES IDX 10 1 9 2 7 3 8 4 5 5 6 6 26 7 27 8 25 9 23 10 22 11 11 12
REMARK SMILES IDX 12 13 13 14 14 15 15 16 16 17 17 18 18 19 19 20 20 21 21 22
REMARK SMILES IDX 3 23 4 24 2 25 1 26 24 27
REMARK H PARENT 24 28
REMARK Flexibility Score: inf
ROOT
ATOM      1  C   UNL     1      11.982  20.464  41.069  1.00  0.00    -0.000 C 
ATOM      2  C   UNL     1      11.754  21.819  40.415  1.00  0.00     0.008 C 
ATOM      3  C   UNL     1      12.497  21.746  39.058  1.00  0.00    -0.000 C 
ATOM      4  C   UNL     1      13.539  22.874  38.932  1.00  0.00     0.009 C 
ATOM      5  C   UNL     1      13.044  20.265  38.901  1.00  0.00     0.034 C 
ATOM      6  C   UNL     1      14.551  20.171  39.290  1.00  0.00     0.020 C 
ATOM      7  C   UNL     1      12.104  19.473  39.899  1.00  0.00    -0.014 C 
ATOM      8  C   UNL     1      10.722  19.208  39.199  1.00  0.00     0.013 C 
ATOM      9  C   UNL     1      12.659  18.139  40.478  1.00  0.00     0.040 C 
ATOM     10  C   UNL     1      11.789  17.569  41.634  1.00  0.00     0.119 C 
ATOM     11  C   UNL     1      11.500  18.631  42.754  1.00  0.00     0.035 C 
ATOM     12  C   UNL     1      11.004  20.007  42.180  1.00  0.00    -0.000 C 
ATOM     13  C   UNL     1      10.942  21.069  43.300  1.00  0.00     0.009 C 
ATOM     14  C   UNL     1      10.048  20.620  44.454  1.00  0.00     0.032 C 
ATOM     15  C   UNL     1      10.521  19.287  44.970  1.00  0.00    -0.056 C 
ATOM     16  C   UNL     1      10.838  19.156  46.269  1.00  0.00     0.052 C 
ATOM     17  C   UNL     1      11.369  17.897  46.789  1.00  0.00     0.178 C 
ATOM     18  O   UNL     1      11.648  17.783  48.011  1.00  0.00    -0.290 OA
ATOM     19  C   UNL     1      11.592  16.778  45.878  1.00  0.00     0.048 C 
ATOM     20  C   UNL     1      11.279  16.883  44.586  1.00  0.00    -0.012 C 
ATOM     21  C   UNL     1      10.628  18.123  43.970  1.00  0.00     0.013 C 
ATOM     22  C   UNL     1       9.189  17.717  43.569  1.00  0.00     0.021 C 
ENDROOT
BRANCH   5  23
ATOM     23  C   UNL     1      12.956  19.710  37.468  1.00  0.00     0.139 C 
ATOM     24  O   UNL     1      13.446  18.610  37.245  1.00  0.00    -0.299 OA
BRANCH  23  25
ATOM     25  C   UNL     1      12.264  20.442  36.334  1.00  0.00     0.073 C 
ATOM     26  C   UNL     1      13.218  21.319  35.521  1.00  0.00     0.012 C 
ENDBRANCH  23  25
ENDBRANCH   5  23
BRANCH  10  27
ATOM     27  O   UNL     1      10.602  17.019  41.130  1.00  0.00    -0.393 OA
ATOM     28  H   UNL     1      10.283  16.354  41.796  1.00  0.00     0.210 HD
ENDBRANCH  10  27
TORSDOF 3
ENDMDL
MODEL 15
REMARK VINA RESULT:    -6.270     16.409     18.713
REMARK INTER + INTRA:          -7.244
REMARK INTER:                  -6.965
REMARK INTRA:                  -0.279
REMARK UNBOUND:                -0.058
REMARK SMILES CCC(=O)[C@@]1(C)[C@H](C)C[C@H]2[C@@H]3CCC4=CC(=O)C=C[C@]4(C)[C@H]3[C@@H](O)C[C@@]21C
REMARK SMILES IDX 10 1 9 2 7 3 8 4 5 5 6 6 26 7 27 8 25 9 23 10 22 11 11 12
REMARK SMILES IDX 12 13 13 14 14 15 15 16 16 17 17 18 18 19 19 20 20 21 21 22
REMARK SMILES IDX 3 23 4 24 2 25 1 26 24 27
REMARK H PARENT 24 28
REMARK Flexibility Score: inf
ROOT
ATOM      1  C   UNL     1      11.309  24.039  40.874  1.00  0.00    -0.000 C 
ATOM      2  C   UNL     1       9.987  24.690  41.255  1.00  0.00     0.008 C 
ATOM      3  C   UNL     1      10.373  26.041  41.906  1.00  0.00    -0.000 C 
ATOM      4  C   UNL     1       9.802  26.156  43.333  1.00  0.00     0.009 C 
ATOM      5  C   UNL     1      11.945  26.199  41.766  1.00  0.00     0.034 C 
ATOM      6  C   UNL     1      12.677  25.798  43.082  1.00  0.00     0.020 C 
ATOM      7  C   UNL     1      12.257  25.211  40.568  1.00  0.00    -0.014 C 
ATOM      8  C   UNL     1      11.903  25.922  39.212  1.00  0.00     0.013 C 
ATOM      9  C   UNL     1      13.699  24.631  40.491  1.00  0.00     0.040 C 
ATOM     10  C   UNL     1      13.839  23.484  39.452  1.00  0.00     0.119 C 
ATOM     11  C   UNL     1      12.755  22.363  39.637  1.00  0.00     0.035 C 
ATOM     12  C   UNL     1      11.300  22.937  39.785  1.00  0.00    -0.000 C 
ATOM     13  C   UNL     1      10.313  21.814  40.175  1.00  0.00     0.009 C 
ATOM     14  C   UNL     1      10.334  20.668  39.166  1.00  0.00     0.032 C 
ATOM     15  C   UNL     1      11.741  20.152  39.016  1.00  0.00    -0.056 C 
ATOM     16  C   UNL     1      11.995  18.851  39.235  1.00  0.00     0.052 C 
ATOM     17  C   UNL     1      13.359  18.331  39.170  1.00  0.00     0.178 C 
ATOM     18  O   UNL     1      13.581  17.107  39.362  1.00  0.00    -0.290 OA
ATOM     19  C   UNL     1      14.466  19.244  38.898  1.00  0.00     0.048 C 
ATOM     20  C   UNL     1      14.238  20.538  38.671  1.00  0.00    -0.012 C 
ATOM     21  C   UNL     1      12.839  21.155  38.622  1.00  0.00     0.013 C 
ATOM     22  C   UNL     1      12.588  21.568  37.151  1.00  0.00     0.021 C 
ENDROOT
BRANCH   5  23
ATOM     23  C   UNL     1      12.411  27.634  41.459  1.00  0.00     0.139 C 
ATOM     24  O   UNL     1      11.571  28.445  41.090  1.00  0.00    -0.299 OA
BRANCH  23  25
ATOM     25  C   UNL     1      13.847  28.095  41.625  1.00  0.00     0.073 C 
ATOM     26  C   UNL     1      13.955  29.514  42.185  1.00  0.00     0.012 C 
ENDBRANCH  23  25
ENDBRANCH   5  23
BRANCH  10  27
ATOM     27  O   UNL     1      13.827  23.999  38.148  1.00  0.00    -0.393 OA
ATOM     28  H   UNL     1      14.606  24.611  38.068  1.00  0.00     0.210 HD
ENDBRANCH  10  27
TORSDOF 3
ENDMDL
