MODEL 1
REMARK VINA RESULT:    -8.308      0.000      0.000
REMARK INTER + INTRA:         -14.276
REMARK INTER:                 -12.193
REMARK INTRA:                  -2.083
REMARK UNBOUND:                -2.083
REMARK SMILES CCOC(=O)C=C(C)C=CC=C(C)C=Cc1c(C)cc(OC)c(C)c1C
REMARK SMILES IDX 9 1 10 2 7 3 6 4 8 5 4 6 5 7 3 8 2 9 1 10 11 11 12 12 13 13
REMARK SMILES IDX 14 14 15 15 16 16 25 17 17 18 26 19 23 20 19 21 18 22 24 23
REMARK SMILES IDX 20 24 21 25 22 26
REMARK H PARENT
REMARK Flexibility Score: inf
ROOT
ATOM      1  C   UNL     1       7.789  76.165  -3.381  1.00  0.00     0.003 C 
ATOM      2  C   UNL     1       7.721  77.458  -3.035  1.00  0.00     0.001 C 
ENDROOT
BRANCH   1   3
ATOM      3  C   UNL     1       7.980  75.039  -2.434  1.00  0.00    -0.044 C 
ATOM      4  C   UNL     1       9.196  74.460  -2.384  1.00  0.00     0.096 C 
ATOM      5  C   UNL     1       6.873  74.685  -1.471  1.00  0.00     0.044 C 
BRANCH   4   6
ATOM      6  C   UNL     1       9.587  73.344  -1.496  1.00  0.00     0.330 C 
ATOM      7  O   UNL     1      10.124  73.618  -0.389  1.00  0.00    -0.247 OA
BRANCH   6   8
ATOM      8  O   UNL     1       9.410  72.011  -1.880  1.00  0.00    -0.463 OA
BRANCH   8   9
ATOM      9  C   UNL     1      10.334  71.298  -2.699  1.00  0.00     0.230 C 
ATOM     10  C   UNL     1       9.756  71.073  -4.090  1.00  0.00     0.049 C 
ENDBRANCH   8   9
ENDBRANCH   6   8
ENDBRANCH   4   6
ENDBRANCH   1   3
BRANCH   2  11
ATOM     11  C   UNL     1       7.677  77.937  -1.634  1.00  0.00     0.003 C 
ATOM     12  C   UNL     1       8.099  79.156  -1.252  1.00  0.00    -0.051 C 
ATOM     13  C   UNL     1       7.944  79.553   0.193  1.00  0.00     0.044 C 
BRANCH  12  14
ATOM     14  C   UNL     1       8.746  80.086  -2.212  1.00  0.00     0.004 C 
ATOM     15  C   UNL     1      10.067  80.302  -2.293  1.00  0.00     0.009 C 
BRANCH  15  16
ATOM     16  C   UNL     1      11.065  79.703  -1.374  1.00  0.00    -0.019 A 
ATOM     17  C   UNL     1      11.411  80.366  -0.168  1.00  0.00    -0.037 A 
ATOM     18  C   UNL     1      11.642  78.449  -1.679  1.00  0.00    -0.040 A 
ATOM     19  C   UNL     1      10.790  81.704   0.186  1.00  0.00     0.045 C 
ATOM     20  C   UNL     1      12.333  79.757   0.726  1.00  0.00    -0.005 A 
ATOM     21  C   UNL     1      12.612  77.908  -0.829  1.00  0.00     0.050 A 
ATOM     22  C   UNL     1      11.264  77.680  -2.923  1.00  0.00     0.045 C 
ATOM     23  C   UNL     1      12.696  80.423   2.036  1.00  0.00     0.049 C 
ATOM     24  C   UNL     1      12.966  78.549   0.367  1.00  0.00     0.122 A 
BRANCH  24  25
ATOM     25  O   UNL     1      13.942  78.010   1.225  1.00  0.00    -0.496 OA
ATOM     26  C   UNL     1      14.022  76.639   1.608  1.00  0.00     0.278 C 
ENDBRANCH  24  25
ENDBRANCH  15  16
ENDBRANCH  12  14
ENDBRANCH   2  11
TORSDOF 8
ENDMDL
MODEL 2
REMARK VINA RESULT:    -8.077      5.719      8.579
REMARK INTER + INTRA:         -13.937
REMARK INTER:                 -13.001
REMARK INTRA:                  -0.936
REMARK UNBOUND:                -2.083
REMARK SMILES CCOC(=O)C=C(C)C=CC=C(C)C=Cc1c(C)cc(OC)c(C)c1C
REMARK SMILES IDX 9 1 10 2 7 3 6 4 8 5 4 6 5 7 3 8 2 9 1 10 11 11 12 12 13 13
REMARK SMILES IDX 14 14 15 15 16 16 25 17 17 18 26 19 23 20 19 21 18 22 24 23
REMARK SMILES IDX 20 24 21 25 22 26
REMARK H PARENT
REMARK Flexibility Score: inf
ROOT
ATOM      1  C   UNL     1      16.037  78.442  -6.424  1.00  0.00     0.003 C 
ATOM      2  C   UNL     1      14.762  78.256  -6.058  1.00  0.00     0.001 C 
ENDROOT
BRANCH   1   3
ATOM      3  C   UNL     1      16.713  79.760  -6.515  1.00  0.00    -0.044 C 
ATOM      4  C   UNL     1      16.864  80.305  -7.738  1.00  0.00     0.096 C 
ATOM      5  C   UNL     1      17.068  80.500  -5.248  1.00  0.00     0.044 C 
BRANCH   4   6
ATOM      6  C   UNL     1      17.490  81.613  -8.031  1.00  0.00     0.330 C 
ATOM      7  O   UNL     1      16.741  82.615  -8.191  1.00  0.00    -0.247 OA
BRANCH   6   8
ATOM      8  O   UNL     1      18.876  81.742  -8.172  1.00  0.00    -0.463 OA
BRANCH   8   9
ATOM      9  C   UNL     1      19.645  82.737  -7.500  1.00  0.00     0.230 C 
ATOM     10  C   UNL     1      19.900  82.331  -6.054  1.00  0.00     0.049 C 
ENDBRANCH   8   9
ENDBRANCH   6   8
ENDBRANCH   4   6
ENDBRANCH   1   3
BRANCH   2  11
ATOM     11  C   UNL     1      13.884  79.333  -5.546  1.00  0.00     0.003 C 
ATOM     12  C   UNL     1      13.716  79.595  -4.237  1.00  0.00    -0.051 C 
ATOM     13  C   UNL     1      12.846  80.759  -3.840  1.00  0.00     0.044 C 
BRANCH  12  14
ATOM     14  C   UNL     1      14.330  78.737  -3.191  1.00  0.00     0.004 C 
ATOM     15  C   UNL     1      13.740  78.402  -2.035  1.00  0.00     0.009 C 
BRANCH  15  16
ATOM     16  C   UNL     1      12.418  78.911  -1.598  1.00  0.00    -0.019 A 
ATOM     17  C   UNL     1      12.338  80.025  -0.722  1.00  0.00    -0.037 A 
ATOM     18  C   UNL     1      11.234  78.314  -2.088  1.00  0.00    -0.040 A 
ATOM     19  C   UNL     1      13.597  80.691  -0.200  1.00  0.00     0.045 C 
ATOM     20  C   UNL     1      11.064  80.533  -0.350  1.00  0.00    -0.005 A 
ATOM     21  C   UNL     1       9.991  78.773  -1.640  1.00  0.00     0.050 A 
ATOM     22  C   UNL     1      11.268  77.162  -3.064  1.00  0.00     0.045 C 
ATOM     23  C   UNL     1      10.946  81.740   0.555  1.00  0.00     0.049 C 
ATOM     24  C   UNL     1       9.893  79.872  -0.775  1.00  0.00     0.122 A 
BRANCH  24  25
ATOM     25  O   UNL     1       8.645  80.338  -0.322  1.00  0.00    -0.496 OA
ATOM     26  C   UNL     1       7.437  79.583  -0.346  1.00  0.00     0.278 C 
ENDBRANCH  24  25
ENDBRANCH  15  16
ENDBRANCH  12  14
ENDBRANCH   2  11
TORSDOF 8
ENDMDL
MODEL 3
REMARK VINA RESULT:    -8.059      5.316      8.341
REMARK INTER + INTRA:         -13.911
REMARK INTER:                 -12.654
REMARK INTRA:                  -1.257
REMARK UNBOUND:                -2.083
REMARK SMILES CCOC(=O)C=C(C)C=CC=C(C)C=Cc1c(C)cc(OC)c(C)c1C
REMARK SMILES IDX 9 1 10 2 7 3 6 4 8 5 4 6 5 7 3 8 2 9 1 10 11 11 12 12 13 13
REMARK SMILES IDX 14 14 15 15 16 16 25 17 17 18 26 19 23 20 19 21 18 22 24 23
REMARK SMILES IDX 20 24 21 25 22 26
REMARK H PARENT
REMARK Flexibility Score: inf
ROOT
ATOM      1  C   UNL     1      14.851  81.797  -5.695  1.00  0.00     0.003 C 
ATOM      2  C   UNL     1      13.689  81.288  -5.262  1.00  0.00     0.001 C 
ENDROOT
BRANCH   1   3
ATOM      3  C   UNL     1      16.117  81.035  -5.829  1.00  0.00    -0.044 C 
ATOM      4  C   UNL     1      16.644  80.905  -7.062  1.00  0.00     0.096 C 
ATOM      5  C   UNL     1      16.836  80.568  -4.586  1.00  0.00     0.044 C 
BRANCH   4   6
ATOM      6  C   UNL     1      17.902  80.204  -7.396  1.00  0.00     0.330 C 
ATOM      7  O   UNL     1      17.867  78.954  -7.560  1.00  0.00    -0.247 OA
BRANCH   6   8
ATOM      8  O   UNL     1      19.117  80.891  -7.491  1.00  0.00    -0.463 OA
BRANCH   8   9
ATOM      9  C   UNL     1      19.291  82.244  -7.075  1.00  0.00     0.230 C 
ATOM     10  C   UNL     1      19.895  82.301  -5.678  1.00  0.00     0.049 C 
ENDBRANCH   8   9
ENDBRANCH   6   8
ENDBRANCH   4   6
ENDBRANCH   1   3
BRANCH   2  11
ATOM     11  C   UNL     1      13.466  79.848  -4.996  1.00  0.00     0.003 C 
ATOM     12  C   UNL     1      13.352  79.330  -3.759  1.00  0.00    -0.051 C 
ATOM     13  C   UNL     1      13.062  77.859  -3.616  1.00  0.00     0.044 C 
BRANCH  12  14
ATOM     14  C   UNL     1      13.551  80.169  -2.548  1.00  0.00     0.004 C 
ATOM     15  C   UNL     1      12.831  80.064  -1.421  1.00  0.00     0.009 C 
BRANCH  15  16
ATOM     16  C   UNL     1      11.677  79.149  -1.254  1.00  0.00    -0.019 A 
ATOM     17  C   UNL     1      10.404  79.508  -1.768  1.00  0.00    -0.037 A 
ATOM     18  C   UNL     1      11.852  77.898  -0.619  1.00  0.00    -0.040 A 
ATOM     19  C   UNL     1      10.198  80.837  -2.469  1.00  0.00     0.045 C 
ATOM     20  C   UNL     1       9.317  78.600  -1.644  1.00  0.00    -0.005 A 
ATOM     21  C   UNL     1      10.751  77.058  -0.429  1.00  0.00     0.050 A 
ATOM     22  C   UNL     1      13.200  77.449  -0.105  1.00  0.00     0.045 C 
ATOM     23  C   UNL     1       7.956  78.940  -2.212  1.00  0.00     0.049 C 
ATOM     24  C   UNL     1       9.486  77.396  -0.930  1.00  0.00     0.122 A 
BRANCH  24  25
ATOM     25  O   UNL     1       8.375  76.554  -0.741  1.00  0.00    -0.496 OA
ATOM     26  C   UNL     1       8.153  75.329  -1.435  1.00  0.00     0.278 C 
ENDBRANCH  24  25
ENDBRANCH  15  16
ENDBRANCH  12  14
ENDBRANCH   2  11
TORSDOF 8
ENDMDL
MODEL 4
REMARK VINA RESULT:    -8.055      5.801      8.931
REMARK INTER + INTRA:         -13.906
REMARK INTER:                 -12.643
REMARK INTRA:                  -1.263
REMARK UNBOUND:                -2.083
REMARK SMILES CCOC(=O)C=C(C)C=CC=C(C)C=Cc1c(C)cc(OC)c(C)c1C
REMARK SMILES IDX 9 1 10 2 7 3 6 4 8 5 4 6 5 7 3 8 2 9 1 10 11 11 12 12 13 13
REMARK SMILES IDX 14 14 15 15 16 16 25 17 17 18 26 19 23 20 19 21 18 22 24 23
REMARK SMILES IDX 20 24 21 25 22 26
REMARK H PARENT
REMARK Flexibility Score: inf
ROOT
ATOM      1  C   UNL     1      16.222  78.395  -6.478  1.00  0.00     0.003 C 
ATOM      2  C   UNL     1      14.917  78.163  -6.276  1.00  0.00     0.001 C 
ENDROOT
BRANCH   1   3
ATOM      3  C   UNL     1      16.847  79.739  -6.542  1.00  0.00    -0.044 C 
ATOM      4  C   UNL     1      16.913  80.344  -7.745  1.00  0.00     0.096 C 
ATOM      5  C   UNL     1      17.245  80.434  -5.263  1.00  0.00     0.044 C 
BRANCH   4   6
ATOM      6  C   UNL     1      17.478  81.684  -8.010  1.00  0.00     0.330 C 
ATOM      7  O   UNL     1      16.700  82.676  -8.001  1.00  0.00    -0.247 OA
BRANCH   6   8
ATOM      8  O   UNL     1      18.834  81.859  -8.306  1.00  0.00    -0.463 OA
BRANCH   8   9
ATOM      9  C   UNL     1      19.696  82.722  -7.568  1.00  0.00     0.230 C 
ATOM     10  C   UNL     1      19.751  82.301  -6.105  1.00  0.00     0.049 C 
ENDBRANCH   8   9
ENDBRANCH   6   8
ENDBRANCH   4   6
ENDBRANCH   1   3
BRANCH   2  11
ATOM     11  C   UNL     1      13.933  79.217  -5.940  1.00  0.00     0.003 C 
ATOM     12  C   UNL     1      13.754  79.697  -4.696  1.00  0.00    -0.051 C 
ATOM     13  C   UNL     1      12.767  80.816  -4.489  1.00  0.00     0.044 C 
BRANCH  12  14
ATOM     14  C   UNL     1      14.473  79.117  -3.532  1.00  0.00     0.004 C 
ATOM     15  C   UNL     1      13.888  78.725  -2.391  1.00  0.00     0.009 C 
BRANCH  15  16
ATOM     16  C   UNL     1      12.444  78.894  -2.097  1.00  0.00    -0.019 A 
ATOM     17  C   UNL     1      11.505  77.942  -2.572  1.00  0.00    -0.037 A 
ATOM     18  C   UNL     1      12.006  79.981  -1.307  1.00  0.00    -0.040 A 
ATOM     19  C   UNL     1      11.957  76.757  -3.406  1.00  0.00     0.045 C 
ATOM     20  C   UNL     1      10.130  78.089  -2.242  1.00  0.00    -0.005 A 
ATOM     21  C   UNL     1      10.640  80.157  -1.068  1.00  0.00     0.050 A 
ATOM     22  C   UNL     1      12.974  80.989  -0.734  1.00  0.00     0.045 C 
ATOM     23  C   UNL     1       9.110  77.072  -2.705  1.00  0.00     0.049 C 
ATOM     24  C   UNL     1       9.697  79.226  -1.529  1.00  0.00     0.122 A 
BRANCH  24  25
ATOM     25  O   UNL     1       8.322  79.398  -1.291  1.00  0.00    -0.496 OA
ATOM     26  C   UNL     1       7.473  80.280  -2.022  1.00  0.00     0.278 C 
ENDBRANCH  24  25
ENDBRANCH  15  16
ENDBRANCH  12  14
ENDBRANCH   2  11
TORSDOF 8
ENDMDL
MODEL 5
REMARK VINA RESULT:    -8.036      5.359      8.441
REMARK INTER + INTRA:         -13.877
REMARK INTER:                 -12.470
REMARK INTRA:                  -1.407
REMARK UNBOUND:                -2.083
REMARK SMILES CCOC(=O)C=C(C)C=CC=C(C)C=Cc1c(C)cc(OC)c(C)c1C
REMARK SMILES IDX 9 1 10 2 7 3 6 4 8 5 4 6 5 7 3 8 2 9 1 10 11 11 12 12 13 13
REMARK SMILES IDX 14 14 15 15 16 16 25 17 17 18 26 19 23 20 19 21 18 22 24 23
REMARK SMILES IDX 20 24 21 25 22 26
REMARK H PARENT
REMARK Flexibility Score: inf
ROOT
ATOM      1  C   UNL     1      14.897  81.794  -5.645  1.00  0.00     0.003 C 
ATOM      2  C   UNL     1      13.733  81.268  -5.239  1.00  0.00     0.001 C 
ENDROOT
BRANCH   1   3
ATOM      3  C   UNL     1      16.161  81.035  -5.814  1.00  0.00    -0.044 C 
ATOM      4  C   UNL     1      16.643  80.890  -7.064  1.00  0.00     0.096 C 
ATOM      5  C   UNL     1      16.927  80.589  -4.593  1.00  0.00     0.044 C 
BRANCH   4   6
ATOM      6  C   UNL     1      17.891  80.189  -7.434  1.00  0.00     0.330 C 
ATOM      7  O   UNL     1      17.859  78.935  -7.566  1.00  0.00    -0.247 OA
BRANCH   6   8
ATOM      8  O   UNL     1      19.096  80.881  -7.596  1.00  0.00    -0.463 OA
BRANCH   8   9
ATOM      9  C   UNL     1      19.277  82.245  -7.220  1.00  0.00     0.230 C 
ATOM     10  C   UNL     1      19.888  82.341  -5.829  1.00  0.00     0.049 C 
ENDBRANCH   8   9
ENDBRANCH   6   8
ENDBRANCH   4   6
ENDBRANCH   1   3
BRANCH   2  11
ATOM     11  C   UNL     1      13.505  79.818  -5.043  1.00  0.00     0.003 C 
ATOM     12  C   UNL     1      13.342  79.248  -3.835  1.00  0.00    -0.051 C 
ATOM     13  C   UNL     1      13.053  77.772  -3.766  1.00  0.00     0.044 C 
BRANCH  12  14
ATOM     14  C   UNL     1      13.487  80.035  -2.583  1.00  0.00     0.004 C 
ATOM     15  C   UNL     1      12.702  79.902  -1.503  1.00  0.00     0.009 C 
BRANCH  15  16
ATOM     16  C   UNL     1      11.523  79.006  -1.438  1.00  0.00    -0.019 A 
ATOM     17  C   UNL     1      11.630  77.734  -0.818  1.00  0.00    -0.037 A 
ATOM     18  C   UNL     1      10.280  79.434  -1.957  1.00  0.00    -0.040 A 
ATOM     19  C   UNL     1      12.950  77.263  -0.238  1.00  0.00     0.045 C 
ATOM     20  C   UNL     1      10.480  76.904  -0.719  1.00  0.00    -0.005 A 
ATOM     21  C   UNL     1       9.183  78.568  -1.928  1.00  0.00     0.050 A 
ATOM     22  C   UNL     1      10.104  80.800  -2.577  1.00  0.00     0.045 C 
ATOM     23  C   UNL     1      10.554  75.558  -0.032  1.00  0.00     0.049 C 
ATOM     24  C   UNL     1       9.269  77.307  -1.319  1.00  0.00     0.122 A 
BRANCH  24  25
ATOM     25  O   UNL     1       8.168  76.432  -1.288  1.00  0.00    -0.496 OA
ATOM     26  C   UNL     1       7.681  75.697  -2.407  1.00  0.00     0.278 C 
ENDBRANCH  24  25
ENDBRANCH  15  16
ENDBRANCH  12  14
ENDBRANCH   2  11
TORSDOF 8
ENDMDL
MODEL 6
REMARK VINA RESULT:    -7.744      2.309      5.836
REMARK INTER + INTRA:         -13.448
REMARK INTER:                 -11.290
REMARK INTRA:                  -2.159
REMARK UNBOUND:                -2.083
REMARK SMILES CCOC(=O)C=C(C)C=CC=C(C)C=Cc1c(C)cc(OC)c(C)c1C
REMARK SMILES IDX 9 1 10 2 7 3 6 4 8 5 4 6 5 7 3 8 2 9 1 10 11 11 12 12 13 13
REMARK SMILES IDX 14 14 15 15 16 16 25 17 17 18 26 19 23 20 19 21 18 22 24 23
REMARK SMILES IDX 20 24 21 25 22 26
REMARK H PARENT
REMARK Flexibility Score: inf
ROOT
ATOM      1  C   UNL     1      13.872  78.118  -0.591  1.00  0.00     0.003 C 
ATOM      2  C   UNL     1      13.471  79.394  -0.508  1.00  0.00     0.001 C 
ENDROOT
BRANCH   1   3
ATOM      3  C   UNL     1      13.583  77.067   0.416  1.00  0.00    -0.044 C 
ATOM      4  C   UNL     1      14.484  76.875   1.399  1.00  0.00     0.096 C 
ATOM      5  C   UNL     1      12.246  76.366   0.393  1.00  0.00     0.044 C 
BRANCH   4   6
ATOM      6  C   UNL     1      14.367  75.896   2.501  1.00  0.00     0.330 C 
ATOM      7  O   UNL     1      15.018  74.819   2.419  1.00  0.00    -0.247 OA
BRANCH   6   8
ATOM      8  O   UNL     1      13.527  76.126   3.596  1.00  0.00    -0.463 OA
BRANCH   8   9
ATOM      9  C   UNL     1      13.062  75.093   4.462  1.00  0.00     0.230 C 
ATOM     10  C   UNL     1      13.912  75.030   5.725  1.00  0.00     0.049 C 
ENDBRANCH   8   9
ENDBRANCH   6   8
ENDBRANCH   4   6
ENDBRANCH   1   3
BRANCH   2  11
ATOM     11  C   UNL     1      12.551  79.904   0.534  1.00  0.00     0.003 C 
ATOM     12  C   UNL     1      11.426  80.590   0.261  1.00  0.00    -0.051 C 
ATOM     13  C   UNL     1      10.536  81.002   1.404  1.00  0.00     0.044 C 
BRANCH  12  14
ATOM     14  C   UNL     1      11.077  80.981  -1.129  1.00  0.00     0.004 C 
ATOM     15  C   UNL     1      10.198  80.332  -1.907  1.00  0.00     0.009 C 
BRANCH  15  16
ATOM     16  C   UNL     1       9.510  79.078  -1.516  1.00  0.00    -0.019 A 
ATOM     17  C   UNL     1       8.333  79.129  -0.725  1.00  0.00    -0.037 A 
ATOM     18  C   UNL     1      10.003  77.832  -1.965  1.00  0.00    -0.040 A 
ATOM     19  C   UNL     1       7.777  80.458  -0.248  1.00  0.00     0.045 C 
ATOM     20  C   UNL     1       7.657  77.923  -0.398  1.00  0.00    -0.005 A 
ATOM     21  C   UNL     1       9.373  76.651  -1.559  1.00  0.00     0.050 A 
ATOM     22  C   UNL     1      11.221  77.731  -2.853  1.00  0.00     0.045 C 
ATOM     23  C   UNL     1       6.380  77.947   0.414  1.00  0.00     0.049 C 
ATOM     24  C   UNL     1       8.208  76.682  -0.779  1.00  0.00     0.122 A 
BRANCH  24  25
ATOM     25  O   UNL     1       7.571  75.497  -0.367  1.00  0.00    -0.496 OA
ATOM     26  C   UNL     1       6.832  74.631  -1.224  1.00  0.00     0.278 C 
ENDBRANCH  24  25
ENDBRANCH  15  16
ENDBRANCH  12  14
ENDBRANCH   2  11
TORSDOF 8
ENDMDL
MODEL 7
REMARK VINA RESULT:    -7.742      2.131      6.208
REMARK INTER + INTRA:         -13.445
REMARK INTER:                 -12.082
REMARK INTRA:                  -1.363
REMARK UNBOUND:                -2.083
REMARK SMILES CCOC(=O)C=C(C)C=CC=C(C)C=Cc1c(C)cc(OC)c(C)c1C
REMARK SMILES IDX 9 1 10 2 7 3 6 4 8 5 4 6 5 7 3 8 2 9 1 10 11 11 12 12 13 13
REMARK SMILES IDX 14 14 15 15 16 16 25 17 17 18 26 19 23 20 19 21 18 22 24 23
REMARK SMILES IDX 20 24 21 25 22 26
REMARK H PARENT
REMARK Flexibility Score: inf
ROOT
ATOM      1  C   UNL     1      13.286  77.762  -0.663  1.00  0.00     0.003 C 
ATOM      2  C   UNL     1      12.442  78.753  -0.981  1.00  0.00     0.001 C 
ENDROOT
BRANCH   1   3
ATOM      3  C   UNL     1      13.789  77.478   0.704  1.00  0.00    -0.044 C 
ATOM      4  C   UNL     1      13.781  76.196   1.122  1.00  0.00     0.096 C 
ATOM      5  C   UNL     1      14.419  78.589   1.508  1.00  0.00     0.044 C 
BRANCH   4   6
ATOM      6  C   UNL     1      14.257  75.712   2.435  1.00  0.00     0.330 C 
ATOM      7  O   UNL     1      15.331  75.053   2.479  1.00  0.00    -0.247 OA
BRANCH   6   8
ATOM      8  O   UNL     1      13.523  75.936   3.605  1.00  0.00    -0.463 OA
BRANCH   8   9
ATOM      9  C   UNL     1      13.138  74.897   4.503  1.00  0.00     0.230 C 
ATOM     10  C   UNL     1      14.120  74.801   5.664  1.00  0.00     0.049 C 
ENDBRANCH   8   9
ENDBRANCH   6   8
ENDBRANCH   4   6
ENDBRANCH   1   3
BRANCH   2  11
ATOM     11  C   UNL     1      11.772  79.620   0.015  1.00  0.00     0.003 C 
ATOM     12  C   UNL     1      10.711  80.396  -0.269  1.00  0.00    -0.051 C 
ATOM     13  C   UNL     1      10.075  81.185   0.845  1.00  0.00     0.044 C 
BRANCH  12  14
ATOM     14  C   UNL     1      10.192  80.520  -1.656  1.00  0.00     0.004 C 
ATOM     15  C   UNL     1       9.280  79.704  -2.204  1.00  0.00     0.009 C 
BRANCH  15  16
ATOM     16  C   UNL     1       8.720  78.509  -1.529  1.00  0.00    -0.019 A 
ATOM     17  C   UNL     1       9.275  77.226  -1.775  1.00  0.00    -0.037 A 
ATOM     18  C   UNL     1       7.659  78.651  -0.606  1.00  0.00    -0.040 A 
ATOM     19  C   UNL     1      10.427  77.055  -2.748  1.00  0.00     0.045 C 
ATOM     20  C   UNL     1       8.760  76.096  -1.085  1.00  0.00    -0.005 A 
ATOM     21  C   UNL     1       7.109  77.516  -0.004  1.00  0.00     0.050 A 
ATOM     22  C   UNL     1       7.072  80.002  -0.271  1.00  0.00     0.045 C 
ATOM     23  C   UNL     1       9.355  74.721  -1.300  1.00  0.00     0.049 C 
ATOM     24  C   UNL     1       7.645  76.240  -0.235  1.00  0.00     0.122 A 
BRANCH  24  25
ATOM     25  O   UNL     1       7.095  75.095   0.369  1.00  0.00    -0.496 OA
ATOM     26  C   UNL     1       5.700  74.840   0.511  1.00  0.00     0.278 C 
ENDBRANCH  24  25
ENDBRANCH  15  16
ENDBRANCH  12  14
ENDBRANCH   2  11
TORSDOF 8
ENDMDL
MODEL 8
REMARK VINA RESULT:    -7.499      2.417      3.853
REMARK INTER + INTRA:         -13.090
REMARK INTER:                 -11.286
REMARK INTRA:                  -1.804
REMARK UNBOUND:                -2.083
REMARK SMILES CCOC(=O)C=C(C)C=CC=C(C)C=Cc1c(C)cc(OC)c(C)c1C
REMARK SMILES IDX 9 1 10 2 7 3 6 4 8 5 4 6 5 7 3 8 2 9 1 10 11 11 12 12 13 13
REMARK SMILES IDX 14 14 15 15 16 16 25 17 17 18 26 19 23 20 19 21 18 22 24 23
REMARK SMILES IDX 20 24 21 25 22 26
REMARK H PARENT
REMARK Flexibility Score: inf
ROOT
ATOM      1  C   UNL     1       7.794  79.396  -1.957  1.00  0.00     0.003 C 
ATOM      2  C   UNL     1       8.620  80.417  -1.687  1.00  0.00     0.001 C 
ENDROOT
BRANCH   1   3
ATOM      3  C   UNL     1       7.481  78.285  -1.025  1.00  0.00    -0.044 C 
ATOM      4  C   UNL     1       7.941  77.056  -1.336  1.00  0.00     0.096 C 
ATOM      5  C   UNL     1       6.802  78.587   0.288  1.00  0.00     0.044 C 
BRANCH   4   6
ATOM      6  C   UNL     1       7.752  75.832  -0.529  1.00  0.00     0.330 C 
ATOM      7  O   UNL     1       8.624  75.541   0.334  1.00  0.00    -0.247 OA
BRANCH   6   8
ATOM      8  O   UNL     1       6.658  74.984  -0.735  1.00  0.00    -0.463 OA
BRANCH   8   9
ATOM      9  C   UNL     1       5.339  75.277  -0.278  1.00  0.00     0.230 C 
ATOM     10  C   UNL     1       5.184  74.901   1.189  1.00  0.00     0.049 C 
ENDBRANCH   8   9
ENDBRANCH   6   8
ENDBRANCH   4   6
ENDBRANCH   1   3
BRANCH   2  11
ATOM     11  C   UNL     1       9.225  80.659  -0.358  1.00  0.00     0.003 C 
ATOM     12  C   UNL     1      10.507  81.030  -0.181  1.00  0.00    -0.051 C 
ATOM     13  C   UNL     1      10.991  81.311   1.217  1.00  0.00     0.044 C 
BRANCH  12  14
ATOM     14  C   UNL     1      11.450  81.120  -1.326  1.00  0.00     0.004 C 
ATOM     15  C   UNL     1      12.478  80.285  -1.536  1.00  0.00     0.009 C 
BRANCH  15  16
ATOM     16  C   UNL     1      12.869  79.199  -0.605  1.00  0.00    -0.019 A 
ATOM     17  C   UNL     1      12.203  77.947  -0.652  1.00  0.00    -0.037 A 
ATOM     18  C   UNL     1      13.936  79.395   0.301  1.00  0.00    -0.040 A 
ATOM     19  C   UNL     1      11.068  77.710  -1.630  1.00  0.00     0.045 C 
ATOM     20  C   UNL     1      12.620  76.899   0.212  1.00  0.00    -0.005 A 
ATOM     21  C   UNL     1      14.273  78.382   1.203  1.00  0.00     0.050 A 
ATOM     22  C   UNL     1      14.711  80.691   0.350  1.00  0.00     0.045 C 
ATOM     23  C   UNL     1      11.952  75.542   0.162  1.00  0.00     0.049 C 
ATOM     24  C   UNL     1      13.626  77.138   1.171  1.00  0.00     0.122 A 
BRANCH  24  25
ATOM     25  O   UNL     1      13.962  76.115   2.077  1.00  0.00    -0.496 OA
ATOM     26  C   UNL     1      14.986  75.146   1.868  1.00  0.00     0.278 C 
ENDBRANCH  24  25
ENDBRANCH  15  16
ENDBRANCH  12  14
ENDBRANCH   2  11
TORSDOF 8
ENDMDL
MODEL 9
REMARK VINA RESULT:    -7.492      5.421      8.200
REMARK INTER + INTRA:         -13.079
REMARK INTER:                 -11.994
REMARK INTRA:                  -1.085
REMARK UNBOUND:                -2.083
REMARK SMILES CCOC(=O)C=C(C)C=CC=C(C)C=Cc1c(C)cc(OC)c(C)c1C
REMARK SMILES IDX 9 1 10 2 7 3 6 4 8 5 4 6 5 7 3 8 2 9 1 10 11 11 12 12 13 13
REMARK SMILES IDX 14 14 15 15 16 16 25 17 17 18 26 19 23 20 19 21 18 22 24 23
REMARK SMILES IDX 20 24 21 25 22 26
REMARK H PARENT
REMARK Flexibility Score: inf
ROOT
ATOM      1  C   UNL     1      15.034  81.735  -5.673  1.00  0.00     0.003 C 
ATOM      2  C   UNL     1      13.941  81.170  -5.141  1.00  0.00     0.001 C 
ENDROOT
BRANCH   1   3
ATOM      3  C   UNL     1      16.344  81.059  -5.842  1.00  0.00    -0.044 C 
ATOM      4  C   UNL     1      16.747  80.775  -7.096  1.00  0.00     0.096 C 
ATOM      5  C   UNL     1      17.232  80.853  -4.639  1.00  0.00     0.044 C 
BRANCH   4   6
ATOM      6  C   UNL     1      18.022  80.126  -7.470  1.00  0.00     0.330 C 
ATOM      7  O   UNL     1      18.079  78.867  -7.465  1.00  0.00    -0.247 OA
BRANCH   6   8
ATOM      8  O   UNL     1      19.159  80.879  -7.782  1.00  0.00    -0.463 OA
BRANCH   8   9
ATOM      9  C   UNL     1      19.285  82.270  -7.496  1.00  0.00     0.230 C 
ATOM     10  C   UNL     1      19.978  82.481  -6.156  1.00  0.00     0.049 C 
ENDBRANCH   8   9
ENDBRANCH   6   8
ENDBRANCH   4   6
ENDBRANCH   1   3
BRANCH   2  11
ATOM     11  C   UNL     1      13.844  79.738  -4.780  1.00  0.00     0.003 C 
ATOM     12  C   UNL     1      12.911  79.243  -3.945  1.00  0.00    -0.051 C 
ATOM     13  C   UNL     1      12.873  77.757  -3.705  1.00  0.00     0.044 C 
BRANCH  12  14
ATOM     14  C   UNL     1      11.959  80.135  -3.234  1.00  0.00     0.004 C 
ATOM     15  C   UNL     1      11.665  80.051  -1.928  1.00  0.00     0.009 C 
BRANCH  15  16
ATOM     16  C   UNL     1      12.188  78.997  -1.025  1.00  0.00    -0.019 A 
ATOM     17  C   UNL     1      11.436  77.815  -0.800  1.00  0.00    -0.037 A 
ATOM     18  C   UNL     1      13.456  79.151  -0.419  1.00  0.00    -0.040 A 
ATOM     19  C   UNL     1      10.081  77.622  -1.455  1.00  0.00     0.045 C 
ATOM     20  C   UNL     1      11.970  76.792   0.030  1.00  0.00    -0.005 A 
ATOM     21  C   UNL     1      13.924  78.173   0.463  1.00  0.00     0.050 A 
ATOM     22  C   UNL     1      14.316  80.366  -0.671  1.00  0.00     0.045 C 
ATOM     23  C   UNL     1      11.207  75.506   0.261  1.00  0.00     0.049 C 
ATOM     24  C   UNL     1      13.195  76.998   0.697  1.00  0.00     0.122 A 
BRANCH  24  25
ATOM     25  O   UNL     1      13.662  76.011   1.584  1.00  0.00    -0.496 OA
ATOM     26  C   UNL     1      14.912  75.337   1.468  1.00  0.00     0.278 C 
ENDBRANCH  24  25
ENDBRANCH  15  16
ENDBRANCH  12  14
ENDBRANCH   2  11
TORSDOF 8
ENDMDL
MODEL 10
REMARK VINA RESULT:    -7.458      3.321      5.338
REMARK INTER + INTRA:         -13.030
REMARK INTER:                 -10.987
REMARK INTRA:                  -2.043
REMARK UNBOUND:                -2.083
REMARK SMILES CCOC(=O)C=C(C)C=CC=C(C)C=Cc1c(C)cc(OC)c(C)c1C
REMARK SMILES IDX 9 1 10 2 7 3 6 4 8 5 4 6 5 7 3 8 2 9 1 10 11 11 12 12 13 13
REMARK SMILES IDX 14 14 15 15 16 16 25 17 17 18 26 19 23 20 19 21 18 22 24 23
REMARK SMILES IDX 20 24 21 25 22 26
REMARK H PARENT
REMARK Flexibility Score: inf
ROOT
ATOM      1  C   UNL     1       9.175  75.901  -2.191  1.00  0.00     0.003 C 
ATOM      2  C   UNL     1       9.826  76.925  -2.761  1.00  0.00     0.001 C 
ENDROOT
BRANCH   1   3
ATOM      3  C   UNL     1       8.507  75.948  -0.867  1.00  0.00    -0.044 C 
ATOM      4  C   UNL     1       7.189  76.229  -0.839  1.00  0.00     0.096 C 
ATOM      5  C   UNL     1       9.275  75.542   0.367  1.00  0.00     0.044 C 
BRANCH   4   6
ATOM      6  C   UNL     1       6.345  76.302   0.373  1.00  0.00     0.330 C 
ATOM      7  O   UNL     1       5.558  75.347   0.615  1.00  0.00    -0.247 OA
BRANCH   6   8
ATOM      8  O   UNL     1       6.378  77.415   1.219  1.00  0.00    -0.463 OA
BRANCH   8   9
ATOM      9  C   UNL     1       5.995  78.726   0.809  1.00  0.00     0.230 C 
ATOM     10  C   UNL     1       7.108  79.381  -0.000  1.00  0.00     0.049 C 
ENDBRANCH   8   9
ENDBRANCH   6   8
ENDBRANCH   4   6
ENDBRANCH   1   3
BRANCH   2  11
ATOM     11  C   UNL     1       9.842  78.301  -2.213  1.00  0.00     0.003 C 
ATOM     12  C   UNL     1      10.759  78.738  -1.331  1.00  0.00    -0.051 C 
ATOM     13  C   UNL     1      10.711  80.179  -0.895  1.00  0.00     0.044 C 
BRANCH  12  14
ATOM     14  C   UNL     1      11.777  77.822  -0.756  1.00  0.00     0.004 C 
ATOM     15  C   UNL     1      13.072  77.803  -1.106  1.00  0.00     0.009 C 
BRANCH  15  16
ATOM     16  C   UNL     1      13.654  78.641  -2.182  1.00  0.00    -0.019 A 
ATOM     17  C   UNL     1      13.546  78.235  -3.537  1.00  0.00    -0.037 A 
ATOM     18  C   UNL     1      14.282  79.867  -1.862  1.00  0.00    -0.040 A 
ATOM     19  C   UNL     1      12.860  76.932  -3.903  1.00  0.00     0.045 C 
ATOM     20  C   UNL     1      14.066  79.071  -4.562  1.00  0.00    -0.005 A 
ATOM     21  C   UNL     1      14.864  80.631  -2.877  1.00  0.00     0.050 A 
ATOM     22  C   UNL     1      14.373  80.366  -0.439  1.00  0.00     0.045 C 
ATOM     23  C   UNL     1      13.935  78.682  -6.019  1.00  0.00     0.049 C 
ATOM     24  C   UNL     1      14.767  80.246  -4.222  1.00  0.00     0.122 A 
BRANCH  24  25
ATOM     25  O   UNL     1      15.352  81.013  -5.247  1.00  0.00    -0.496 OA
ATOM     26  C   UNL     1      16.747  81.063  -5.531  1.00  0.00     0.278 C 
ENDBRANCH  24  25
ENDBRANCH  15  16
ENDBRANCH  12  14
ENDBRANCH   2  11
TORSDOF 8
ENDMDL
MODEL 11
REMARK VINA RESULT:    -7.402      3.416      6.856
REMARK INTER + INTRA:         -12.947
REMARK INTER:                 -11.522
REMARK INTRA:                  -1.424
REMARK UNBOUND:                -2.083
REMARK SMILES CCOC(=O)C=C(C)C=CC=C(C)C=Cc1c(C)cc(OC)c(C)c1C
REMARK SMILES IDX 9 1 10 2 7 3 6 4 8 5 4 6 5 7 3 8 2 9 1 10 11 11 12 12 13 13
REMARK SMILES IDX 14 14 15 15 16 16 25 17 17 18 26 19 23 20 19 21 18 22 24 23
REMARK SMILES IDX 20 24 21 25 22 26
REMARK H PARENT
REMARK Flexibility Score: inf
ROOT
ATOM      1  C   UNL     1      13.323  77.943  -2.031  1.00  0.00     0.003 C 
ATOM      2  C   UNL     1      12.363  77.954  -1.096  1.00  0.00     0.001 C 
ENDROOT
BRANCH   1   3
ATOM      3  C   UNL     1      14.047  79.142  -2.520  1.00  0.00    -0.044 C 
ATOM      4  C   UNL     1      13.979  79.423  -3.837  1.00  0.00     0.096 C 
ATOM      5  C   UNL     1      14.699  80.072  -1.526  1.00  0.00     0.044 C 
BRANCH   4   6
ATOM      6  C   UNL     1      14.613  80.578  -4.509  1.00  0.00     0.330 C 
ATOM      7  O   UNL     1      13.868  81.454  -5.026  1.00  0.00    -0.247 OA
BRANCH   6   8
ATOM      8  O   UNL     1      16.003  80.688  -4.613  1.00  0.00    -0.463 OA
BRANCH   8   9
ATOM      9  C   UNL     1      16.768  80.064  -5.642  1.00  0.00     0.230 C 
ATOM     10  C   UNL     1      16.837  80.956  -6.875  1.00  0.00     0.049 C 
ENDBRANCH   8   9
ENDBRANCH   6   8
ENDBRANCH   4   6
ENDBRANCH   1   3
BRANCH   2  11
ATOM     11  C   UNL     1      11.990  79.151  -0.308  1.00  0.00     0.003 C 
ATOM     12  C   UNL     1      11.168  80.114  -0.763  1.00  0.00    -0.051 C 
ATOM     13  C   UNL     1      10.811  81.252   0.157  1.00  0.00     0.044 C 
BRANCH  12  14
ATOM     14  C   UNL     1      10.649  80.093  -2.155  1.00  0.00     0.004 C 
ATOM     15  C   UNL     1       9.540  79.450  -2.546  1.00  0.00     0.009 C 
BRANCH  15  16
ATOM     16  C   UNL     1       8.717  78.596  -1.657  1.00  0.00    -0.019 A 
ATOM     17  C   UNL     1       7.734  79.182  -0.817  1.00  0.00    -0.037 A 
ATOM     18  C   UNL     1       8.880  77.192  -1.676  1.00  0.00    -0.040 A 
ATOM     19  C   UNL     1       7.530  80.685  -0.796  1.00  0.00     0.045 C 
ATOM     20  C   UNL     1       6.919  78.347  -0.005  1.00  0.00    -0.005 A 
ATOM     21  C   UNL     1       8.130  76.396  -0.806  1.00  0.00     0.050 A 
ATOM     22  C   UNL     1       9.875  76.519  -2.593  1.00  0.00     0.045 C 
ATOM     23  C   UNL     1       5.840  78.939   0.875  1.00  0.00     0.049 C 
ATOM     24  C   UNL     1       7.154  76.957   0.031  1.00  0.00     0.122 A 
BRANCH  24  25
ATOM     25  O   UNL     1       6.396  76.160   0.909  1.00  0.00    -0.496 OA
ATOM     26  C   UNL     1       5.370  75.257   0.508  1.00  0.00     0.278 C 
ENDBRANCH  24  25
ENDBRANCH  15  16
ENDBRANCH  12  14
ENDBRANCH   2  11
TORSDOF 8
ENDMDL
MODEL 12
REMARK VINA RESULT:    -7.219      1.473      2.004
REMARK INTER + INTRA:         -12.679
REMARK INTER:                 -11.499
REMARK INTRA:                  -1.179
REMARK UNBOUND:                -2.083
REMARK SMILES CCOC(=O)C=C(C)C=CC=C(C)C=Cc1c(C)cc(OC)c(C)c1C
REMARK SMILES IDX 9 1 10 2 7 3 6 4 8 5 4 6 5 7 3 8 2 9 1 10 11 11 12 12 13 13
REMARK SMILES IDX 14 14 15 15 16 16 25 17 17 18 26 19 23 20 19 21 18 22 24 23
REMARK SMILES IDX 20 24 21 25 22 26
REMARK H PARENT
REMARK Flexibility Score: inf
ROOT
ATOM      1  C   UNL     1       8.036  74.543  -3.577  1.00  0.00     0.003 C 
ATOM      2  C   UNL     1       7.480  75.618  -3.001  1.00  0.00     0.001 C 
ENDROOT
BRANCH   1   3
ATOM      3  C   UNL     1       9.019  73.642  -2.926  1.00  0.00    -0.044 C 
ATOM      4  C   UNL     1       9.335  72.495  -3.561  1.00  0.00     0.096 C 
ATOM      5  C   UNL     1       9.730  74.099  -1.676  1.00  0.00     0.044 C 
BRANCH   4   6
ATOM      6  C   UNL     1      10.301  71.482  -3.086  1.00  0.00     0.330 C 
ATOM      7  O   UNL     1       9.923  70.653  -2.215  1.00  0.00    -0.247 OA
BRANCH   6   8
ATOM      8  O   UNL     1      11.620  71.457  -3.553  1.00  0.00    -0.463 OA
BRANCH   8   9
ATOM      9  C   UNL     1      12.269  72.584  -4.137  1.00  0.00     0.230 C 
ATOM     10  C   UNL     1      12.079  72.588  -5.648  1.00  0.00     0.049 C 
ENDBRANCH   8   9
ENDBRANCH   6   8
ENDBRANCH   4   6
ENDBRANCH   1   3
BRANCH   2  11
ATOM     11  C   UNL     1       7.656  75.975  -1.575  1.00  0.00     0.003 C 
ATOM     12  C   UNL     1       7.741  77.242  -1.131  1.00  0.00    -0.051 C 
ATOM     13  C   UNL     1       7.855  77.482   0.351  1.00  0.00     0.044 C 
BRANCH  12  14
ATOM     14  C   UNL     1       7.769  78.391  -2.073  1.00  0.00     0.004 C 
ATOM     15  C   UNL     1       8.823  79.199  -2.260  1.00  0.00     0.009 C 
BRANCH  15  16
ATOM     16  C   UNL     1      10.086  79.109  -1.489  1.00  0.00    -0.019 A 
ATOM     17  C   UNL     1      10.306  79.968  -0.380  1.00  0.00    -0.037 A 
ATOM     18  C   UNL     1      11.056  78.139  -1.831  1.00  0.00    -0.040 A 
ATOM     19  C   UNL     1       9.270  81.003   0.015  1.00  0.00     0.045 C 
ATOM     20  C   UNL     1      11.500  79.839   0.379  1.00  0.00    -0.005 A 
ATOM     21  C   UNL     1      12.262  78.087  -1.126  1.00  0.00     0.050 A 
ATOM     22  C   UNL     1      10.843  77.168  -2.968  1.00  0.00     0.045 C 
ATOM     23  C   UNL     1      11.747  80.716   1.588  1.00  0.00     0.049 C 
ATOM     24  C   UNL     1      12.496  78.928  -0.027  1.00  0.00     0.122 A 
BRANCH  24  25
ATOM     25  O   UNL     1      13.708  78.879   0.686  1.00  0.00    -0.496 OA
ATOM     26  C   UNL     1      15.000  78.797   0.091  1.00  0.00     0.278 C 
ENDBRANCH  24  25
ENDBRANCH  15  16
ENDBRANCH  12  14
ENDBRANCH   2  11
TORSDOF 8
ENDMDL
MODEL 13
REMARK VINA RESULT:    -7.155      3.600      7.176
REMARK INTER + INTRA:         -12.584
REMARK INTER:                 -11.587
REMARK INTRA:                  -0.996
REMARK UNBOUND:                -2.083
REMARK SMILES CCOC(=O)C=C(C)C=CC=C(C)C=Cc1c(C)cc(OC)c(C)c1C
REMARK SMILES IDX 9 1 10 2 7 3 6 4 8 5 4 6 5 7 3 8 2 9 1 10 11 11 12 12 13 13
REMARK SMILES IDX 14 14 15 15 16 16 25 17 17 18 26 19 23 20 19 21 18 22 24 23
REMARK SMILES IDX 20 24 21 25 22 26
REMARK H PARENT
REMARK Flexibility Score: inf
ROOT
ATOM      1  C   UNL     1      12.889  78.003  -3.624  1.00  0.00     0.003 C 
ATOM      2  C   UNL     1      12.027  77.825  -2.612  1.00  0.00     0.001 C 
ENDROOT
BRANCH   1   3
ATOM      3  C   UNL     1      13.814  79.155  -3.760  1.00  0.00    -0.044 C 
ATOM      4  C   UNL     1      13.830  79.812  -4.937  1.00  0.00     0.096 C 
ATOM      5  C   UNL     1      14.582  79.636  -2.553  1.00  0.00     0.044 C 
BRANCH   4   6
ATOM      6  C   UNL     1      14.663  80.990  -5.259  1.00  0.00     0.330 C 
ATOM      7  O   UNL     1      14.086  82.070  -5.559  1.00  0.00    -0.247 OA
BRANCH   6   8
ATOM      8  O   UNL     1      16.060  80.912  -5.275  1.00  0.00    -0.463 OA
BRANCH   8   9
ATOM      9  C   UNL     1      16.827  80.770  -6.469  1.00  0.00     0.230 C 
ATOM     10  C   UNL     1      17.158  79.305  -6.722  1.00  0.00     0.049 C 
ENDBRANCH   8   9
ENDBRANCH   6   8
ENDBRANCH   4   6
ENDBRANCH   1   3
BRANCH   2  11
ATOM     11  C   UNL     1      11.981  78.681  -1.405  1.00  0.00     0.003 C 
ATOM     12  C   UNL     1      11.131  79.713  -1.258  1.00  0.00    -0.051 C 
ATOM     13  C   UNL     1      11.134  80.472   0.043  1.00  0.00     0.044 C 
BRANCH  12  14
ATOM     14  C   UNL     1      10.232  80.138  -2.363  1.00  0.00     0.004 C 
ATOM     15  C   UNL     1       8.945  79.782  -2.479  1.00  0.00     0.009 C 
BRANCH  15  16
ATOM     16  C   UNL     1       8.257  78.842  -1.562  1.00  0.00    -0.019 A 
ATOM     17  C   UNL     1       8.325  77.444  -1.793  1.00  0.00    -0.037 A 
ATOM     18  C   UNL     1       7.566  79.336  -0.431  1.00  0.00    -0.040 A 
ATOM     19  C   UNL     1       9.077  76.892  -2.989  1.00  0.00     0.045 C 
ATOM     20  C   UNL     1       7.701  76.552  -0.879  1.00  0.00    -0.005 A 
ATOM     21  C   UNL     1       6.885  78.448   0.406  1.00  0.00     0.050 A 
ATOM     22  C   UNL     1       7.511  80.812  -0.114  1.00  0.00     0.045 C 
ATOM     23  C   UNL     1       7.787  75.054  -1.079  1.00  0.00     0.049 C 
ATOM     24  C   UNL     1       6.942  77.062   0.194  1.00  0.00     0.122 A 
BRANCH  24  25
ATOM     25  O   UNL     1       6.258  76.164   1.034  1.00  0.00    -0.496 OA
ATOM     26  C   UNL     1       5.170  75.339   0.629  1.00  0.00     0.278 C 
ENDBRANCH  24  25
ENDBRANCH  15  16
ENDBRANCH  12  14
ENDBRANCH   2  11
TORSDOF 8
ENDMDL
MODEL 14
REMARK VINA RESULT:    -7.139      4.067      7.445
REMARK INTER + INTRA:         -12.560
REMARK INTER:                 -10.734
REMARK INTRA:                  -1.826
REMARK UNBOUND:                -2.083
REMARK SMILES CCOC(=O)C=C(C)C=CC=C(C)C=Cc1c(C)cc(OC)c(C)c1C
REMARK SMILES IDX 9 1 10 2 7 3 6 4 8 5 4 6 5 7 3 8 2 9 1 10 11 11 12 12 13 13
REMARK SMILES IDX 14 14 15 15 16 16 25 17 17 18 26 19 23 20 19 21 18 22 24 23
REMARK SMILES IDX 20 24 21 25 22 26
REMARK H PARENT
REMARK Flexibility Score: inf
ROOT
ATOM      1  C   UNL     1      14.165  79.120  -3.233  1.00  0.00     0.003 C 
ATOM      2  C   UNL     1      12.981  79.165  -2.606  1.00  0.00     0.001 C 
ENDROOT
BRANCH   1   3
ATOM      3  C   UNL     1      14.426  79.639  -4.598  1.00  0.00    -0.044 C 
ATOM      4  C   UNL     1      15.046  80.831  -4.709  1.00  0.00     0.096 C 
ATOM      5  C   UNL     1      14.131  78.765  -5.792  1.00  0.00     0.044 C 
BRANCH   4   6
ATOM      6  C   UNL     1      15.409  81.502  -5.974  1.00  0.00     0.330 C 
ATOM      7  O   UNL     1      14.736  82.505  -6.337  1.00  0.00    -0.247 OA
BRANCH   6   8
ATOM      8  O   UNL     1      16.446  81.024  -6.782  1.00  0.00    -0.463 OA
BRANCH   8   9
ATOM      9  C   UNL     1      17.506  80.201  -6.298  1.00  0.00     0.230 C 
ATOM     10  C   UNL     1      17.591  78.910  -7.101  1.00  0.00     0.049 C 
ENDBRANCH   8   9
ENDBRANCH   6   8
ENDBRANCH   4   6
ENDBRANCH   1   3
BRANCH   2  11
ATOM     11  C   UNL     1      11.795  79.878  -3.132  1.00  0.00     0.003 C 
ATOM     12  C   UNL     1      10.868  80.459  -2.349  1.00  0.00    -0.051 C 
ATOM     13  C   UNL     1       9.739  81.211  -3.002  1.00  0.00     0.044 C 
BRANCH  12  14
ATOM     14  C   UNL     1      10.918  80.332  -0.869  1.00  0.00     0.004 C 
ATOM     15  C   UNL     1      10.384  79.319  -0.171  1.00  0.00     0.009 C 
BRANCH  15  16
ATOM     16  C   UNL     1       9.592  78.221  -0.775  1.00  0.00    -0.019 A 
ATOM     17  C   UNL     1      10.190  76.954  -1.002  1.00  0.00    -0.037 A 
ATOM     18  C   UNL     1       8.228  78.421  -1.087  1.00  0.00    -0.040 A 
ATOM     19  C   UNL     1      11.648  76.713  -0.656  1.00  0.00     0.045 C 
ATOM     20  C   UNL     1       9.407  75.895  -1.536  1.00  0.00    -0.005 A 
ATOM     21  C   UNL     1       7.499  77.394  -1.694  1.00  0.00     0.050 A 
ATOM     22  C   UNL     1       7.534  79.734  -0.814  1.00  0.00     0.045 C 
ATOM     23  C   UNL     1      10.007  74.523  -1.757  1.00  0.00     0.049 C 
ATOM     24  C   UNL     1       8.073  76.135  -1.925  1.00  0.00     0.122 A 
BRANCH  24  25
ATOM     25  O   UNL     1       7.343  75.099  -2.535  1.00  0.00    -0.496 OA
ATOM     26  C   UNL     1       6.790  75.155  -3.847  1.00  0.00     0.278 C 
ENDBRANCH  24  25
ENDBRANCH  15  16
ENDBRANCH  12  14
ENDBRANCH   2  11
TORSDOF 8
ENDMDL
MODEL 15
REMARK VINA RESULT:    -7.099      2.717      3.871
REMARK INTER + INTRA:         -12.502
REMARK INTER:                 -11.317
REMARK INTRA:                  -1.185
REMARK UNBOUND:                -2.083
REMARK SMILES CCOC(=O)C=C(C)C=CC=C(C)C=Cc1c(C)cc(OC)c(C)c1C
REMARK SMILES IDX 9 1 10 2 7 3 6 4 8 5 4 6 5 7 3 8 2 9 1 10 11 11 12 12 13 13
REMARK SMILES IDX 14 14 15 15 16 16 25 17 17 18 26 19 23 20 19 21 18 22 24 23
REMARK SMILES IDX 20 24 21 25 22 26
REMARK H PARENT
REMARK Flexibility Score: inf
ROOT
ATOM      1  C   UNL     1       8.840  77.025  -2.517  1.00  0.00     0.003 C 
ATOM      2  C   UNL     1       9.978  77.651  -2.185  1.00  0.00     0.001 C 
ENDROOT
BRANCH   1   3
ATOM      3  C   UNL     1       8.583  75.575  -2.338  1.00  0.00    -0.044 C 
ATOM      4  C   UNL     1       9.577  74.718  -2.646  1.00  0.00     0.096 C 
ATOM      5  C   UNL     1       7.297  75.125  -1.689  1.00  0.00     0.044 C 
BRANCH   4   6
ATOM      6  C   UNL     1       9.521  73.246  -2.517  1.00  0.00     0.330 C 
ATOM      7  O   UNL     1       9.977  72.718  -1.467  1.00  0.00    -0.247 OA
BRANCH   6   8
ATOM      8  O   UNL     1       9.015  72.443  -3.545  1.00  0.00    -0.463 OA
BRANCH   8   9
ATOM      9  C   UNL     1       9.667  71.265  -4.015  1.00  0.00     0.230 C 
ATOM     10  C   UNL     1       9.815  71.304  -5.531  1.00  0.00     0.049 C 
ENDBRANCH   8   9
ENDBRANCH   6   8
ENDBRANCH   4   6
ENDBRANCH   1   3
BRANCH   2  11
ATOM     11  C   UNL     1      11.090  77.007  -1.450  1.00  0.00     0.003 C 
ATOM     12  C   UNL     1      11.730  77.583  -0.415  1.00  0.00    -0.051 C 
ATOM     13  C   UNL     1      12.804  76.802   0.295  1.00  0.00     0.044 C 
BRANCH  12  14
ATOM     14  C   UNL     1      11.426  78.976   0.002  1.00  0.00     0.004 C 
ATOM     15  C   UNL     1      11.980  80.072  -0.537  1.00  0.00     0.009 C 
BRANCH  15  16
ATOM     16  C   UNL     1      13.040  80.044  -1.573  1.00  0.00    -0.019 A 
ATOM     17  C   UNL     1      12.706  80.243  -2.938  1.00  0.00    -0.037 A 
ATOM     18  C   UNL     1      14.391  79.860  -1.198  1.00  0.00    -0.040 A 
ATOM     19  C   UNL     1      11.265  80.460  -3.360  1.00  0.00     0.045 C 
ATOM     20  C   UNL     1      13.738  80.261  -3.916  1.00  0.00    -0.005 A 
ATOM     21  C   UNL     1      15.380  79.794  -2.184  1.00  0.00     0.050 A 
ATOM     22  C   UNL     1      14.800  79.699   0.247  1.00  0.00     0.045 C 
ATOM     23  C   UNL     1      13.417  80.505  -5.375  1.00  0.00     0.049 C 
ATOM     24  C   UNL     1      15.068  79.988  -3.538  1.00  0.00     0.122 A 
BRANCH  24  25
ATOM     25  O   UNL     1      16.060  79.922  -4.534  1.00  0.00    -0.496 OA
ATOM     26  C   UNL     1      16.925  80.996  -4.894  1.00  0.00     0.278 C 
ENDBRANCH  24  25
ENDBRANCH  15  16
ENDBRANCH  12  14
ENDBRANCH   2  11
TORSDOF 8
ENDMDL
