MODEL 1
REMARK VINA RESULT:    -7.118      0.000      0.000
REMARK INTER + INTRA:         -10.652
REMARK INTER:                  -9.615
REMARK INTRA:                  -1.036
REMARK UNBOUND:                -1.036
REMARK SMILES CN1CCC[C@@H]1CCO[C@](C)(c1ccccc1)c1ccc(Cl)cc1
REMARK SMILES IDX 8 1 7 2 6 3 1 4 2 5 3 6 4 7 5 8 9 9 10 10 11 11 12 12 13 13
REMARK SMILES IDX 17 14 14 15 16 16 15 17 18 18 19 19 24 20 20 21 23 22 21 23
REMARK SMILES IDX 22 24
REMARK H PARENT
REMARK Flexibility Score: inf
ROOT
ATOM      1  C   UNL     1      28.753  21.974   7.785  1.00  0.00     0.163 C 
ENDROOT
BRANCH   1   2
ATOM      2  C   UNL     1      28.767  20.991   8.969  1.00  0.00     0.047 C 
BRANCH   2   3
ATOM      3  C   UNL     1      27.524  20.076   9.182  1.00  0.00     0.058 C 
ATOM      4  C   UNL     1      28.807  18.291  10.316  1.00  0.00     0.105 C 
ATOM      5  N   UNL     1      27.586  19.119  10.306  1.00  0.00    -0.303 NA
ATOM      6  C   UNL     1      26.400  18.269  10.089  1.00  0.00     0.084 C 
ATOM      7  C   UNL     1      26.087  18.253   8.589  1.00  0.00     0.017 C 
ATOM      8  C   UNL     1      26.983  19.316   7.971  1.00  0.00     0.020 C 
ENDBRANCH   2   3
ENDBRANCH   1   2
BRANCH   1   9
ATOM      9  O   UNL     1      30.082  22.099   7.295  1.00  0.00    -0.366 OA
BRANCH   9  10
ATOM     10  C   UNL     1      30.236  23.061   6.249  1.00  0.00     0.115 C 
ATOM     11  C   UNL     1      28.871  23.358   5.562  1.00  0.00     0.053 C 
BRANCH  10  12
ATOM     12  C   UNL     1      31.330  22.575   5.281  1.00  0.00    -0.012 A 
ATOM     13  C   UNL     1      32.685  22.708   5.657  1.00  0.00     0.007 A 
ATOM     14  C   UNL     1      31.040  22.066   3.996  1.00  0.00     0.007 A 
ATOM     15  C   UNL     1      33.710  22.340   4.784  1.00  0.00     0.000 A 
ATOM     16  C   UNL     1      32.070  21.678   3.135  1.00  0.00     0.000 A 
ATOM     17  C   UNL     1      33.403  21.820   3.527  1.00  0.00     0.000 A 
ENDBRANCH  10  12
BRANCH  10  18
ATOM     18  C   UNL     1      30.703  24.379   6.883  1.00  0.00    -0.012 A 
ATOM     19  C   UNL     1      30.547  25.603   6.191  1.00  0.00     0.008 A 
ATOM     20  C   UNL     1      31.194  24.423   8.208  1.00  0.00     0.008 A 
ATOM     21  C   UNL     1      30.897  26.818   6.787  1.00  0.00     0.021 A 
ATOM     22  C   UNL     1      31.549  25.639   8.797  1.00  0.00     0.021 A 
ATOM     23  C   UNL     1      31.401  26.837   8.090  1.00  0.00     0.041 A 
ATOM     24  Cl  UNL     1      31.836  28.360   8.839  1.00  0.00    -0.084 Cl
ENDBRANCH  10  18
ENDBRANCH   9  10
ENDBRANCH   1   9
TORSDOF 6
ENDMDL
MODEL 2
REMARK VINA RESULT:    -7.078      2.405      4.405
REMARK INTER + INTRA:         -10.597
REMARK INTER:                  -9.197
REMARK INTRA:                  -1.399
REMARK UNBOUND:                -1.036
REMARK SMILES CN1CCC[C@@H]1CCO[C@](C)(c1ccccc1)c1ccc(Cl)cc1
REMARK SMILES IDX 8 1 7 2 6 3 1 4 2 5 3 6 4 7 5 8 9 9 10 10 11 11 12 12 13 13
REMARK SMILES IDX 17 14 14 15 16 16 15 17 18 18 19 19 24 20 20 21 23 22 21 23
REMARK SMILES IDX 22 24
REMARK H PARENT
REMARK Flexibility Score: inf
ROOT
ATOM      1  C   UNL     1      30.121  22.065   9.986  1.00  0.00     0.163 C 
ENDROOT
BRANCH   1   2
ATOM      2  C   UNL     1      28.708  21.547  10.309  1.00  0.00     0.047 C 
BRANCH   2   3
ATOM      3  C   UNL     1      28.162  20.334   9.497  1.00  0.00     0.058 C 
ATOM      4  C   UNL     1      25.859  20.556  10.369  1.00  0.00     0.105 C 
ATOM      5  N   UNL     1      26.717  20.333   9.190  1.00  0.00    -0.303 NA
ATOM      6  C   UNL     1      26.490  18.981   8.647  1.00  0.00     0.084 C 
ATOM      7  C   UNL     1      27.531  18.036   9.257  1.00  0.00     0.017 C 
ATOM      8  C   UNL     1      28.521  18.931   9.987  1.00  0.00     0.020 C 
ENDBRANCH   2   3
ENDBRANCH   1   2
BRANCH   1   9
ATOM      9  O   UNL     1      30.245  22.166   8.573  1.00  0.00    -0.366 OA
BRANCH   9  10
ATOM     10  C   UNL     1      30.570  23.476   8.103  1.00  0.00     0.115 C 
ATOM     11  C   UNL     1      31.485  24.220   9.119  1.00  0.00     0.053 C 
BRANCH  10  12
ATOM     12  C   UNL     1      29.266  24.224   7.772  1.00  0.00    -0.012 A 
ATOM     13  C   UNL     1      29.238  25.632   7.883  1.00  0.00     0.007 A 
ATOM     14  C   UNL     1      28.069  23.557   7.430  1.00  0.00     0.007 A 
ATOM     15  C   UNL     1      28.060  26.345   7.655  1.00  0.00     0.000 A 
ATOM     16  C   UNL     1      26.898  24.279   7.181  1.00  0.00     0.000 A 
ATOM     17  C   UNL     1      26.892  25.670   7.298  1.00  0.00     0.000 A 
ENDBRANCH  10  12
BRANCH  10  18
ATOM     18  C   UNL     1      31.383  23.327   6.809  1.00  0.00    -0.012 A 
ATOM     19  C   UNL     1      32.552  24.096   6.604  1.00  0.00     0.008 A 
ATOM     20  C   UNL     1      31.054  22.347   5.844  1.00  0.00     0.008 A 
ATOM     21  C   UNL     1      33.343  23.915   5.466  1.00  0.00     0.021 A 
ATOM     22  C   UNL     1      31.844  22.174   4.705  1.00  0.00     0.021 A 
ATOM     23  C   UNL     1      32.989  22.956   4.514  1.00  0.00     0.041 A 
ATOM     24  Cl  UNL     1      33.983  22.726   3.089  1.00  0.00    -0.084 Cl
ENDBRANCH  10  18
ENDBRANCH   9  10
ENDBRANCH   1   9
TORSDOF 6
ENDMDL
MODEL 3
REMARK VINA RESULT:    -7.065      3.287      6.866
REMARK INTER + INTRA:         -10.579
REMARK INTER:                  -8.898
REMARK INTRA:                  -1.681
REMARK UNBOUND:                -1.036
REMARK SMILES CN1CCC[C@@H]1CCO[C@](C)(c1ccccc1)c1ccc(Cl)cc1
REMARK SMILES IDX 8 1 7 2 6 3 1 4 2 5 3 6 4 7 5 8 9 9 10 10 11 11 12 12 13 13
REMARK SMILES IDX 17 14 14 15 16 16 15 17 18 18 19 19 24 20 20 21 23 22 21 23
REMARK SMILES IDX 22 24
REMARK H PARENT
REMARK Flexibility Score: inf
ROOT
ATOM      1  C   UNL     1      31.379  21.934   4.994  1.00  0.00     0.163 C 
ENDROOT
BRANCH   1   2
ATOM      2  C   UNL     1      32.883  22.206   5.177  1.00  0.00     0.047 C 
BRANCH   2   3
ATOM      3  C   UNL     1      33.473  23.519   4.579  1.00  0.00     0.058 C 
ATOM      4  C   UNL     1      34.827  22.348   2.874  1.00  0.00     0.105 C 
ATOM      5  N   UNL     1      33.917  23.470   3.171  1.00  0.00    -0.303 NA
ATOM      6  C   UNL     1      34.623  24.754   2.997  1.00  0.00     0.084 C 
ATOM      7  C   UNL     1      35.179  25.187   4.357  1.00  0.00     0.017 C 
ATOM      8  C   UNL     1      34.567  24.234   5.374  1.00  0.00     0.020 C 
ENDBRANCH   2   3
ENDBRANCH   1   2
BRANCH   1   9
ATOM      9  O   UNL     1      30.755  22.012   6.269  1.00  0.00    -0.366 OA
BRANCH   9  10
ATOM     10  C   UNL     1      29.718  22.992   6.357  1.00  0.00     0.115 C 
ATOM     11  C   UNL     1      28.894  23.050   5.037  1.00  0.00     0.053 C 
BRANCH  10  12
ATOM     12  C   UNL     1      30.338  24.340   6.766  1.00  0.00    -0.012 A 
ATOM     13  C   UNL     1      31.253  24.375   7.842  1.00  0.00     0.007 A 
ATOM     14  C   UNL     1      29.977  25.562   6.156  1.00  0.00     0.007 A 
ATOM     15  C   UNL     1      31.790  25.584   8.286  1.00  0.00     0.000 A 
ATOM     16  C   UNL     1      30.535  26.767   6.592  1.00  0.00     0.000 A 
ATOM     17  C   UNL     1      31.437  26.778   7.658  1.00  0.00     0.000 A 
ENDBRANCH  10  12
BRANCH  10  18
ATOM     18  C   UNL     1      28.745  22.554   7.461  1.00  0.00    -0.012 A 
ATOM     19  C   UNL     1      27.428  23.067   7.502  1.00  0.00     0.008 A 
ATOM     20  C   UNL     1      29.097  21.551   8.393  1.00  0.00     0.008 A 
ATOM     21  C   UNL     1      26.509  22.620   8.456  1.00  0.00     0.021 A 
ATOM     22  C   UNL     1      28.177  21.111   9.349  1.00  0.00     0.021 A 
ATOM     23  C   UNL     1      26.883  21.643   9.381  1.00  0.00     0.041 A 
ATOM     24  Cl  UNL     1      25.730  21.078  10.574  1.00  0.00    -0.084 Cl
ENDBRANCH  10  18
ENDBRANCH   9  10
ENDBRANCH   1   9
TORSDOF 6
ENDMDL
MODEL 4
REMARK VINA RESULT:    -6.983      3.775      7.386
REMARK INTER + INTRA:         -10.468
REMARK INTER:                  -9.060
REMARK INTRA:                  -1.409
REMARK UNBOUND:                -1.036
REMARK SMILES CN1CCC[C@@H]1CCO[C@](C)(c1ccccc1)c1ccc(Cl)cc1
REMARK SMILES IDX 8 1 7 2 6 3 1 4 2 5 3 6 4 7 5 8 9 9 10 10 11 11 12 12 13 13
REMARK SMILES IDX 17 14 14 15 16 16 15 17 18 18 19 19 24 20 20 21 23 22 21 23
REMARK SMILES IDX 22 24
REMARK H PARENT
REMARK Flexibility Score: inf
ROOT
ATOM      1  C   UNL     1      30.508  26.722   6.798  1.00  0.00     0.163 C 
ENDROOT
BRANCH   1   2
ATOM      2  C   UNL     1      31.117  27.710   5.789  1.00  0.00     0.047 C 
BRANCH   2   3
ATOM      3  C   UNL     1      32.622  28.087   5.941  1.00  0.00     0.058 C 
ATOM      4  C   UNL     1      32.189  30.520   6.041  1.00  0.00     0.105 C 
ATOM      5  N   UNL     1      32.923  29.372   6.605  1.00  0.00    -0.303 NA
ATOM      6  C   UNL     1      34.371  29.536   6.377  1.00  0.00     0.084 C 
ATOM      7  C   UNL     1      34.742  28.802   5.084  1.00  0.00     0.017 C 
ATOM      8  C   UNL     1      33.506  28.003   4.697  1.00  0.00     0.020 C 
ENDBRANCH   2   3
ENDBRANCH   1   2
BRANCH   1   9
ATOM      9  O   UNL     1      30.536  25.423   6.222  1.00  0.00    -0.366 OA
BRANCH   9  10
ATOM     10  C   UNL     1      31.187  24.435   7.024  1.00  0.00     0.115 C 
ATOM     11  C   UNL     1      31.742  25.064   8.336  1.00  0.00     0.053 C 
BRANCH  10  12
ATOM     12  C   UNL     1      32.254  23.724   6.173  1.00  0.00    -0.012 A 
ATOM     13  C   UNL     1      33.425  24.428   5.815  1.00  0.00     0.007 A 
ATOM     14  C   UNL     1      32.080  22.416   5.669  1.00  0.00     0.007 A 
ATOM     15  C   UNL     1      34.388  23.844   4.991  1.00  0.00     0.000 A 
ATOM     16  C   UNL     1      33.059  21.828   4.863  1.00  0.00     0.000 A 
ATOM     17  C   UNL     1      34.209  22.543   4.520  1.00  0.00     0.000 A 
ENDBRANCH  10  12
BRANCH  10  18
ATOM     18  C   UNL     1      30.136  23.399   7.446  1.00  0.00    -0.012 A 
ATOM     19  C   UNL     1      30.361  22.564   8.565  1.00  0.00     0.008 A 
ATOM     20  C   UNL     1      28.878  23.326   6.805  1.00  0.00     0.008 A 
ATOM     21  C   UNL     1      29.381  21.669   9.006  1.00  0.00     0.021 A 
ATOM     22  C   UNL     1      27.904  22.426   7.244  1.00  0.00     0.021 A 
ATOM     23  C   UNL     1      28.152  21.598   8.345  1.00  0.00     0.041 A 
ATOM     24  Cl  UNL     1      26.922  20.481   8.899  1.00  0.00    -0.084 Cl
ENDBRANCH  10  18
ENDBRANCH   9  10
ENDBRANCH   1   9
TORSDOF 6
ENDMDL
MODEL 5
REMARK VINA RESULT:    -6.888      2.837      6.654
REMARK INTER + INTRA:         -10.340
REMARK INTER:                  -9.044
REMARK INTRA:                  -1.296
REMARK UNBOUND:                -1.036
REMARK SMILES CN1CCC[C@@H]1CCO[C@](C)(c1ccccc1)c1ccc(Cl)cc1
REMARK SMILES IDX 8 1 7 2 6 3 1 4 2 5 3 6 4 7 5 8 9 9 10 10 11 11 12 12 13 13
REMARK SMILES IDX 17 14 14 15 16 16 15 17 18 18 19 19 24 20 20 21 23 22 21 23
REMARK SMILES IDX 22 24
REMARK H PARENT
REMARK Flexibility Score: inf
ROOT
ATOM      1  C   UNL     1      30.590  22.407   7.341  1.00  0.00     0.163 C 
ENDROOT
BRANCH   1   2
ATOM      2  C   UNL     1      30.683  22.569   5.814  1.00  0.00     0.047 C 
BRANCH   2   3
ATOM      3  C   UNL     1      31.956  23.245   5.219  1.00  0.00     0.058 C 
ATOM      4  C   UNL     1      33.355  21.217   5.438  1.00  0.00     0.105 C 
ATOM      5  N   UNL     1      32.951  22.353   4.588  1.00  0.00    -0.303 NA
ATOM      6  C   UNL     1      34.102  23.246   4.356  1.00  0.00     0.084 C 
ATOM      7  C   UNL     1      34.068  24.359   5.409  1.00  0.00     0.017 C 
ATOM      8  C   UNL     1      32.725  24.221   6.110  1.00  0.00     0.020 C 
ENDBRANCH   2   3
ENDBRANCH   1   2
BRANCH   1   9
ATOM      9  O   UNL     1      29.466  21.589   7.634  1.00  0.00    -0.366 OA
BRANCH   9  10
ATOM     10  C   UNL     1      28.839  21.875   8.886  1.00  0.00     0.115 C 
ATOM     11  C   UNL     1      29.902  22.083  10.005  1.00  0.00     0.053 C 
BRANCH  10  12
ATOM     12  C   UNL     1      27.815  20.768   9.196  1.00  0.00    -0.012 A 
ATOM     13  C   UNL     1      26.938  20.934  10.291  1.00  0.00     0.007 A 
ATOM     14  C   UNL     1      27.762  19.554   8.476  1.00  0.00     0.007 A 
ATOM     15  C   UNL     1      26.038  19.928  10.646  1.00  0.00     0.000 A 
ATOM     16  C   UNL     1      26.843  18.560   8.823  1.00  0.00     0.000 A 
ATOM     17  C   UNL     1      25.986  18.744   9.910  1.00  0.00     0.000 A 
ENDBRANCH  10  12
BRANCH  10  18
ATOM     18  C   UNL     1      28.085  23.204   8.746  1.00  0.00    -0.012 A 
ATOM     19  C   UNL     1      28.351  24.276   9.630  1.00  0.00     0.008 A 
ATOM     20  C   UNL     1      27.194  23.433   7.673  1.00  0.00     0.008 A 
ATOM     21  C   UNL     1      27.727  25.517   9.466  1.00  0.00     0.021 A 
ATOM     22  C   UNL     1      26.568  24.673   7.517  1.00  0.00     0.021 A 
ATOM     23  C   UNL     1      26.834  25.716   8.411  1.00  0.00     0.041 A 
ATOM     24  Cl  UNL     1      26.055  27.272   8.202  1.00  0.00    -0.084 Cl
ENDBRANCH  10  18
ENDBRANCH   9  10
ENDBRANCH   1   9
TORSDOF 6
ENDMDL
MODEL 6
REMARK VINA RESULT:    -6.848      3.494      5.211
REMARK INTER + INTRA:         -10.287
REMARK INTER:                  -8.539
REMARK INTRA:                  -1.748
REMARK UNBOUND:                -1.036
REMARK SMILES CN1CCC[C@@H]1CCO[C@](C)(c1ccccc1)c1ccc(Cl)cc1
REMARK SMILES IDX 8 1 7 2 6 3 1 4 2 5 3 6 4 7 5 8 9 9 10 10 11 11 12 12 13 13
REMARK SMILES IDX 17 14 14 15 16 16 15 17 18 18 19 19 24 20 20 21 23 22 21 23
REMARK SMILES IDX 22 24
REMARK H PARENT
REMARK Flexibility Score: inf
ROOT
ATOM      1  C   UNL     1      29.282  25.857   6.928  1.00  0.00     0.163 C 
ENDROOT
BRANCH   1   2
ATOM      2  C   UNL     1      27.751  25.699   6.950  1.00  0.00     0.047 C 
BRANCH   2   3
ATOM      3  C   UNL     1      27.073  25.260   8.283  1.00  0.00     0.058 C 
ATOM      4  C   UNL     1      25.712  27.316   8.477  1.00  0.00     0.105 C 
ATOM      5  N   UNL     1      25.750  25.845   8.581  1.00  0.00    -0.303 NA
ATOM      6  C   UNL     1      25.506  25.429   9.976  1.00  0.00     0.084 C 
ATOM      7  C   UNL     1      26.860  25.251  10.669  1.00  0.00     0.017 C 
ATOM      8  C   UNL     1      27.903  25.342   9.564  1.00  0.00     0.020 C 
ENDBRANCH   2   3
ENDBRANCH   1   2
BRANCH   1   9
ATOM      9  O   UNL     1      29.845  24.662   6.404  1.00  0.00    -0.366 OA
BRANCH   9  10
ATOM     10  C   UNL     1      30.794  24.030   7.266  1.00  0.00     0.115 C 
ATOM     11  C   UNL     1      31.276  25.011   8.375  1.00  0.00     0.053 C 
BRANCH  10  12
ATOM     12  C   UNL     1      31.933  23.445   6.411  1.00  0.00    -0.012 A 
ATOM     13  C   UNL     1      33.000  24.285   6.025  1.00  0.00     0.007 A 
ATOM     14  C   UNL     1      31.921  22.116   5.932  1.00  0.00     0.007 A 
ATOM     15  C   UNL     1      34.020  23.813   5.197  1.00  0.00     0.000 A 
ATOM     16  C   UNL     1      32.957  21.643   5.122  1.00  0.00     0.000 A 
ATOM     17  C   UNL     1      34.002  22.492   4.751  1.00  0.00     0.000 A 
ENDBRANCH  10  12
BRANCH  10  18
ATOM     18  C   UNL     1      30.085  22.873   7.983  1.00  0.00    -0.012 A 
ATOM     19  C   UNL     1      30.482  22.484   9.283  1.00  0.00     0.008 A 
ATOM     20  C   UNL     1      28.953  22.242   7.418  1.00  0.00     0.008 A 
ATOM     21  C   UNL     1      29.796  21.483   9.978  1.00  0.00     0.021 A 
ATOM     22  C   UNL     1      28.273  21.238   8.113  1.00  0.00     0.021 A 
ATOM     23  C   UNL     1      28.692  20.858   9.393  1.00  0.00     0.041 A 
ATOM     24  Cl  UNL     1      27.829  19.606  10.264  1.00  0.00    -0.084 Cl
ENDBRANCH  10  18
ENDBRANCH   9  10
ENDBRANCH   1   9
TORSDOF 6
ENDMDL
MODEL 7
REMARK VINA RESULT:    -6.843      3.218      5.557
REMARK INTER + INTRA:         -10.279
REMARK INTER:                  -8.249
REMARK INTRA:                  -2.030
REMARK UNBOUND:                -1.036
REMARK SMILES CN1CCC[C@@H]1CCO[C@](C)(c1ccccc1)c1ccc(Cl)cc1
REMARK SMILES IDX 8 1 7 2 6 3 1 4 2 5 3 6 4 7 5 8 9 9 10 10 11 11 12 12 13 13
REMARK SMILES IDX 17 14 14 15 16 16 15 17 18 18 19 19 24 20 20 21 23 22 21 23
REMARK SMILES IDX 22 24
REMARK H PARENT
REMARK Flexibility Score: inf
ROOT
ATOM      1  C   UNL     1      28.170  22.673   7.051  1.00  0.00     0.163 C 
ENDROOT
BRANCH   1   2
ATOM      2  C   UNL     1      27.061  23.715   7.282  1.00  0.00     0.047 C 
BRANCH   2   3
ATOM      3  C   UNL     1      27.390  24.959   8.163  1.00  0.00     0.058 C 
ATOM      4  C   UNL     1      25.596  24.497   9.802  1.00  0.00     0.105 C 
ATOM      5  N   UNL     1      27.002  24.888   9.586  1.00  0.00    -0.303 NA
ATOM      6  C   UNL     1      27.223  26.267  10.063  1.00  0.00     0.084 C 
ATOM      7  C   UNL     1      27.049  27.220   8.876  1.00  0.00     0.017 C 
ATOM      8  C   UNL     1      26.959  26.331   7.644  1.00  0.00     0.020 C 
ENDBRANCH   2   3
ENDBRANCH   1   2
BRANCH   1   9
ATOM      9  O   UNL     1      29.157  23.252   6.208  1.00  0.00    -0.366 OA
BRANCH   9  10
ATOM     10  C   UNL     1      30.455  23.347   6.799  1.00  0.00     0.115 C 
ATOM     11  C   UNL     1      30.635  22.277   7.916  1.00  0.00     0.053 C 
BRANCH  10  12
ATOM     12  C   UNL     1      30.681  24.793   7.277  1.00  0.00    -0.012 A 
ATOM     13  C   UNL     1      31.049  25.020   8.621  1.00  0.00     0.007 A 
ATOM     14  C   UNL     1      30.465  25.913   6.444  1.00  0.00     0.007 A 
ATOM     15  C   UNL     1      31.202  26.317   9.113  1.00  0.00     0.000 A 
ATOM     16  C   UNL     1      30.641  27.209   6.937  1.00  0.00     0.000 A 
ATOM     17  C   UNL     1      31.005  27.411   8.270  1.00  0.00     0.000 A 
ENDBRANCH  10  12
BRANCH  10  18
ATOM     18  C   UNL     1      31.493  23.028   5.715  1.00  0.00    -0.012 A 
ATOM     19  C   UNL     1      31.102  22.402   4.509  1.00  0.00     0.008 A 
ATOM     20  C   UNL     1      32.838  23.446   5.841  1.00  0.00     0.008 A 
ATOM     21  C   UNL     1      32.024  22.175   3.482  1.00  0.00     0.021 A 
ATOM     22  C   UNL     1      33.757  23.211   4.815  1.00  0.00     0.021 A 
ATOM     23  C   UNL     1      33.353  22.577   3.635  1.00  0.00     0.041 A 
ATOM     24  Cl  UNL     1      34.508  22.297   2.348  1.00  0.00    -0.084 Cl
ENDBRANCH  10  18
ENDBRANCH   9  10
ENDBRANCH   1   9
TORSDOF 6
ENDMDL
MODEL 8
REMARK VINA RESULT:    -6.841      3.420      7.076
REMARK INTER + INTRA:         -10.277
REMARK INTER:                  -8.868
REMARK INTRA:                  -1.409
REMARK UNBOUND:                -1.036
REMARK SMILES CN1CCC[C@@H]1CCO[C@](C)(c1ccccc1)c1ccc(Cl)cc1
REMARK SMILES IDX 8 1 7 2 6 3 1 4 2 5 3 6 4 7 5 8 9 9 10 10 11 11 12 12 13 13
REMARK SMILES IDX 17 14 14 15 16 16 15 17 18 18 19 19 24 20 20 21 23 22 21 23
REMARK SMILES IDX 22 24
REMARK H PARENT
REMARK Flexibility Score: inf
ROOT
ATOM      1  C   UNL     1      31.455  24.927   6.683  1.00  0.00     0.163 C 
ENDROOT
BRANCH   1   2
ATOM      2  C   UNL     1      32.832  24.309   6.383  1.00  0.00     0.047 C 
BRANCH   2   3
ATOM      3  C   UNL     1      33.120  23.818   4.932  1.00  0.00     0.058 C 
ATOM      4  C   UNL     1      32.533  21.465   5.418  1.00  0.00     0.105 C 
ATOM      5  N   UNL     1      32.409  22.602   4.486  1.00  0.00    -0.303 NA
ATOM      6  C   UNL     1      33.067  22.280   3.206  1.00  0.00     0.084 C 
ATOM      7  C   UNL     1      34.502  22.812   3.253  1.00  0.00     0.017 C 
ATOM      8  C   UNL     1      34.582  23.667   4.510  1.00  0.00     0.020 C 
ENDBRANCH   2   3
ENDBRANCH   1   2
BRANCH   1   9
ATOM      9  O   UNL     1      30.825  24.145   7.688  1.00  0.00    -0.366 OA
BRANCH   9  10
ATOM     10  C   UNL     1      29.449  23.854   7.432  1.00  0.00     0.115 C 
ATOM     11  C   UNL     1      29.214  23.565   5.920  1.00  0.00     0.053 C 
BRANCH  10  12
ATOM     12  C   UNL     1      28.585  25.000   7.990  1.00  0.00    -0.012 A 
ATOM     13  C   UNL     1      27.404  25.362   7.306  1.00  0.00     0.007 A 
ATOM     14  C   UNL     1      28.962  25.758   9.121  1.00  0.00     0.007 A 
ATOM     15  C   UNL     1      26.625  26.436   7.741  1.00  0.00     0.000 A 
ATOM     16  C   UNL     1      28.166  26.819   9.564  1.00  0.00     0.000 A 
ATOM     17  C   UNL     1      27.002  27.160   8.872  1.00  0.00     0.000 A 
ENDBRANCH  10  12
BRANCH  10  18
ATOM     18  C   UNL     1      29.088  22.567   8.186  1.00  0.00    -0.012 A 
ATOM     19  C   UNL     1      27.994  21.773   7.768  1.00  0.00     0.008 A 
ATOM     20  C   UNL     1      29.897  22.082   9.239  1.00  0.00     0.008 A 
ATOM     21  C   UNL     1      27.702  20.560   8.397  1.00  0.00     0.021 A 
ATOM     22  C   UNL     1      29.597  20.871   9.870  1.00  0.00     0.021 A 
ATOM     23  C   UNL     1      28.501  20.108   9.450  1.00  0.00     0.041 A 
ATOM     24  Cl  UNL     1      28.138  18.586  10.237  1.00  0.00    -0.084 Cl
ENDBRANCH  10  18
ENDBRANCH   9  10
ENDBRANCH   1   9
TORSDOF 6
ENDMDL
MODEL 9
REMARK VINA RESULT:    -6.702      1.692      2.453
REMARK INTER + INTRA:         -10.089
REMARK INTER:                  -8.423
REMARK INTRA:                  -1.666
REMARK UNBOUND:                -1.036
REMARK SMILES CN1CCC[C@@H]1CCO[C@](C)(c1ccccc1)c1ccc(Cl)cc1
REMARK SMILES IDX 8 1 7 2 6 3 1 4 2 5 3 6 4 7 5 8 9 9 10 10 11 11 12 12 13 13
REMARK SMILES IDX 17 14 14 15 16 16 15 17 18 18 19 19 24 20 20 21 23 22 21 23
REMARK SMILES IDX 22 24
REMARK H PARENT
REMARK Flexibility Score: inf
ROOT
ATOM      1  C   UNL     1      29.376  21.773   7.712  1.00  0.00     0.163 C 
ENDROOT
BRANCH   1   2
ATOM      2  C   UNL     1      29.379  21.905   9.245  1.00  0.00     0.047 C 
BRANCH   2   3
ATOM      3  C   UNL     1      28.480  23.001   9.893  1.00  0.00     0.058 C 
ATOM      4  C   UNL     1      26.462  21.571   9.941  1.00  0.00     0.105 C 
ATOM      5  N   UNL     1      27.313  22.532  10.668  1.00  0.00    -0.303 NA
ATOM      6  C   UNL     1      26.563  23.775  10.930  1.00  0.00     0.084 C 
ATOM      7  C   UNL     1      26.862  24.765   9.800  1.00  0.00     0.017 C 
ATOM      8  C   UNL     1      27.999  24.146   9.001  1.00  0.00     0.020 C 
ENDBRANCH   2   3
ENDBRANCH   1   2
BRANCH   1   9
ATOM      9  O   UNL     1      30.665  22.131   7.231  1.00  0.00    -0.366 OA
BRANCH   9  10
ATOM     10  C   UNL     1      30.655  23.126   6.205  1.00  0.00     0.115 C 
ATOM     11  C   UNL     1      29.238  23.258   5.573  1.00  0.00     0.053 C 
BRANCH  10  12
ATOM     12  C   UNL     1      31.765  22.803   5.187  1.00  0.00    -0.012 A 
ATOM     13  C   UNL     1      33.094  23.179   5.482  1.00  0.00     0.007 A 
ATOM     14  C   UNL     1      31.500  22.211   3.932  1.00  0.00     0.007 A 
ATOM     15  C   UNL     1      34.120  22.964   4.561  1.00  0.00     0.000 A 
ATOM     16  C   UNL     1      32.536  21.979   3.023  1.00  0.00     0.000 A 
ATOM     17  C   UNL     1      33.843  22.359   3.335  1.00  0.00     0.000 A 
ENDBRANCH  10  12
BRANCH  10  18
ATOM     18  C   UNL     1      30.973  24.479   6.854  1.00  0.00    -0.012 A 
ATOM     19  C   UNL     1      30.561  25.685   6.239  1.00  0.00     0.008 A 
ATOM     20  C   UNL     1      31.582  24.558   8.127  1.00  0.00     0.008 A 
ATOM     21  C   UNL     1      30.777  26.920   6.857  1.00  0.00     0.021 A 
ATOM     22  C   UNL     1      31.802  25.795   8.738  1.00  0.00     0.021 A 
ATOM     23  C   UNL     1      31.400  26.977   8.106  1.00  0.00     0.041 A 
ATOM     24  Cl  UNL     1      31.667  28.524   8.883  1.00  0.00    -0.084 Cl
ENDBRANCH  10  18
ENDBRANCH   9  10
ENDBRANCH   1   9
TORSDOF 6
ENDMDL
MODEL 10
REMARK VINA RESULT:    -6.692      3.014      5.187
REMARK INTER + INTRA:         -10.075
REMARK INTER:                  -8.089
REMARK INTRA:                  -1.987
REMARK UNBOUND:                -1.036
REMARK SMILES CN1CCC[C@@H]1CCO[C@](C)(c1ccccc1)c1ccc(Cl)cc1
REMARK SMILES IDX 8 1 7 2 6 3 1 4 2 5 3 6 4 7 5 8 9 9 10 10 11 11 12 12 13 13
REMARK SMILES IDX 17 14 14 15 16 16 15 17 18 18 19 19 24 20 20 21 23 22 21 23
REMARK SMILES IDX 22 24
REMARK H PARENT
REMARK Flexibility Score: inf
ROOT
ATOM      1  C   UNL     1      26.770  23.966  10.438  1.00  0.00     0.163 C 
ENDROOT
BRANCH   1   2
ATOM      2  C   UNL     1      25.926  23.383  11.585  1.00  0.00     0.047 C 
BRANCH   2   3
ATOM      3  C   UNL     1      24.953  22.208  11.262  1.00  0.00     0.058 C 
ATOM      4  C   UNL     1      23.447  22.696  13.161  1.00  0.00     0.105 C 
ATOM      5  N   UNL     1      23.560  22.349  11.732  1.00  0.00    -0.303 NA
ATOM      6  C   UNL     1      22.987  21.012  11.489  1.00  0.00     0.084 C 
ATOM      7  C   UNL     1      24.120  19.982  11.560  1.00  0.00     0.017 C 
ATOM      8  C   UNL     1      25.408  20.791  11.612  1.00  0.00     0.020 C 
ENDBRANCH   2   3
ENDBRANCH   1   2
BRANCH   1   9
ATOM      9  O   UNL     1      27.857  23.084  10.191  1.00  0.00    -0.366 OA
BRANCH   9  10
ATOM     10  C   UNL     1      27.870  22.518   8.879  1.00  0.00     0.115 C 
ATOM     11  C   UNL     1      26.688  23.067   8.026  1.00  0.00     0.053 C 
BRANCH  10  12
ATOM     12  C   UNL     1      27.894  20.983   8.998  1.00  0.00    -0.012 A 
ATOM     13  C   UNL     1      27.001  20.222   8.213  1.00  0.00     0.007 A 
ATOM     14  C   UNL     1      28.725  20.303   9.916  1.00  0.00     0.007 A 
ATOM     15  C   UNL     1      26.945  18.833   8.336  1.00  0.00     0.000 A 
ATOM     16  C   UNL     1      28.679  18.909  10.019  1.00  0.00     0.000 A 
ATOM     17  C   UNL     1      27.787  18.176   9.233  1.00  0.00     0.000 A 
ENDBRANCH  10  12
BRANCH  10  18
ATOM     18  C   UNL     1      29.160  22.969   8.181  1.00  0.00    -0.012 A 
ATOM     19  C   UNL     1      30.043  23.871   8.819  1.00  0.00     0.008 A 
ATOM     20  C   UNL     1      29.556  22.416   6.942  1.00  0.00     0.008 A 
ATOM     21  C   UNL     1      31.258  24.231   8.227  1.00  0.00     0.021 A 
ATOM     22  C   UNL     1      30.768  22.783   6.351  1.00  0.00     0.021 A 
ATOM     23  C   UNL     1      31.621  23.689   6.992  1.00  0.00     0.041 A 
ATOM     24  Cl  UNL     1      33.145  24.135   6.252  1.00  0.00    -0.084 Cl
ENDBRANCH  10  18
ENDBRANCH   9  10
ENDBRANCH   1   9
TORSDOF 6
ENDMDL
MODEL 11
REMARK VINA RESULT:    -6.642      2.348      4.646
REMARK INTER + INTRA:         -10.008
REMARK INTER:                  -8.571
REMARK INTRA:                  -1.437
REMARK UNBOUND:                -1.036
REMARK SMILES CN1CCC[C@@H]1CCO[C@](C)(c1ccccc1)c1ccc(Cl)cc1
REMARK SMILES IDX 8 1 7 2 6 3 1 4 2 5 3 6 4 7 5 8 9 9 10 10 11 11 12 12 13 13
REMARK SMILES IDX 17 14 14 15 16 16 15 17 18 18 19 19 24 20 20 21 23 22 21 23
REMARK SMILES IDX 22 24
REMARK H PARENT
REMARK Flexibility Score: inf
ROOT
ATOM      1  C   UNL     1      28.593  24.068   7.973  1.00  0.00     0.163 C 
ENDROOT
BRANCH   1   2
ATOM      2  C   UNL     1      27.508  23.123   7.426  1.00  0.00     0.047 C 
BRANCH   2   3
ATOM      3  C   UNL     1      27.454  21.665   7.974  1.00  0.00     0.058 C 
ATOM      4  C   UNL     1      25.971  22.240   9.868  1.00  0.00     0.105 C 
ATOM      5  N   UNL     1      26.267  21.297   8.772  1.00  0.00    -0.303 NA
ATOM      6  C   UNL     1      26.630  19.978   9.324  1.00  0.00     0.084 C 
ATOM      7  C   UNL     1      28.155  19.909   9.444  1.00  0.00     0.017 C 
ATOM      8  C   UNL     1      28.681  21.139   8.718  1.00  0.00     0.020 C 
ENDBRANCH   2   3
ENDBRANCH   1   2
BRANCH   1   9
ATOM      9  O   UNL     1      29.472  24.400   6.907  1.00  0.00    -0.366 OA
BRANCH   9  10
ATOM     10  C   UNL     1      30.828  24.614   7.307  1.00  0.00     0.115 C 
ATOM     11  C   UNL     1      31.125  23.906   8.662  1.00  0.00     0.053 C 
BRANCH  10  12
ATOM     12  C   UNL     1      31.113  26.126   7.317  1.00  0.00    -0.012 A 
ATOM     13  C   UNL     1      31.523  26.738   8.522  1.00  0.00     0.007 A 
ATOM     14  C   UNL     1      30.911  26.948   6.186  1.00  0.00     0.007 A 
ATOM     15  C   UNL     1      31.730  28.116   8.592  1.00  0.00     0.000 A 
ATOM     16  C   UNL     1      31.142  28.325   6.256  1.00  0.00     0.000 A 
ATOM     17  C   UNL     1      31.546  28.908   7.459  1.00  0.00     0.000 A 
ENDBRANCH  10  12
BRANCH  10  18
ATOM     18  C   UNL     1      31.739  23.957   6.261  1.00  0.00    -0.012 A 
ATOM     19  C   UNL     1      31.199  23.093   5.280  1.00  0.00     0.008 A 
ATOM     20  C   UNL     1      33.113  24.280   6.178  1.00  0.00     0.008 A 
ATOM     21  C   UNL     1      32.005  22.550   4.275  1.00  0.00     0.021 A 
ATOM     22  C   UNL     1      33.917  23.730   5.176  1.00  0.00     0.021 A 
ATOM     23  C   UNL     1      33.365  22.865   4.223  1.00  0.00     0.041 A 
ATOM     24  Cl  UNL     1      34.376  22.188   2.963  1.00  0.00    -0.084 Cl
ENDBRANCH  10  18
ENDBRANCH   9  10
ENDBRANCH   1   9
TORSDOF 6
ENDMDL
MODEL 12
REMARK VINA RESULT:    -6.633      3.676      7.571
REMARK INTER + INTRA:          -9.996
REMARK INTER:                  -8.463
REMARK INTRA:                  -1.533
REMARK UNBOUND:                -1.036
REMARK SMILES CN1CCC[C@@H]1CCO[C@](C)(c1ccccc1)c1ccc(Cl)cc1
REMARK SMILES IDX 8 1 7 2 6 3 1 4 2 5 3 6 4 7 5 8 9 9 10 10 11 11 12 12 13 13
REMARK SMILES IDX 17 14 14 15 16 16 15 17 18 18 19 19 24 20 20 21 23 22 21 23
REMARK SMILES IDX 22 24
REMARK H PARENT
REMARK Flexibility Score: inf
ROOT
ATOM      1  C   UNL     1      30.194  26.762   7.028  1.00  0.00     0.163 C 
ENDROOT
BRANCH   1   2
ATOM      2  C   UNL     1      30.978  27.942   7.628  1.00  0.00     0.047 C 
BRANCH   2   3
ATOM      3  C   UNL     1      32.310  28.369   6.941  1.00  0.00     0.058 C 
ATOM      4  C   UNL     1      31.546  30.677   6.485  1.00  0.00     0.105 C 
ATOM      5  N   UNL     1      32.639  29.809   6.962  1.00  0.00    -0.303 NA
ATOM      6  C   UNL     1      33.795  29.902   6.050  1.00  0.00     0.084 C 
ATOM      7  C   UNL     1      33.693  28.768   5.026  1.00  0.00     0.017 C 
ATOM      8  C   UNL     1      32.570  27.867   5.521  1.00  0.00     0.020 C 
ENDBRANCH   2   3
ENDBRANCH   1   2
BRANCH   1   9
ATOM      9  O   UNL     1      30.760  25.555   7.519  1.00  0.00    -0.366 OA
BRANCH   9  10
ATOM     10  C   UNL     1      30.296  24.375   6.860  1.00  0.00     0.115 C 
ATOM     11  C   UNL     1      29.131  24.708   5.882  1.00  0.00     0.053 C 
BRANCH  10  12
ATOM     12  C   UNL     1      29.938  23.319   7.921  1.00  0.00    -0.012 A 
ATOM     13  C   UNL     1      30.641  23.314   9.146  1.00  0.00     0.007 A 
ATOM     14  C   UNL     1      28.983  22.303   7.695  1.00  0.00     0.007 A 
ATOM     15  C   UNL     1      30.393  22.335  10.110  1.00  0.00     0.000 A 
ATOM     16  C   UNL     1      28.724  21.339   8.673  1.00  0.00     0.000 A 
ATOM     17  C   UNL     1      29.431  21.352   9.877  1.00  0.00     0.000 A 
ENDBRANCH  10  12
BRANCH  10  18
ATOM     18  C   UNL     1      31.445  23.828   6.003  1.00  0.00    -0.012 A 
ATOM     19  C   UNL     1      31.187  22.907   4.960  1.00  0.00     0.008 A 
ATOM     20  C   UNL     1      32.766  24.307   6.153  1.00  0.00     0.008 A 
ATOM     21  C   UNL     1      32.213  22.459   4.123  1.00  0.00     0.021 A 
ATOM     22  C   UNL     1      33.790  23.852   5.318  1.00  0.00     0.021 A 
ATOM     23  C   UNL     1      33.516  22.930   4.302  1.00  0.00     0.041 A 
ATOM     24  Cl  UNL     1      34.802  22.373   3.251  1.00  0.00    -0.084 Cl
ENDBRANCH  10  18
ENDBRANCH   9  10
ENDBRANCH   1   9
TORSDOF 6
ENDMDL
MODEL 13
REMARK VINA RESULT:    -6.495      3.373      5.478
REMARK INTER + INTRA:          -9.809
REMARK INTER:                  -7.996
REMARK INTRA:                  -1.814
REMARK UNBOUND:                -1.036
REMARK SMILES CN1CCC[C@@H]1CCO[C@](C)(c1ccccc1)c1ccc(Cl)cc1
REMARK SMILES IDX 8 1 7 2 6 3 1 4 2 5 3 6 4 7 5 8 9 9 10 10 11 11 12 12 13 13
REMARK SMILES IDX 17 14 14 15 16 16 15 17 18 18 19 19 24 20 20 21 23 22 21 23
REMARK SMILES IDX 22 24
REMARK H PARENT
REMARK Flexibility Score: inf
ROOT
ATOM      1  C   UNL     1      29.791  26.409   7.945  1.00  0.00     0.163 C 
ENDROOT
BRANCH   1   2
ATOM      2  C   UNL     1      29.240  26.432   9.382  1.00  0.00     0.047 C 
BRANCH   2   3
ATOM      3  C   UNL     1      27.699  26.561   9.580  1.00  0.00     0.058 C 
ATOM      4  C   UNL     1      27.469  24.344  10.651  1.00  0.00     0.105 C 
ATOM      5  N   UNL     1      27.100  25.772  10.676  1.00  0.00    -0.303 NA
ATOM      6  C   UNL     1      25.651  25.924  10.445  1.00  0.00     0.084 C 
ATOM      7  C   UNL     1      25.424  26.160   8.948  1.00  0.00     0.017 C 
ATOM      8  C   UNL     1      26.807  26.381   8.352  1.00  0.00     0.020 C 
ENDBRANCH   2   3
ENDBRANCH   1   2
BRANCH   1   9
ATOM      9  O   UNL     1      30.641  25.277   7.812  1.00  0.00    -0.366 OA
BRANCH   9  10
ATOM     10  C   UNL     1      30.119  24.243   6.975  1.00  0.00     0.115 C 
ATOM     11  C   UNL     1      29.034  24.805   6.010  1.00  0.00     0.053 C 
BRANCH  10  12
ATOM     12  C   UNL     1      29.628  23.084   7.861  1.00  0.00    -0.012 A 
ATOM     13  C   UNL     1      30.409  22.691   8.970  1.00  0.00     0.007 A 
ATOM     14  C   UNL     1      28.460  22.344   7.570  1.00  0.00     0.007 A 
ATOM     15  C   UNL     1      30.034  21.605   9.762  1.00  0.00     0.000 A 
ATOM     16  C   UNL     1      28.078  21.271   8.380  1.00  0.00     0.000 A 
ATOM     17  C   UNL     1      28.866  20.899   9.471  1.00  0.00     0.000 A 
ENDBRANCH  10  12
BRANCH  10  18
ATOM     18  C   UNL     1      31.264  23.725   6.093  1.00  0.00    -0.012 A 
ATOM     19  C   UNL     1      31.008  22.790   5.063  1.00  0.00     0.008 A 
ATOM     20  C   UNL     1      32.573  24.245   6.209  1.00  0.00     0.008 A 
ATOM     21  C   UNL     1      32.027  22.368   4.203  1.00  0.00     0.021 A 
ATOM     22  C   UNL     1      33.590  23.815   5.353  1.00  0.00     0.021 A 
ATOM     23  C   UNL     1      33.320  22.879   4.349  1.00  0.00     0.041 A 
ATOM     24  Cl  UNL     1      34.597  22.354   3.270  1.00  0.00    -0.084 Cl
ENDBRANCH  10  18
ENDBRANCH   9  10
ENDBRANCH   1   9
TORSDOF 6
ENDMDL
MODEL 14
REMARK VINA RESULT:    -6.403      3.168      4.891
REMARK INTER + INTRA:          -9.686
REMARK INTER:                  -7.654
REMARK INTRA:                  -2.032
REMARK UNBOUND:                -1.036
REMARK SMILES CN1CCC[C@@H]1CCO[C@](C)(c1ccccc1)c1ccc(Cl)cc1
REMARK SMILES IDX 8 1 7 2 6 3 1 4 2 5 3 6 4 7 5 8 9 9 10 10 11 11 12 12 13 13
REMARK SMILES IDX 17 14 14 15 16 16 15 17 18 18 19 19 24 20 20 21 23 22 21 23
REMARK SMILES IDX 22 24
REMARK H PARENT
REMARK Flexibility Score: inf
ROOT
ATOM      1  C   UNL     1      27.349  24.919   7.555  1.00  0.00     0.163 C 
ENDROOT
BRANCH   1   2
ATOM      2  C   UNL     1      26.919  25.210   9.003  1.00  0.00     0.047 C 
BRANCH   2   3
ATOM      3  C   UNL     1      26.129  24.109   9.774  1.00  0.00     0.058 C 
ATOM      4  C   UNL     1      24.822  25.729  11.110  1.00  0.00     0.105 C 
ATOM      5  N   UNL     1      24.806  24.491  10.309  1.00  0.00    -0.303 NA
ATOM      6  C   UNL     1      24.445  23.342  11.161  1.00  0.00     0.084 C 
ATOM      7  C   UNL     1      25.737  22.689  11.663  1.00  0.00     0.017 C 
ATOM      8  C   UNL     1      26.862  23.350  10.880  1.00  0.00     0.020 C 
ENDBRANCH   2   3
ENDBRANCH   1   2
BRANCH   1   9
ATOM      9  O   UNL     1      28.751  24.688   7.544  1.00  0.00    -0.366 OA
BRANCH   9  10
ATOM     10  C   UNL     1      29.139  23.443   6.959  1.00  0.00     0.115 C 
ATOM     11  C   UNL     1      28.304  23.147   5.678  1.00  0.00     0.053 C 
BRANCH  10  12
ATOM     12  C   UNL     1      29.053  22.340   8.030  1.00  0.00    -0.012 A 
ATOM     13  C   UNL     1      29.991  22.336   9.085  1.00  0.00     0.007 A 
ATOM     14  C   UNL     1      28.117  21.284   7.963  1.00  0.00     0.007 A 
ATOM     15  C   UNL     1      29.989  21.319  10.041  1.00  0.00     0.000 A 
ATOM     16  C   UNL     1      28.106  20.281   8.936  1.00  0.00     0.000 A 
ATOM     17  C   UNL     1      29.044  20.296   9.971  1.00  0.00     0.000 A 
ENDBRANCH  10  12
BRANCH  10  18
ATOM     18  C   UNL     1      30.602  23.566   6.509  1.00  0.00    -0.012 A 
ATOM     19  C   UNL     1      31.216  22.525   5.775  1.00  0.00     0.008 A 
ATOM     20  C   UNL     1      31.336  24.756   6.716  1.00  0.00     0.008 A 
ATOM     21  C   UNL     1      32.522  22.655   5.293  1.00  0.00     0.021 A 
ATOM     22  C   UNL     1      32.643  24.880   6.238  1.00  0.00     0.021 A 
ATOM     23  C   UNL     1      33.238  23.832   5.526  1.00  0.00     0.041 A 
ATOM     24  Cl  UNL     1      34.873  23.999   4.920  1.00  0.00    -0.084 Cl
ENDBRANCH  10  18
ENDBRANCH   9  10
ENDBRANCH   1   9
TORSDOF 6
ENDMDL
MODEL 15
REMARK VINA RESULT:    -6.384      2.245      4.570
REMARK INTER + INTRA:          -9.660
REMARK INTER:                  -8.368
REMARK INTRA:                  -1.292
REMARK UNBOUND:                -1.036
REMARK SMILES CN1CCC[C@@H]1CCO[C@](C)(c1ccccc1)c1ccc(Cl)cc1
REMARK SMILES IDX 8 1 7 2 6 3 1 4 2 5 3 6 4 7 5 8 9 9 10 10 11 11 12 12 13 13
REMARK SMILES IDX 17 14 14 15 16 16 15 17 18 18 19 19 24 20 20 21 23 22 21 23
REMARK SMILES IDX 22 24
REMARK H PARENT
REMARK Flexibility Score: inf
ROOT
ATOM      1  C   UNL     1      28.199  22.749   9.311  1.00  0.00     0.163 C 
ENDROOT
BRANCH   1   2
ATOM      2  C   UNL     1      26.994  21.956   8.778  1.00  0.00     0.047 C 
BRANCH   2   3
ATOM      3  C   UNL     1      27.012  20.404   8.917  1.00  0.00     0.058 C 
ATOM      4  C   UNL     1      25.497  20.380  10.871  1.00  0.00     0.105 C 
ATOM      5  N   UNL     1      25.843  19.779   9.569  1.00  0.00    -0.303 NA
ATOM      6  C   UNL     1      26.270  18.380   9.755  1.00  0.00     0.084 C 
ATOM      7  C   UNL     1      27.797  18.355   9.877  1.00  0.00     0.017 C 
ATOM      8  C   UNL     1      28.262  19.757   9.514  1.00  0.00     0.020 C 
ENDBRANCH   2   3
ENDBRANCH   1   2
BRANCH   1   9
ATOM      9  O   UNL     1      28.714  23.544   8.251  1.00  0.00    -0.366 OA
BRANCH   9  10
ATOM     10  C   UNL     1      30.071  23.954   8.427  1.00  0.00     0.115 C 
ATOM     11  C   UNL     1      30.723  23.214   9.632  1.00  0.00     0.053 C 
BRANCH  10  12
ATOM     12  C   UNL     1      30.119  25.489   8.538  1.00  0.00    -0.012 A 
ATOM     13  C   UNL     1      31.036  26.082   9.434  1.00  0.00     0.007 A 
ATOM     14  C   UNL     1      29.232  26.333   7.833  1.00  0.00     0.007 A 
ATOM     15  C   UNL     1      31.069  27.466   9.613  1.00  0.00     0.000 A 
ATOM     16  C   UNL     1      29.285  27.719   8.000  1.00  0.00     0.000 A 
ATOM     17  C   UNL     1      30.199  28.285   8.892  1.00  0.00     0.000 A 
ENDBRANCH  10  12
BRANCH  10  18
ATOM     18  C   UNL     1      30.858  23.535   7.178  1.00  0.00    -0.012 A 
ATOM     19  C   UNL     1      30.279  22.668   6.223  1.00  0.00     0.008 A 
ATOM     20  C   UNL     1      32.128  24.086   6.891  1.00  0.00     0.008 A 
ATOM     21  C   UNL     1      30.955  22.339   5.044  1.00  0.00     0.021 A 
ATOM     22  C   UNL     1      32.803  23.750   5.715  1.00  0.00     0.021 A 
ATOM     23  C   UNL     1      32.218  22.878   4.789  1.00  0.00     0.041 A 
ATOM     24  Cl  UNL     1      33.065  22.470   3.310  1.00  0.00    -0.084 Cl
ENDBRANCH  10  18
ENDBRANCH   9  10
ENDBRANCH   1   9
TORSDOF 6
ENDMDL
