MODEL 1
REMARK VINA RESULT:    -8.974      0.000      0.000
REMARK INTER + INTRA:         -12.282
REMARK INTER:                 -11.860
REMARK INTRA:                  -0.422
REMARK UNBOUND:                -0.422
REMARK SMILES CN1[C@@H]2CC[C@H]1C[C@@H](OC(=O)[C@H](CO)c1ccccc1)C2
REMARK SMILES IDX 10 1 11 2 9 3 8 4 1 5 2 6 6 7 3 8 5 9 7 10 4 11 21 12 12 13
REMARK SMILES IDX 13 14 14 15 15 17 16 18 20 19 17 20 19 21 18 22
REMARK H PARENT 14 16
REMARK Flexibility Score: inf
ROOT
ATOM      1  C   UNL     1       8.885  75.087  -1.704  1.00  0.00     0.316 C 
ATOM      2  O   UNL     1       8.036  74.823  -0.807  1.00  0.00    -0.251 OA
ENDROOT
BRANCH   1   3
ATOM      3  O   UNL     1      10.143  75.597  -1.364  1.00  0.00    -0.462 OA
BRANCH   3   4
ATOM      4  C   UNL     1      10.373  76.966  -1.025  1.00  0.00     0.179 C 
ATOM      5  C   UNL     1      11.656  80.872  -0.581  1.00  0.00     0.105 C 
ATOM      6  N   UNL     1      11.274  79.468  -0.815  1.00  0.00    -0.300 NA
ATOM      7  C   UNL     1      10.903  79.211  -2.212  1.00  0.00     0.060 C 
ATOM      8  C   UNL     1      12.397  78.540  -0.634  1.00  0.00     0.060 C 
ATOM      9  C   UNL     1      12.223  79.057  -2.984  1.00  0.00     0.021 C 
ATOM     10  C   UNL     1      10.090  77.887  -2.249  1.00  0.00     0.064 C 
ATOM     11  C   UNL     1      13.224  78.613  -1.929  1.00  0.00     0.021 C 
ATOM     12  C   UNL     1      11.808  77.115  -0.441  1.00  0.00     0.064 C 
ENDBRANCH   3   4
ENDBRANCH   1   3
BRANCH   1  13
ATOM     13  C   UNL     1       8.582  74.802  -3.150  1.00  0.00     0.155 C 
BRANCH  13  14
ATOM     14  C   UNL     1       7.095  75.026  -3.489  1.00  0.00     0.176 C 
BRANCH  14  15
ATOM     15  O   UNL     1       6.913  76.260  -4.131  1.00  0.00    -0.395 OA
ATOM     16  H   UNL     1       5.957  76.501  -4.020  1.00  0.00     0.210 HD
ENDBRANCH  14  15
ENDBRANCH  13  14
BRANCH  13  17
ATOM     17  C   UNL     1       9.023  73.398  -3.515  1.00  0.00    -0.032 A 
ATOM     18  C   UNL     1       9.473  72.498  -2.528  1.00  0.00     0.005 A 
ATOM     19  C   UNL     1       8.989  72.975  -4.857  1.00  0.00     0.005 A 
ATOM     20  C   UNL     1       9.878  71.207  -2.881  1.00  0.00     0.000 A 
ATOM     21  C   UNL     1       9.396  71.683  -5.203  1.00  0.00     0.000 A 
ATOM     22  C   UNL     1       9.839  70.800  -4.216  1.00  0.00     0.000 A 
ENDBRANCH  13  17
ENDBRANCH   1  13
TORSDOF 6
ENDMDL
MODEL 2
REMARK VINA RESULT:    -8.799      0.845      1.697
REMARK INTER + INTRA:         -12.051
REMARK INTER:                 -11.532
REMARK INTRA:                  -0.519
REMARK UNBOUND:                -0.422
REMARK SMILES CN1[C@@H]2CC[C@H]1C[C@@H](OC(=O)[C@H](CO)c1ccccc1)C2
REMARK SMILES IDX 10 1 11 2 9 3 8 4 1 5 2 6 6 7 3 8 5 9 7 10 4 11 21 12 12 13
REMARK SMILES IDX 13 14 14 15 15 17 16 18 20 19 17 20 19 21 18 22
REMARK H PARENT 14 16
REMARK Flexibility Score: inf
ROOT
ATOM      1  C   UNL     1       8.201  75.195  -1.552  1.00  0.00     0.316 C 
ATOM      2  O   UNL     1       7.371  74.536  -0.865  1.00  0.00    -0.251 OA
ENDROOT
BRANCH   1   3
ATOM      3  O   UNL     1       9.008  76.168  -0.953  1.00  0.00    -0.462 OA
BRANCH   3   4
ATOM      4  C   UNL     1       9.951  76.963  -1.673  1.00  0.00     0.179 C 
ATOM      5  C   UNL     1      12.608  79.779  -3.126  1.00  0.00     0.105 C 
ATOM      6  N   UNL     1      11.652  78.835  -2.520  1.00  0.00    -0.300 NA
ATOM      7  C   UNL     1      12.105  78.334  -1.216  1.00  0.00     0.060 C 
ATOM      8  C   UNL     1      10.380  79.474  -2.162  1.00  0.00     0.060 C 
ATOM      9  C   UNL     1      11.778  79.436  -0.196  1.00  0.00     0.021 C 
ATOM     10  C   UNL     1      11.302  77.041  -0.902  1.00  0.00     0.064 C 
ATOM     11  C   UNL     1      10.627  80.201  -0.830  1.00  0.00     0.021 C 
ATOM     12  C   UNL     1       9.320  78.351  -1.983  1.00  0.00     0.064 C 
ENDBRANCH   3   4
ENDBRANCH   1   3
BRANCH   1  13
ATOM     13  C   UNL     1       8.379  74.903  -3.019  1.00  0.00     0.155 C 
BRANCH  13  14
ATOM     14  C   UNL     1       7.069  75.079  -3.811  1.00  0.00     0.176 C 
BRANCH  14  15
ATOM     15  O   UNL     1       6.957  76.391  -4.298  1.00  0.00    -0.395 OA
ATOM     16  H   UNL     1       6.225  76.823  -3.785  1.00  0.00     0.210 HD
ENDBRANCH  14  15
ENDBRANCH  13  14
BRANCH  13  17
ATOM     17  C   UNL     1       8.956  73.515  -3.214  1.00  0.00    -0.032 A 
ATOM     18  C   UNL     1       9.505  72.797  -2.132  1.00  0.00     0.005 A 
ATOM     19  C   UNL     1       8.951  72.923  -4.491  1.00  0.00     0.005 A 
ATOM     20  C   UNL     1      10.035  71.518  -2.329  1.00  0.00     0.000 A 
ATOM     21  C   UNL     1       9.483  71.644  -4.681  1.00  0.00     0.000 A 
ATOM     22  C   UNL     1      10.024  70.943  -3.601  1.00  0.00     0.000 A 
ENDBRANCH  13  17
ENDBRANCH   1  13
TORSDOF 6
ENDMDL
MODEL 3
REMARK VINA RESULT:    -8.691      1.428      2.195
REMARK INTER + INTRA:         -11.908
REMARK INTER:                 -11.405
REMARK INTRA:                  -0.503
REMARK UNBOUND:                -0.422
REMARK SMILES CN1[C@@H]2CC[C@H]1C[C@@H](OC(=O)[C@H](CO)c1ccccc1)C2
REMARK SMILES IDX 10 1 11 2 9 3 8 4 1 5 2 6 6 7 3 8 5 9 7 10 4 11 21 12 12 13
REMARK SMILES IDX 13 14 14 15 15 17 16 18 20 19 17 20 19 21 18 22
REMARK H PARENT 14 16
REMARK Flexibility Score: inf
ROOT
ATOM      1  C   UNL     1       9.632  75.249  -2.058  1.00  0.00     0.316 C 
ATOM      2  O   UNL     1      10.253  74.635  -1.146  1.00  0.00    -0.251 OA
ENDROOT
BRANCH   1   3
ATOM      3  O   UNL     1      10.045  76.522  -2.466  1.00  0.00    -0.462 OA
BRANCH   3   4
ATOM      4  C   UNL     1      10.182  77.630  -1.575  1.00  0.00     0.179 C 
ATOM      5  C   UNL     1      10.124  81.234   0.451  1.00  0.00     0.105 C 
ATOM      6  N   UNL     1      10.080  79.994  -0.343  1.00  0.00    -0.300 NA
ATOM      7  C   UNL     1       8.711  79.499  -0.540  1.00  0.00     0.060 C 
ATOM      8  C   UNL     1      10.519  80.197  -1.730  1.00  0.00     0.060 C 
ATOM      9  C   UNL     1       8.111  80.339  -1.679  1.00  0.00     0.021 C 
ATOM     10  C   UNL     1       8.804  78.004  -0.952  1.00  0.00     0.064 C 
ATOM     11  C   UNL     1       9.320  80.809  -2.472  1.00  0.00     0.021 C 
ATOM     12  C   UNL     1      10.876  78.805  -2.322  1.00  0.00     0.064 C 
ENDBRANCH   3   4
ENDBRANCH   1   3
BRANCH   1  13
ATOM     13  C   UNL     1       8.471  74.599  -2.762  1.00  0.00     0.155 C 
BRANCH  13  14
ATOM     14  C   UNL     1       7.305  74.291  -1.802  1.00  0.00     0.176 C 
BRANCH  14  15
ATOM     15  O   UNL     1       7.575  74.790  -0.519  1.00  0.00    -0.395 OA
ATOM     16  H   UNL     1       6.925  75.521  -0.354  1.00  0.00     0.210 HD
ENDBRANCH  14  15
ENDBRANCH  13  14
BRANCH  13  17
ATOM     17  C   UNL     1       8.928  73.349  -3.488  1.00  0.00    -0.032 A 
ATOM     18  C   UNL     1       9.462  72.252  -2.782  1.00  0.00     0.005 A 
ATOM     19  C   UNL     1       8.824  73.271  -4.890  1.00  0.00     0.005 A 
ATOM     20  C   UNL     1       9.881  71.107  -3.467  1.00  0.00     0.000 A 
ATOM     21  C   UNL     1       9.245  72.123  -5.568  1.00  0.00     0.000 A 
ATOM     22  C   UNL     1       9.772  71.042  -4.857  1.00  0.00     0.000 A 
ENDBRANCH  13  17
ENDBRANCH   1  13
TORSDOF 6
ENDMDL
MODEL 4
REMARK VINA RESULT:    -8.669      1.549      2.072
REMARK INTER + INTRA:         -11.878
REMARK INTER:                 -11.183
REMARK INTRA:                  -0.695
REMARK UNBOUND:                -0.422
REMARK SMILES CN1[C@@H]2CC[C@H]1C[C@@H](OC(=O)[C@H](CO)c1ccccc1)C2
REMARK SMILES IDX 10 1 11 2 9 3 8 4 1 5 2 6 6 7 3 8 5 9 7 10 4 11 21 12 12 13
REMARK SMILES IDX 13 14 14 15 15 17 16 18 20 19 17 20 19 21 18 22
REMARK H PARENT 14 16
REMARK Flexibility Score: inf
ROOT
ATOM      1  C   UNL     1       7.752  74.539  -1.455  1.00  0.00     0.316 C 
ATOM      2  O   UNL     1       6.664  73.996  -1.114  1.00  0.00    -0.251 OA
ENDROOT
BRANCH   1   3
ATOM      3  O   UNL     1       8.666  74.970  -0.488  1.00  0.00    -0.462 OA
BRANCH   3   4
ATOM      4  C   UNL     1       8.859  76.342  -0.141  1.00  0.00     0.179 C 
ATOM      5  C   UNL     1       9.307  80.448   0.065  1.00  0.00     0.105 C 
ATOM      6  N   UNL     1       9.126  78.996  -0.113  1.00  0.00    -0.300 NA
ATOM      7  C   UNL     1       7.806  78.656  -0.658  1.00  0.00     0.060 C 
ATOM      8  C   UNL     1      10.018  78.438  -1.136  1.00  0.00     0.060 C 
ATOM      9  C   UNL     1       7.889  78.905  -2.172  1.00  0.00     0.021 C 
ATOM     10  C   UNL     1       7.546  77.152  -0.364  1.00  0.00     0.064 C 
ATOM     11  C   UNL     1       9.370  78.764  -2.492  1.00  0.00     0.021 C 
ATOM     12  C   UNL     1      10.085  76.900  -0.918  1.00  0.00     0.064 C 
ENDBRANCH   3   4
ENDBRANCH   1   3
BRANCH   1  13
ATOM     13  C   UNL     1       8.110  74.680  -2.911  1.00  0.00     0.155 C 
BRANCH  13  14
ATOM     14  C   UNL     1       6.890  75.045  -3.779  1.00  0.00     0.176 C 
BRANCH  14  15
ATOM     15  O   UNL     1       7.000  76.359  -4.259  1.00  0.00    -0.395 OA
ATOM     16  H   UNL     1       6.564  76.945  -3.587  1.00  0.00     0.210 HD
ENDBRANCH  14  15
ENDBRANCH  13  14
BRANCH  13  17
ATOM     17  C   UNL     1       8.783  73.417  -3.412  1.00  0.00    -0.032 A 
ATOM     18  C   UNL     1       9.418  72.528  -2.521  1.00  0.00     0.005 A 
ATOM     19  C   UNL     1       8.782  73.116  -4.787  1.00  0.00     0.005 A 
ATOM     20  C   UNL     1      10.035  71.368  -2.999  1.00  0.00     0.000 A 
ATOM     21  C   UNL     1       9.401  71.955  -5.259  1.00  0.00     0.000 A 
ATOM     22  C   UNL     1      10.026  71.082  -4.366  1.00  0.00     0.000 A 
ENDBRANCH  13  17
ENDBRANCH   1  13
TORSDOF 6
ENDMDL
MODEL 5
REMARK VINA RESULT:    -8.592      2.522      6.297
REMARK INTER + INTRA:         -11.776
REMARK INTER:                 -10.913
REMARK INTRA:                  -0.863
REMARK UNBOUND:                -0.422
REMARK SMILES CN1[C@@H]2CC[C@H]1C[C@@H](OC(=O)[C@H](CO)c1ccccc1)C2
REMARK SMILES IDX 10 1 11 2 9 3 8 4 1 5 2 6 6 7 3 8 5 9 7 10 4 11 21 12 12 13
REMARK SMILES IDX 13 14 14 15 15 17 16 18 20 19 17 20 19 21 18 22
REMARK H PARENT 14 16
REMARK Flexibility Score: inf
ROOT
ATOM      1  C   UNL     1       7.269  74.975  -1.379  1.00  0.00     0.316 C 
ATOM      2  O   UNL     1       6.395  75.210  -2.259  1.00  0.00    -0.251 OA
ENDROOT
BRANCH   1   3
ATOM      3  O   UNL     1       8.065  73.827  -1.456  1.00  0.00    -0.462 OA
BRANCH   3   4
ATOM      4  C   UNL     1       9.207  73.715  -2.307  1.00  0.00     0.179 C 
ATOM      5  C   UNL     1      12.205  72.658  -4.952  1.00  0.00     0.105 C 
ATOM      6  N   UNL     1      11.088  72.943  -4.034  1.00  0.00    -0.300 NA
ATOM      7  C   UNL     1       9.786  72.935  -4.712  1.00  0.00     0.060 C 
ATOM      8  C   UNL     1      10.901  71.889  -3.029  1.00  0.00     0.060 C 
ATOM      9  C   UNL     1       9.387  71.457  -4.857  1.00  0.00     0.021 C 
ATOM     10  C   UNL     1       8.774  73.688  -3.803  1.00  0.00     0.064 C 
ATOM     11  C   UNL     1      10.137  70.757  -3.734  1.00  0.00     0.021 C 
ATOM     12  C   UNL     1      10.052  72.484  -1.871  1.00  0.00     0.064 C 
ENDBRANCH   3   4
ENDBRANCH   1   3
BRANCH   1  13
ATOM     13  C   UNL     1       7.511  75.955  -0.263  1.00  0.00     0.155 C 
BRANCH  13  14
ATOM     14  C   UNL     1       6.240  76.215   0.571  1.00  0.00     0.176 C 
BRANCH  14  15
ATOM     15  O   UNL     1       5.337  75.150   0.442  1.00  0.00    -0.395 OA
ATOM     16  H   UNL     1       5.830  74.326   0.691  1.00  0.00     0.210 HD
ENDBRANCH  14  15
ENDBRANCH  13  14
BRANCH  13  17
ATOM     17  C   UNL     1       8.082  77.248  -0.811  1.00  0.00    -0.032 A 
ATOM     18  C   UNL     1       9.261  77.252  -1.583  1.00  0.00     0.005 A 
ATOM     19  C   UNL     1       7.436  78.471  -0.550  1.00  0.00     0.005 A 
ATOM     20  C   UNL     1       9.777  78.453  -2.081  1.00  0.00     0.000 A 
ATOM     21  C   UNL     1       7.956  79.668  -1.051  1.00  0.00     0.000 A 
ATOM     22  C   UNL     1       9.125  79.659  -1.816  1.00  0.00     0.000 A 
ENDBRANCH  13  17
ENDBRANCH   1  13
TORSDOF 6
ENDMDL
MODEL 6
REMARK VINA RESULT:    -8.481      1.644      2.286
REMARK INTER + INTRA:         -11.630
REMARK INTER:                 -11.208
REMARK INTRA:                  -0.423
REMARK UNBOUND:                -0.422
REMARK SMILES CN1[C@@H]2CC[C@H]1C[C@@H](OC(=O)[C@H](CO)c1ccccc1)C2
REMARK SMILES IDX 10 1 11 2 9 3 8 4 1 5 2 6 6 7 3 8 5 9 7 10 4 11 21 12 12 13
REMARK SMILES IDX 13 14 14 15 15 17 16 18 20 19 17 20 19 21 18 22
REMARK H PARENT 14 16
REMARK Flexibility Score: inf
ROOT
ATOM      1  C   UNL     1       7.910  75.137  -1.664  1.00  0.00     0.316 C 
ATOM      2  O   UNL     1       7.184  74.316  -1.037  1.00  0.00    -0.251 OA
ENDROOT
BRANCH   1   3
ATOM      3  O   UNL     1       8.384  76.293  -1.034  1.00  0.00    -0.462 OA
BRANCH   3   4
ATOM      4  C   UNL     1       8.449  77.569  -1.673  1.00  0.00     0.179 C 
ATOM      5  C   UNL     1       8.984  81.505  -2.822  1.00  0.00     0.105 C 
ATOM      6  N   UNL     1       8.844  80.126  -2.322  1.00  0.00    -0.300 NA
ATOM      7  C   UNL     1      10.136  79.514  -1.988  1.00  0.00     0.060 C 
ATOM      8  C   UNL     1       8.149  80.064  -1.030  1.00  0.00     0.060 C 
ATOM      9  C   UNL     1      10.523  80.057  -0.603  1.00  0.00     0.021 C 
ATOM     10  C   UNL     1       9.930  77.975  -1.935  1.00  0.00     0.064 C 
ATOM     11  C   UNL     1       9.194  80.429   0.036  1.00  0.00     0.021 C 
ATOM     12  C   UNL     1       7.650  78.605  -0.830  1.00  0.00     0.064 C 
ENDBRANCH   3   4
ENDBRANCH   1   3
BRANCH   1  13
ATOM     13  C   UNL     1       8.328  74.858  -3.083  1.00  0.00     0.155 C 
BRANCH  13  14
ATOM     14  C   UNL     1       7.139  74.910  -4.062  1.00  0.00     0.176 C 
BRANCH  14  15
ATOM     15  O   UNL     1       6.817  76.238  -4.380  1.00  0.00    -0.395 OA
ATOM     16  H   UNL     1       7.664  76.681  -4.645  1.00  0.00     0.210 HD
ENDBRANCH  14  15
ENDBRANCH  13  14
BRANCH  13  17
ATOM     17  C   UNL     1       9.051  73.528  -3.168  1.00  0.00    -0.032 A 
ATOM     18  C   UNL     1       9.750  73.009  -2.059  1.00  0.00     0.005 A 
ATOM     19  C   UNL     1       9.031  72.790  -4.366  1.00  0.00     0.005 A 
ATOM     20  C   UNL     1      10.413  71.781  -2.154  1.00  0.00     0.000 A 
ATOM     21  C   UNL     1       9.696  71.563  -4.453  1.00  0.00     0.000 A 
ATOM     22  C   UNL     1      10.386  71.059  -3.348  1.00  0.00     0.000 A 
ENDBRANCH  13  17
ENDBRANCH   1  13
TORSDOF 6
ENDMDL
MODEL 7
REMARK VINA RESULT:    -8.469      1.217      2.330
REMARK INTER + INTRA:         -11.614
REMARK INTER:                 -11.067
REMARK INTRA:                  -0.547
REMARK UNBOUND:                -0.422
REMARK SMILES CN1[C@@H]2CC[C@H]1C[C@@H](OC(=O)[C@H](CO)c1ccccc1)C2
REMARK SMILES IDX 10 1 11 2 9 3 8 4 1 5 2 6 6 7 3 8 5 9 7 10 4 11 21 12 12 13
REMARK SMILES IDX 13 14 14 15 15 17 16 18 20 19 17 20 19 21 18 22
REMARK H PARENT 14 16
REMARK Flexibility Score: inf
ROOT
ATOM      1  C   UNL     1       9.239  75.786  -2.691  1.00  0.00     0.316 C 
ATOM      2  O   UNL     1       8.196  76.415  -3.025  1.00  0.00    -0.251 OA
ENDROOT
BRANCH   1   3
ATOM      3  O   UNL     1      10.505  76.315  -2.963  1.00  0.00    -0.462 OA
BRANCH   3   4
ATOM      4  C   UNL     1      10.900  77.641  -2.604  1.00  0.00     0.179 C 
ATOM      5  C   UNL     1      12.598  81.098  -1.100  1.00  0.00     0.105 C 
ATOM      6  N   UNL     1      12.067  79.811  -1.583  1.00  0.00    -0.300 NA
ATOM      7  C   UNL     1      13.077  79.015  -2.290  1.00  0.00     0.060 C 
ATOM      8  C   UNL     1      11.697  78.907  -0.486  1.00  0.00     0.060 C 
ATOM      9  C   UNL     1      13.930  78.341  -1.203  1.00  0.00     0.021 C 
ATOM     10  C   UNL     1      12.330  77.949  -3.139  1.00  0.00     0.064 C 
ATOM     11  C   UNL     1      13.009  78.273   0.005  1.00  0.00     0.021 C 
ATOM     12  C   UNL     1      10.748  77.821  -1.067  1.00  0.00     0.064 C 
ENDBRANCH   3   4
ENDBRANCH   1   3
BRANCH   1  13
ATOM     13  C   UNL     1       9.139  74.484  -1.943  1.00  0.00     0.155 C 
BRANCH  13  14
ATOM     14  C   UNL     1      10.132  74.410  -0.766  1.00  0.00     0.176 C 
BRANCH  14  15
ATOM     15  O   UNL     1       9.512  74.801   0.430  1.00  0.00    -0.395 OA
ATOM     16  H   UNL     1      10.126  75.444   0.871  1.00  0.00     0.210 HD
ENDBRANCH  14  15
ENDBRANCH  13  14
BRANCH  13  17
ATOM     17  C   UNL     1       9.323  73.315  -2.891  1.00  0.00    -0.032 A 
ATOM     18  C   UNL     1       8.970  73.421  -4.252  1.00  0.00     0.005 A 
ATOM     19  C   UNL     1       9.852  72.100  -2.418  1.00  0.00     0.005 A 
ATOM     20  C   UNL     1       9.145  72.334  -5.114  1.00  0.00     0.000 A 
ATOM     21  C   UNL     1      10.023  71.017  -3.285  1.00  0.00     0.000 A 
ATOM     22  C   UNL     1       9.671  71.134  -4.632  1.00  0.00     0.000 A 
ENDBRANCH  13  17
ENDBRANCH   1  13
TORSDOF 6
ENDMDL
MODEL 8
REMARK VINA RESULT:    -8.273      5.691      9.376
REMARK INTER + INTRA:         -11.355
REMARK INTER:                 -10.599
REMARK INTRA:                  -0.757
REMARK UNBOUND:                -0.422
REMARK SMILES CN1[C@@H]2CC[C@H]1C[C@@H](OC(=O)[C@H](CO)c1ccccc1)C2
REMARK SMILES IDX 10 1 11 2 9 3 8 4 1 5 2 6 6 7 3 8 5 9 7 10 4 11 21 12 12 13
REMARK SMILES IDX 13 14 14 15 15 17 16 18 20 19 17 20 19 21 18 22
REMARK H PARENT 14 16
REMARK Flexibility Score: inf
ROOT
ATOM      1  C   UNL     1      15.414  80.730  -5.598  1.00  0.00     0.316 C 
ATOM      2  O   UNL     1      14.825  81.837  -5.743  1.00  0.00    -0.251 OA
ENDROOT
BRANCH   1   3
ATOM      3  O   UNL     1      15.104  79.895  -4.519  1.00  0.00    -0.462 OA
BRANCH   3   4
ATOM      4  C   UNL     1      14.237  80.277  -3.450  1.00  0.00     0.179 C 
ATOM      5  C   UNL     1      11.583  80.581  -0.293  1.00  0.00     0.105 C 
ATOM      6  N   UNL     1      12.519  80.367  -1.411  1.00  0.00    -0.300 NA
ATOM      7  C   UNL     1      13.662  79.527  -1.034  1.00  0.00     0.060 C 
ATOM      8  C   UNL     1      11.926  79.582  -2.500  1.00  0.00     0.060 C 
ATOM      9  C   UNL     1      13.161  78.075  -1.078  1.00  0.00     0.021 C 
ATOM     10  C   UNL     1      14.782  79.751  -2.089  1.00  0.00     0.064 C 
ATOM     11  C   UNL     1      11.996  78.112  -2.055  1.00  0.00     0.021 C 
ATOM     12  C   UNL     1      12.789  79.810  -3.773  1.00  0.00     0.064 C 
ENDBRANCH   3   4
ENDBRANCH   1   3
BRANCH   1  13
ATOM     13  C   UNL     1      16.420  80.262  -6.615  1.00  0.00     0.155 C 
BRANCH  13  14
ATOM     14  C   UNL     1      16.714  78.754  -6.494  1.00  0.00     0.176 C 
BRANCH  14  15
ATOM     15  O   UNL     1      15.520  78.020  -6.435  1.00  0.00    -0.395 OA
ATOM     16  H   UNL     1      14.807  78.656  -6.166  1.00  0.00     0.210 HD
ENDBRANCH  14  15
ENDBRANCH  13  14
BRANCH  13  17
ATOM     17  C   UNL     1      17.693  81.079  -6.513  1.00  0.00    -0.032 A 
ATOM     18  C   UNL     1      18.276  81.662  -7.656  1.00  0.00     0.005 A 
ATOM     19  C   UNL     1      18.313  81.265  -5.263  1.00  0.00     0.005 A 
ATOM     20  C   UNL     1      19.451  82.412  -7.545  1.00  0.00     0.000 A 
ATOM     21  C   UNL     1      19.488  82.016  -5.160  1.00  0.00     0.000 A 
ATOM     22  C   UNL     1      20.056  82.589  -6.299  1.00  0.00     0.000 A 
ENDBRANCH  13  17
ENDBRANCH   1  13
TORSDOF 6
ENDMDL
MODEL 9
REMARK VINA RESULT:    -8.229      3.371      6.787
REMARK INTER + INTRA:         -11.297
REMARK INTER:                 -10.582
REMARK INTRA:                  -0.715
REMARK UNBOUND:                -0.422
REMARK SMILES CN1[C@@H]2CC[C@H]1C[C@@H](OC(=O)[C@H](CO)c1ccccc1)C2
REMARK SMILES IDX 10 1 11 2 9 3 8 4 1 5 2 6 6 7 3 8 5 9 7 10 4 11 21 12 12 13
REMARK SMILES IDX 13 14 14 15 15 17 16 18 20 19 17 20 19 21 18 22
REMARK H PARENT 14 16
REMARK Flexibility Score: inf
ROOT
ATOM      1  C   UNL     1      12.573  80.057  -1.423  1.00  0.00     0.316 C 
ATOM      2  O   UNL     1      12.627  81.144  -0.782  1.00  0.00    -0.251 OA
ENDROOT
BRANCH   1   3
ATOM      3  O   UNL     1      11.370  79.628  -1.995  1.00  0.00    -0.462 OA
BRANCH   3   4
ATOM      4  C   UNL     1      10.397  78.850  -1.295  1.00  0.00     0.179 C 
ATOM      5  C   UNL     1       7.435  76.270  -0.003  1.00  0.00     0.105 C 
ATOM      6  N   UNL     1       8.481  77.146  -0.561  1.00  0.00    -0.300 NA
ATOM      7  C   UNL     1       9.582  76.391  -1.170  1.00  0.00     0.060 C 
ATOM      8  C   UNL     1       8.004  77.939  -1.701  1.00  0.00     0.060 C 
ATOM      9  C   UNL     1       9.092  75.966  -2.563  1.00  0.00     0.021 C 
ATOM     10  C   UNL     1      10.803  77.346  -1.287  1.00  0.00     0.064 C 
ATOM     11  C   UNL     1       8.032  76.998  -2.917  1.00  0.00     0.021 C 
ATOM     12  C   UNL     1       8.991  79.122  -1.902  1.00  0.00     0.064 C 
ENDBRANCH   3   4
ENDBRANCH   1   3
BRANCH   1  13
ATOM     13  C   UNL     1      13.814  79.233  -1.633  1.00  0.00     0.155 C 
BRANCH  13  14
ATOM     14  C   UNL     1      15.027  79.799  -0.869  1.00  0.00     0.176 C 
BRANCH  14  15
ATOM     15  O   UNL     1      15.979  78.795  -0.636  1.00  0.00    -0.395 OA
ATOM     16  H   UNL     1      15.873  78.515   0.310  1.00  0.00     0.210 HD
ENDBRANCH  14  15
ENDBRANCH  13  14
BRANCH  13  17
ATOM     17  C   UNL     1      14.113  79.098  -3.114  1.00  0.00    -0.032 A 
ATOM     18  C   UNL     1      13.662  77.982  -3.847  1.00  0.00     0.005 A 
ATOM     19  C   UNL     1      14.852  80.095  -3.777  1.00  0.00     0.005 A 
ATOM     20  C   UNL     1      13.947  77.871  -5.212  1.00  0.00     0.000 A 
ATOM     21  C   UNL     1      15.133  79.978  -5.142  1.00  0.00     0.000 A 
ATOM     22  C   UNL     1      14.680  78.868  -5.858  1.00  0.00     0.000 A 
ENDBRANCH  13  17
ENDBRANCH   1  13
TORSDOF 6
ENDMDL
MODEL 10
REMARK VINA RESULT:    -7.959      5.191      7.781
REMARK INTER + INTRA:         -10.940
REMARK INTER:                 -10.245
REMARK INTRA:                  -0.695
REMARK UNBOUND:                -0.422
REMARK SMILES CN1[C@@H]2CC[C@H]1C[C@@H](OC(=O)[C@H](CO)c1ccccc1)C2
REMARK SMILES IDX 10 1 11 2 9 3 8 4 1 5 2 6 6 7 3 8 5 9 7 10 4 11 21 12 12 13
REMARK SMILES IDX 13 14 14 15 15 17 16 18 20 19 17 20 19 21 18 22
REMARK H PARENT 14 16
REMARK Flexibility Score: inf
ROOT
ATOM      1  C   UNL     1      13.477  79.920  -4.519  1.00  0.00     0.316 C 
ATOM      2  O   UNL     1      12.733  80.755  -5.104  1.00  0.00    -0.251 OA
ENDROOT
BRANCH   1   3
ATOM      3  O   UNL     1      14.477  79.242  -5.224  1.00  0.00    -0.462 OA
BRANCH   3   4
ATOM      4  C   UNL     1      15.366  79.880  -6.142  1.00  0.00     0.179 C 
ATOM      5  C   UNL     1      18.467  81.706  -8.178  1.00  0.00     0.105 C 
ATOM      6  N   UNL     1      17.428  81.044  -7.370  1.00  0.00    -0.300 NA
ATOM      7  C   UNL     1      17.839  79.713  -6.906  1.00  0.00     0.060 C 
ATOM      8  C   UNL     1      17.179  81.733  -6.098  1.00  0.00     0.060 C 
ATOM      9  C   UNL     1      18.745  79.944  -5.687  1.00  0.00     0.021 C 
ATOM     10  C   UNL     1      16.556  78.938  -6.495  1.00  0.00     0.064 C 
ATOM     11  C   UNL     1      18.308  81.298  -5.148  1.00  0.00     0.021 C 
ATOM     12  C   UNL     1      15.800  81.256  -5.562  1.00  0.00     0.064 C 
ENDBRANCH   3   4
ENDBRANCH   1   3
BRANCH   1  13
ATOM     13  C   UNL     1      13.341  79.683  -3.038  1.00  0.00     0.155 C 
BRANCH  13  14
ATOM     14  C   UNL     1      14.465  78.786  -2.485  1.00  0.00     0.176 C 
BRANCH  14  15
ATOM     15  O   UNL     1      15.718  79.387  -2.677  1.00  0.00    -0.395 OA
ATOM     16  H   UNL     1      15.949  79.842  -1.826  1.00  0.00     0.210 HD
ENDBRANCH  14  15
ENDBRANCH  13  14
BRANCH  13  17
ATOM     17  C   UNL     1      11.974  79.109  -2.720  1.00  0.00    -0.032 A 
ATOM     18  C   UNL     1      10.946  79.924  -2.203  1.00  0.00     0.005 A 
ATOM     19  C   UNL     1      11.714  77.743  -2.939  1.00  0.00     0.005 A 
ATOM     20  C   UNL     1       9.691  79.379  -1.913  1.00  0.00     0.000 A 
ATOM     21  C   UNL     1      10.457  77.206  -2.647  1.00  0.00     0.000 A 
ATOM     22  C   UNL     1       9.447  78.023  -2.136  1.00  0.00     0.000 A 
ENDBRANCH  13  17
ENDBRANCH   1  13
TORSDOF 6
ENDMDL
MODEL 11
REMARK VINA RESULT:    -7.949      5.671      8.598
REMARK INTER + INTRA:         -10.927
REMARK INTER:                 -10.029
REMARK INTRA:                  -0.898
REMARK UNBOUND:                -0.422
REMARK SMILES CN1[C@@H]2CC[C@H]1C[C@@H](OC(=O)[C@H](CO)c1ccccc1)C2
REMARK SMILES IDX 10 1 11 2 9 3 8 4 1 5 2 6 6 7 3 8 5 9 7 10 4 11 21 12 12 13
REMARK SMILES IDX 13 14 14 15 15 17 16 18 20 19 17 20 19 21 18 22
REMARK H PARENT 14 16
REMARK Flexibility Score: inf
ROOT
ATOM      1  C   UNL     1      15.099  79.626  -4.798  1.00  0.00     0.316 C 
ATOM      2  O   UNL     1      14.942  78.857  -5.787  1.00  0.00    -0.251 OA
ENDROOT
BRANCH   1   3
ATOM      3  O   UNL     1      15.047  79.126  -3.493  1.00  0.00    -0.462 OA
BRANCH   3   4
ATOM      4  C   UNL     1      14.209  79.672  -2.472  1.00  0.00     0.179 C 
ATOM      5  C   UNL     1      11.918  80.539   0.859  1.00  0.00     0.105 C 
ATOM      6  N   UNL     1      12.761  80.138  -0.281  1.00  0.00    -0.300 NA
ATOM      7  C   UNL     1      14.147  79.858   0.114  1.00  0.00     0.060 C 
ATOM      8  C   UNL     1      12.356  78.849  -0.856  1.00  0.00     0.060 C 
ATOM      9  C   UNL     1      14.147  78.441   0.708  1.00  0.00     0.021 C 
ATOM     10  C   UNL     1      15.025  79.914  -1.167  1.00  0.00     0.064 C 
ATOM     11  C   UNL     1      12.945  77.767   0.063  1.00  0.00     0.021 C 
ATOM     12  C   UNL     1      12.970  78.751  -2.280  1.00  0.00     0.064 C 
ENDBRANCH   3   4
ENDBRANCH   1   3
BRANCH   1  13
ATOM     13  C   UNL     1      15.404  81.085  -5.007  1.00  0.00     0.155 C 
BRANCH  13  14
ATOM     14  C   UNL     1      14.202  81.854  -5.591  1.00  0.00     0.176 C 
BRANCH  14  15
ATOM     15  O   UNL     1      13.043  81.066  -5.550  1.00  0.00    -0.395 OA
ATOM     16  H   UNL     1      12.958  80.637  -6.440  1.00  0.00     0.210 HD
ENDBRANCH  14  15
ENDBRANCH  13  14
BRANCH  13  17
ATOM     17  C   UNL     1      16.635  81.247  -5.878  1.00  0.00    -0.032 A 
ATOM     18  C   UNL     1      17.930  81.151  -5.331  1.00  0.00     0.005 A 
ATOM     19  C   UNL     1      16.495  81.499  -7.256  1.00  0.00     0.005 A 
ATOM     20  C   UNL     1      19.055  81.304  -6.148  1.00  0.00     0.000 A 
ATOM     21  C   UNL     1      17.624  81.651  -8.066  1.00  0.00     0.000 A 
ATOM     22  C   UNL     1      18.902  81.553  -7.513  1.00  0.00     0.000 A 
ENDBRANCH  13  17
ENDBRANCH   1  13
TORSDOF 6
ENDMDL
MODEL 12
REMARK VINA RESULT:    -7.885      3.036      7.289
REMARK INTER + INTRA:         -10.842
REMARK INTER:                  -9.952
REMARK INTRA:                  -0.890
REMARK UNBOUND:                -0.422
REMARK SMILES CN1[C@@H]2CC[C@H]1C[C@@H](OC(=O)[C@H](CO)c1ccccc1)C2
REMARK SMILES IDX 10 1 11 2 9 3 8 4 1 5 2 6 6 7 3 8 5 9 7 10 4 11 21 12 12 13
REMARK SMILES IDX 13 14 14 15 15 17 16 18 20 19 17 20 19 21 18 22
REMARK H PARENT 14 16
REMARK Flexibility Score: inf
ROOT
ATOM      1  C   UNL     1      12.735  78.599  -2.545  1.00  0.00     0.316 C 
ATOM      2  O   UNL     1      13.092  78.197  -3.687  1.00  0.00    -0.251 OA
ENDROOT
BRANCH   1   3
ATOM      3  O   UNL     1      11.677  77.977  -1.871  1.00  0.00    -0.462 OA
BRANCH   3   4
ATOM      4  C   UNL     1      10.533  77.433  -2.532  1.00  0.00     0.179 C 
ATOM      5  C   UNL     1       7.019  75.591  -3.697  1.00  0.00     0.105 C 
ATOM      6  N   UNL     1       8.247  76.221  -3.181  1.00  0.00    -0.300 NA
ATOM      7  C   UNL     1       7.971  77.251  -2.172  1.00  0.00     0.060 C 
ATOM      8  C   UNL     1       9.085  75.285  -2.421  1.00  0.00     0.060 C 
ATOM      9  C   UNL     1       7.713  76.502  -0.855  1.00  0.00     0.021 C 
ATOM     10  C   UNL     1       9.235  78.148  -2.053  1.00  0.00     0.064 C 
ATOM     11  C   UNL     1       8.454  75.185  -1.023  1.00  0.00     0.021 C 
ATOM     12  C   UNL     1      10.514  75.890  -2.335  1.00  0.00     0.064 C 
ENDBRANCH   3   4
ENDBRANCH   1   3
BRANCH   1  13
ATOM     13  C   UNL     1      13.478  79.715  -1.861  1.00  0.00     0.155 C 
BRANCH  13  14
ATOM     14  C   UNL     1      14.907  79.303  -1.456  1.00  0.00     0.176 C 
BRANCH  14  15
ATOM     15  O   UNL     1      15.722  79.165  -2.590  1.00  0.00    -0.395 OA
ATOM     16  H   UNL     1      15.135  78.855  -3.327  1.00  0.00     0.210 HD
ENDBRANCH  14  15
ENDBRANCH  13  14
BRANCH  13  17
ATOM     17  C   UNL     1      12.692  80.217  -0.666  1.00  0.00    -0.032 A 
ATOM     18  C   UNL     1      13.111  79.935   0.650  1.00  0.00     0.005 A 
ATOM     19  C   UNL     1      11.523  80.977  -0.859  1.00  0.00     0.005 A 
ATOM     20  C   UNL     1      12.374  80.404   1.742  1.00  0.00     0.000 A 
ATOM     21  C   UNL     1      10.791  81.442   0.237  1.00  0.00     0.000 A 
ATOM     22  C   UNL     1      11.217  81.157   1.536  1.00  0.00     0.000 A 
ENDBRANCH  13  17
ENDBRANCH   1  13
TORSDOF 6
ENDMDL
MODEL 13
REMARK VINA RESULT:    -7.842      2.164      3.874
REMARK INTER + INTRA:         -10.786
REMARK INTER:                  -9.801
REMARK INTRA:                  -0.985
REMARK UNBOUND:                -0.422
REMARK SMILES CN1[C@@H]2CC[C@H]1C[C@@H](OC(=O)[C@H](CO)c1ccccc1)C2
REMARK SMILES IDX 10 1 11 2 9 3 8 4 1 5 2 6 6 7 3 8 5 9 7 10 4 11 21 12 12 13
REMARK SMILES IDX 13 14 14 15 15 17 16 18 20 19 17 20 19 21 18 22
REMARK H PARENT 14 16
REMARK Flexibility Score: inf
ROOT
ATOM      1  C   UNL     1       8.943  76.415  -2.624  1.00  0.00     0.316 C 
ATOM      2  O   UNL     1       8.008  76.720  -3.416  1.00  0.00    -0.251 OA
ENDROOT
BRANCH   1   3
ATOM      3  O   UNL     1      10.146  77.129  -2.636  1.00  0.00    -0.462 OA
BRANCH   3   4
ATOM      4  C   UNL     1      10.542  78.024  -1.596  1.00  0.00     0.179 C 
ATOM      5  C   UNL     1      12.413  80.609   1.034  1.00  0.00     0.105 C 
ATOM      6  N   UNL     1      11.836  79.688   0.039  1.00  0.00    -0.300 NA
ATOM      7  C   UNL     1      11.863  80.239  -1.321  1.00  0.00     0.060 C 
ATOM      8  C   UNL     1      12.632  78.466  -0.125  1.00  0.00     0.060 C 
ATOM      9  C   UNL     1      13.294  80.025  -1.842  1.00  0.00     0.021 C 
ATOM     10  C   UNL     1      10.843  79.438  -2.177  1.00  0.00     0.064 C 
ATOM     11  C   UNL     1      13.810  78.842  -1.039  1.00  0.00     0.021 C 
ATOM     12  C   UNL     1      11.729  77.400  -0.807  1.00  0.00     0.064 C 
ENDBRANCH   3   4
ENDBRANCH   1   3
BRANCH   1  13
ATOM     13  C   UNL     1       8.759  75.316  -1.612  1.00  0.00     0.155 C 
BRANCH  13  14
ATOM     14  C   UNL     1       8.647  73.927  -2.273  1.00  0.00     0.176 C 
BRANCH  14  15
ATOM     15  O   UNL     1       8.565  74.048  -3.668  1.00  0.00    -0.395 OA
ATOM     16  H   UNL     1       9.047  74.881  -3.911  1.00  0.00     0.210 HD
ENDBRANCH  14  15
ENDBRANCH  13  14
BRANCH  13  17
ATOM     17  C   UNL     1       7.557  75.604  -0.734  1.00  0.00    -0.032 A 
ATOM     18  C   UNL     1       6.474  74.703  -0.666  1.00  0.00     0.005 A 
ATOM     19  C   UNL     1       7.509  76.785   0.029  1.00  0.00     0.005 A 
ATOM     20  C   UNL     1       5.372  74.984   0.148  1.00  0.00     0.000 A 
ATOM     21  C   UNL     1       6.404  77.059   0.841  1.00  0.00     0.000 A 
ATOM     22  C   UNL     1       5.337  76.159   0.901  1.00  0.00     0.000 A 
ENDBRANCH  13  17
ENDBRANCH   1  13
TORSDOF 6
ENDMDL
MODEL 14
REMARK VINA RESULT:    -7.803      5.363      8.738
REMARK INTER + INTRA:         -10.734
REMARK INTER:                 -10.601
REMARK INTRA:                  -0.133
REMARK UNBOUND:                -0.422
REMARK SMILES CN1[C@@H]2CC[C@H]1C[C@@H](OC(=O)[C@H](CO)c1ccccc1)C2
REMARK SMILES IDX 10 1 11 2 9 3 8 4 1 5 2 6 6 7 3 8 5 9 7 10 4 11 21 12 12 13
REMARK SMILES IDX 13 14 14 15 15 17 16 18 20 19 17 20 19 21 18 22
REMARK H PARENT 14 16
REMARK Flexibility Score: inf
ROOT
ATOM      1  C   UNL     1      15.051  79.413  -5.517  1.00  0.00     0.316 C 
ATOM      2  O   UNL     1      15.740  78.716  -6.313  1.00  0.00    -0.251 OA
ENDROOT
BRANCH   1   3
ATOM      3  O   UNL     1      13.952  78.858  -4.854  1.00  0.00    -0.462 OA
BRANCH   3   4
ATOM      4  C   UNL     1      13.988  78.425  -3.493  1.00  0.00     0.179 C 
ATOM      5  C   UNL     1      13.844  77.934   0.611  1.00  0.00     0.105 C 
ATOM      6  N   UNL     1      13.857  78.207  -0.837  1.00  0.00    -0.300 NA
ATOM      7  C   UNL     1      12.534  78.586  -1.350  1.00  0.00     0.060 C 
ATOM      8  C   UNL     1      14.654  79.392  -1.180  1.00  0.00     0.060 C 
ATOM      9  C   UNL     1      12.346  80.070  -0.996  1.00  0.00     0.021 C 
ATOM     10  C   UNL     1      12.551  78.389  -2.892  1.00  0.00     0.064 C 
ATOM     11  C   UNL     1      13.763  80.608  -0.878  1.00  0.00     0.021 C 
ATOM     12  C   UNL     1      14.983  79.319  -2.698  1.00  0.00     0.064 C 
ENDBRANCH   3   4
ENDBRANCH   1   3
BRANCH   1  13
ATOM     13  C   UNL     1      15.436  80.839  -5.222  1.00  0.00     0.155 C 
BRANCH  13  14
ATOM     14  C   UNL     1      14.299  81.828  -5.542  1.00  0.00     0.176 C 
BRANCH  14  15
ATOM     15  O   UNL     1      13.051  81.192  -5.459  1.00  0.00    -0.395 OA
ATOM     16  H   UNL     1      13.232  80.229  -5.302  1.00  0.00     0.210 HD
ENDBRANCH  14  15
ENDBRANCH  13  14
BRANCH  13  17
ATOM     17  C   UNL     1      16.707  81.205  -5.962  1.00  0.00    -0.032 A 
ATOM     18  C   UNL     1      16.672  81.604  -7.314  1.00  0.00     0.005 A 
ATOM     19  C   UNL     1      17.949  81.150  -5.301  1.00  0.00     0.005 A 
ATOM     20  C   UNL     1      17.854  81.938  -7.983  1.00  0.00     0.000 A 
ATOM     21  C   UNL     1      19.126  81.485  -5.976  1.00  0.00     0.000 A 
ATOM     22  C   UNL     1      19.078  81.879  -7.316  1.00  0.00     0.000 A 
ENDBRANCH  13  17
ENDBRANCH   1  13
TORSDOF 6
ENDMDL
MODEL 15
REMARK VINA RESULT:    -7.733      2.634      6.647
REMARK INTER + INTRA:         -10.642
REMARK INTER:                  -9.796
REMARK INTRA:                  -0.846
REMARK UNBOUND:                -0.422
REMARK SMILES CN1[C@@H]2CC[C@H]1C[C@@H](OC(=O)[C@H](CO)c1ccccc1)C2
REMARK SMILES IDX 10 1 11 2 9 3 8 4 1 5 2 6 6 7 3 8 5 9 7 10 4 11 21 12 12 13
REMARK SMILES IDX 13 14 14 15 15 17 16 18 20 19 17 20 19 21 18 22
REMARK H PARENT 14 16
REMARK Flexibility Score: inf
ROOT
ATOM      1  C   UNL     1      11.467  78.770  -1.913  1.00  0.00     0.316 C 
ATOM      2  O   UNL     1      11.241  79.829  -1.264  1.00  0.00    -0.251 OA
ENDROOT
BRANCH   1   3
ATOM      3  O   UNL     1      10.434  78.125  -2.602  1.00  0.00    -0.462 OA
BRANCH   3   4
ATOM      4  C   UNL     1       9.349  77.459  -1.953  1.00  0.00     0.179 C 
ATOM      5  C   UNL     1       6.422  74.899  -0.547  1.00  0.00     0.105 C 
ATOM      6  N   UNL     1       7.502  75.730  -1.107  1.00  0.00    -0.300 NA
ATOM      7  C   UNL     1       8.833  75.159  -0.871  1.00  0.00     0.060 C 
ATOM      8  C   UNL     1       7.465  75.789  -2.574  1.00  0.00     0.060 C 
ATOM      9  C   UNL     1       9.025  74.063  -1.933  1.00  0.00     0.021 C 
ATOM     10  C   UNL     1       9.877  76.295  -1.062  1.00  0.00     0.064 C 
ATOM     11  C   UNL     1       8.106  74.482  -3.070  1.00  0.00     0.021 C 
ATOM     12  C   UNL     1       8.308  77.016  -3.021  1.00  0.00     0.064 C 
ENDBRANCH   3   4
ENDBRANCH   1   3
BRANCH   1  13
ATOM     13  C   UNL     1      12.863  78.215  -2.006  1.00  0.00     0.155 C 
BRANCH  13  14
ATOM     14  C   UNL     1      13.711  78.559  -0.765  1.00  0.00     0.176 C 
BRANCH  14  15
ATOM     15  O   UNL     1      13.014  78.251   0.412  1.00  0.00    -0.395 OA
ATOM     16  H   UNL     1      12.744  77.299   0.343  1.00  0.00     0.210 HD
ENDBRANCH  14  15
ENDBRANCH  13  14
BRANCH  13  17
ATOM     17  C   UNL     1      13.535  78.689  -3.279  1.00  0.00    -0.032 A 
ATOM     18  C   UNL     1      14.145  79.958  -3.350  1.00  0.00     0.005 A 
ATOM     19  C   UNL     1      13.556  77.859  -4.416  1.00  0.00     0.005 A 
ATOM     20  C   UNL     1      14.760  80.381  -4.533  1.00  0.00     0.000 A 
ATOM     21  C   UNL     1      14.172  78.289  -5.595  1.00  0.00     0.000 A 
ATOM     22  C   UNL     1      14.774  79.548  -5.653  1.00  0.00     0.000 A 
ENDBRANCH  13  17
ENDBRANCH   1  13
TORSDOF 6
ENDMDL
