MODEL 1
REMARK VINA RESULT:    -6.695      0.000      0.000
REMARK INTER + INTRA:          -9.974
REMARK INTER:                  -9.240
REMARK INTRA:                  -0.735
REMARK UNBOUND:                -0.735
REMARK SMILES CCC(NC(C)C)C(O)c1ccc(O)c(O)c1
REMARK SMILES IDX 3 1 2 2 1 3 4 4 5 6 6 7 7 8 8 9 9 10 10 12 17 13 11 14 15 15
REMARK SMILES IDX 12 16 13 17 16 18 14 20
REMARK H PARENT 4 5 9 11 16 19 14 21
REMARK Flexibility Score: inf
ROOT
ATOM      1  C   UNL     1      28.194  10.129   9.548  1.00  0.00     0.087 C 
ENDROOT
BRANCH   1   2
ATOM      2  C   UNL     1      28.604   9.236   8.346  1.00  0.00     0.018 C 
ATOM      3  C   UNL     1      28.215   7.770   8.546  1.00  0.00     0.005 C 
ENDBRANCH   1   2
BRANCH   1   4
ATOM      4  N   UNL     1      29.349  10.914  10.048  1.00  0.00    -0.309 NA
ATOM      5  H   UNL     1      29.164  11.943  10.079  1.00  0.00     0.123 HD
BRANCH   4   6
ATOM      6  C   UNL     1      30.603  10.645   9.320  1.00  0.00     0.047 C 
ATOM      7  C   UNL     1      31.665  10.170  10.313  1.00  0.00     0.024 C 
ATOM      8  C   UNL     1      31.096  11.891   8.567  1.00  0.00     0.024 C 
ENDBRANCH   4   6
ENDBRANCH   1   4
BRANCH   1   9
ATOM      9  C   UNL     1      27.073  11.118   9.139  1.00  0.00     0.161 C 
BRANCH   9  10
ATOM     10  O   UNL     1      27.512  12.439   9.331  1.00  0.00    -0.387 OA
ATOM     11  H   UNL     1      28.431  12.386   9.704  1.00  0.00     0.211 HD
ENDBRANCH   9  10
BRANCH   9  12
ATOM     12  C   UNL     1      25.802  10.894   9.938  1.00  0.00    -0.014 A 
ATOM     13  C   UNL     1      25.200  11.960  10.629  1.00  0.00     0.056 A 
ATOM     14  C   UNL     1      25.205   9.623   9.987  1.00  0.00     0.010 A 
ATOM     15  C   UNL     1      24.018  11.759  11.357  1.00  0.00     0.157 A 
ATOM     16  C   UNL     1      24.029   9.422  10.713  1.00  0.00     0.050 A 
ATOM     17  C   UNL     1      23.431  10.483  11.398  1.00  0.00     0.157 A 
BRANCH  15  18
ATOM     18  O   UNL     1      23.427  12.822  12.037  1.00  0.00    -0.504 OA
ATOM     19  H   UNL     1      23.902  13.298  12.797  1.00  0.00     0.293 HD
ENDBRANCH  15  18
BRANCH  17  20
ATOM     20  O   UNL     1      22.257  10.253  12.115  1.00  0.00    -0.504 OA
ATOM     21  H   UNL     1      22.209   9.578  12.867  1.00  0.00     0.293 HD
ENDBRANCH  17  20
ENDBRANCH   9  12
ENDBRANCH   1   9
TORSDOF 8
ENDMDL
MODEL 2
REMARK VINA RESULT:    -6.677      2.686      5.830
REMARK INTER + INTRA:          -9.950
REMARK INTER:                  -9.244
REMARK INTRA:                  -0.706
REMARK UNBOUND:                -0.735
REMARK SMILES CCC(NC(C)C)C(O)c1ccc(O)c(O)c1
REMARK SMILES IDX 3 1 2 2 1 3 4 4 5 6 6 7 7 8 8 9 9 10 10 12 17 13 11 14 15 15
REMARK SMILES IDX 12 16 13 17 16 18 14 20
REMARK H PARENT 4 5 9 11 16 19 14 21
REMARK Flexibility Score: inf
ROOT
ATOM      1  C   UNL     1      26.577  11.825  10.392  1.00  0.00     0.087 C 
ENDROOT
BRANCH   1   2
ATOM      2  C   UNL     1      26.641  13.323  10.795  1.00  0.00     0.018 C 
ATOM      3  C   UNL     1      25.266  13.897  11.137  1.00  0.00     0.005 C 
ENDBRANCH   1   2
BRANCH   1   4
ATOM      4  N   UNL     1      25.207  11.445   9.970  1.00  0.00    -0.309 NA
ATOM      5  H   UNL     1      24.571  12.267   9.851  1.00  0.00     0.123 HD
BRANCH   4   6
ATOM      6  C   UNL     1      24.579  10.438  10.845  1.00  0.00     0.047 C 
ATOM      7  C   UNL     1      24.492   9.108  10.095  1.00  0.00     0.024 C 
ATOM      8  C   UNL     1      23.182  10.884  11.304  1.00  0.00     0.024 C 
ENDBRANCH   4   6
ENDBRANCH   1   4
BRANCH   1   9
ATOM      9  C   UNL     1      27.548  11.530   9.221  1.00  0.00     0.161 C 
BRANCH   9  10
ATOM     10  O   UNL     1      26.822  11.386   8.027  1.00  0.00    -0.387 OA
ATOM     11  H   UNL     1      26.638  12.302   7.689  1.00  0.00     0.211 HD
ENDBRANCH   9  10
BRANCH   9  12
ATOM     12  C   UNL     1      28.361  10.272   9.465  1.00  0.00    -0.014 A 
ATOM     13  C   UNL     1      28.132   9.489  10.609  1.00  0.00     0.056 A 
ATOM     14  C   UNL     1      29.342   9.866   8.544  1.00  0.00     0.010 A 
ATOM     15  C   UNL     1      28.872   8.318  10.832  1.00  0.00     0.157 A 
ATOM     16  C   UNL     1      30.080   8.702   8.765  1.00  0.00     0.050 A 
ATOM     17  C   UNL     1      29.850   7.924   9.904  1.00  0.00     0.157 A 
BRANCH  15  18
ATOM     18  O   UNL     1      28.636   7.547  11.968  1.00  0.00    -0.504 OA
ATOM     19  H   UNL     1      28.829   7.900  12.899  1.00  0.00     0.293 HD
ENDBRANCH  15  18
BRANCH  17  20
ATOM     20  O   UNL     1      30.602   6.766  10.098  1.00  0.00    -0.504 OA
ATOM     21  H   UNL     1      30.322   5.871   9.715  1.00  0.00     0.293 HD
ENDBRANCH  17  20
ENDBRANCH   9  12
ENDBRANCH   1   9
TORSDOF 8
ENDMDL
MODEL 3
REMARK VINA RESULT:    -6.538      1.720      2.213
REMARK INTER + INTRA:          -9.757
REMARK INTER:                  -8.949
REMARK INTRA:                  -0.809
REMARK UNBOUND:                -0.735
REMARK SMILES CCC(NC(C)C)C(O)c1ccc(O)c(O)c1
REMARK SMILES IDX 3 1 2 2 1 3 4 4 5 6 6 7 7 8 8 9 9 10 10 12 17 13 11 14 15 15
REMARK SMILES IDX 12 16 13 17 16 18 14 20
REMARK H PARENT 4 5 9 11 16 19 14 21
REMARK Flexibility Score: inf
ROOT
ATOM      1  C   UNL     1      28.285  11.224  10.296  1.00  0.00     0.087 C 
ENDROOT
BRANCH   1   2
ATOM      2  C   UNL     1      29.482  10.236  10.269  1.00  0.00     0.018 C 
ATOM      3  C   UNL     1      29.063   8.820   9.871  1.00  0.00     0.005 C 
ENDBRANCH   1   2
BRANCH   1   4
ATOM      4  N   UNL     1      28.705  12.582   9.873  1.00  0.00    -0.309 NA
ATOM      5  H   UNL     1      29.668  12.606   9.464  1.00  0.00     0.123 HD
BRANCH   4   6
ATOM      6  C   UNL     1      28.581  13.596  10.937  1.00  0.00     0.047 C 
ATOM      7  C   UNL     1      27.490  14.595  10.550  1.00  0.00     0.024 C 
ATOM      8  C   UNL     1      29.911  14.326  11.178  1.00  0.00     0.024 C 
ENDBRANCH   4   6
ENDBRANCH   1   4
BRANCH   1   9
ATOM      9  C   UNL     1      27.156  10.746   9.348  1.00  0.00     0.161 C 
BRANCH   9  10
ATOM     10  O   UNL     1      27.015  11.652   8.283  1.00  0.00    -0.387 OA
ATOM     11  H   UNL     1      26.519  11.179   7.565  1.00  0.00     0.211 HD
ENDBRANCH   9  10
BRANCH   9  12
ATOM     12  C   UNL     1      25.829  10.614  10.070  1.00  0.00    -0.014 A 
ATOM     13  C   UNL     1      25.289  11.709  10.768  1.00  0.00     0.056 A 
ATOM     14  C   UNL     1      25.117   9.404  10.040  1.00  0.00     0.010 A 
ATOM     15  C   UNL     1      24.055  11.595  11.426  1.00  0.00     0.157 A 
ATOM     16  C   UNL     1      23.889   9.289  10.695  1.00  0.00     0.050 A 
ATOM     17  C   UNL     1      23.353  10.378  11.388  1.00  0.00     0.157 A 
BRANCH  15  18
ATOM     18  O   UNL     1      23.526  12.686  12.113  1.00  0.00    -0.504 OA
ATOM     19  H   UNL     1      22.529  12.785  12.267  1.00  0.00     0.293 HD
ENDBRANCH  15  18
BRANCH  17  20
ATOM     20  O   UNL     1      22.125  10.235  12.033  1.00  0.00    -0.504 OA
ATOM     21  H   UNL     1      21.626  11.025  12.424  1.00  0.00     0.293 HD
ENDBRANCH  17  20
ENDBRANCH   9  12
ENDBRANCH   1   9
TORSDOF 8
ENDMDL
MODEL 4
REMARK VINA RESULT:    -6.537      1.593      2.620
REMARK INTER + INTRA:          -9.755
REMARK INTER:                  -8.961
REMARK INTRA:                  -0.794
REMARK UNBOUND:                -0.735
REMARK SMILES CCC(NC(C)C)C(O)c1ccc(O)c(O)c1
REMARK SMILES IDX 3 1 2 2 1 3 4 4 5 6 6 7 7 8 8 9 9 10 10 12 17 13 11 14 15 15
REMARK SMILES IDX 12 16 13 17 16 18 14 20
REMARK H PARENT 4 5 9 11 16 19 14 21
REMARK Flexibility Score: inf
ROOT
ATOM      1  C   UNL     1      27.581   9.652  10.121  1.00  0.00     0.087 C 
ENDROOT
BRANCH   1   2
ATOM      2  C   UNL     1      27.068   8.192  10.241  1.00  0.00     0.018 C 
ATOM      3  C   UNL     1      25.604   8.050   9.823  1.00  0.00     0.005 C 
ENDBRANCH   1   2
BRANCH   1   4
ATOM      4  N   UNL     1      28.925   9.695   9.495  1.00  0.00    -0.309 NA
ATOM      5  H   UNL     1      29.161   8.822   8.968  1.00  0.00     0.123 HD
BRANCH   4   6
ATOM      6  C   UNL     1      30.006  10.024  10.442  1.00  0.00     0.047 C 
ATOM      7  C   UNL     1      29.953  11.519  10.761  1.00  0.00     0.024 C 
ATOM      8  C   UNL     1      31.385   9.650   9.875  1.00  0.00     0.024 C 
ENDBRANCH   4   6
ENDBRANCH   1   4
BRANCH   1   9
ATOM      9  C   UNL     1      26.615  10.505   9.261  1.00  0.00     0.161 C 
BRANCH   9  10
ATOM     10  O   UNL     1      27.294  11.000   8.135  1.00  0.00    -0.387 OA
ATOM     11  H   UNL     1      27.073  11.966   8.067  1.00  0.00     0.211 HD
ENDBRANCH   9  10
BRANCH   9  12
ATOM     12  C   UNL     1      26.036  11.667  10.047  1.00  0.00    -0.014 A 
ATOM     13  C   UNL     1      24.828  11.518  10.749  1.00  0.00     0.056 A 
ATOM     14  C   UNL     1      26.707  12.901  10.094  1.00  0.00     0.010 A 
ATOM     15  C   UNL     1      24.296  12.586  11.487  1.00  0.00     0.157 A 
ATOM     16  C   UNL     1      26.178  13.965  10.828  1.00  0.00     0.050 A 
ATOM     17  C   UNL     1      24.976  13.815  11.525  1.00  0.00     0.157 A 
BRANCH  15  18
ATOM     18  O   UNL     1      23.099  12.428  12.182  1.00  0.00    -0.504 OA
ATOM     19  H   UNL     1      22.201  12.573  11.733  1.00  0.00     0.293 HD
ENDBRANCH  15  18
BRANCH  17  20
ATOM     20  O   UNL     1      24.473  14.894  12.250  1.00  0.00    -0.504 OA
ATOM     21  H   UNL     1      23.633  14.822  12.811  1.00  0.00     0.293 HD
ENDBRANCH  17  20
ENDBRANCH   9  12
ENDBRANCH   1   9
TORSDOF 8
ENDMDL
MODEL 5
REMARK VINA RESULT:    -6.471      0.936      1.805
REMARK INTER + INTRA:          -9.665
REMARK INTER:                  -8.897
REMARK INTRA:                  -0.769
REMARK UNBOUND:                -0.735
REMARK SMILES CCC(NC(C)C)C(O)c1ccc(O)c(O)c1
REMARK SMILES IDX 3 1 2 2 1 3 4 4 5 6 6 7 7 8 8 9 9 10 10 12 17 13 11 14 15 15
REMARK SMILES IDX 12 16 13 17 16 18 14 20
REMARK H PARENT 4 5 9 11 16 19 14 21
REMARK Flexibility Score: inf
ROOT
ATOM      1  C   UNL     1      28.329   9.750  10.125  1.00  0.00     0.087 C 
ENDROOT
BRANCH   1   2
ATOM      2  C   UNL     1      28.852   8.333   9.767  1.00  0.00     0.018 C 
ATOM      3  C   UNL     1      28.129   7.728   8.563  1.00  0.00     0.005 C 
ENDBRANCH   1   2
BRANCH   1   4
ATOM      4  N   UNL     1      29.413  10.758  10.030  1.00  0.00    -0.309 NA
ATOM      5  H   UNL     1      29.126  11.623   9.514  1.00  0.00     0.123 HD
BRANCH   4   6
ATOM      6  C   UNL     1      30.667  10.224   9.467  1.00  0.00     0.047 C 
ATOM      7  C   UNL     1      31.807  10.484  10.452  1.00  0.00     0.024 C 
ATOM      8  C   UNL     1      30.986  10.855   8.103  1.00  0.00     0.024 C 
ENDBRANCH   4   6
ENDBRANCH   1   4
BRANCH   1   9
ATOM      9  C   UNL     1      27.186  10.171   9.167  1.00  0.00     0.161 C 
BRANCH   9  10
ATOM     10  O   UNL     1      27.498  11.403   8.568  1.00  0.00    -0.387 OA
ATOM     11  H   UNL     1      28.298  11.252   7.998  1.00  0.00     0.211 HD
ENDBRANCH   9  10
BRANCH   9  12
ATOM     12  C   UNL     1      25.857  10.291   9.891  1.00  0.00    -0.014 A 
ATOM     13  C   UNL     1      24.993   9.185   9.976  1.00  0.00     0.056 A 
ATOM     14  C   UNL     1      25.481  11.501  10.496  1.00  0.00     0.010 A 
ATOM     15  C   UNL     1      23.771   9.288  10.656  1.00  0.00     0.157 A 
ATOM     16  C   UNL     1      24.264  11.605  11.172  1.00  0.00     0.050 A 
ATOM     17  C   UNL     1      23.406  10.505  11.256  1.00  0.00     0.157 A 
BRANCH  15  18
ATOM     18  O   UNL     1      22.921   8.187  10.737  1.00  0.00    -0.504 OA
ATOM     19  H   UNL     1      23.222   7.260  10.456  1.00  0.00     0.293 HD
ENDBRANCH  15  18
BRANCH  17  20
ATOM     20  O   UNL     1      22.197  10.638  11.938  1.00  0.00    -0.504 OA
ATOM     21  H   UNL     1      21.312  10.726  11.454  1.00  0.00     0.293 HD
ENDBRANCH  17  20
ENDBRANCH   9  12
ENDBRANCH   1   9
TORSDOF 8
ENDMDL
MODEL 6
REMARK VINA RESULT:    -6.345      2.787      5.924
REMARK INTER + INTRA:          -9.491
REMARK INTER:                  -8.671
REMARK INTRA:                  -0.820
REMARK UNBOUND:                -0.735
REMARK SMILES CCC(NC(C)C)C(O)c1ccc(O)c(O)c1
REMARK SMILES IDX 3 1 2 2 1 3 4 4 5 6 6 7 7 8 8 9 9 10 10 12 17 13 11 14 15 15
REMARK SMILES IDX 12 16 13 17 16 18 14 20
REMARK H PARENT 4 5 9 11 16 19 14 21
REMARK Flexibility Score: inf
ROOT
ATOM      1  C   UNL     1      25.260   8.752   9.682  1.00  0.00     0.087 C 
ENDROOT
BRANCH   1   2
ATOM      2  C   UNL     1      23.938   7.941   9.751  1.00  0.00     0.018 C 
ATOM      3  C   UNL     1      23.022   8.410  10.882  1.00  0.00     0.005 C 
ENDBRANCH   1   2
BRANCH   1   4
ATOM      4  N   UNL     1      25.318   9.771  10.758  1.00  0.00    -0.309 NA
ATOM      5  H   UNL     1      24.662   9.571  11.549  1.00  0.00     0.123 HD
BRANCH   4   6
ATOM      6  C   UNL     1      25.125  11.151  10.275  1.00  0.00     0.047 C 
ATOM      7  C   UNL     1      26.473  11.872  10.274  1.00  0.00     0.024 C 
ATOM      8  C   UNL     1      24.112  11.915  11.142  1.00  0.00     0.024 C 
ENDBRANCH   4   6
ENDBRANCH   1   4
BRANCH   1   9
ATOM      9  C   UNL     1      26.487   7.817   9.829  1.00  0.00     0.161 C 
BRANCH   9  10
ATOM     10  O   UNL     1      26.622   7.420  11.170  1.00  0.00    -0.387 OA
ATOM     11  H   UNL     1      26.501   6.435  11.194  1.00  0.00     0.211 HD
ENDBRANCH   9  10
BRANCH   9  12
ATOM     12  C   UNL     1      27.769   8.490   9.375  1.00  0.00    -0.014 A 
ATOM     13  C   UNL     1      28.863   8.595  10.251  1.00  0.00     0.056 A 
ATOM     14  C   UNL     1      27.883   9.003   8.073  1.00  0.00     0.010 A 
ATOM     15  C   UNL     1      30.055   9.204   9.831  1.00  0.00     0.157 A 
ATOM     16  C   UNL     1      29.068   9.611   7.654  1.00  0.00     0.050 A 
ATOM     17  C   UNL     1      30.156   9.714   8.525  1.00  0.00     0.157 A 
BRANCH  15  18
ATOM     18  O   UNL     1      31.136   9.303  10.704  1.00  0.00    -0.504 OA
ATOM     19  H   UNL     1      32.093   9.237  10.376  1.00  0.00     0.293 HD
ENDBRANCH  15  18
BRANCH  17  20
ATOM     20  O   UNL     1      31.327  10.326   8.079  1.00  0.00    -0.504 OA
ATOM     21  H   UNL     1      32.244  10.004   8.362  1.00  0.00     0.293 HD
ENDBRANCH  17  20
ENDBRANCH   9  12
ENDBRANCH   1   9
TORSDOF 8
ENDMDL
MODEL 7
REMARK VINA RESULT:    -6.283      2.562      4.028
REMARK INTER + INTRA:          -9.405
REMARK INTER:                  -8.670
REMARK INTRA:                  -0.735
REMARK UNBOUND:                -0.735
REMARK SMILES CCC(NC(C)C)C(O)c1ccc(O)c(O)c1
REMARK SMILES IDX 3 1 2 2 1 3 4 4 5 6 6 7 7 8 8 9 9 10 10 12 17 13 11 14 15 15
REMARK SMILES IDX 12 16 13 17 16 18 14 20
REMARK H PARENT 4 5 9 11 16 19 14 21
REMARK Flexibility Score: inf
ROOT
ATOM      1  C   UNL     1      28.073  11.830  10.400  1.00  0.00     0.087 C 
ENDROOT
BRANCH   1   2
ATOM      2  C   UNL     1      29.542  11.733  10.892  1.00  0.00     0.018 C 
ATOM      3  C   UNL     1      30.548  12.151   9.817  1.00  0.00     0.005 C 
ENDBRANCH   1   2
BRANCH   1   4
ATOM      4  N   UNL     1      27.773  13.185   9.879  1.00  0.00    -0.309 NA
ATOM      5  H   UNL     1      28.592  13.635   9.408  1.00  0.00     0.123 HD
BRANCH   4   6
ATOM      6  C   UNL     1      27.207  14.095  10.892  1.00  0.00     0.047 C 
ATOM      7  C   UNL     1      25.695  13.880  10.968  1.00  0.00     0.024 C 
ATOM      8  C   UNL     1      27.521  15.564  10.569  1.00  0.00     0.024 C 
ENDBRANCH   4   6
ENDBRANCH   1   4
BRANCH   1   9
ATOM      9  C   UNL     1      27.803  10.802   9.272  1.00  0.00     0.161 C 
BRANCH   9  10
ATOM     10  O   UNL     1      27.500  11.478   8.078  1.00  0.00    -0.387 OA
ATOM     11  H   UNL     1      27.112  10.807   7.457  1.00  0.00     0.211 HD
ENDBRANCH   9  10
BRANCH   9  12
ATOM     12  C   UNL     1      26.659   9.868   9.621  1.00  0.00    -0.014 A 
ATOM     13  C   UNL     1      26.864   8.478   9.655  1.00  0.00     0.056 A 
ATOM     14  C   UNL     1      25.388  10.380   9.928  1.00  0.00     0.010 A 
ATOM     15  C   UNL     1      25.813   7.611   9.990  1.00  0.00     0.157 A 
ATOM     16  C   UNL     1      24.341   9.518  10.261  1.00  0.00     0.050 A 
ATOM     17  C   UNL     1      24.546   8.136  10.294  1.00  0.00     0.157 A 
BRANCH  15  18
ATOM     18  O   UNL     1      26.025   6.234  10.023  1.00  0.00    -0.504 OA
ATOM     19  H   UNL     1      25.795   5.642   9.233  1.00  0.00     0.293 HD
ENDBRANCH  15  18
BRANCH  17  20
ATOM     20  O   UNL     1      23.481   7.300  10.631  1.00  0.00    -0.504 OA
ATOM     21  H   UNL     1      23.617   6.428  11.128  1.00  0.00     0.293 HD
ENDBRANCH  17  20
ENDBRANCH   9  12
ENDBRANCH   1   9
TORSDOF 8
ENDMDL
MODEL 8
REMARK VINA RESULT:    -6.267      2.679      5.554
REMARK INTER + INTRA:          -9.383
REMARK INTER:                  -8.795
REMARK INTRA:                  -0.587
REMARK UNBOUND:                -0.735
REMARK SMILES CCC(NC(C)C)C(O)c1ccc(O)c(O)c1
REMARK SMILES IDX 3 1 2 2 1 3 4 4 5 6 6 7 7 8 8 9 9 10 10 12 17 13 11 14 15 15
REMARK SMILES IDX 12 16 13 17 16 18 14 20
REMARK H PARENT 4 5 9 11 16 19 14 21
REMARK Flexibility Score: inf
ROOT
ATOM      1  C   UNL     1      25.577  11.098   9.871  1.00  0.00     0.087 C 
ENDROOT
BRANCH   1   2
ATOM      2  C   UNL     1      24.126  11.295  10.386  1.00  0.00     0.018 C 
ATOM      3  C   UNL     1      24.079  11.727  11.853  1.00  0.00     0.005 C 
ENDBRANCH   1   2
BRANCH   1   4
ATOM      4  N   UNL     1      26.565  11.613  10.850  1.00  0.00    -0.309 NA
ATOM      5  H   UNL     1      26.147  11.815  11.789  1.00  0.00     0.123 HD
BRANCH   4   6
ATOM      6  C   UNL     1      27.318  12.785  10.367  1.00  0.00     0.047 C 
ATOM      7  C   UNL     1      28.734  12.742  10.942  1.00  0.00     0.024 C 
ATOM      8  C   UNL     1      26.624  14.100  10.757  1.00  0.00     0.024 C 
ENDBRANCH   4   6
ENDBRANCH   1   4
BRANCH   1   9
ATOM      9  C   UNL     1      25.873   9.597   9.623  1.00  0.00     0.161 C 
BRANCH   9  10
ATOM     10  O   UNL     1      25.527   8.851  10.762  1.00  0.00    -0.387 OA
ATOM     11  H   UNL     1      26.222   8.150  10.871  1.00  0.00     0.211 HD
ENDBRANCH   9  10
BRANCH   9  12
ATOM     12  C   UNL     1      27.335   9.357   9.294  1.00  0.00    -0.014 A 
ATOM     13  C   UNL     1      28.071   8.390  10.001  1.00  0.00     0.056 A 
ATOM     14  C   UNL     1      27.966  10.085   8.272  1.00  0.00     0.010 A 
ATOM     15  C   UNL     1      29.419   8.154   9.691  1.00  0.00     0.157 A 
ATOM     16  C   UNL     1      29.308   9.852   7.963  1.00  0.00     0.050 A 
ATOM     17  C   UNL     1      30.039   8.891   8.666  1.00  0.00     0.157 A 
BRANCH  15  18
ATOM     18  O   UNL     1      30.141   7.193  10.395  1.00  0.00    -0.504 OA
ATOM     19  H   UNL     1      30.534   7.387  11.310  1.00  0.00     0.293 HD
ENDBRANCH  15  18
BRANCH  17  20
ATOM     20  O   UNL     1      31.377   8.680   8.336  1.00  0.00    -0.504 OA
ATOM     21  H   UNL     1      31.653   8.136   7.527  1.00  0.00     0.293 HD
ENDBRANCH  17  20
ENDBRANCH   9  12
ENDBRANCH   1   9
TORSDOF 8
ENDMDL
MODEL 9
REMARK VINA RESULT:    -6.124      1.333      2.943
REMARK INTER + INTRA:          -9.186
REMARK INTER:                  -9.091
REMARK INTRA:                  -0.095
REMARK UNBOUND:                -0.735
REMARK SMILES CCC(NC(C)C)C(O)c1ccc(O)c(O)c1
REMARK SMILES IDX 3 1 2 2 1 3 4 4 5 6 6 7 7 8 8 9 9 10 10 12 17 13 11 14 15 15
REMARK SMILES IDX 12 16 13 17 16 18 14 20
REMARK H PARENT 4 5 9 11 16 19 14 21
REMARK Flexibility Score: inf
ROOT
ATOM      1  C   UNL     1      28.183  10.877   9.823  1.00  0.00     0.087 C 
ENDROOT
BRANCH   1   2
ATOM      2  C   UNL     1      28.941  11.521  11.015  1.00  0.00     0.018 C 
ATOM      3  C   UNL     1      30.386  11.880  10.665  1.00  0.00     0.005 C 
ENDBRANCH   1   2
BRANCH   1   4
ATOM      4  N   UNL     1      27.694   9.521  10.172  1.00  0.00    -0.309 NA
ATOM      5  H   UNL     1      27.755   9.313  11.196  1.00  0.00     0.123 HD
BRANCH   4   6
ATOM      6  C   UNL     1      28.336   8.444   9.396  1.00  0.00     0.047 C 
ATOM      7  C   UNL     1      29.030   9.054   8.177  1.00  0.00     0.024 C 
ATOM      8  C   UNL     1      27.316   7.384   8.953  1.00  0.00     0.024 C 
ENDBRANCH   4   6
ENDBRANCH   1   4
BRANCH   1   9
ATOM      9  C   UNL     1      26.966  11.744   9.413  1.00  0.00     0.161 C 
BRANCH   9  10
ATOM     10  O   UNL     1      27.250  13.100   9.647  1.00  0.00    -0.387 OA
ATOM     11  H   UNL     1      26.737  13.622   8.975  1.00  0.00     0.211 HD
ENDBRANCH   9  10
BRANCH   9  12
ATOM     12  C   UNL     1      25.714  11.357  10.176  1.00  0.00    -0.014 A 
ATOM     13  C   UNL     1      25.043  10.158   9.878  1.00  0.00     0.056 A 
ATOM     14  C   UNL     1      25.217  12.182  11.199  1.00  0.00     0.010 A 
ATOM     15  C   UNL     1      23.892   9.790  10.591  1.00  0.00     0.157 A 
ATOM     16  C   UNL     1      24.072  11.817  11.908  1.00  0.00     0.050 A 
ATOM     17  C   UNL     1      23.406  10.625  11.611  1.00  0.00     0.157 A 
BRANCH  15  18
ATOM     18  O   UNL     1      23.234   8.599  10.290  1.00  0.00    -0.504 OA
ATOM     19  H   UNL     1      22.571   8.180  10.933  1.00  0.00     0.293 HD
ENDBRANCH  15  18
BRANCH  17  20
ATOM     20  O   UNL     1      22.264  10.286  12.337  1.00  0.00    -0.504 OA
ATOM     21  H   UNL     1      21.339  10.307  11.926  1.00  0.00     0.293 HD
ENDBRANCH  17  20
ENDBRANCH   9  12
ENDBRANCH   1   9
TORSDOF 8
ENDMDL
MODEL 10
REMARK VINA RESULT:    -6.060      1.104      2.114
REMARK INTER + INTRA:          -9.097
REMARK INTER:                  -8.643
REMARK INTRA:                  -0.454
REMARK UNBOUND:                -0.735
REMARK SMILES CCC(NC(C)C)C(O)c1ccc(O)c(O)c1
REMARK SMILES IDX 3 1 2 2 1 3 4 4 5 6 6 7 7 8 8 9 9 10 10 12 17 13 11 14 15 15
REMARK SMILES IDX 12 16 13 17 16 18 14 20
REMARK H PARENT 4 5 9 11 16 19 14 21
REMARK Flexibility Score: inf
ROOT
ATOM      1  C   UNL     1      27.673  10.135   8.792  1.00  0.00     0.087 C 
ENDROOT
BRANCH   1   2
ATOM      2  C   UNL     1      28.849  10.416   7.819  1.00  0.00     0.018 C 
ATOM      3  C   UNL     1      30.213  10.311   8.503  1.00  0.00     0.005 C 
ENDBRANCH   1   2
BRANCH   1   4
ATOM      4  N   UNL     1      28.170   9.821  10.154  1.00  0.00    -0.309 NA
ATOM      5  H   UNL     1      29.190  10.021  10.275  1.00  0.00     0.123 HD
BRANCH   4   6
ATOM      6  C   UNL     1      27.867   8.445  10.589  1.00  0.00     0.047 C 
ATOM      7  C   UNL     1      29.086   7.868  11.309  1.00  0.00     0.024 C 
ATOM      8  C   UNL     1      27.477   7.551   9.401  1.00  0.00     0.024 C 
ENDBRANCH   4   6
ENDBRANCH   1   4
BRANCH   1   9
ATOM      9  C   UNL     1      26.733  11.364   8.888  1.00  0.00     0.161 C 
BRANCH   9  10
ATOM     10  O   UNL     1      27.440  12.461   9.409  1.00  0.00    -0.387 OA
ATOM     11  H   UNL     1      28.077  12.102  10.081  1.00  0.00     0.211 HD
ENDBRANCH   9  10
BRANCH   9  12
ATOM     12  C   UNL     1      25.526  11.086   9.765  1.00  0.00    -0.014 A 
ATOM     13  C   UNL     1      25.013  12.089  10.605  1.00  0.00     0.056 A 
ATOM     14  C   UNL     1      24.899   9.829   9.737  1.00  0.00     0.010 A 
ATOM     15  C   UNL     1      23.889  11.840  11.406  1.00  0.00     0.157 A 
ATOM     16  C   UNL     1      23.780   9.580  10.535  1.00  0.00     0.050 A 
ATOM     17  C   UNL     1      23.271  10.579  11.370  1.00  0.00     0.157 A 
BRANCH  15  18
ATOM     18  O   UNL     1      23.386  12.841  12.235  1.00  0.00    -0.504 OA
ATOM     19  H   UNL     1      23.148  13.759  11.877  1.00  0.00     0.293 HD
ENDBRANCH  15  18
BRANCH  17  20
ATOM     20  O   UNL     1      22.153  10.301  12.156  1.00  0.00    -0.504 OA
ATOM     21  H   UNL     1      22.230  10.049  13.133  1.00  0.00     0.293 HD
ENDBRANCH  17  20
ENDBRANCH   9  12
ENDBRANCH   1   9
TORSDOF 8
ENDMDL
MODEL 11
REMARK VINA RESULT:    -6.002      2.324      3.530
REMARK INTER + INTRA:          -9.017
REMARK INTER:                  -8.238
REMARK INTRA:                  -0.779
REMARK UNBOUND:                -0.735
REMARK SMILES CCC(NC(C)C)C(O)c1ccc(O)c(O)c1
REMARK SMILES IDX 3 1 2 2 1 3 4 4 5 6 6 7 7 8 8 9 9 10 10 12 17 13 11 14 15 15
REMARK SMILES IDX 12 16 13 17 16 18 14 20
REMARK H PARENT 4 5 9 11 16 19 14 21
REMARK Flexibility Score: inf
ROOT
ATOM      1  C   UNL     1      30.707   8.984   9.248  1.00  0.00     0.087 C 
ENDROOT
BRANCH   1   2
ATOM      2  C   UNL     1      31.250   7.538   9.401  1.00  0.00     0.018 C 
ATOM      3  C   UNL     1      32.701   7.406   8.936  1.00  0.00     0.005 C 
ENDBRANCH   1   2
BRANCH   1   4
ATOM      4  N   UNL     1      31.786   9.921   8.853  1.00  0.00    -0.309 NA
ATOM      5  H   UNL     1      32.690   9.439   8.637  1.00  0.00     0.123 HD
BRANCH   4   6
ATOM      6  C   UNL     1      32.009  11.007   9.825  1.00  0.00     0.047 C 
ATOM      7  C   UNL     1      33.077  10.569  10.828  1.00  0.00     0.024 C 
ATOM      8  C   UNL     1      30.712  11.383  10.558  1.00  0.00     0.024 C 
ENDBRANCH   4   6
ENDBRANCH   1   4
BRANCH   1   9
ATOM      9  C   UNL     1      29.593   9.042   8.172  1.00  0.00     0.161 C 
BRANCH   9  10
ATOM     10  O   UNL     1      29.791  10.159   7.344  1.00  0.00    -0.387 OA
ATOM     11  H   UNL     1      30.667  10.554   7.596  1.00  0.00     0.211 HD
ENDBRANCH   9  10
BRANCH   9  12
ATOM     12  C   UNL     1      28.211   9.119   8.793  1.00  0.00    -0.014 A 
ATOM     13  C   UNL     1      27.602   7.965   9.316  1.00  0.00     0.056 A 
ATOM     14  C   UNL     1      27.529  10.345   8.865  1.00  0.00     0.010 A 
ATOM     15  C   UNL     1      26.330   8.035   9.903  1.00  0.00     0.157 A 
ATOM     16  C   UNL     1      26.262  10.415   9.448  1.00  0.00     0.050 A 
ATOM     17  C   UNL     1      25.658   9.267   9.968  1.00  0.00     0.157 A 
BRANCH  15  18
ATOM     18  O   UNL     1      25.735   6.887  10.421  1.00  0.00    -0.504 OA
ATOM     19  H   UNL     1      24.931   6.935  11.037  1.00  0.00     0.293 HD
ENDBRANCH  15  18
BRANCH  17  20
ATOM     20  O   UNL     1      24.392   9.368  10.546  1.00  0.00    -0.504 OA
ATOM     21  H   UNL     1      24.185  10.039  11.275  1.00  0.00     0.293 HD
ENDBRANCH  17  20
ENDBRANCH   9  12
ENDBRANCH   1   9
TORSDOF 8
ENDMDL
MODEL 12
REMARK VINA RESULT:    -5.949      2.622      3.957
REMARK INTER + INTRA:          -8.944
REMARK INTER:                  -8.554
REMARK INTRA:                  -0.390
REMARK UNBOUND:                -0.735
REMARK SMILES CCC(NC(C)C)C(O)c1ccc(O)c(O)c1
REMARK SMILES IDX 3 1 2 2 1 3 4 4 5 6 6 7 7 8 8 9 9 10 10 12 17 13 11 14 15 15
REMARK SMILES IDX 12 16 13 17 16 18 14 20
REMARK H PARENT 4 5 9 11 16 19 14 21
REMARK Flexibility Score: inf
ROOT
ATOM      1  C   UNL     1      30.687   9.003   9.280  1.00  0.00     0.087 C 
ENDROOT
BRANCH   1   2
ATOM      2  C   UNL     1      30.238   9.782  10.546  1.00  0.00     0.018 C 
ATOM      3  C   UNL     1      30.716  11.235  10.539  1.00  0.00     0.005 C 
ENDBRANCH   1   2
BRANCH   1   4
ATOM      4  N   UNL     1      31.011   7.593   9.610  1.00  0.00    -0.309 NA
ATOM      5  H   UNL     1      30.707   7.316  10.572  1.00  0.00     0.123 HD
BRANCH   4   6
ATOM      6  C   UNL     1      32.431   7.253   9.407  1.00  0.00     0.047 C 
ATOM      7  C   UNL     1      33.150   8.454   8.792  1.00  0.00     0.024 C 
ATOM      8  C   UNL     1      32.591   6.018   8.506  1.00  0.00     0.024 C 
ENDBRANCH   4   6
ENDBRANCH   1   4
BRANCH   1   9
ATOM      9  C   UNL     1      29.569   9.008   8.207  1.00  0.00     0.161 C 
BRANCH   9  10
ATOM     10  O   UNL     1      29.739  10.109   7.351  1.00  0.00    -0.387 OA
ATOM     11  H   UNL     1      29.458   9.817   6.445  1.00  0.00     0.211 HD
ENDBRANCH   9  10
BRANCH   9  12
ATOM     12  C   UNL     1      28.187   9.068   8.830  1.00  0.00    -0.014 A 
ATOM     13  C   UNL     1      27.606   7.912   9.380  1.00  0.00     0.056 A 
ATOM     14  C   UNL     1      27.478  10.280   8.878  1.00  0.00     0.010 A 
ATOM     15  C   UNL     1      26.334   7.966   9.970  1.00  0.00     0.157 A 
ATOM     16  C   UNL     1      26.211  10.334   9.464  1.00  0.00     0.050 A 
ATOM     17  C   UNL     1      25.635   9.185  10.010  1.00  0.00     0.157 A 
BRANCH  15  18
ATOM     18  O   UNL     1      25.766   6.816  10.514  1.00  0.00    -0.504 OA
ATOM     19  H   UNL     1      25.504   6.027   9.934  1.00  0.00     0.293 HD
ENDBRANCH  15  18
BRANCH  17  20
ATOM     20  O   UNL     1      24.369   9.269  10.589  1.00  0.00    -0.504 OA
ATOM     21  H   UNL     1      23.610   8.656  10.317  1.00  0.00     0.293 HD
ENDBRANCH  17  20
ENDBRANCH   9  12
ENDBRANCH   1   9
TORSDOF 8
ENDMDL
MODEL 13
REMARK VINA RESULT:    -5.931      2.570      5.969
REMARK INTER + INTRA:          -8.919
REMARK INTER:                  -8.166
REMARK INTRA:                  -0.753
REMARK UNBOUND:                -0.735
REMARK SMILES CCC(NC(C)C)C(O)c1ccc(O)c(O)c1
REMARK SMILES IDX 3 1 2 2 1 3 4 4 5 6 6 7 7 8 8 9 9 10 10 12 17 13 11 14 15 15
REMARK SMILES IDX 12 16 13 17 16 18 14 20
REMARK H PARENT 4 5 9 11 16 19 14 21
REMARK Flexibility Score: inf
ROOT
ATOM      1  C   UNL     1      26.079  10.948  10.394  1.00  0.00     0.087 C 
ENDROOT
BRANCH   1   2
ATOM      2  C   UNL     1      25.090  12.001  10.963  1.00  0.00     0.018 C 
ATOM      3  C   UNL     1      25.670  13.416  10.951  1.00  0.00     0.005 C 
ENDBRANCH   1   2
BRANCH   1   4
ATOM      4  N   UNL     1      25.367   9.928   9.588  1.00  0.00    -0.309 NA
ATOM      5  H   UNL     1      24.524  10.307   9.097  1.00  0.00     0.123 HD
BRANCH   4   6
ATOM      6  C   UNL     1      25.009   8.718  10.351  1.00  0.00     0.047 C 
ATOM      7  C   UNL     1      25.982   7.594   9.991  1.00  0.00     0.024 C 
ATOM      8  C   UNL     1      23.563   8.281  10.069  1.00  0.00     0.024 C 
ENDBRANCH   4   6
ENDBRANCH   1   4
BRANCH   1   9
ATOM      9  C   UNL     1      27.144  11.625   9.494  1.00  0.00     0.161 C 
BRANCH   9  10
ATOM     10  O   UNL     1      26.865  11.354   8.144  1.00  0.00    -0.387 OA
ATOM     11  H   UNL     1      26.494  10.434   8.105  1.00  0.00     0.211 HD
ENDBRANCH   9  10
BRANCH   9  12
ATOM     12  C   UNL     1      28.546  11.146   9.820  1.00  0.00    -0.014 A 
ATOM     13  C   UNL     1      29.515  12.052  10.286  1.00  0.00     0.056 A 
ATOM     14  C   UNL     1      28.890   9.792   9.674  1.00  0.00     0.010 A 
ATOM     15  C   UNL     1      30.809  11.611  10.602  1.00  0.00     0.157 A 
ATOM     16  C   UNL     1      30.178   9.352   9.987  1.00  0.00     0.050 A 
ATOM     17  C   UNL     1      31.140  10.254  10.450  1.00  0.00     0.157 A 
BRANCH  15  18
ATOM     18  O   UNL     1      31.763  12.515  11.064  1.00  0.00    -0.504 OA
ATOM     19  H   UNL     1      32.756  12.338  10.965  1.00  0.00     0.293 HD
ENDBRANCH  15  18
BRANCH  17  20
ATOM     20  O   UNL     1      32.418   9.786  10.755  1.00  0.00    -0.504 OA
ATOM     21  H   UNL     1      32.606   9.233  11.582  1.00  0.00     0.293 HD
ENDBRANCH  17  20
ENDBRANCH   9  12
ENDBRANCH   1   9
TORSDOF 8
ENDMDL
MODEL 14
REMARK VINA RESULT:    -5.909      1.961      2.893
REMARK INTER + INTRA:          -8.889
REMARK INTER:                  -8.138
REMARK INTRA:                  -0.752
REMARK UNBOUND:                -0.735
REMARK SMILES CCC(NC(C)C)C(O)c1ccc(O)c(O)c1
REMARK SMILES IDX 3 1 2 2 1 3 4 4 5 6 6 7 7 8 8 9 9 10 10 12 17 13 11 14 15 15
REMARK SMILES IDX 12 16 13 17 16 18 14 20
REMARK H PARENT 4 5 9 11 16 19 14 21
REMARK Flexibility Score: inf
ROOT
ATOM      1  C   UNL     1      30.257   8.589   9.427  1.00  0.00     0.087 C 
ENDROOT
BRANCH   1   2
ATOM      2  C   UNL     1      31.043   7.255   9.310  1.00  0.00     0.018 C 
ATOM      3  C   UNL     1      32.524   7.474   8.997  1.00  0.00     0.005 C 
ENDBRANCH   1   2
BRANCH   1   4
ATOM      4  N   UNL     1      31.150   9.754   9.217  1.00  0.00    -0.309 NA
ATOM      5  H   UNL     1      32.088   9.490   8.835  1.00  0.00     0.123 HD
BRANCH   4   6
ATOM      6  C   UNL     1      31.309  10.598  10.415  1.00  0.00     0.047 C 
ATOM      7  C   UNL     1      30.688  11.970  10.146  1.00  0.00     0.024 C 
ATOM      8  C   UNL     1      32.788  10.751  10.805  1.00  0.00     0.024 C 
ENDBRANCH   4   6
ENDBRANCH   1   4
BRANCH   1   9
ATOM      9  C   UNL     1      29.120   8.650   8.377  1.00  0.00     0.161 C 
BRANCH   9  10
ATOM     10  O   UNL     1      29.395   9.658   7.438  1.00  0.00    -0.387 OA
ATOM     11  H   UNL     1      29.872  10.382   7.923  1.00  0.00     0.211 HD
ENDBRANCH   9  10
BRANCH   9  12
ATOM     12  C   UNL     1      27.771   8.919   9.019  1.00  0.00    -0.014 A 
ATOM     13  C   UNL     1      27.294  10.235   9.142  1.00  0.00     0.056 A 
ATOM     14  C   UNL     1      26.978   7.857   9.484  1.00  0.00     0.010 A 
ATOM     15  C   UNL     1      26.042  10.488   9.722  1.00  0.00     0.157 A 
ATOM     16  C   UNL     1      25.732   8.107  10.063  1.00  0.00     0.050 A 
ATOM     17  C   UNL     1      25.258   9.417  10.184  1.00  0.00     0.157 A 
BRANCH  15  18
ATOM     18  O   UNL     1      25.576  11.796   9.838  1.00  0.00    -0.504 OA
ATOM     19  H   UNL     1      24.865  12.049  10.515  1.00  0.00     0.293 HD
ENDBRANCH  15  18
BRANCH  17  20
ATOM     20  O   UNL     1      24.010   9.636  10.766  1.00  0.00    -0.504 OA
ATOM     21  H   UNL     1      23.175   9.161  10.445  1.00  0.00     0.293 HD
ENDBRANCH  17  20
ENDBRANCH   9  12
ENDBRANCH   1   9
TORSDOF 8
ENDMDL
MODEL 15
REMARK VINA RESULT:    -5.885      2.216      2.926
REMARK INTER + INTRA:          -8.855
REMARK INTER:                  -8.323
REMARK INTRA:                  -0.533
REMARK UNBOUND:                -0.735
REMARK SMILES CCC(NC(C)C)C(O)c1ccc(O)c(O)c1
REMARK SMILES IDX 3 1 2 2 1 3 4 4 5 6 6 7 7 8 8 9 9 10 10 12 17 13 11 14 15 15
REMARK SMILES IDX 12 16 13 17 16 18 14 20
REMARK H PARENT 4 5 9 11 16 19 14 21
REMARK Flexibility Score: inf
ROOT
ATOM      1  C   UNL     1      29.334   9.525   9.399  1.00  0.00     0.087 C 
ENDROOT
BRANCH   1   2
ATOM      2  C   UNL     1      29.854  10.116  10.737  1.00  0.00     0.018 C 
ATOM      3  C   UNL     1      29.800  11.645  10.762  1.00  0.00     0.005 C 
ENDBRANCH   1   2
BRANCH   1   4
ATOM      4  N   UNL     1      30.459   9.145   8.511  1.00  0.00    -0.309 NA
ATOM      5  H   UNL     1      30.224   8.355   7.866  1.00  0.00     0.123 HD
BRANCH   4   6
ATOM      6  C   UNL     1      31.710   8.854   9.236  1.00  0.00     0.047 C 
ATOM      7  C   UNL     1      32.849   9.661   8.612  1.00  0.00     0.024 C 
ATOM      8  C   UNL     1      32.041   7.354   9.208  1.00  0.00     0.024 C 
ENDBRANCH   4   6
ENDBRANCH   1   4
BRANCH   1   9
ATOM      9  C   UNL     1      28.467   8.267   9.655  1.00  0.00     0.161 C 
BRANCH   9  10
ATOM     10  O   UNL     1      28.533   7.411   8.542  1.00  0.00    -0.387 OA
ATOM     11  H   UNL     1      28.038   7.857   7.805  1.00  0.00     0.211 HD
ENDBRANCH   9  10
BRANCH   9  12
ATOM     12  C   UNL     1      27.017   8.624   9.925  1.00  0.00    -0.014 A 
ATOM     13  C   UNL     1      26.620   9.971   9.997  1.00  0.00     0.056 A 
ATOM     14  C   UNL     1      26.053   7.617  10.091  1.00  0.00     0.010 A 
ATOM     15  C   UNL     1      25.278  10.306  10.232  1.00  0.00     0.157 A 
ATOM     16  C   UNL     1      24.717   7.949  10.327  1.00  0.00     0.050 A 
ATOM     17  C   UNL     1      24.323   9.288  10.398  1.00  0.00     0.157 A 
BRANCH  15  18
ATOM     18  O   UNL     1      24.893  11.643  10.301  1.00  0.00    -0.504 OA
ATOM     19  H   UNL     1      25.052  12.283   9.531  1.00  0.00     0.293 HD
ENDBRANCH  15  18
BRANCH  17  20
ATOM     20  O   UNL     1      22.982   9.590  10.634  1.00  0.00    -0.504 OA
ATOM     21  H   UNL     1      22.304   9.652   9.885  1.00  0.00     0.293 HD
ENDBRANCH  17  20
ENDBRANCH   9  12
ENDBRANCH   1   9
TORSDOF 8
ENDMDL
