MODEL 1
REMARK VINA RESULT:    -9.612      0.000      0.000
REMARK INTER + INTRA:         -14.061
REMARK INTER:                 -13.545
REMARK INTRA:                  -0.516
REMARK UNBOUND:                -0.516
REMARK SMILES CN(CCOc1ccc(CC2SC(=O)NC2=O)cc1)c1ccccn1
REMARK SMILES IDX 4 1 3 2 2 3 1 4 20 5 21 6 25 7 22 8 24 9 23 10 5 11 6 12
REMARK SMILES IDX 7 13 19 14 8 15 18 16 9 17 10 18 11 19 12 20 16 21 13 22
REMARK SMILES IDX 15 23 17 24 14 25
REMARK H PARENT 15 26
REMARK Flexibility Score: inf
ROOT
ATOM      1  C   UNL     1       9.902  77.258  -2.301  1.00  0.00     0.251 C 
ENDROOT
BRANCH   1   2
ATOM      2  C   UNL     1      10.038  75.874  -1.660  1.00  0.00     0.159 C 
BRANCH   2   3
ATOM      3  N   UNL     1       8.971  74.982  -2.136  1.00  0.00    -0.356 N 
ATOM      4  C   UNL     1       7.579  75.448  -2.088  1.00  0.00     0.145 C 
BRANCH   3   5
ATOM      5  C   UNL     1       9.299  73.655  -2.618  1.00  0.00     0.128 A 
ATOM      6  C   UNL     1       9.149  73.298  -3.974  1.00  0.00     0.047 A 
ATOM      7  N   UNL     1       9.771  72.718  -1.744  1.00  0.00    -0.239 NA
ATOM      8  C   UNL     1       9.479  72.007  -4.389  1.00  0.00     0.005 A 
ATOM      9  C   UNL     1      10.096  71.457  -2.129  1.00  0.00     0.113 A 
ATOM     10  C   UNL     1       9.955  71.078  -3.464  1.00  0.00     0.020 A 
ENDBRANCH   3   5
ENDBRANCH   2   3
ENDBRANCH   1   2
BRANCH   1  11
ATOM     11  O   UNL     1      11.059  78.052  -2.037  1.00  0.00    -0.492 OA
BRANCH  11  12
ATOM     12  C   UNL     1      12.030  78.419  -2.983  1.00  0.00     0.119 A 
ATOM     13  C   UNL     1      12.376  79.760  -3.241  1.00  0.00     0.047 A 
ATOM     14  C   UNL     1      12.668  77.402  -3.702  1.00  0.00     0.047 A 
ATOM     15  C   UNL     1      13.350  80.066  -4.195  1.00  0.00     0.007 A 
ATOM     16  C   UNL     1      13.642  77.707  -4.657  1.00  0.00     0.007 A 
ATOM     17  C   UNL     1      13.994  79.042  -4.907  1.00  0.00    -0.046 A 
BRANCH  17  18
ATOM     18  C   UNL     1      15.027  79.369  -5.954  1.00  0.00     0.060 C 
BRANCH  18  19
ATOM     19  C   UNL     1      15.986  80.471  -5.476  1.00  0.00     0.150 C 
ATOM     20  S   UNL     1      17.742  79.925  -5.632  1.00  0.00    -0.051 SA
ATOM     21  C   UNL     1      15.832  81.707  -6.312  1.00  0.00     0.241 C 
ATOM     22  C   UNL     1      18.051  81.227  -6.813  1.00  0.00     0.286 C 
ATOM     23  N   UNL     1      16.968  82.099  -7.058  1.00  0.00    -0.286 N 
ATOM     24  O   UNL     1      14.762  82.371  -6.345  1.00  0.00    -0.273 OA
ATOM     25  O   UNL     1      19.157  81.360  -7.399  1.00  0.00    -0.261 OA
ATOM     26  H   UNL     1      17.001  82.921  -7.702  1.00  0.00     0.173 HD
ENDBRANCH  18  19
ENDBRANCH  17  18
ENDBRANCH  11  12
ENDBRANCH   1  11
TORSDOF 7
ENDMDL
MODEL 2
REMARK VINA RESULT:    -9.442      1.957      3.012
REMARK INTER + INTRA:         -13.822
REMARK INTER:                 -13.133
REMARK INTRA:                  -0.689
REMARK UNBOUND:                -0.516
REMARK SMILES CN(CCOc1ccc(CC2SC(=O)NC2=O)cc1)c1ccccn1
REMARK SMILES IDX 4 1 3 2 2 3 1 4 20 5 21 6 25 7 22 8 24 9 23 10 5 11 6 12
REMARK SMILES IDX 7 13 19 14 8 15 18 16 9 17 10 18 11 19 12 20 16 21 13 22
REMARK SMILES IDX 15 23 17 24 14 25
REMARK H PARENT 15 26
REMARK Flexibility Score: inf
ROOT
ATOM      1  C   UNL     1       7.691  76.376  -0.948  1.00  0.00     0.251 C 
ENDROOT
BRANCH   1   2
ATOM      2  C   UNL     1       7.616  75.017  -1.649  1.00  0.00     0.159 C 
BRANCH   2   3
ATOM      3  N   UNL     1       8.880  74.286  -1.484  1.00  0.00    -0.356 N 
ATOM      4  C   UNL     1       9.823  74.719  -0.445  1.00  0.00     0.145 C 
BRANCH   3   5
ATOM      5  C   UNL     1       9.191  73.172  -2.359  1.00  0.00     0.128 A 
ATOM      6  C   UNL     1       9.055  73.267  -3.760  1.00  0.00     0.047 A 
ATOM      7  N   UNL     1       9.630  71.996  -1.824  1.00  0.00    -0.239 NA
ATOM      8  C   UNL     1       9.367  72.167  -4.559  1.00  0.00     0.005 A 
ATOM      9  C   UNL     1       9.938  70.915  -2.586  1.00  0.00     0.113 A 
ATOM     10  C   UNL     1       9.811  70.982  -3.973  1.00  0.00     0.020 A 
ENDBRANCH   3   5
ENDBRANCH   2   3
ENDBRANCH   1   2
BRANCH   1  11
ATOM     11  O   UNL     1       7.848  77.428  -1.901  1.00  0.00    -0.492 OA
BRANCH  11  12
ATOM     12  C   UNL     1       9.022  78.171  -2.110  1.00  0.00     0.119 A 
ATOM     13  C   UNL     1       9.078  79.569  -1.947  1.00  0.00     0.047 A 
ATOM     14  C   UNL     1      10.174  77.484  -2.508  1.00  0.00     0.047 A 
ATOM     15  C   UNL     1      10.275  80.256  -2.170  1.00  0.00     0.007 A 
ATOM     16  C   UNL     1      11.371  78.171  -2.733  1.00  0.00     0.007 A 
ATOM     17  C   UNL     1      11.431  79.562  -2.560  1.00  0.00    -0.046 A 
BRANCH  17  18
ATOM     18  C   UNL     1      12.716  80.304  -2.826  1.00  0.00     0.060 C 
BRANCH  18  19
ATOM     19  C   UNL     1      13.717  79.436  -3.605  1.00  0.00     0.150 C 
ATOM     20  S   UNL     1      13.943  80.075  -5.321  1.00  0.00    -0.051 SA
ATOM     21  C   UNL     1      15.064  79.458  -2.944  1.00  0.00     0.241 C 
ATOM     22  C   UNL     1      15.663  80.409  -4.980  1.00  0.00     0.286 C 
ATOM     23  N   UNL     1      16.119  80.015  -3.703  1.00  0.00    -0.286 N 
ATOM     24  O   UNL     1      15.257  78.999  -1.787  1.00  0.00    -0.273 OA
ATOM     25  O   UNL     1      16.422  80.966  -5.815  1.00  0.00    -0.261 OA
ATOM     26  H   UNL     1      17.103  80.121  -3.366  1.00  0.00     0.173 HD
ENDBRANCH  18  19
ENDBRANCH  17  18
ENDBRANCH  11  12
ENDBRANCH   1  11
TORSDOF 7
ENDMDL
MODEL 3
REMARK VINA RESULT:    -9.157      1.659      2.390
REMARK INTER + INTRA:         -13.421
REMARK INTER:                 -12.942
REMARK INTRA:                  -0.479
REMARK UNBOUND:                -0.516
REMARK SMILES CN(CCOc1ccc(CC2SC(=O)NC2=O)cc1)c1ccccn1
REMARK SMILES IDX 4 1 3 2 2 3 1 4 20 5 21 6 25 7 22 8 24 9 23 10 5 11 6 12
REMARK SMILES IDX 7 13 19 14 8 15 18 16 9 17 10 18 11 19 12 20 16 21 13 22
REMARK SMILES IDX 15 23 17 24 14 25
REMARK H PARENT 15 26
REMARK Flexibility Score: inf
ROOT
ATOM      1  C   UNL     1       8.215  76.442  -2.580  1.00  0.00     0.251 C 
ENDROOT
BRANCH   1   2
ATOM      2  C   UNL     1       7.937  75.273  -1.631  1.00  0.00     0.159 C 
BRANCH   2   3
ATOM      3  N   UNL     1       9.142  74.446  -1.470  1.00  0.00    -0.356 N 
ATOM      4  C   UNL     1      10.121  74.807  -0.436  1.00  0.00     0.145 C 
BRANCH   3   5
ATOM      5  C   UNL     1       9.361  73.311  -2.344  1.00  0.00     0.128 A 
ATOM      6  C   UNL     1       9.172  73.398  -3.739  1.00  0.00     0.047 A 
ATOM      7  N   UNL     1       9.766  72.119  -1.814  1.00  0.00    -0.239 NA
ATOM      8  C   UNL     1       9.396  72.276  -4.538  1.00  0.00     0.005 A 
ATOM      9  C   UNL     1       9.988  71.017  -2.575  1.00  0.00     0.113 A 
ATOM     10  C   UNL     1       9.806  71.077  -3.957  1.00  0.00     0.020 A 
ENDBRANCH   3   5
ENDBRANCH   2   3
ENDBRANCH   1   2
BRANCH   1  11
ATOM     11  O   UNL     1       8.970  77.458  -1.920  1.00  0.00    -0.492 OA
BRANCH  11  12
ATOM     12  C   UNL     1      10.203  77.972  -2.356  1.00  0.00     0.119 A 
ATOM     13  C   UNL     1      11.192  77.172  -2.959  1.00  0.00     0.047 A 
ATOM     14  C   UNL     1      10.451  79.336  -2.170  1.00  0.00     0.047 A 
ATOM     15  C   UNL     1      12.401  77.738  -3.373  1.00  0.00     0.007 A 
ATOM     16  C   UNL     1      11.660  79.904  -2.582  1.00  0.00     0.007 A 
ATOM     17  C   UNL     1      12.642  79.109  -3.193  1.00  0.00    -0.046 A 
BRANCH  17  18
ATOM     18  C   UNL     1      13.955  79.718  -3.615  1.00  0.00     0.060 C 
BRANCH  18  19
ATOM     19  C   UNL     1      13.969  80.043  -5.117  1.00  0.00     0.150 C 
ATOM     20  S   UNL     1      14.668  81.724  -5.418  1.00  0.00    -0.051 SA
ATOM     21  C   UNL     1      14.831  79.066  -5.862  1.00  0.00     0.241 C 
ATOM     22  C   UNL     1      16.020  81.007  -6.336  1.00  0.00     0.286 C 
ATOM     23  N   UNL     1      15.966  79.607  -6.509  1.00  0.00    -0.286 N 
ATOM     24  O   UNL     1      14.561  77.838  -5.923  1.00  0.00    -0.273 OA
ATOM     25  O   UNL     1      16.967  81.697  -6.795  1.00  0.00    -0.261 OA
ATOM     26  H   UNL     1      16.668  79.046  -7.042  1.00  0.00     0.173 HD
ENDBRANCH  18  19
ENDBRANCH  17  18
ENDBRANCH  11  12
ENDBRANCH   1  11
TORSDOF 7
ENDMDL
MODEL 4
REMARK VINA RESULT:    -9.010      4.033      4.878
REMARK INTER + INTRA:         -13.213
REMARK INTER:                 -12.949
REMARK INTRA:                  -0.264
REMARK UNBOUND:                -0.516
REMARK SMILES CN(CCOc1ccc(CC2SC(=O)NC2=O)cc1)c1ccccn1
REMARK SMILES IDX 4 1 3 2 2 3 1 4 20 5 21 6 25 7 22 8 24 9 23 10 5 11 6 12
REMARK SMILES IDX 7 13 19 14 8 15 18 16 9 17 10 18 11 19 12 20 16 21 13 22
REMARK SMILES IDX 15 23 17 24 14 25
REMARK H PARENT 15 26
REMARK Flexibility Score: inf
ROOT
ATOM      1  C   UNL     1      12.016  78.845  -1.979  1.00  0.00     0.251 C 
ENDROOT
BRANCH   1   2
ATOM      2  C   UNL     1      12.052  79.076  -0.466  1.00  0.00     0.159 C 
BRANCH   2   3
ATOM      3  N   UNL     1      11.096  80.125  -0.085  1.00  0.00    -0.356 N 
ATOM      4  C   UNL     1      11.500  81.131   0.906  1.00  0.00     0.145 C 
BRANCH   3   5
ATOM      5  C   UNL     1       9.767  80.138  -0.666  1.00  0.00     0.128 A 
ATOM      6  C   UNL     1       9.494  80.801  -1.880  1.00  0.00     0.047 A 
ATOM      7  N   UNL     1       8.747  79.491  -0.031  1.00  0.00    -0.239 NA
ATOM      8  C   UNL     1       8.198  80.785  -2.399  1.00  0.00     0.005 A 
ATOM      9  C   UNL     1       7.480  79.465  -0.520  1.00  0.00     0.113 A 
ATOM     10  C   UNL     1       7.182  80.114  -1.718  1.00  0.00     0.020 A 
ENDBRANCH   3   5
ENDBRANCH   2   3
ENDBRANCH   1   2
BRANCH   1  11
ATOM     11  O   UNL     1      13.217  78.213  -2.422  1.00  0.00    -0.492 OA
BRANCH  11  12
ATOM     12  C   UNL     1      14.013  78.635  -3.500  1.00  0.00     0.119 A 
ATOM     13  C   UNL     1      13.905  78.082  -4.791  1.00  0.00     0.047 A 
ATOM     14  C   UNL     1      14.956  79.642  -3.267  1.00  0.00     0.047 A 
ATOM     15  C   UNL     1      14.724  78.542  -5.825  1.00  0.00     0.007 A 
ATOM     16  C   UNL     1      15.777  80.102  -4.301  1.00  0.00     0.007 A 
ATOM     17  C   UNL     1      15.662  79.558  -5.590  1.00  0.00    -0.046 A 
BRANCH  17  18
ATOM     18  C   UNL     1      16.565  80.039  -6.697  1.00  0.00     0.060 C 
BRANCH  18  19
ATOM     19  C   UNL     1      17.209  81.391  -6.353  1.00  0.00     0.150 C 
ATOM     20  S   UNL     1      19.011  81.191  -6.009  1.00  0.00    -0.051 SA
ATOM     21  C   UNL     1      17.082  82.346  -7.504  1.00  0.00     0.241 C 
ATOM     22  C   UNL     1      19.403  82.224  -7.411  1.00  0.00     0.286 C 
ATOM     23  N   UNL     1      18.295  82.778  -8.089  1.00  0.00    -0.286 N 
ATOM     24  O   UNL     1      15.967  82.755  -7.923  1.00  0.00    -0.273 OA
ATOM     25  O   UNL     1      20.586  82.440  -7.782  1.00  0.00    -0.261 OA
ATOM     26  H   UNL     1      18.362  83.421  -8.911  1.00  0.00     0.173 HD
ENDBRANCH  18  19
ENDBRANCH  17  18
ENDBRANCH  11  12
ENDBRANCH   1  11
TORSDOF 7
ENDMDL
MODEL 5
REMARK VINA RESULT:    -8.959      3.779      4.902
REMARK INTER + INTRA:         -13.142
REMARK INTER:                 -12.144
REMARK INTRA:                  -0.998
REMARK UNBOUND:                -0.516
REMARK SMILES CN(CCOc1ccc(CC2SC(=O)NC2=O)cc1)c1ccccn1
REMARK SMILES IDX 4 1 3 2 2 3 1 4 20 5 21 6 25 7 22 8 24 9 23 10 5 11 6 12
REMARK SMILES IDX 7 13 19 14 8 15 18 16 9 17 10 18 11 19 12 20 16 21 13 22
REMARK SMILES IDX 15 23 17 24 14 25
REMARK H PARENT 15 26
REMARK Flexibility Score: inf
ROOT
ATOM      1  C   UNL     1      10.195  79.866  -1.900  1.00  0.00     0.251 C 
ENDROOT
BRANCH   1   2
ATOM      2  C   UNL     1      10.068  79.786  -0.377  1.00  0.00     0.159 C 
BRANCH   2   3
ATOM      3  N   UNL     1      11.203  80.462   0.268  1.00  0.00    -0.356 N 
ATOM      4  C   UNL     1      10.947  81.642   1.105  1.00  0.00     0.145 C 
BRANCH   3   5
ATOM      5  C   UNL     1      12.552  79.977   0.051  1.00  0.00     0.128 A 
ATOM      6  C   UNL     1      13.549  80.788  -0.528  1.00  0.00     0.047 A 
ATOM      7  N   UNL     1      12.877  78.702   0.416  1.00  0.00    -0.239 NA
ATOM      8  C   UNL     1      14.833  80.275  -0.716  1.00  0.00     0.005 A 
ATOM      9  C   UNL     1      14.120  78.186   0.240  1.00  0.00     0.113 A 
ATOM     10  C   UNL     1      15.125  78.966  -0.332  1.00  0.00     0.020 A 
ENDBRANCH   3   5
ENDBRANCH   2   3
ENDBRANCH   1   2
BRANCH   1  11
ATOM     11  O   UNL     1      11.045  78.828  -2.390  1.00  0.00    -0.492 OA
BRANCH  11  12
ATOM     12  C   UNL     1      12.115  79.003  -3.284  1.00  0.00     0.119 A 
ATOM     13  C   UNL     1      12.486  80.263  -3.792  1.00  0.00     0.047 A 
ATOM     14  C   UNL     1      12.829  77.869  -3.688  1.00  0.00     0.047 A 
ATOM     15  C   UNL     1      13.559  80.377  -4.680  1.00  0.00     0.007 A 
ATOM     16  C   UNL     1      13.902  77.982  -4.577  1.00  0.00     0.007 A 
ATOM     17  C   UNL     1      14.278  79.238  -5.075  1.00  0.00    -0.046 A 
BRANCH  17  18
ATOM     18  C   UNL     1      15.421  79.354  -6.052  1.00  0.00     0.060 C 
BRANCH  18  19
ATOM     19  C   UNL     1      16.401  80.465  -5.644  1.00  0.00     0.150 C 
ATOM     20  S   UNL     1      18.145  79.874  -5.754  1.00  0.00    -0.051 SA
ATOM     21  C   UNL     1      16.276  81.645  -6.563  1.00  0.00     0.241 C 
ATOM     22  C   UNL     1      18.487  81.086  -7.019  1.00  0.00     0.286 C 
ATOM     23  N   UNL     1      17.423  81.961  -7.328  1.00  0.00    -0.286 N 
ATOM     24  O   UNL     1      15.221  82.327  -6.646  1.00  0.00    -0.273 OA
ATOM     25  O   UNL     1      19.597  81.155  -7.607  1.00  0.00    -0.261 OA
ATOM     26  H   UNL     1      17.476  82.737  -8.026  1.00  0.00     0.173 HD
ENDBRANCH  18  19
ENDBRANCH  17  18
ENDBRANCH  11  12
ENDBRANCH   1  11
TORSDOF 7
ENDMDL
MODEL 6
REMARK VINA RESULT:    -8.953      1.936      3.686
REMARK INTER + INTRA:         -13.132
REMARK INTER:                 -12.644
REMARK INTRA:                  -0.488
REMARK UNBOUND:                -0.516
REMARK SMILES CN(CCOc1ccc(CC2SC(=O)NC2=O)cc1)c1ccccn1
REMARK SMILES IDX 4 1 3 2 2 3 1 4 20 5 21 6 25 7 22 8 24 9 23 10 5 11 6 12
REMARK SMILES IDX 7 13 19 14 8 15 18 16 9 17 10 18 11 19 12 20 16 21 13 22
REMARK SMILES IDX 15 23 17 24 14 25
REMARK H PARENT 15 26
REMARK Flexibility Score: inf
ROOT
ATOM      1  C   UNL     1      10.371  77.307  -2.613  1.00  0.00     0.251 C 
ENDROOT
BRANCH   1   2
ATOM      2  C   UNL     1       9.963  76.470  -1.397  1.00  0.00     0.159 C 
BRANCH   2   3
ATOM      3  N   UNL     1       8.512  76.233  -1.403  1.00  0.00    -0.356 N 
ATOM      4  C   UNL     1       7.967  75.175  -2.263  1.00  0.00     0.145 C 
BRANCH   3   5
ATOM      5  C   UNL     1       7.642  77.056  -0.586  1.00  0.00     0.128 A 
ATOM      6  C   UNL     1       6.784  76.497   0.383  1.00  0.00     0.047 A 
ATOM      7  N   UNL     1       7.648  78.412  -0.749  1.00  0.00    -0.239 NA
ATOM      8  C   UNL     1       5.965  77.333   1.144  1.00  0.00     0.005 A 
ATOM      9  C   UNL     1       6.858  79.240  -0.018  1.00  0.00     0.113 A 
ATOM     10  C   UNL     1       5.999  78.713   0.945  1.00  0.00     0.020 A 
ENDBRANCH   3   5
ENDBRANCH   2   3
ENDBRANCH   1   2
BRANCH   1  11
ATOM     11  O   UNL     1      11.574  78.028  -2.349  1.00  0.00    -0.492 OA
BRANCH  11  12
ATOM     12  C   UNL     1      12.512  78.434  -3.313  1.00  0.00     0.119 A 
ATOM     13  C   UNL     1      12.849  79.784  -3.529  1.00  0.00     0.047 A 
ATOM     14  C   UNL     1      13.123  77.446  -4.094  1.00  0.00     0.047 A 
ATOM     15  C   UNL     1      13.789  80.128  -4.504  1.00  0.00     0.007 A 
ATOM     16  C   UNL     1      14.062  77.790  -5.070  1.00  0.00     0.007 A 
ATOM     17  C   UNL     1      14.407  79.134  -5.278  1.00  0.00    -0.046 A 
BRANCH  17  18
ATOM     18  C   UNL     1      15.402  79.504  -6.348  1.00  0.00     0.060 C 
BRANCH  18  19
ATOM     19  C   UNL     1      16.370  80.596  -5.864  1.00  0.00     0.150 C 
ATOM     20  S   UNL     1      18.121  80.031  -6.008  1.00  0.00    -0.051 SA
ATOM     21  C   UNL     1      16.235  81.833  -6.703  1.00  0.00     0.241 C 
ATOM     22  C   UNL     1      18.452  81.328  -7.188  1.00  0.00     0.286 C 
ATOM     23  N   UNL     1      17.380  82.211  -7.442  1.00  0.00    -0.286 N 
ATOM     24  O   UNL     1      15.173  82.508  -6.744  1.00  0.00    -0.273 OA
ATOM     25  O   UNL     1      19.563  81.448  -7.767  1.00  0.00    -0.261 OA
ATOM     26  H   UNL     1      17.426  83.032  -8.087  1.00  0.00     0.173 HD
ENDBRANCH  18  19
ENDBRANCH  17  18
ENDBRANCH  11  12
ENDBRANCH   1  11
TORSDOF 7
ENDMDL
MODEL 7
REMARK VINA RESULT:    -8.857      2.678      3.313
REMARK INTER + INTRA:         -12.997
REMARK INTER:                 -12.634
REMARK INTRA:                  -0.363
REMARK UNBOUND:                -0.516
REMARK SMILES CN(CCOc1ccc(CC2SC(=O)NC2=O)cc1)c1ccccn1
REMARK SMILES IDX 4 1 3 2 2 3 1 4 20 5 21 6 25 7 22 8 24 9 23 10 5 11 6 12
REMARK SMILES IDX 7 13 19 14 8 15 18 16 9 17 10 18 11 19 12 20 16 21 13 22
REMARK SMILES IDX 15 23 17 24 14 25
REMARK H PARENT 15 26
REMARK Flexibility Score: inf
ROOT
ATOM      1  C   UNL     1      10.921  78.289  -2.623  1.00  0.00     0.251 C 
ENDROOT
BRANCH   1   2
ATOM      2  C   UNL     1      10.159  77.227  -1.825  1.00  0.00     0.159 C 
BRANCH   2   3
ATOM      3  N   UNL     1       9.089  77.851  -1.033  1.00  0.00    -0.356 N 
ATOM      4  C   UNL     1       9.188  79.279  -0.703  1.00  0.00     0.145 C 
BRANCH   3   5
ATOM      5  C   UNL     1       7.973  77.050  -0.569  1.00  0.00     0.128 A 
ATOM      6  C   UNL     1       7.730  75.754  -1.068  1.00  0.00     0.047 A 
ATOM      7  N   UNL     1       7.130  77.554   0.379  1.00  0.00    -0.239 NA
ATOM      8  C   UNL     1       6.642  75.023  -0.588  1.00  0.00     0.005 A 
ATOM      9  C   UNL     1       6.066  76.858   0.857  1.00  0.00     0.113 A 
ATOM     10  C   UNL     1       5.802  75.575   0.379  1.00  0.00     0.020 A 
ENDBRANCH   3   5
ENDBRANCH   2   3
ENDBRANCH   1   2
BRANCH   1  11
ATOM     11  O   UNL     1      12.326  78.037  -2.585  1.00  0.00    -0.492 OA
BRANCH  11  12
ATOM     12  C   UNL     1      13.268  78.529  -3.503  1.00  0.00     0.119 A 
ATOM     13  C   UNL     1      13.937  79.756  -3.327  1.00  0.00     0.047 A 
ATOM     14  C   UNL     1      13.538  77.764  -4.644  1.00  0.00     0.047 A 
ATOM     15  C   UNL     1      14.866  80.195  -4.275  1.00  0.00     0.007 A 
ATOM     16  C   UNL     1      14.465  78.204  -5.593  1.00  0.00     0.007 A 
ATOM     17  C   UNL     1      15.140  79.420  -5.412  1.00  0.00    -0.046 A 
BRANCH  17  18
ATOM     18  C   UNL     1      16.122  79.903  -6.449  1.00  0.00     0.060 C 
BRANCH  18  19
ATOM     19  C   UNL     1      16.678  81.292  -6.096  1.00  0.00     0.150 C 
ATOM     20  S   UNL     1      18.212  81.145  -5.081  1.00  0.00    -0.051 SA
ATOM     21  C   UNL     1      17.043  82.048  -7.340  1.00  0.00     0.241 C 
ATOM     22  C   UNL     1      19.155  81.936  -6.373  1.00  0.00     0.286 C 
ATOM     23  N   UNL     1      18.410  82.377  -7.489  1.00  0.00    -0.286 N 
ATOM     24  O   UNL     1      16.187  82.387  -8.200  1.00  0.00    -0.273 OA
ATOM     25  O   UNL     1      20.402  82.086  -6.305  1.00  0.00    -0.261 OA
ATOM     26  H   UNL     1      18.814  82.877  -8.312  1.00  0.00     0.173 HD
ENDBRANCH  18  19
ENDBRANCH  17  18
ENDBRANCH  11  12
ENDBRANCH   1  11
TORSDOF 7
ENDMDL
MODEL 8
REMARK VINA RESULT:    -8.818      3.850     10.004
REMARK INTER + INTRA:         -12.942
REMARK INTER:                 -12.340
REMARK INTRA:                  -0.602
REMARK UNBOUND:                -0.516
REMARK SMILES CN(CCOc1ccc(CC2SC(=O)NC2=O)cc1)c1ccccn1
REMARK SMILES IDX 4 1 3 2 2 3 1 4 20 5 21 6 25 7 22 8 24 9 23 10 5 11 6 12
REMARK SMILES IDX 7 13 19 14 8 15 18 16 9 17 10 18 11 19 12 20 16 21 13 22
REMARK SMILES IDX 15 23 17 24 14 25
REMARK H PARENT 15 26
REMARK Flexibility Score: inf
ROOT
ATOM      1  C   UNL     1      14.391  79.707  -3.234  1.00  0.00     0.251 C 
ENDROOT
BRANCH   1   2
ATOM      2  C   UNL     1      14.336  80.545  -4.514  1.00  0.00     0.159 C 
BRANCH   2   3
ATOM      3  N   UNL     1      14.848  79.771  -5.655  1.00  0.00    -0.356 N 
ATOM      4  C   UNL     1      14.205  78.495  -5.995  1.00  0.00     0.145 C 
BRANCH   3   5
ATOM      5  C   UNL     1      15.988  80.259  -6.406  1.00  0.00     0.128 A 
ATOM      6  C   UNL     1      17.179  79.511  -6.519  1.00  0.00     0.047 A 
ATOM      7  N   UNL     1      15.917  81.472  -7.027  1.00  0.00    -0.239 NA
ATOM      8  C   UNL     1      18.249  80.024  -7.254  1.00  0.00     0.005 A 
ATOM      9  C   UNL     1      16.948  81.987  -7.745  1.00  0.00     0.113 A 
ATOM     10  C   UNL     1      18.137  81.270  -7.872  1.00  0.00     0.020 A 
ENDBRANCH   3   5
ENDBRANCH   2   3
ENDBRANCH   1   2
BRANCH   1  11
ATOM     11  O   UNL     1      13.288  80.016  -2.382  1.00  0.00    -0.492 OA
BRANCH  11  12
ATOM     12  C   UNL     1      12.068  79.320  -2.342  1.00  0.00     0.119 A 
ATOM     13  C   UNL     1      11.941  77.978  -2.750  1.00  0.00     0.047 A 
ATOM     14  C   UNL     1      10.934  80.003  -1.887  1.00  0.00     0.047 A 
ATOM     15  C   UNL     1      10.701  77.337  -2.689  1.00  0.00     0.007 A 
ATOM     16  C   UNL     1       9.693  79.363  -1.827  1.00  0.00     0.007 A 
ATOM     17  C   UNL     1       9.569  78.022  -2.223  1.00  0.00    -0.046 A 
BRANCH  17  18
ATOM     18  C   UNL     1       8.224  77.342  -2.180  1.00  0.00     0.060 C 
BRANCH  18  19
ATOM     19  C   UNL     1       8.197  76.211  -1.139  1.00  0.00     0.150 C 
ATOM     20  S   UNL     1       7.095  76.648   0.275  1.00  0.00    -0.051 SA
ATOM     21  C   UNL     1       7.660  74.947  -1.744  1.00  0.00     0.241 C 
ATOM     22  C   UNL     1       6.025  75.276  -0.123  1.00  0.00     0.286 C 
ATOM     23  N   UNL     1       6.455  74.457  -1.189  1.00  0.00    -0.286 N 
ATOM     24  O   UNL     1       8.247  74.344  -2.680  1.00  0.00    -0.273 OA
ATOM     25  O   UNL     1       4.953  75.053   0.497  1.00  0.00    -0.261 OA
ATOM     26  H   UNL     1       5.952  73.604  -1.524  1.00  0.00     0.173 HD
ENDBRANCH  18  19
ENDBRANCH  17  18
ENDBRANCH  11  12
ENDBRANCH   1  11
TORSDOF 7
ENDMDL
MODEL 9
REMARK VINA RESULT:    -8.816      1.867      2.525
REMARK INTER + INTRA:         -12.939
REMARK INTER:                 -12.329
REMARK INTRA:                  -0.610
REMARK UNBOUND:                -0.516
REMARK SMILES CN(CCOc1ccc(CC2SC(=O)NC2=O)cc1)c1ccccn1
REMARK SMILES IDX 4 1 3 2 2 3 1 4 20 5 21 6 25 7 22 8 24 9 23 10 5 11 6 12
REMARK SMILES IDX 7 13 19 14 8 15 18 16 9 17 10 18 11 19 12 20 16 21 13 22
REMARK SMILES IDX 15 23 17 24 14 25
REMARK H PARENT 15 26
REMARK Flexibility Score: inf
ROOT
ATOM      1  C   UNL     1       8.510  76.887  -1.401  1.00  0.00     0.251 C 
ENDROOT
BRANCH   1   2
ATOM      2  C   UNL     1       8.978  75.433  -1.517  1.00  0.00     0.159 C 
BRANCH   2   3
ATOM      3  N   UNL     1       8.428  74.813  -2.731  1.00  0.00    -0.356 N 
ATOM      4  C   UNL     1       7.361  75.508  -3.464  1.00  0.00     0.145 C 
BRANCH   3   5
ATOM      5  C   UNL     1       8.921  73.523  -3.171  1.00  0.00     0.128 A 
ATOM      6  C   UNL     1       9.452  72.582  -2.264  1.00  0.00     0.047 A 
ATOM      7  N   UNL     1       8.871  73.198  -4.495  1.00  0.00    -0.239 NA
ATOM      8  C   UNL     1       9.914  71.353  -2.737  1.00  0.00     0.005 A 
ATOM      9  C   UNL     1       9.316  72.007  -4.974  1.00  0.00     0.113 A 
ATOM     10  C   UNL     1       9.848  71.060  -4.099  1.00  0.00     0.020 A 
ENDBRANCH   3   5
ENDBRANCH   2   3
ENDBRANCH   1   2
BRANCH   1  11
ATOM     11  O   UNL     1       9.499  77.684  -0.750  1.00  0.00    -0.492 OA
BRANCH  11  12
ATOM     12  C   UNL     1      10.609  78.279  -1.374  1.00  0.00     0.119 A 
ATOM     13  C   UNL     1      10.497  79.392  -2.230  1.00  0.00     0.047 A 
ATOM     14  C   UNL     1      11.872  77.727  -1.136  1.00  0.00     0.047 A 
ATOM     15  C   UNL     1      11.637  79.941  -2.824  1.00  0.00     0.007 A 
ATOM     16  C   UNL     1      13.012  78.274  -1.731  1.00  0.00     0.007 A 
ATOM     17  C   UNL     1      12.903  79.390  -2.575  1.00  0.00    -0.046 A 
BRANCH  17  18
ATOM     18  C   UNL     1      14.131  79.964  -3.234  1.00  0.00     0.060 C 
BRANCH  18  19
ATOM     19  C   UNL     1      14.000  79.969  -4.765  1.00  0.00     0.150 C 
ATOM     20  S   UNL     1      15.060  81.283  -5.510  1.00  0.00    -0.051 SA
ATOM     21  C   UNL     1      14.452  78.659  -5.339  1.00  0.00     0.241 C 
ATOM     22  C   UNL     1      16.020  80.041  -6.358  1.00  0.00     0.286 C 
ATOM     23  N   UNL     1      15.576  78.710  -6.196  1.00  0.00    -0.286 N 
ATOM     24  O   UNL     1      13.864  77.573  -5.090  1.00  0.00    -0.273 OA
ATOM     25  O   UNL     1      17.033  80.324  -7.049  1.00  0.00    -0.261 OA
ATOM     26  H   UNL     1      16.017  77.878  -6.648  1.00  0.00     0.173 HD
ENDBRANCH  18  19
ENDBRANCH  17  18
ENDBRANCH  11  12
ENDBRANCH   1  11
TORSDOF 7
ENDMDL
MODEL 10
REMARK VINA RESULT:    -8.765      1.699      2.530
REMARK INTER + INTRA:         -12.868
REMARK INTER:                 -12.258
REMARK INTRA:                  -0.610
REMARK UNBOUND:                -0.516
REMARK SMILES CN(CCOc1ccc(CC2SC(=O)NC2=O)cc1)c1ccccn1
REMARK SMILES IDX 4 1 3 2 2 3 1 4 20 5 21 6 25 7 22 8 24 9 23 10 5 11 6 12
REMARK SMILES IDX 7 13 19 14 8 15 18 16 9 17 10 18 11 19 12 20 16 21 13 22
REMARK SMILES IDX 15 23 17 24 14 25
REMARK H PARENT 15 26
REMARK Flexibility Score: inf
ROOT
ATOM      1  C   UNL     1      11.322  78.842  -2.541  1.00  0.00     0.251 C 
ENDROOT
BRANCH   1   2
ATOM      2  C   UNL     1      10.782  78.570  -1.135  1.00  0.00     0.159 C 
BRANCH   2   3
ATOM      3  N   UNL     1       9.437  77.981  -1.207  1.00  0.00    -0.356 N 
ATOM      4  C   UNL     1       8.280  78.797  -0.817  1.00  0.00     0.145 C 
BRANCH   3   5
ATOM      5  C   UNL     1       9.272  76.605  -1.634  1.00  0.00     0.128 A 
ATOM      6  C   UNL     1       8.420  76.255  -2.702  1.00  0.00     0.047 A 
ATOM      7  N   UNL     1       9.959  75.614  -0.994  1.00  0.00    -0.239 NA
ATOM      8  C   UNL     1       8.296  74.915  -3.075  1.00  0.00     0.005 A 
ATOM      9  C   UNL     1       9.850  74.306  -1.343  1.00  0.00     0.113 A 
ATOM     10  C   UNL     1       9.013  73.932  -2.394  1.00  0.00     0.020 A 
ENDBRANCH   3   5
ENDBRANCH   2   3
ENDBRANCH   1   2
BRANCH   1  11
ATOM     11  O   UNL     1      12.651  78.339  -2.677  1.00  0.00    -0.492 OA
BRANCH  11  12
ATOM     12  C   UNL     1      13.558  78.694  -3.689  1.00  0.00     0.119 A 
ATOM     13  C   UNL     1      13.708  77.950  -4.876  1.00  0.00     0.047 A 
ATOM     14  C   UNL     1      14.350  79.831  -3.495  1.00  0.00     0.047 A 
ATOM     15  C   UNL     1      14.628  78.351  -5.848  1.00  0.00     0.007 A 
ATOM     16  C   UNL     1      15.272  80.232  -4.466  1.00  0.00     0.007 A 
ATOM     17  C   UNL     1      15.413  79.498  -5.653  1.00  0.00    -0.046 A 
BRANCH  17  18
ATOM     18  C   UNL     1      16.425  79.919  -6.688  1.00  0.00     0.060 C 
BRANCH  18  19
ATOM     19  C   UNL     1      17.084  81.257  -6.321  1.00  0.00     0.150 C 
ATOM     20  S   UNL     1      18.889  81.035  -6.009  1.00  0.00    -0.051 SA
ATOM     21  C   UNL     1      16.948  82.241  -7.446  1.00  0.00     0.241 C 
ATOM     22  C   UNL     1      19.268  82.099  -7.391  1.00  0.00     0.286 C 
ATOM     23  N   UNL     1      18.155  82.679  -8.038  1.00  0.00    -0.286 N 
ATOM     24  O   UNL     1      15.830  82.668  -7.838  1.00  0.00    -0.273 OA
ATOM     25  O   UNL     1      20.447  82.316  -7.774  1.00  0.00    -0.261 OA
ATOM     26  H   UNL     1      18.215  83.340  -8.845  1.00  0.00     0.173 HD
ENDBRANCH  18  19
ENDBRANCH  17  18
ENDBRANCH  11  12
ENDBRANCH   1  11
TORSDOF 7
ENDMDL
MODEL 11
REMARK VINA RESULT:    -8.764      2.737      3.413
REMARK INTER + INTRA:         -12.866
REMARK INTER:                 -12.249
REMARK INTRA:                  -0.616
REMARK UNBOUND:                -0.516
REMARK SMILES CN(CCOc1ccc(CC2SC(=O)NC2=O)cc1)c1ccccn1
REMARK SMILES IDX 4 1 3 2 2 3 1 4 20 5 21 6 25 7 22 8 24 9 23 10 5 11 6 12
REMARK SMILES IDX 7 13 19 14 8 15 18 16 9 17 10 18 11 19 12 20 16 21 13 22
REMARK SMILES IDX 15 23 17 24 14 25
REMARK H PARENT 15 26
REMARK Flexibility Score: inf
ROOT
ATOM      1  C   UNL     1      10.742  79.137  -0.419  1.00  0.00     0.251 C 
ENDROOT
BRANCH   1   2
ATOM      2  C   UNL     1       9.549  80.097  -0.418  1.00  0.00     0.159 C 
BRANCH   2   3
ATOM      3  N   UNL     1       8.469  79.571  -1.265  1.00  0.00    -0.356 N 
ATOM      4  C   UNL     1       7.829  80.465  -2.239  1.00  0.00     0.145 C 
BRANCH   3   5
ATOM      5  C   UNL     1       8.033  78.197  -1.112  1.00  0.00     0.128 A 
ATOM      6  C   UNL     1       8.181  77.251  -2.147  1.00  0.00     0.047 A 
ATOM      7  N   UNL     1       7.467  77.796   0.063  1.00  0.00    -0.239 NA
ATOM      8  C   UNL     1       7.746  75.939  -1.951  1.00  0.00     0.005 A 
ATOM      9  C   UNL     1       7.037  76.525   0.272  1.00  0.00     0.113 A 
ATOM     10  C   UNL     1       7.170  75.570  -0.736  1.00  0.00     0.020 A 
ENDBRANCH   3   5
ENDBRANCH   2   3
ENDBRANCH   1   2
BRANCH   1  11
ATOM     11  O   UNL     1      11.965  79.853  -0.590  1.00  0.00    -0.492 OA
BRANCH  11  12
ATOM     12  C   UNL     1      12.756  79.851  -1.751  1.00  0.00     0.119 A 
ATOM     13  C   UNL     1      12.216  80.007  -3.043  1.00  0.00     0.047 A 
ATOM     14  C   UNL     1      14.137  79.675  -1.607  1.00  0.00     0.047 A 
ATOM     15  C   UNL     1      13.053  79.997  -4.162  1.00  0.00     0.007 A 
ATOM     16  C   UNL     1      14.974  79.663  -2.727  1.00  0.00     0.007 A 
ATOM     17  C   UNL     1      14.438  79.830  -4.013  1.00  0.00    -0.046 A 
BRANCH  17  18
ATOM     18  C   UNL     1      15.340  79.792  -5.220  1.00  0.00     0.060 C 
BRANCH  18  19
ATOM     19  C   UNL     1      16.225  81.046  -5.302  1.00  0.00     0.150 C 
ATOM     20  S   UNL     1      17.929  80.610  -5.860  1.00  0.00    -0.051 SA
ATOM     21  C   UNL     1      15.670  82.021  -6.298  1.00  0.00     0.241 C 
ATOM     22  C   UNL     1      17.711  81.598  -7.330  1.00  0.00     0.286 C 
ATOM     23  N   UNL     1      16.488  82.299  -7.418  1.00  0.00    -0.286 N 
ATOM     24  O   UNL     1      14.549  82.575  -6.148  1.00  0.00    -0.273 OA
ATOM     25  O   UNL     1      18.581  81.663  -8.237  1.00  0.00    -0.261 OA
ATOM     26  H   UNL     1      16.224  82.936  -8.203  1.00  0.00     0.173 HD
ENDBRANCH  18  19
ENDBRANCH  17  18
ENDBRANCH  11  12
ENDBRANCH   1  11
TORSDOF 7
ENDMDL
MODEL 12
REMARK VINA RESULT:    -8.674      5.668      8.914
REMARK INTER + INTRA:         -12.740
REMARK INTER:                 -12.136
REMARK INTRA:                  -0.604
REMARK UNBOUND:                -0.516
REMARK SMILES CN(CCOc1ccc(CC2SC(=O)NC2=O)cc1)c1ccccn1
REMARK SMILES IDX 4 1 3 2 2 3 1 4 20 5 21 6 25 7 22 8 24 9 23 10 5 11 6 12
REMARK SMILES IDX 7 13 19 14 8 15 18 16 9 17 10 18 11 19 12 20 16 21 13 22
REMARK SMILES IDX 15 23 17 24 14 25
REMARK H PARENT 15 26
REMARK Flexibility Score: inf
ROOT
ATOM      1  C   UNL     1       8.253  79.948  -0.390  1.00  0.00     0.251 C 
ENDROOT
BRANCH   1   2
ATOM      2  C   UNL     1       9.600  80.439   0.149  1.00  0.00     0.159 C 
BRANCH   2   3
ATOM      3  N   UNL     1      10.640  80.315  -0.882  1.00  0.00    -0.356 N 
ATOM      4  C   UNL     1      10.291  80.591  -2.282  1.00  0.00     0.145 C 
BRANCH   3   5
ATOM      5  C   UNL     1      11.979  79.901  -0.513  1.00  0.00     0.128 A 
ATOM      6  C   UNL     1      13.031  80.829  -0.368  1.00  0.00     0.047 A 
ATOM      7  N   UNL     1      12.239  78.579  -0.293  1.00  0.00    -0.239 NA
ATOM      8  C   UNL     1      14.303  80.379  -0.010  1.00  0.00     0.005 A 
ATOM      9  C   UNL     1      13.470  78.124   0.055  1.00  0.00     0.113 A 
ATOM     10  C   UNL     1      14.528  79.020   0.203  1.00  0.00     0.020 A 
ENDBRANCH   3   5
ENDBRANCH   2   3
ENDBRANCH   1   2
BRANCH   1  11
ATOM     11  O   UNL     1       7.997  78.610   0.037  1.00  0.00    -0.492 OA
BRANCH  11  12
ATOM     12  C   UNL     1       7.952  77.481  -0.798  1.00  0.00     0.119 A 
ATOM     13  C   UNL     1       7.368  76.262  -0.402  1.00  0.00     0.047 A 
ATOM     14  C   UNL     1       8.524  77.580  -2.071  1.00  0.00     0.047 A 
ATOM     15  C   UNL     1       7.353  75.171  -1.275  1.00  0.00     0.007 A 
ATOM     16  C   UNL     1       8.511  76.489  -2.944  1.00  0.00     0.007 A 
ATOM     17  C   UNL     1       7.920  75.278  -2.554  1.00  0.00    -0.046 A 
BRANCH  17  18
ATOM     18  C   UNL     1       7.928  74.095  -3.490  1.00  0.00     0.060 C 
BRANCH  18  19
ATOM     19  C   UNL     1       9.328  73.469  -3.594  1.00  0.00     0.150 C 
ATOM     20  S   UNL     1       9.832  72.717  -1.986  1.00  0.00    -0.051 SA
ATOM     21  C   UNL     1       9.341  72.372  -4.619  1.00  0.00     0.241 C 
ATOM     22  C   UNL     1       9.885  71.103  -2.747  1.00  0.00     0.286 C 
ATOM     23  N   UNL     1       9.628  71.074  -4.135  1.00  0.00    -0.286 N 
ATOM     24  O   UNL     1       9.124  72.586  -5.840  1.00  0.00    -0.273 OA
ATOM     25  O   UNL     1      10.127  70.055  -2.094  1.00  0.00    -0.261 OA
ATOM     26  H   UNL     1       9.648  70.212  -4.725  1.00  0.00     0.173 HD
ENDBRANCH  18  19
ENDBRANCH  17  18
ENDBRANCH  11  12
ENDBRANCH   1  11
TORSDOF 7
ENDMDL
MODEL 13
REMARK VINA RESULT:    -8.657      4.063      4.928
REMARK INTER + INTRA:         -12.716
REMARK INTER:                 -12.330
REMARK INTRA:                  -0.386
REMARK UNBOUND:                -0.516
REMARK SMILES CN(CCOc1ccc(CC2SC(=O)NC2=O)cc1)c1ccccn1
REMARK SMILES IDX 4 1 3 2 2 3 1 4 20 5 21 6 25 7 22 8 24 9 23 10 5 11 6 12
REMARK SMILES IDX 7 13 19 14 8 15 18 16 9 17 10 18 11 19 12 20 16 21 13 22
REMARK SMILES IDX 15 23 17 24 14 25
REMARK H PARENT 15 26
REMARK Flexibility Score: inf
ROOT
ATOM      1  C   UNL     1       7.862  76.449  -0.810  1.00  0.00     0.251 C 
ENDROOT
BRANCH   1   2
ATOM      2  C   UNL     1       7.856  75.227  -1.733  1.00  0.00     0.159 C 
BRANCH   2   3
ATOM      3  N   UNL     1       9.070  74.424  -1.527  1.00  0.00    -0.356 N 
ATOM      4  C   UNL     1      10.024  74.830  -0.488  1.00  0.00     0.145 C 
BRANCH   3   5
ATOM      5  C   UNL     1       9.321  73.267  -2.364  1.00  0.00     0.128 A 
ATOM      6  C   UNL     1       9.151  73.311  -3.763  1.00  0.00     0.047 A 
ATOM      7  N   UNL     1       9.738  72.100  -1.793  1.00  0.00    -0.239 NA
ATOM      8  C   UNL     1       9.407  72.170  -4.526  1.00  0.00     0.005 A 
ATOM      9  C   UNL     1       9.990  70.980  -2.518  1.00  0.00     0.113 A 
ATOM     10  C   UNL     1       9.828  70.995  -3.903  1.00  0.00     0.020 A 
ENDBRANCH   3   5
ENDBRANCH   2   3
ENDBRANCH   1   2
BRANCH   1  11
ATOM     11  O   UNL     1       8.061  77.647  -1.561  1.00  0.00    -0.492 OA
BRANCH  11  12
ATOM     12  C   UNL     1       9.209  78.456  -1.518  1.00  0.00     0.119 A 
ATOM     13  C   UNL     1       9.258  79.672  -0.808  1.00  0.00     0.047 A 
ATOM     14  C   UNL     1      10.341  78.033  -2.222  1.00  0.00     0.047 A 
ATOM     15  C   UNL     1      10.428  80.437  -0.800  1.00  0.00     0.007 A 
ATOM     16  C   UNL     1      11.511  78.798  -2.216  1.00  0.00     0.007 A 
ATOM     17  C   UNL     1      11.565  80.003  -1.500  1.00  0.00    -0.046 A 
BRANCH  17  18
ATOM     18  C   UNL     1      12.820  80.838  -1.515  1.00  0.00     0.060 C 
BRANCH  18  19
ATOM     19  C   UNL     1      13.805  80.396  -0.421  1.00  0.00     0.150 C 
ATOM     20  S   UNL     1      12.905  79.908   1.114  1.00  0.00    -0.051 SA
ATOM     21  C   UNL     1      14.593  79.200  -0.870  1.00  0.00     0.241 C 
ATOM     22  C   UNL     1      13.517  78.239   0.954  1.00  0.00     0.286 C 
ATOM     23  N   UNL     1      14.408  78.016  -0.118  1.00  0.00    -0.286 N 
ATOM     24  O   UNL     1      15.384  79.241  -1.849  1.00  0.00    -0.273 OA
ATOM     25  O   UNL     1      13.175  77.315   1.737  1.00  0.00    -0.261 OA
ATOM     26  H   UNL     1      14.869  77.102  -0.327  1.00  0.00     0.173 HD
ENDBRANCH  18  19
ENDBRANCH  17  18
ENDBRANCH  11  12
ENDBRANCH   1  11
TORSDOF 7
ENDMDL
MODEL 14
REMARK VINA RESULT:    -8.657      2.723      3.582
REMARK INTER + INTRA:         -12.715
REMARK INTER:                 -12.668
REMARK INTRA:                  -0.047
REMARK UNBOUND:                -0.516
REMARK SMILES CN(CCOc1ccc(CC2SC(=O)NC2=O)cc1)c1ccccn1
REMARK SMILES IDX 4 1 3 2 2 3 1 4 20 5 21 6 25 7 22 8 24 9 23 10 5 11 6 12
REMARK SMILES IDX 7 13 19 14 8 15 18 16 9 17 10 18 11 19 12 20 16 21 13 22
REMARK SMILES IDX 15 23 17 24 14 25
REMARK H PARENT 15 26
REMARK Flexibility Score: inf
ROOT
ATOM      1  C   UNL     1       9.032  75.494  -0.663  1.00  0.00     0.251 C 
ENDROOT
BRANCH   1   2
ATOM      2  C   UNL     1       7.767  74.909  -1.300  1.00  0.00     0.159 C 
BRANCH   2   3
ATOM      3  N   UNL     1       8.025  74.531  -2.696  1.00  0.00    -0.356 N 
ATOM      4  C   UNL     1       7.445  75.344  -3.773  1.00  0.00     0.145 C 
BRANCH   3   5
ATOM      5  C   UNL     1       8.819  73.354  -2.992  1.00  0.00     0.128 A 
ATOM      6  C   UNL     1       9.151  72.994  -4.315  1.00  0.00     0.047 A 
ATOM      7  N   UNL     1       9.266  72.568  -1.970  1.00  0.00    -0.239 NA
ATOM      8  C   UNL     1       9.919  71.852  -4.547  1.00  0.00     0.005 A 
ATOM      9  C   UNL     1      10.013  71.453  -2.177  1.00  0.00     0.113 A 
ATOM     10  C   UNL     1      10.354  71.074  -3.475  1.00  0.00     0.020 A 
ENDBRANCH   3   5
ENDBRANCH   2   3
ENDBRANCH   1   2
BRANCH   1  11
ATOM     11  O   UNL     1       8.999  76.921  -0.696  1.00  0.00    -0.492 OA
BRANCH  11  12
ATOM     12  C   UNL     1       9.876  77.741  -1.425  1.00  0.00     0.119 A 
ATOM     13  C   UNL     1       9.742  79.142  -1.480  1.00  0.00     0.047 A 
ATOM     14  C   UNL     1      10.918  77.128  -2.130  1.00  0.00     0.047 A 
ATOM     15  C   UNL     1      10.646  79.907  -2.222  1.00  0.00     0.007 A 
ATOM     16  C   UNL     1      11.822  77.893  -2.874  1.00  0.00     0.007 A 
ATOM     17  C   UNL     1      11.695  79.290  -2.920  1.00  0.00    -0.046 A 
BRANCH  17  18
ATOM     18  C   UNL     1      12.656  80.111  -3.742  1.00  0.00     0.060 C 
BRANCH  18  19
ATOM     19  C   UNL     1      13.849  80.591  -2.901  1.00  0.00     0.150 C 
ATOM     20  S   UNL     1      13.542  80.309  -1.104  1.00  0.00    -0.051 SA
ATOM     21  C   UNL     1      15.092  79.831  -3.262  1.00  0.00     0.241 C 
ATOM     22  C   UNL     1      14.925  79.182  -1.036  1.00  0.00     0.286 C 
ATOM     23  N   UNL     1      15.660  79.044  -2.234  1.00  0.00    -0.286 N 
ATOM     24  O   UNL     1      15.613  79.894  -4.407  1.00  0.00    -0.273 OA
ATOM     25  O   UNL     1      15.226  78.543   0.006  1.00  0.00    -0.261 OA
ATOM     26  H   UNL     1      16.507  78.444  -2.345  1.00  0.00     0.173 HD
ENDBRANCH  18  19
ENDBRANCH  17  18
ENDBRANCH  11  12
ENDBRANCH   1  11
TORSDOF 7
ENDMDL
MODEL 15
REMARK VINA RESULT:    -8.348      4.389      9.067
REMARK INTER + INTRA:         -12.280
REMARK INTER:                 -11.404
REMARK INTRA:                  -0.877
REMARK UNBOUND:                -0.516
REMARK SMILES CN(CCOc1ccc(CC2SC(=O)NC2=O)cc1)c1ccccn1
REMARK SMILES IDX 4 1 3 2 2 3 1 4 20 5 21 6 25 7 22 8 24 9 23 10 5 11 6 12
REMARK SMILES IDX 7 13 19 14 8 15 18 16 9 17 10 18 11 19 12 20 16 21 13 22
REMARK SMILES IDX 15 23 17 24 14 25
REMARK H PARENT 15 26
REMARK Flexibility Score: inf
ROOT
ATOM      1  C   UNL     1      13.136  80.792   0.215  1.00  0.00     0.251 C 
ENDROOT
BRANCH   1   2
ATOM      2  C   UNL     1      14.256  80.916  -0.823  1.00  0.00     0.159 C 
BRANCH   2   3
ATOM      3  N   UNL     1      14.631  79.589  -1.332  1.00  0.00    -0.356 N 
ATOM      4  C   UNL     1      15.143  78.584  -0.391  1.00  0.00     0.145 C 
BRANCH   3   5
ATOM      5  C   UNL     1      14.517  79.299  -2.748  1.00  0.00     0.128 A 
ATOM      6  C   UNL     1      13.725  78.235  -3.228  1.00  0.00     0.047 A 
ATOM      7  N   UNL     1      15.188  80.072  -3.651  1.00  0.00    -0.239 NA
ATOM      8  C   UNL     1      13.648  77.997  -4.601  1.00  0.00     0.005 A 
ATOM      9  C   UNL     1      15.126  79.855  -4.990  1.00  0.00     0.113 A 
ATOM     10  C   UNL     1      14.352  78.809  -5.490  1.00  0.00     0.020 A 
ENDBRANCH   3   5
ENDBRANCH   2   3
ENDBRANCH   1   2
BRANCH   1  11
ATOM     11  O   UNL     1      11.884  81.186  -0.345  1.00  0.00    -0.492 OA
BRANCH  11  12
ATOM     12  C   UNL     1      10.909  80.314  -0.858  1.00  0.00     0.119 A 
ATOM     13  C   UNL     1       9.694  80.768  -1.410  1.00  0.00     0.047 A 
ATOM     14  C   UNL     1      11.160  78.939  -0.804  1.00  0.00     0.047 A 
ATOM     15  C   UNL     1       8.760  79.853  -1.905  1.00  0.00     0.007 A 
ATOM     16  C   UNL     1      10.225  78.024  -1.297  1.00  0.00     0.007 A 
ATOM     17  C   UNL     1       9.021  78.475  -1.857  1.00  0.00    -0.046 A 
BRANCH  17  18
ATOM     18  C   UNL     1       8.005  77.485  -2.366  1.00  0.00     0.060 C 
BRANCH  18  19
ATOM     19  C   UNL     1       8.073  76.158  -1.594  1.00  0.00     0.150 C 
ATOM     20  S   UNL     1       7.413  76.360   0.117  1.00  0.00    -0.051 SA
ATOM     21  C   UNL     1       7.239  75.109  -2.269  1.00  0.00     0.241 C 
ATOM     22  C   UNL     1       6.101  75.204  -0.243  1.00  0.00     0.286 C 
ATOM     23  N   UNL     1       6.146  74.610  -1.523  1.00  0.00    -0.286 N 
ATOM     24  O   UNL     1       7.496  74.683  -3.426  1.00  0.00    -0.273 OA
ATOM     25  O   UNL     1       5.189  74.939   0.582  1.00  0.00    -0.261 OA
ATOM     26  H   UNL     1       5.465  73.898  -1.871  1.00  0.00     0.173 HD
ENDBRANCH  18  19
ENDBRANCH  17  18
ENDBRANCH  11  12
ENDBRANCH   1  11
TORSDOF 7
ENDMDL
