MODEL 1
REMARK VINA RESULT:    -5.896      0.000      0.000
REMARK INTER + INTRA:          -8.552
REMARK INTER:                  -7.103
REMARK INTRA:                  -1.449
REMARK UNBOUND:                -1.449
REMARK SMILES CC#C[C@]1(O)CC[C@H]2[C@@H]3CCC4=CC(=O)CCC4=C3[C@@H](c3ccc(N(C)C)cc3)C[C@@]21C
REMARK SMILES IDX 8 1 7 2 6 3 4 4 31 5 32 6 30 7 20 8 19 9 18 10 17 11 16 12
REMARK SMILES IDX 14 13 15 14 13 15 12 16 11 17 10 18 9 19 5 20 3 22 2 23 1 24
REMARK SMILES IDX 21 25 22 26 29 27 23 28 28 29 24 30 25 31 26 32 27 33
REMARK H PARENT 5 21
REMARK Flexibility Score: inf
ROOT
ATOM      1  C   UNL     1       8.709  73.411  -1.948  1.00  0.00     0.006 C 
ATOM      2  C   UNL     1       8.790  71.950  -1.507  1.00  0.00     0.009 C 
ATOM      3  C   UNL     1       9.741  71.277  -2.513  1.00  0.00     0.050 C 
ATOM      4  C   UNL     1      10.308  72.402  -3.420  1.00  0.00     0.131 C 
ATOM      5  C   UNL     1      10.070  73.700  -2.581  1.00  0.00     0.012 C 
ATOM      6  C   UNL     1      11.220  73.838  -1.534  1.00  0.00     0.016 C 
ATOM      7  C   UNL     1       9.933  75.014  -3.385  1.00  0.00     0.024 C 
ATOM      8  C   UNL     1       9.429  76.224  -2.538  1.00  0.00     0.046 C 
ATOM      9  C   UNL     1       8.390  75.882  -1.441  1.00  0.00    -0.056 C 
ATOM     10  C   UNL     1       7.625  76.869  -0.874  1.00  0.00    -0.044 C 
ATOM     11  C   UNL     1       7.590  78.297  -1.413  1.00  0.00     0.044 C 
ATOM     12  C   UNL     1       7.421  79.322  -0.289  1.00  0.00     0.085 C 
ATOM     13  C   UNL     1       6.288  78.941   0.611  1.00  0.00     0.156 C 
ATOM     14  O   UNL     1       5.609  79.832   1.184  1.00  0.00    -0.295 OA
ATOM     15  C   UNL     1       6.029  77.525   0.898  1.00  0.00     0.051 C 
ATOM     16  C   UNL     1       6.660  76.546   0.229  1.00  0.00    -0.041 C 
ATOM     17  C   UNL     1       6.437  75.125   0.668  1.00  0.00     0.036 C 
ATOM     18  C   UNL     1       6.854  74.148  -0.420  1.00  0.00     0.013 C 
ATOM     19  C   UNL     1       8.290  74.448  -0.886  1.00  0.00     0.020 C 
ENDROOT
BRANCH   4  20
ATOM     20  O   UNL     1      11.679  72.208  -3.679  1.00  0.00    -0.377 OA
ATOM     21  H   UNL     1      12.000  71.479  -3.084  1.00  0.00     0.212 HD
ENDBRANCH   4  20
BRANCH   4  22
ATOM     22  C   UNL     1       9.576  72.410  -4.710  1.00  0.00    -0.068 C 
ATOM     23  C   UNL     1       8.980  72.416  -5.759  1.00  0.00    -0.104 C 
ATOM     24  C   UNL     1       8.254  72.423  -7.027  1.00  0.00     0.107 C 
ENDBRANCH   4  22
BRANCH   8  25
ATOM     25  C   UNL     1      10.600  77.067  -2.031  1.00  0.00    -0.041 A 
ATOM     26  C   UNL     1      10.971  77.125  -0.672  1.00  0.00     0.006 A 
ATOM     27  C   UNL     1      11.316  77.853  -2.950  1.00  0.00     0.006 A 
ATOM     28  C   UNL     1      12.039  77.922  -0.256  1.00  0.00     0.026 A 
ATOM     29  C   UNL     1      12.384  78.652  -2.535  1.00  0.00     0.026 A 
ATOM     30  C   UNL     1      12.766  78.697  -1.181  1.00  0.00     0.036 A 
BRANCH  30  31
ATOM     31  N   UNL     1      13.878  79.523  -0.748  1.00  0.00    -0.378 N 
ATOM     32  C   UNL     1      13.852  80.178   0.566  1.00  0.00     0.143 C 
ATOM     33  C   UNL     1      15.044  79.717  -1.616  1.00  0.00     0.143 C 
ENDBRANCH  30  31
ENDBRANCH   8  25
TORSDOF 4
ENDMDL
MODEL 2
REMARK VINA RESULT:    -5.212      2.576      6.461
REMARK INTER + INTRA:          -7.727
REMARK INTER:                  -6.387
REMARK INTRA:                  -1.340
REMARK UNBOUND:                -1.449
REMARK SMILES CC#C[C@]1(O)CC[C@H]2[C@@H]3CCC4=CC(=O)CCC4=C3[C@@H](c3ccc(N(C)C)cc3)C[C@@]21C
REMARK SMILES IDX 8 1 7 2 6 3 4 4 31 5 32 6 30 7 20 8 19 9 18 10 17 11 16 12
REMARK SMILES IDX 14 13 15 14 13 15 12 16 11 17 10 18 9 19 5 20 3 22 2 23 1 24
REMARK SMILES IDX 21 25 22 26 29 27 23 28 28 29 24 30 25 31 26 32 27 33
REMARK H PARENT 5 21
REMARK Flexibility Score: inf
ROOT
ATOM      1  C   UNL     1      10.654  78.934  -1.052  1.00  0.00     0.006 C 
ATOM      2  C   UNL     1      10.926  80.324  -1.626  1.00  0.00     0.009 C 
ATOM      3  C   UNL     1      12.413  80.313  -2.022  1.00  0.00     0.050 C 
ATOM      4  C   UNL     1      12.927  78.864  -1.808  1.00  0.00     0.131 C 
ATOM      5  C   UNL     1      11.616  78.010  -1.800  1.00  0.00     0.012 C 
ATOM      6  C   UNL     1      11.186  77.738  -3.276  1.00  0.00     0.016 C 
ATOM      7  C   UNL     1      11.677  76.678  -1.018  1.00  0.00     0.024 C 
ATOM      8  C   UNL     1      10.285  76.004  -0.809  1.00  0.00     0.046 C 
ATOM      9  C   UNL     1       9.101  76.976  -0.580  1.00  0.00    -0.056 C 
ATOM     10  C   UNL     1       7.919  76.524  -0.052  1.00  0.00    -0.044 C 
ATOM     11  C   UNL     1       7.760  75.121   0.529  1.00  0.00     0.044 C 
ATOM     12  C   UNL     1       6.358  74.561   0.280  1.00  0.00     0.085 C 
ATOM     13  C   UNL     1       5.311  75.552   0.681  1.00  0.00     0.156 C 
ATOM     14  O   UNL     1       4.199  75.154   1.117  1.00  0.00    -0.295 OA
ATOM     15  C   UNL     1       5.549  76.986   0.478  1.00  0.00     0.051 C 
ATOM     16  C   UNL     1       6.754  77.453   0.116  1.00  0.00    -0.041 C 
ATOM     17  C   UNL     1       6.884  78.918  -0.197  1.00  0.00     0.036 C 
ATOM     18  C   UNL     1       8.340  79.355  -0.163  1.00  0.00     0.013 C 
ATOM     19  C   UNL     1       9.193  78.438  -1.059  1.00  0.00     0.020 C 
ENDROOT
BRANCH   4  20
ATOM     20  O   UNL     1      13.787  78.466  -2.851  1.00  0.00    -0.377 OA
ATOM     21  H   UNL     1      13.759  79.171  -3.552  1.00  0.00     0.212 HD
ENDBRANCH   4  20
BRANCH   4  22
ATOM     22  C   UNL     1      13.668  78.789  -0.525  1.00  0.00    -0.068 C 
ATOM     23  C   UNL     1      14.271  78.729   0.518  1.00  0.00    -0.104 C 
ATOM     24  C   UNL     1      14.997  78.655   1.785  1.00  0.00     0.107 C 
ENDBRANCH   4  22
BRANCH   8  25
ATOM     25  C   UNL     1      10.016  74.953  -1.888  1.00  0.00    -0.041 A 
ATOM     26  C   UNL     1      10.822  73.810  -2.061  1.00  0.00     0.006 A 
ATOM     27  C   UNL     1       8.943  75.152  -2.774  1.00  0.00     0.006 A 
ATOM     28  C   UNL     1      10.545  72.886  -3.070  1.00  0.00     0.026 A 
ATOM     29  C   UNL     1       8.666  74.230  -3.785  1.00  0.00     0.026 A 
ATOM     30  C   UNL     1       9.460  73.078  -3.948  1.00  0.00     0.036 A 
BRANCH  30  31
ATOM     31  N   UNL     1       9.171  72.116  -4.995  1.00  0.00    -0.378 N 
ATOM     32  C   UNL     1       8.523  72.544  -6.242  1.00  0.00     0.143 C 
ATOM     33  C   UNL     1       9.519  70.701  -4.824  1.00  0.00     0.143 C 
ENDBRANCH  30  31
ENDBRANCH   8  25
TORSDOF 4
ENDMDL
MODEL 3
REMARK VINA RESULT:    -5.174      2.590      6.490
REMARK INTER + INTRA:          -7.682
REMARK INTER:                  -6.238
REMARK INTRA:                  -1.444
REMARK UNBOUND:                -1.449
REMARK SMILES CC#C[C@]1(O)CC[C@H]2[C@@H]3CCC4=CC(=O)CCC4=C3[C@@H](c3ccc(N(C)C)cc3)C[C@@]21C
REMARK SMILES IDX 8 1 7 2 6 3 4 4 31 5 32 6 30 7 20 8 19 9 18 10 17 11 16 12
REMARK SMILES IDX 14 13 15 14 13 15 12 16 11 17 10 18 9 19 5 20 3 22 2 23 1 24
REMARK SMILES IDX 21 25 22 26 29 27 23 28 28 29 24 30 25 31 26 32 27 33
REMARK H PARENT 5 21
REMARK Flexibility Score: inf
ROOT
ATOM      1  C   UNL     1      10.557  79.025  -0.982  1.00  0.00     0.006 C 
ATOM      2  C   UNL     1      10.810  80.437  -1.510  1.00  0.00     0.009 C 
ATOM      3  C   UNL     1      12.286  80.448  -1.942  1.00  0.00     0.050 C 
ATOM      4  C   UNL     1      12.811  78.994  -1.796  1.00  0.00     0.131 C 
ATOM      5  C   UNL     1      11.504  78.135  -1.787  1.00  0.00     0.012 C 
ATOM      6  C   UNL     1      11.038  77.917  -3.262  1.00  0.00     0.016 C 
ATOM      7  C   UNL     1      11.588  76.775  -1.058  1.00  0.00     0.024 C 
ATOM      8  C   UNL     1      10.204  76.087  -0.840  1.00  0.00     0.046 C 
ATOM      9  C   UNL     1       9.023  77.045  -0.546  1.00  0.00    -0.056 C 
ATOM     10  C   UNL     1       7.856  76.568  -0.006  1.00  0.00    -0.044 C 
ATOM     11  C   UNL     1       7.716  75.144   0.526  1.00  0.00     0.044 C 
ATOM     12  C   UNL     1       6.310  74.588   0.291  1.00  0.00     0.085 C 
ATOM     13  C   UNL     1       5.270  75.559   0.755  1.00  0.00     0.156 C 
ATOM     14  O   UNL     1       4.171  75.140   1.203  1.00  0.00    -0.295 OA
ATOM     15  C   UNL     1       5.498  77.000   0.601  1.00  0.00     0.051 C 
ATOM     16  C   UNL     1       6.692  77.486   0.226  1.00  0.00    -0.041 C 
ATOM     17  C   UNL     1       6.810  78.962  -0.034  1.00  0.00     0.036 C 
ATOM     18  C   UNL     1       8.265  79.403  -0.020  1.00  0.00     0.013 C 
ATOM     19  C   UNL     1       9.099  78.525  -0.971  1.00  0.00     0.020 C 
ENDROOT
BRANCH   4  20
ATOM     20  O   UNL     1      13.645  78.639  -2.874  1.00  0.00    -0.377 OA
ATOM     21  H   UNL     1      13.465  79.273  -3.619  1.00  0.00     0.212 HD
ENDBRANCH   4  20
BRANCH   4  22
ATOM     22  C   UNL     1      13.584  78.874  -0.535  1.00  0.00    -0.068 C 
ATOM     23  C   UNL     1      14.213  78.777   0.489  1.00  0.00    -0.104 C 
ATOM     24  C   UNL     1      14.971  78.657   1.733  1.00  0.00     0.107 C 
ENDBRANCH   4  22
BRANCH   8  25
ATOM     25  C   UNL     1       9.911  75.077  -1.951  1.00  0.00    -0.041 A 
ATOM     26  C   UNL     1       8.870  75.247  -2.886  1.00  0.00     0.006 A 
ATOM     27  C   UNL     1      10.684  73.905  -2.021  1.00  0.00     0.006 A 
ATOM     28  C   UNL     1       8.632  74.288  -3.873  1.00  0.00     0.026 A 
ATOM     29  C   UNL     1      10.446  72.945  -3.006  1.00  0.00     0.026 A 
ATOM     30  C   UNL     1       9.418  73.122  -3.952  1.00  0.00     0.036 A 
BRANCH  30  31
ATOM     31  N   UNL     1       9.172  72.127  -4.980  1.00  0.00    -0.378 N 
ATOM     32  C   UNL     1       9.578  70.731  -4.778  1.00  0.00     0.143 C 
ATOM     33  C   UNL     1       8.515  72.502  -6.237  1.00  0.00     0.143 C 
ENDBRANCH  30  31
ENDBRANCH   8  25
TORSDOF 4
ENDMDL
MODEL 4
REMARK VINA RESULT:    -3.427      3.528      7.759
REMARK INTER + INTRA:          -5.578
REMARK INTER:                  -4.312
REMARK INTRA:                  -1.266
REMARK UNBOUND:                -1.449
REMARK SMILES CC#C[C@]1(O)CC[C@H]2[C@@H]3CCC4=CC(=O)CCC4=C3[C@@H](c3ccc(N(C)C)cc3)C[C@@]21C
REMARK SMILES IDX 8 1 7 2 6 3 4 4 31 5 32 6 30 7 20 8 19 9 18 10 17 11 16 12
REMARK SMILES IDX 14 13 15 14 13 15 12 16 11 17 10 18 9 19 5 20 3 22 2 23 1 24
REMARK SMILES IDX 21 25 22 26 29 27 23 28 28 29 24 30 25 31 26 32 27 33
REMARK H PARENT 5 21
REMARK Flexibility Score: inf
ROOT
ATOM      1  C   UNL     1      14.400  80.395  -3.119  1.00  0.00     0.006 C 
ATOM      2  C   UNL     1      14.591  81.868  -3.478  1.00  0.00     0.009 C 
ATOM      3  C   UNL     1      14.478  81.928  -5.011  1.00  0.00     0.050 C 
ATOM      4  C   UNL     1      14.070  80.509  -5.490  1.00  0.00     0.131 C 
ATOM      5  C   UNL     1      13.472  79.849  -4.205  1.00  0.00     0.012 C 
ATOM      6  C   UNL     1      11.991  80.320  -4.043  1.00  0.00     0.016 C 
ATOM      7  C   UNL     1      13.541  78.306  -4.137  1.00  0.00     0.024 C 
ATOM      8  C   UNL     1      13.188  77.719  -2.734  1.00  0.00     0.046 C 
ATOM      9  C   UNL     1      13.652  78.564  -1.521  1.00  0.00    -0.056 C 
ATOM     10  C   UNL     1      13.713  78.010  -0.269  1.00  0.00    -0.044 C 
ATOM     11  C   UNL     1      13.540  76.514  -0.020  1.00  0.00     0.044 C 
ATOM     12  C   UNL     1      12.839  76.239   1.313  1.00  0.00     0.085 C 
ATOM     13  C   UNL     1      13.484  77.010   2.421  1.00  0.00     0.156 C 
ATOM     14  O   UNL     1      13.502  76.542   3.589  1.00  0.00    -0.295 OA
ATOM     15  C   UNL     1      14.014  78.354   2.161  1.00  0.00     0.051 C 
ATOM     16  C   UNL     1      14.107  78.844   0.915  1.00  0.00    -0.041 C 
ATOM     17  C   UNL     1      14.538  80.274   0.742  1.00  0.00     0.036 C 
ATOM     18  C   UNL     1      15.002  80.534  -0.683  1.00  0.00     0.013 C 
ATOM     19  C   UNL     1      13.931  80.070  -1.686  1.00  0.00     0.020 C 
ENDROOT
BRANCH   4  20
ATOM     20  O   UNL     1      13.114  80.571  -6.523  1.00  0.00    -0.377 OA
ATOM     21  H   UNL     1      12.482  79.814  -6.397  1.00  0.00     0.212 HD
ENDBRANCH   4  20
BRANCH   4  22
ATOM     22  C   UNL     1      15.271  79.797  -5.995  1.00  0.00    -0.068 C 
ATOM     23  C   UNL     1      16.245  79.218  -6.406  1.00  0.00    -0.104 C 
ATOM     24  C   UNL     1      17.428  78.520  -6.906  1.00  0.00     0.107 C 
ENDBRANCH   4  22
BRANCH   8  25
ATOM     25  C   UNL     1      11.717  77.306  -2.666  1.00  0.00    -0.041 A 
ATOM     26  C   UNL     1      10.697  78.172  -2.222  1.00  0.00     0.006 A 
ATOM     27  C   UNL     1      11.365  75.992  -3.022  1.00  0.00     0.006 A 
ATOM     28  C   UNL     1       9.370  77.743  -2.164  1.00  0.00     0.026 A 
ATOM     29  C   UNL     1      10.038  75.562  -2.962  1.00  0.00     0.026 A 
ATOM     30  C   UNL     1       9.017  76.432  -2.535  1.00  0.00     0.036 A 
BRANCH  30  31
ATOM     31  N   UNL     1       7.636  75.988  -2.477  1.00  0.00    -0.378 N 
ATOM     32  C   UNL     1       6.922  75.943  -1.195  1.00  0.00     0.143 C 
ATOM     33  C   UNL     1       6.934  75.575  -3.697  1.00  0.00     0.143 C 
ENDBRANCH  30  31
ENDBRANCH   8  25
TORSDOF 4
ENDMDL
