MODEL 1
REMARK VINA RESULT:    -7.334      0.000      0.000
REMARK INTER + INTRA:         -16.963
REMARK INTER:                 -14.837
REMARK INTRA:                  -2.126
REMARK UNBOUND:                -2.126
REMARK SMILES OCc1cc(C(O)CNCCCCCCOCCCCc2ccccc2)ccc1O
REMARK SMILES IDX 12 1 11 2 10 3 9 4 8 6 6 7 5 8 3 9 29 10 4 11 28 12 27 13
REMARK SMILES IDX 2 14 1 15 30 17 7 19 13 21 14 22 15 23 16 24 17 25 18 26
REMARK SMILES IDX 19 27 20 28 21 29 22 30 26 31 23 32 25 33 24 34
REMARK H PARENT 9 5 1 16 30 18 7 20
REMARK Flexibility Score: inf
ROOT
ATOM      1  C   UNL     1      28.819  12.407   9.802  1.00  0.00     0.001 C 
ENDROOT
BRANCH   1   2
ATOM      2  C   UNL     1      29.305  13.576  10.676  1.00  0.00     0.015 C 
BRANCH   2   3
ATOM      3  C   UNL     1      30.731  13.346  11.202  1.00  0.00     0.081 C 
BRANCH   3   4
ATOM      4  N   UNL     1      31.005  14.183  12.381  1.00  0.00    -0.314 NA
ATOM      5  H   UNL     1      30.404  13.833  13.165  1.00  0.00     0.122 HD
BRANCH   4   6
ATOM      6  C   UNL     1      30.647  15.588  12.139  1.00  0.00     0.117 C 
BRANCH   6   7
ATOM      7  C   UNL     1      30.434  16.317  13.472  1.00  0.00     0.158 C 
BRANCH   7   8
ATOM      8  C   UNL     1      29.123  17.073  13.445  1.00  0.00    -0.018 A 
ATOM      9  C   UNL     1      26.778  17.196  12.774  1.00  0.00     0.020 A 
ATOM     10  C   UNL     1      26.648  18.414  13.467  1.00  0.00     0.121 A 
ATOM     11  C   UNL     1      28.020  16.540  12.758  1.00  0.00     0.016 A 
ATOM     12  C   UNL     1      27.744  18.940  14.164  1.00  0.00     0.047 A 
ATOM     13  C   UNL     1      28.969  18.271  14.163  1.00  0.00     0.010 A 
BRANCH   9  14
ATOM     14  C   UNL     1      25.619  16.618  12.005  1.00  0.00     0.195 C 
BRANCH  14  15
ATOM     15  O   UNL     1      24.602  16.231  12.887  1.00  0.00    -0.392 OA
ATOM     16  H   UNL     1      24.216  15.390  12.525  1.00  0.00     0.211 HD
ENDBRANCH  14  15
ENDBRANCH   9  14
BRANCH  10  17
ATOM     17  O   UNL     1      25.431  19.096  13.466  1.00  0.00    -0.508 OA
ATOM     18  H   UNL     1      25.196  19.762  12.740  1.00  0.00     0.293 HD
ENDBRANCH  10  17
ENDBRANCH   7   8
BRANCH   7  19
ATOM     19  O   UNL     1      30.444  15.387  14.526  1.00  0.00    -0.387 OA
ATOM     20  H   UNL     1      29.719  14.734  14.338  1.00  0.00     0.211 HD
ENDBRANCH   7  19
ENDBRANCH   6   7
ENDBRANCH   4   6
ENDBRANCH   3   4
ENDBRANCH   2   3
ENDBRANCH   1   2
BRANCH   1  21
ATOM     21  C   UNL     1      29.974  11.532   9.283  1.00  0.00     0.002 C 
BRANCH  21  22
ATOM     22  C   UNL     1      29.806  10.021   9.534  1.00  0.00     0.028 C 
BRANCH  22  23
ATOM     23  C   UNL     1      29.073   9.685  10.844  1.00  0.00     0.160 C 
BRANCH  23  24
ATOM     24  O   UNL     1      28.344   8.476  10.744  1.00  0.00    -0.381 OA
BRANCH  24  25
ATOM     25  C   UNL     1      28.020   8.169   9.399  1.00  0.00     0.160 C 
BRANCH  25  26
ATOM     26  C   UNL     1      26.651   7.490   9.329  1.00  0.00     0.029 C 
BRANCH  26  27
ATOM     27  C   UNL     1      25.731   7.948  10.472  1.00  0.00     0.007 C 
BRANCH  27  28
ATOM     28  C   UNL     1      24.499   8.708   9.959  1.00  0.00     0.035 C 
BRANCH  28  29
ATOM     29  C   UNL     1      24.447  10.119  10.487  1.00  0.00    -0.048 A 
ATOM     30  C   UNL     1      23.347  10.558  11.245  1.00  0.00     0.004 A 
ATOM     31  C   UNL     1      25.516  11.002  10.252  1.00  0.00     0.004 A 
ATOM     32  C   UNL     1      23.313  11.863  11.746  1.00  0.00     0.000 A 
ATOM     33  C   UNL     1      25.479  12.305  10.758  1.00  0.00     0.000 A 
ATOM     34  C   UNL     1      24.379  12.735  11.504  1.00  0.00     0.000 A 
ENDBRANCH  28  29
ENDBRANCH  27  28
ENDBRANCH  26  27
ENDBRANCH  25  26
ENDBRANCH  24  25
ENDBRANCH  23  24
ENDBRANCH  22  23
ENDBRANCH  21  22
ENDBRANCH   1  21
TORSDOF 19
ENDMDL
MODEL 2
REMARK VINA RESULT:    -7.204      3.000      7.026
REMARK INTER + INTRA:         -16.700
REMARK INTER:                 -14.637
REMARK INTRA:                  -2.063
REMARK UNBOUND:                -2.126
REMARK SMILES OCc1cc(C(O)CNCCCCCCOCCCCc2ccccc2)ccc1O
REMARK SMILES IDX 12 1 11 2 10 3 9 4 8 6 6 7 5 8 3 9 29 10 4 11 28 12 27 13
REMARK SMILES IDX 2 14 1 15 30 17 7 19 13 21 14 22 15 23 16 24 17 25 18 26
REMARK SMILES IDX 19 27 20 28 21 29 22 30 26 31 23 32 25 33 24 34
REMARK H PARENT 9 5 1 16 30 18 7 20
REMARK Flexibility Score: inf
ROOT
ATOM      1  C   UNL     1      32.289   9.878   8.760  1.00  0.00     0.001 C 
ENDROOT
BRANCH   1   2
ATOM      2  C   UNL     1      31.038   9.459   9.552  1.00  0.00     0.015 C 
BRANCH   2   3
ATOM      3  C   UNL     1      30.745   7.958   9.411  1.00  0.00     0.081 C 
BRANCH   3   4
ATOM      4  N   UNL     1      29.563   7.570  10.196  1.00  0.00    -0.314 NA
ATOM      5  H   UNL     1      29.055   6.827   9.659  1.00  0.00     0.122 HD
BRANCH   4   6
ATOM      6  C   UNL     1      28.640   8.699  10.376  1.00  0.00     0.117 C 
BRANCH   6   7
ATOM      7  C   UNL     1      27.624   8.740   9.228  1.00  0.00     0.158 C 
BRANCH   7   8
ATOM      8  C   UNL     1      26.216   8.766   9.784  1.00  0.00    -0.018 A 
ATOM      9  C   UNL     1      24.265  10.039  10.515  1.00  0.00     0.020 A 
ATOM     10  C   UNL     1      23.563   8.838  10.723  1.00  0.00     0.121 A 
ATOM     11  C   UNL     1      25.592   9.994  10.059  1.00  0.00     0.016 A 
ATOM     12  C   UNL     1      24.179   7.612  10.437  1.00  0.00     0.047 A 
ATOM     13  C   UNL     1      25.491   7.575   9.961  1.00  0.00     0.010 A 
BRANCH   9  14
ATOM     14  C   UNL     1      23.630  11.369  10.829  1.00  0.00     0.195 C 
BRANCH  14  15
ATOM     15  O   UNL     1      23.051  11.336  12.104  1.00  0.00    -0.392 OA
ATOM     16  H   UNL     1      23.642  11.871  12.699  1.00  0.00     0.211 HD
ENDBRANCH  14  15
ENDBRANCH   9  14
BRANCH  10  17
ATOM     17  O   UNL     1      22.255   8.863  11.208  1.00  0.00    -0.508 OA
ATOM     18  H   UNL     1      21.914   8.162  11.853  1.00  0.00     0.293 HD
ENDBRANCH  10  17
ENDBRANCH   7   8
BRANCH   7  19
ATOM     19  O   UNL     1      27.858   9.872   8.429  1.00  0.00    -0.387 OA
ATOM     20  H   UNL     1      28.424  10.488   8.964  1.00  0.00     0.211 HD
ENDBRANCH   7  19
ENDBRANCH   6   7
ENDBRANCH   4   6
ENDBRANCH   3   4
ENDBRANCH   2   3
ENDBRANCH   1   2
BRANCH   1  21
ATOM     21  C   UNL     1      33.496  10.173   9.667  1.00  0.00     0.002 C 
BRANCH  21  22
ATOM     22  C   UNL     1      33.163  10.942  10.960  1.00  0.00     0.028 C 
BRANCH  22  23
ATOM     23  C   UNL     1      32.951  12.450  10.752  1.00  0.00     0.160 C 
BRANCH  23  24
ATOM     24  O   UNL     1      31.660  12.862  11.160  1.00  0.00    -0.381 OA
BRANCH  24  25
ATOM     25  C   UNL     1      30.928  13.431  10.088  1.00  0.00     0.160 C 
BRANCH  25  26
ATOM     26  C   UNL     1      29.767  12.514   9.698  1.00  0.00     0.029 C 
BRANCH  26  27
ATOM     27  C   UNL     1      28.636  12.558  10.737  1.00  0.00     0.007 C 
BRANCH  27  28
ATOM     28  C   UNL     1      27.290  12.959  10.117  1.00  0.00     0.035 C 
BRANCH  28  29
ATOM     29  C   UNL     1      26.745  14.228  10.725  1.00  0.00    -0.048 A 
ATOM     30  C   UNL     1      27.538  15.387  10.789  1.00  0.00     0.004 A 
ATOM     31  C   UNL     1      25.424  14.270  11.205  1.00  0.00     0.004 A 
ATOM     32  C   UNL     1      27.021  16.565  11.338  1.00  0.00     0.000 A 
ATOM     33  C   UNL     1      24.910  15.452  11.750  1.00  0.00     0.000 A 
ATOM     34  C   UNL     1      25.707  16.597  11.816  1.00  0.00     0.000 A 
ENDBRANCH  28  29
ENDBRANCH  27  28
ENDBRANCH  26  27
ENDBRANCH  25  26
ENDBRANCH  24  25
ENDBRANCH  23  24
ENDBRANCH  22  23
ENDBRANCH  21  22
ENDBRANCH   1  21
TORSDOF 19
ENDMDL
MODEL 3
REMARK VINA RESULT:    -7.164      7.633     12.556
REMARK INTER + INTRA:         -16.620
REMARK INTER:                 -15.360
REMARK INTRA:                  -1.260
REMARK UNBOUND:                -2.126
REMARK SMILES OCc1cc(C(O)CNCCCCCCOCCCCc2ccccc2)ccc1O
REMARK SMILES IDX 12 1 11 2 10 3 9 4 8 6 6 7 5 8 3 9 29 10 4 11 28 12 27 13
REMARK SMILES IDX 2 14 1 15 30 17 7 19 13 21 14 22 15 23 16 24 17 25 18 26
REMARK SMILES IDX 19 27 20 28 21 29 22 30 26 31 23 32 25 33 24 34
REMARK H PARENT 9 5 1 16 30 18 7 20
REMARK Flexibility Score: inf
ROOT
ATOM      1  C   UNL     1      33.124   6.676   7.880  1.00  0.00     0.001 C 
ENDROOT
BRANCH   1   2
ATOM      2  C   UNL     1      34.151   5.532   7.921  1.00  0.00     0.015 C 
BRANCH   2   3
ATOM      3  C   UNL     1      33.516   4.205   8.365  1.00  0.00     0.081 C 
BRANCH   3   4
ATOM      4  N   UNL     1      34.532   3.152   8.516  1.00  0.00    -0.314 NA
ATOM      5  H   UNL     1      34.913   3.216   9.490  1.00  0.00     0.122 HD
BRANCH   4   6
ATOM      6  C   UNL     1      35.654   3.347   7.586  1.00  0.00     0.117 C 
BRANCH   6   7
ATOM      7  C   UNL     1      35.704   2.200   6.569  1.00  0.00     0.158 C 
BRANCH   7   8
ATOM      8  C   UNL     1      35.439   2.732   5.177  1.00  0.00    -0.018 A 
ATOM      9  C   UNL     1      35.051   2.314   2.802  1.00  0.00     0.020 A 
ATOM     10  C   UNL     1      34.846   3.691   2.597  1.00  0.00     0.121 A 
ATOM     11  C   UNL     1      35.359   1.846   4.090  1.00  0.00     0.016 A 
ATOM     12  C   UNL     1      34.912   4.575   3.682  1.00  0.00     0.047 A 
ATOM     13  C   UNL     1      35.195   4.100   4.964  1.00  0.00     0.010 A 
BRANCH   9  14
ATOM     14  C   UNL     1      35.000   1.346   1.649  1.00  0.00     0.195 C 
BRANCH  14  15
ATOM     15  O   UNL     1      33.746   1.403   1.028  1.00  0.00    -0.392 OA
ATOM     16  H   UNL     1      33.902   1.252   0.058  1.00  0.00     0.211 HD
ENDBRANCH  14  15
ENDBRANCH   9  14
BRANCH  10  17
ATOM     17  O   UNL     1      34.572   4.178   1.318  1.00  0.00    -0.508 OA
ATOM     18  H   UNL     1      33.772   3.856   0.788  1.00  0.00     0.293 HD
ENDBRANCH  10  17
ENDBRANCH   7   8
BRANCH   7  19
ATOM     19  O   UNL     1      36.960   1.572   6.625  1.00  0.00    -0.387 OA
ATOM     20  H   UNL     1      37.592   2.152   6.124  1.00  0.00     0.211 HD
ENDBRANCH   7  19
ENDBRANCH   6   7
ENDBRANCH   4   6
ENDBRANCH   3   4
ENDBRANCH   2   3
ENDBRANCH   1   2
BRANCH   1  21
ATOM     21  C   UNL     1      32.658   7.107   9.282  1.00  0.00     0.002 C 
BRANCH  21  22
ATOM     22  C   UNL     1      32.540   8.630   9.486  1.00  0.00     0.028 C 
BRANCH  22  23
ATOM     23  C   UNL     1      31.159   9.202   9.127  1.00  0.00     0.160 C 
BRANCH  23  24
ATOM     24  O   UNL     1      30.133   8.639   9.922  1.00  0.00    -0.381 OA
BRANCH  24  25
ATOM     25  C   UNL     1      29.056   8.164   9.130  1.00  0.00     0.160 C 
BRANCH  25  26
ATOM     26  C   UNL     1      28.530   9.285   8.232  1.00  0.00     0.029 C 
BRANCH  26  27
ATOM     27  C   UNL     1      27.573  10.218   8.990  1.00  0.00     0.007 C 
BRANCH  27  28
ATOM     28  C   UNL     1      26.385   9.462   9.603  1.00  0.00     0.035 C 
BRANCH  28  29
ATOM     29  C   UNL     1      25.412  10.394  10.280  1.00  0.00    -0.048 A 
ATOM     30  C   UNL     1      25.727  11.754  10.452  1.00  0.00     0.004 A 
ATOM     31  C   UNL     1      24.164   9.916  10.718  1.00  0.00     0.004 A 
ATOM     32  C   UNL     1      24.813  12.616  11.065  1.00  0.00     0.000 A 
ATOM     33  C   UNL     1      23.252  10.783  11.328  1.00  0.00     0.000 A 
ATOM     34  C   UNL     1      23.576  12.131  11.501  1.00  0.00     0.000 A 
ENDBRANCH  28  29
ENDBRANCH  27  28
ENDBRANCH  26  27
ENDBRANCH  25  26
ENDBRANCH  24  25
ENDBRANCH  23  24
ENDBRANCH  22  23
ENDBRANCH  21  22
ENDBRANCH   1  21
TORSDOF 19
ENDMDL
MODEL 4
REMARK VINA RESULT:    -7.151      7.049     11.950
REMARK INTER + INTRA:         -16.593
REMARK INTER:                 -15.446
REMARK INTRA:                  -1.146
REMARK UNBOUND:                -2.126
REMARK SMILES OCc1cc(C(O)CNCCCCCCOCCCCc2ccccc2)ccc1O
REMARK SMILES IDX 12 1 11 2 10 3 9 4 8 6 6 7 5 8 3 9 29 10 4 11 28 12 27 13
REMARK SMILES IDX 2 14 1 15 30 17 7 19 13 21 14 22 15 23 16 24 17 25 18 26
REMARK SMILES IDX 19 27 20 28 21 29 22 30 26 31 23 32 25 33 24 34
REMARK H PARENT 9 5 1 16 30 18 7 20
REMARK Flexibility Score: inf
ROOT
ATOM      1  C   UNL     1      32.419   6.917   9.408  1.00  0.00     0.001 C 
ENDROOT
BRANCH   1   2
ATOM      2  C   UNL     1      33.233   6.164   8.342  1.00  0.00     0.015 C 
BRANCH   2   3
ATOM      3  C   UNL     1      32.904   4.663   8.323  1.00  0.00     0.081 C 
BRANCH   3   4
ATOM      4  N   UNL     1      33.994   3.872   8.916  1.00  0.00    -0.314 NA
ATOM      5  H   UNL     1      34.827   4.500   9.010  1.00  0.00     0.122 HD
BRANCH   4   6
ATOM      6  C   UNL     1      34.378   2.747   8.051  1.00  0.00     0.117 C 
BRANCH   6   7
ATOM      7  C   UNL     1      35.724   3.037   7.374  1.00  0.00     0.158 C 
BRANCH   7   8
ATOM      8  C   UNL     1      35.504   3.397   5.920  1.00  0.00    -0.018 A 
ATOM      9  C   UNL     1      35.293   2.701   3.589  1.00  0.00     0.020 A 
ATOM     10  C   UNL     1      34.997   4.027   3.223  1.00  0.00     0.121 A 
ATOM     11  C   UNL     1      35.557   2.397   4.934  1.00  0.00     0.016 A 
ATOM     12  C   UNL     1      34.931   5.023   4.207  1.00  0.00     0.047 A 
ATOM     13  C   UNL     1      35.171   4.709   5.546  1.00  0.00     0.010 A 
BRANCH   9  14
ATOM     14  C   UNL     1      35.385   1.615   2.548  1.00  0.00     0.195 C 
BRANCH  14  15
ATOM     15  O   UNL     1      34.558   0.540   2.900  1.00  0.00    -0.392 OA
ATOM     16  H   UNL     1      34.293   0.096   2.051  1.00  0.00     0.211 HD
ENDBRANCH  14  15
ENDBRANCH   9  14
BRANCH  10  17
ATOM     17  O   UNL     1      34.765   4.352   1.886  1.00  0.00    -0.508 OA
ATOM     18  H   UNL     1      34.360   3.686   1.241  1.00  0.00     0.293 HD
ENDBRANCH  10  17
ENDBRANCH   7   8
BRANCH   7  19
ATOM     19  O   UNL     1      36.376   4.085   8.047  1.00  0.00    -0.387 OA
ATOM     20  H   UNL     1      37.083   3.669   8.606  1.00  0.00     0.211 HD
ENDBRANCH   7  19
ENDBRANCH   6   7
ENDBRANCH   4   6
ENDBRANCH   3   4
ENDBRANCH   2   3
ENDBRANCH   1   2
BRANCH   1  21
ATOM     21  C   UNL     1      31.925   8.290   8.919  1.00  0.00     0.002 C 
BRANCH  21  22
ATOM     22  C   UNL     1      30.394   8.433   8.825  1.00  0.00     0.028 C 
BRANCH  22  23
ATOM     23  C   UNL     1      29.668   8.265  10.171  1.00  0.00     0.160 C 
BRANCH  23  24
ATOM     24  O   UNL     1      28.337   8.741  10.113  1.00  0.00    -0.381 OA
BRANCH  24  25
ATOM     25  C   UNL     1      27.674   8.303   8.939  1.00  0.00     0.160 C 
BRANCH  25  26
ATOM     26  C   UNL     1      26.519   7.369   9.304  1.00  0.00     0.029 C 
BRANCH  26  27
ATOM     27  C   UNL     1      25.715   7.900  10.501  1.00  0.00     0.007 C 
BRANCH  27  28
ATOM     28  C   UNL     1      24.430   8.620  10.068  1.00  0.00     0.035 C 
BRANCH  28  29
ATOM     29  C   UNL     1      24.428  10.069  10.484  1.00  0.00    -0.048 A 
ATOM     30  C   UNL     1      23.355  10.598  11.224  1.00  0.00     0.004 A 
ATOM     31  C   UNL     1      25.516  10.899  10.161  1.00  0.00     0.004 A 
ATOM     32  C   UNL     1      23.368  11.939  11.622  1.00  0.00     0.000 A 
ATOM     33  C   UNL     1      25.525  12.238  10.564  1.00  0.00     0.000 A 
ATOM     34  C   UNL     1      24.453  12.758  11.293  1.00  0.00     0.000 A 
ENDBRANCH  28  29
ENDBRANCH  27  28
ENDBRANCH  26  27
ENDBRANCH  25  26
ENDBRANCH  24  25
ENDBRANCH  23  24
ENDBRANCH  22  23
ENDBRANCH  21  22
ENDBRANCH   1  21
TORSDOF 19
ENDMDL
MODEL 5
REMARK VINA RESULT:    -7.150      4.012      6.283
REMARK INTER + INTRA:         -16.591
REMARK INTER:                 -14.011
REMARK INTRA:                  -2.580
REMARK UNBOUND:                -2.126
REMARK SMILES OCc1cc(C(O)CNCCCCCCOCCCCc2ccccc2)ccc1O
REMARK SMILES IDX 12 1 11 2 10 3 9 4 8 6 6 7 5 8 3 9 29 10 4 11 28 12 27 13
REMARK SMILES IDX 2 14 1 15 30 17 7 19 13 21 14 22 15 23 16 24 17 25 18 26
REMARK SMILES IDX 19 27 20 28 21 29 22 30 26 31 23 32 25 33 24 34
REMARK H PARENT 9 5 1 16 30 18 7 20
REMARK Flexibility Score: inf
ROOT
ATOM      1  C   UNL     1      30.109  11.774  10.433  1.00  0.00     0.001 C 
ENDROOT
BRANCH   1   2
ATOM      2  C   UNL     1      29.498  13.183  10.515  1.00  0.00     0.015 C 
BRANCH   2   3
ATOM      3  C   UNL     1      30.578  14.272  10.608  1.00  0.00     0.081 C 
BRANCH   3   4
ATOM      4  N   UNL     1      31.583  13.941  11.630  1.00  0.00    -0.314 NA
ATOM      5  H   UNL     1      31.493  14.643  12.403  1.00  0.00     0.122 HD
BRANCH   4   6
ATOM      6  C   UNL     1      32.949  14.039  11.095  1.00  0.00     0.117 C 
BRANCH   6   7
ATOM      7  C   UNL     1      33.750  12.781  11.456  1.00  0.00     0.158 C 
BRANCH   7   8
ATOM      8  C   UNL     1      33.788  11.836  10.275  1.00  0.00    -0.018 A 
ATOM      9  C   UNL     1      33.814  11.489   7.857  1.00  0.00     0.020 A 
ATOM     10  C   UNL     1      33.962  10.104   8.061  1.00  0.00     0.121 A 
ATOM     11  C   UNL     1      33.716  12.345   8.967  1.00  0.00     0.016 A 
ATOM     12  C   UNL     1      34.047   9.597   9.365  1.00  0.00     0.047 A 
ATOM     13  C   UNL     1      33.972  10.456  10.463  1.00  0.00     0.010 A 
BRANCH   9  14
ATOM     14  C   UNL     1      33.705  12.057   6.466  1.00  0.00     0.195 C 
BRANCH  14  15
ATOM     15  O   UNL     1      32.511  11.634   5.866  1.00  0.00    -0.392 OA
ATOM     16  H   UNL     1      31.771  11.962   6.443  1.00  0.00     0.211 HD
ENDBRANCH  14  15
ENDBRANCH   9  14
BRANCH  10  17
ATOM     17  O   UNL     1      34.027   9.237   6.971  1.00  0.00    -0.508 OA
ATOM     18  H   UNL     1      33.671   8.291   7.023  1.00  0.00     0.293 HD
ENDBRANCH  10  17
ENDBRANCH   7   8
BRANCH   7  19
ATOM     19  O   UNL     1      35.052  13.144  11.840  1.00  0.00    -0.387 OA
ATOM     20  H   UNL     1      35.544  13.367  11.006  1.00  0.00     0.211 HD
ENDBRANCH   7  19
ENDBRANCH   6   7
ENDBRANCH   4   6
ENDBRANCH   3   4
ENDBRANCH   2   3
ENDBRANCH   1   2
BRANCH   1  21
ATOM     21  C   UNL     1      30.167  11.233   8.993  1.00  0.00     0.002 C 
BRANCH  21  22
ATOM     22  C   UNL     1      28.830  10.691   8.450  1.00  0.00     0.028 C 
BRANCH  22  23
ATOM     23  C   UNL     1      28.863   9.195   8.095  1.00  0.00     0.160 C 
BRANCH  23  24
ATOM     24  O   UNL     1      29.264   8.402   9.196  1.00  0.00    -0.381 OA
BRANCH  24  25
ATOM     25  C   UNL     1      28.239   8.299  10.170  1.00  0.00     0.160 C 
BRANCH  25  26
ATOM     26  C   UNL     1      26.952   7.779   9.527  1.00  0.00     0.029 C 
BRANCH  26  27
ATOM     27  C   UNL     1      25.748   7.922  10.470  1.00  0.00     0.007 C 
BRANCH  27  28
ATOM     28  C   UNL     1      24.614   8.748   9.847  1.00  0.00     0.035 C 
BRANCH  28  29
ATOM     29  C   UNL     1      24.559  10.146  10.410  1.00  0.00    -0.048 A 
ATOM     30  C   UNL     1      23.461  10.560  11.186  1.00  0.00     0.004 A 
ATOM     31  C   UNL     1      25.623  11.039  10.191  1.00  0.00     0.004 A 
ATOM     32  C   UNL     1      23.425  11.852  11.721  1.00  0.00     0.000 A 
ATOM     33  C   UNL     1      25.583  12.328  10.731  1.00  0.00     0.000 A 
ATOM     34  C   UNL     1      24.486  12.735  11.494  1.00  0.00     0.000 A 
ENDBRANCH  28  29
ENDBRANCH  27  28
ENDBRANCH  26  27
ENDBRANCH  25  26
ENDBRANCH  24  25
ENDBRANCH  23  24
ENDBRANCH  22  23
ENDBRANCH  21  22
ENDBRANCH   1  21
TORSDOF 19
ENDMDL
MODEL 6
REMARK VINA RESULT:    -7.110      7.586     12.666
REMARK INTER + INTRA:         -16.510
REMARK INTER:                 -15.335
REMARK INTRA:                  -1.174
REMARK UNBOUND:                -2.126
REMARK SMILES OCc1cc(C(O)CNCCCCCCOCCCCc2ccccc2)ccc1O
REMARK SMILES IDX 12 1 11 2 10 3 9 4 8 6 6 7 5 8 3 9 29 10 4 11 28 12 27 13
REMARK SMILES IDX 2 14 1 15 30 17 7 19 13 21 14 22 15 23 16 24 17 25 18 26
REMARK SMILES IDX 19 27 20 28 21 29 22 30 26 31 23 32 25 33 24 34
REMARK H PARENT 9 5 1 16 30 18 7 20
REMARK Flexibility Score: inf
ROOT
ATOM      1  C   UNL     1      33.385   7.579   8.277  1.00  0.00     0.001 C 
ENDROOT
BRANCH   1   2
ATOM      2  C   UNL     1      33.128   6.085   8.541  1.00  0.00     0.015 C 
BRANCH   2   3
ATOM      3  C   UNL     1      33.795   5.192   7.484  1.00  0.00     0.081 C 
BRANCH   3   4
ATOM      4  N   UNL     1      34.366   5.995   6.391  1.00  0.00    -0.314 NA
ATOM      5  H   UNL     1      33.687   5.973   5.593  1.00  0.00     0.122 HD
BRANCH   4   6
ATOM      6  C   UNL     1      35.635   5.429   5.912  1.00  0.00     0.117 C 
BRANCH   6   7
ATOM      7  C   UNL     1      35.595   5.256   4.388  1.00  0.00     0.158 C 
BRANCH   7   8
ATOM      8  C   UNL     1      35.432   3.792   4.038  1.00  0.00    -0.018 A 
ATOM      9  C   UNL     1      35.119   2.053   2.353  1.00  0.00     0.020 A 
ATOM     10  C   UNL     1      35.230   1.069   3.353  1.00  0.00     0.121 A 
ATOM     11  C   UNL     1      35.209   3.410   2.705  1.00  0.00     0.016 A 
ATOM     12  C   UNL     1      35.467   1.449   4.681  1.00  0.00     0.047 A 
ATOM     13  C   UNL     1      35.578   2.798   5.020  1.00  0.00     0.010 A 
BRANCH   9  14
ATOM     14  C   UNL     1      34.850   1.672   0.920  1.00  0.00     0.195 C 
BRANCH  14  15
ATOM     15  O   UNL     1      33.686   0.896   0.840  1.00  0.00    -0.392 OA
ATOM     16  H   UNL     1      33.645   0.358   1.675  1.00  0.00     0.211 HD
ENDBRANCH  14  15
ENDBRANCH   9  14
BRANCH  10  17
ATOM     17  O   UNL     1      35.110  -0.282   3.025  1.00  0.00    -0.508 OA
ATOM     18  H   UNL     1      35.396  -0.636   2.121  1.00  0.00     0.293 HD
ENDBRANCH  10  17
ENDBRANCH   7   8
BRANCH   7  19
ATOM     19  O   UNL     1      34.536   6.010   3.854  1.00  0.00    -0.387 OA
ATOM     20  H   UNL     1      33.732   5.427   3.873  1.00  0.00     0.211 HD
ENDBRANCH   7  19
ENDBRANCH   6   7
ENDBRANCH   4   6
ENDBRANCH   3   4
ENDBRANCH   2   3
ENDBRANCH   1   2
BRANCH   1  21
ATOM     21  C   UNL     1      32.844   8.483   9.399  1.00  0.00     0.002 C 
BRANCH  21  22
ATOM     22  C   UNL     1      31.644   9.363   9.001  1.00  0.00     0.028 C 
BRANCH  22  23
ATOM     23  C   UNL     1      30.387   8.566   8.616  1.00  0.00     0.160 C 
BRANCH  23  24
ATOM     24  O   UNL     1      29.902   7.793   9.697  1.00  0.00    -0.381 OA
BRANCH  24  25
ATOM     25  C   UNL     1      28.750   8.375  10.284  1.00  0.00     0.160 C 
BRANCH  25  26
ATOM     26  C   UNL     1      27.496   7.939   9.524  1.00  0.00     0.029 C 
BRANCH  26  27
ATOM     27  C   UNL     1      26.258   7.922  10.434  1.00  0.00     0.007 C 
BRANCH  27  28
ATOM     28  C   UNL     1      25.019   8.508   9.743  1.00  0.00     0.035 C 
BRANCH  28  29
ATOM     29  C   UNL     1      24.588   9.811  10.369  1.00  0.00    -0.048 A 
ATOM     30  C   UNL     1      25.375  10.968  10.222  1.00  0.00     0.004 A 
ATOM     31  C   UNL     1      23.377   9.888  11.079  1.00  0.00     0.004 A 
ATOM     32  C   UNL     1      24.961  12.177  10.790  1.00  0.00     0.000 A 
ATOM     33  C   UNL     1      22.966  11.101  11.642  1.00  0.00     0.000 A 
ATOM     34  C   UNL     1      23.757  12.244  11.498  1.00  0.00     0.000 A 
ENDBRANCH  28  29
ENDBRANCH  27  28
ENDBRANCH  26  27
ENDBRANCH  25  26
ENDBRANCH  24  25
ENDBRANCH  23  24
ENDBRANCH  22  23
ENDBRANCH  21  22
ENDBRANCH   1  21
TORSDOF 19
ENDMDL
MODEL 7
REMARK VINA RESULT:    -7.104      3.666      7.028
REMARK INTER + INTRA:         -16.499
REMARK INTER:                 -14.548
REMARK INTRA:                  -1.950
REMARK UNBOUND:                -2.126
REMARK SMILES OCc1cc(C(O)CNCCCCCCOCCCCc2ccccc2)ccc1O
REMARK SMILES IDX 12 1 11 2 10 3 9 4 8 6 6 7 5 8 3 9 29 10 4 11 28 12 27 13
REMARK SMILES IDX 2 14 1 15 30 17 7 19 13 21 14 22 15 23 16 24 17 25 18 26
REMARK SMILES IDX 19 27 20 28 21 29 22 30 26 31 23 32 25 33 24 34
REMARK H PARENT 9 5 1 16 30 18 7 20
REMARK Flexibility Score: inf
ROOT
ATOM      1  C   UNL     1      29.131  13.831  10.988  1.00  0.00     0.001 C 
ENDROOT
BRANCH   1   2
ATOM      2  C   UNL     1      30.315  14.319  11.840  1.00  0.00     0.015 C 
BRANCH   2   3
ATOM      3  C   UNL     1      31.607  14.435  11.015  1.00  0.00     0.081 C 
BRANCH   3   4
ATOM      4  N   UNL     1      32.637  13.506  11.506  1.00  0.00    -0.314 NA
ATOM      5  H   UNL     1      33.479  14.075  11.764  1.00  0.00     0.122 HD
BRANCH   4   6
ATOM      6  C   UNL     1      33.045  12.553  10.465  1.00  0.00     0.117 C 
BRANCH   6   7
ATOM      7  C   UNL     1      34.121  11.604  11.008  1.00  0.00     0.158 C 
BRANCH   7   8
ATOM      8  C   UNL     1      34.139  10.325  10.199  1.00  0.00    -0.018 A 
ATOM      9  C   UNL     1      32.928   8.490   9.137  1.00  0.00     0.020 A 
ATOM     10  C   UNL     1      34.138   8.001   8.610  1.00  0.00     0.121 A 
ATOM     11  C   UNL     1      32.939   9.642   9.939  1.00  0.00     0.016 A 
ATOM     12  C   UNL     1      35.334   8.689   8.857  1.00  0.00     0.047 A 
ATOM     13  C   UNL     1      35.334   9.847   9.635  1.00  0.00     0.010 A 
BRANCH   9  14
ATOM     14  C   UNL     1      31.632   7.760   8.898  1.00  0.00     0.195 C 
BRANCH  14  15
ATOM     15  O   UNL     1      31.557   6.629   9.721  1.00  0.00    -0.392 OA
ATOM     16  H   UNL     1      31.433   6.961  10.650  1.00  0.00     0.211 HD
ENDBRANCH  14  15
ENDBRANCH   9  14
BRANCH  10  17
ATOM     17  O   UNL     1      34.150   6.838   7.839  1.00  0.00    -0.508 OA
ATOM     18  H   UNL     1      34.972   6.552   7.322  1.00  0.00     0.293 HD
ENDBRANCH  10  17
ENDBRANCH   7   8
BRANCH   7  19
ATOM     19  O   UNL     1      35.377  12.235  10.960  1.00  0.00    -0.387 OA
ATOM     20  H   UNL     1      35.549  12.599  11.868  1.00  0.00     0.211 HD
ENDBRANCH   7  19
ENDBRANCH   6   7
ENDBRANCH   4   6
ENDBRANCH   3   4
ENDBRANCH   2   3
ENDBRANCH   1   2
BRANCH   1  21
ATOM     21  C   UNL     1      29.398  12.468  10.325  1.00  0.00     0.002 C 
BRANCH  21  22
ATOM     22  C   UNL     1      28.970  11.246  11.159  1.00  0.00     0.028 C 
BRANCH  22  23
ATOM     23  C   UNL     1      29.287   9.895  10.496  1.00  0.00     0.160 C 
BRANCH  23  24
ATOM     24  O   UNL     1      28.198   8.997  10.583  1.00  0.00    -0.381 OA
BRANCH  24  25
ATOM     25  C   UNL     1      28.139   8.133   9.460  1.00  0.00     0.160 C 
BRANCH  25  26
ATOM     26  C   UNL     1      26.724   7.574   9.300  1.00  0.00     0.029 C 
BRANCH  26  27
ATOM     27  C   UNL     1      25.833   7.933  10.500  1.00  0.00     0.007 C 
BRANCH  27  28
ATOM     28  C   UNL     1      24.530   8.623  10.072  1.00  0.00     0.035 C 
BRANCH  28  29
ATOM     29  C   UNL     1      24.483  10.064  10.516  1.00  0.00    -0.048 A 
ATOM     30  C   UNL     1      25.481  10.969  10.111  1.00  0.00     0.004 A 
ATOM     31  C   UNL     1      23.421  10.523  11.315  1.00  0.00     0.004 A 
ATOM     32  C   UNL     1      25.422  12.307  10.512  1.00  0.00     0.000 A 
ATOM     33  C   UNL     1      23.365  11.863  11.710  1.00  0.00     0.000 A 
ATOM     34  C   UNL     1      24.364  12.754  11.310  1.00  0.00     0.000 A 
ENDBRANCH  28  29
ENDBRANCH  27  28
ENDBRANCH  26  27
ENDBRANCH  25  26
ENDBRANCH  24  25
ENDBRANCH  23  24
ENDBRANCH  22  23
ENDBRANCH  21  22
ENDBRANCH   1  21
TORSDOF 19
ENDMDL
MODEL 8
REMARK VINA RESULT:    -7.104      4.632      8.428
REMARK INTER + INTRA:         -16.497
REMARK INTER:                 -14.420
REMARK INTRA:                  -2.078
REMARK UNBOUND:                -2.126
REMARK SMILES OCc1cc(C(O)CNCCCCCCOCCCCc2ccccc2)ccc1O
REMARK SMILES IDX 12 1 11 2 10 3 9 4 8 6 6 7 5 8 3 9 29 10 4 11 28 12 27 13
REMARK SMILES IDX 2 14 1 15 30 17 7 19 13 21 14 22 15 23 16 24 17 25 18 26
REMARK SMILES IDX 19 27 20 28 21 29 22 30 26 31 23 32 25 33 24 34
REMARK H PARENT 9 5 1 16 30 18 7 20
REMARK Flexibility Score: inf
ROOT
ATOM      1  C   UNL     1      31.034  11.379   9.485  1.00  0.00     0.001 C 
ENDROOT
BRANCH   1   2
ATOM      2  C   UNL     1      32.414  11.964   9.829  1.00  0.00     0.015 C 
BRANCH   2   3
ATOM      3  C   UNL     1      33.147  12.479   8.580  1.00  0.00     0.081 C 
BRANCH   3   4
ATOM      4  N   UNL     1      34.478  11.866   8.453  1.00  0.00    -0.314 NA
ATOM      5  H   UNL     1      34.591  11.558   7.457  1.00  0.00     0.122 HD
BRANCH   4   6
ATOM      6  C   UNL     1      34.607  10.674   9.304  1.00  0.00     0.117 C 
BRANCH   6   7
ATOM      7  C   UNL     1      35.268   9.533   8.521  1.00  0.00     0.158 C 
BRANCH   7   8
ATOM      8  C   UNL     1      34.350   8.330   8.487  1.00  0.00    -0.018 A 
ATOM      9  C   UNL     1      33.900   6.046   7.749  1.00  0.00     0.020 A 
ATOM     10  C   UNL     1      32.706   6.044   8.494  1.00  0.00     0.121 A 
ATOM     11  C   UNL     1      34.708   7.195   7.741  1.00  0.00     0.016 A 
ATOM     12  C   UNL     1      32.355   7.171   9.250  1.00  0.00     0.047 A 
ATOM     13  C   UNL     1      33.174   8.300   9.256  1.00  0.00     0.010 A 
BRANCH   9  14
ATOM     14  C   UNL     1      34.293   4.853   6.916  1.00  0.00     0.195 C 
BRANCH  14  15
ATOM     15  O   UNL     1      34.207   3.683   7.682  1.00  0.00    -0.392 OA
ATOM     16  H   UNL     1      34.289   3.959   8.633  1.00  0.00     0.211 HD
ENDBRANCH  14  15
ENDBRANCH   9  14
BRANCH  10  17
ATOM     17  O   UNL     1      31.875   4.923   8.486  1.00  0.00    -0.508 OA
ATOM     18  H   UNL     1      32.246   3.987   8.584  1.00  0.00     0.293 HD
ENDBRANCH  10  17
ENDBRANCH   7   8
BRANCH   7  19
ATOM     19  O   UNL     1      35.563   9.964   7.216  1.00  0.00    -0.387 OA
ATOM     20  H   UNL     1      36.546   9.877   7.101  1.00  0.00     0.211 HD
ENDBRANCH   7  19
ENDBRANCH   6   7
ENDBRANCH   4   6
ENDBRANCH   3   4
ENDBRANCH   2   3
ENDBRANCH   1   2
BRANCH   1  21
ATOM     21  C   UNL     1      29.965  11.716  10.540  1.00  0.00     0.002 C 
BRANCH  21  22
ATOM     22  C   UNL     1      29.216  10.500  11.116  1.00  0.00     0.028 C 
BRANCH  22  23
ATOM     23  C   UNL     1      29.412   9.206  10.307  1.00  0.00     0.160 C 
BRANCH  23  24
ATOM     24  O   UNL     1      28.299   8.340  10.422  1.00  0.00    -0.381 OA
BRANCH  24  25
ATOM     25  C   UNL     1      27.861   7.879   9.155  1.00  0.00     0.160 C 
BRANCH  25  26
ATOM     26  C   UNL     1      26.489   7.213   9.283  1.00  0.00     0.029 C 
BRANCH  26  27
ATOM     27  C   UNL     1      25.655   7.844  10.410  1.00  0.00     0.007 C 
BRANCH  27  28
ATOM     28  C   UNL     1      24.498   8.697   9.871  1.00  0.00     0.035 C 
BRANCH  28  29
ATOM     29  C   UNL     1      24.530  10.102  10.417  1.00  0.00    -0.048 A 
ATOM     30  C   UNL     1      23.509  10.561  11.269  1.00  0.00     0.004 A 
ATOM     31  C   UNL     1      25.602  10.957  10.105  1.00  0.00     0.004 A 
ATOM     32  C   UNL     1      23.555  11.860  11.786  1.00  0.00     0.000 A 
ATOM     33  C   UNL     1      25.645  12.253  10.628  1.00  0.00     0.000 A 
ATOM     34  C   UNL     1      24.623  12.704  11.467  1.00  0.00     0.000 A 
ENDBRANCH  28  29
ENDBRANCH  27  28
ENDBRANCH  26  27
ENDBRANCH  25  26
ENDBRANCH  24  25
ENDBRANCH  23  24
ENDBRANCH  22  23
ENDBRANCH  21  22
ENDBRANCH   1  21
TORSDOF 19
ENDMDL
MODEL 9
REMARK VINA RESULT:    -7.095      5.099     10.054
REMARK INTER + INTRA:         -16.480
REMARK INTER:                 -14.632
REMARK INTRA:                  -1.849
REMARK UNBOUND:                -2.126
REMARK SMILES OCc1cc(C(O)CNCCCCCCOCCCCc2ccccc2)ccc1O
REMARK SMILES IDX 12 1 11 2 10 3 9 4 8 6 6 7 5 8 3 9 29 10 4 11 28 12 27 13
REMARK SMILES IDX 2 14 1 15 30 17 7 19 13 21 14 22 15 23 16 24 17 25 18 26
REMARK SMILES IDX 19 27 20 28 21 29 22 30 26 31 23 32 25 33 24 34
REMARK H PARENT 9 5 1 16 30 18 7 20
REMARK Flexibility Score: inf
ROOT
ATOM      1  C   UNL     1      30.974  11.094   8.088  1.00  0.00     0.001 C 
ENDROOT
BRANCH   1   2
ATOM      2  C   UNL     1      32.411  11.495   8.461  1.00  0.00     0.015 C 
BRANCH   2   3
ATOM      3  C   UNL     1      33.198  10.320   9.063  1.00  0.00     0.081 C 
BRANCH   3   4
ATOM      4  N   UNL     1      33.283   9.196   8.117  1.00  0.00    -0.314 NA
ATOM      5  H   UNL     1      32.323   9.038   7.726  1.00  0.00     0.122 HD
BRANCH   4   6
ATOM      6  C   UNL     1      33.699   7.956   8.789  1.00  0.00     0.117 C 
BRANCH   6   7
ATOM      7  C   UNL     1      32.699   6.832   8.491  1.00  0.00     0.158 C 
BRANCH   7   8
ATOM      8  C   UNL     1      33.427   5.627   7.934  1.00  0.00    -0.018 A 
ATOM      9  C   UNL     1      34.894   4.650   6.245  1.00  0.00     0.020 A 
ATOM     10  C   UNL     1      34.871   3.425   6.937  1.00  0.00     0.121 A 
ATOM     11  C   UNL     1      34.161   5.740   6.742  1.00  0.00     0.016 A 
ATOM     12  C   UNL     1      34.149   3.315   8.134  1.00  0.00     0.047 A 
ATOM     13  C   UNL     1      33.442   4.409   8.635  1.00  0.00     0.010 A 
BRANCH   9  14
ATOM     14  C   UNL     1      35.650   4.789   4.949  1.00  0.00     0.195 C 
BRANCH  14  15
ATOM     15  O   UNL     1      35.184   3.853   4.017  1.00  0.00    -0.392 OA
ATOM     16  H   UNL     1      35.554   2.972   4.289  1.00  0.00     0.211 HD
ENDBRANCH  14  15
ENDBRANCH   9  14
BRANCH  10  17
ATOM     17  O   UNL     1      35.566   2.323   6.439  1.00  0.00    -0.508 OA
ATOM     18  H   UNL     1      35.587   2.111   5.450  1.00  0.00     0.293 HD
ENDBRANCH  10  17
ENDBRANCH   7   8
BRANCH   7  19
ATOM     19  O   UNL     1      32.007   6.490   9.666  1.00  0.00    -0.387 OA
ATOM     20  H   UNL     1      31.631   5.582   9.522  1.00  0.00     0.211 HD
ENDBRANCH   7  19
ENDBRANCH   6   7
ENDBRANCH   4   6
ENDBRANCH   3   4
ENDBRANCH   2   3
ENDBRANCH   1   2
BRANCH   1  21
ATOM     21  C   UNL     1      29.945  11.502   9.157  1.00  0.00     0.002 C 
BRANCH  21  22
ATOM     22  C   UNL     1      29.063  10.353   9.680  1.00  0.00     0.028 C 
BRANCH  22  23
ATOM     23  C   UNL     1      29.845   9.076  10.031  1.00  0.00     0.160 C 
BRANCH  23  24
ATOM     24  O   UNL     1      29.087   7.908   9.780  1.00  0.00    -0.381 OA
BRANCH  24  25
ATOM     25  C   UNL     1      28.029   8.156   8.869  1.00  0.00     0.160 C 
BRANCH  25  26
ATOM     26  C   UNL     1      26.838   7.249   9.187  1.00  0.00     0.029 C 
BRANCH  26  27
ATOM     27  C   UNL     1      26.044   7.759  10.400  1.00  0.00     0.007 C 
BRANCH  27  28
ATOM     28  C   UNL     1      24.677   8.333  10.001  1.00  0.00     0.035 C 
BRANCH  28  29
ATOM     29  C   UNL     1      24.513   9.763  10.451  1.00  0.00    -0.048 A 
ATOM     30  C   UNL     1      25.464  10.737  10.097  1.00  0.00     0.004 A 
ATOM     31  C   UNL     1      23.387  10.143  11.203  1.00  0.00     0.004 A 
ATOM     32  C   UNL     1      25.297  12.065  10.502  1.00  0.00     0.000 A 
ATOM     33  C   UNL     1      23.223  11.473  11.603  1.00  0.00     0.000 A 
ATOM     34  C   UNL     1      24.176  12.433  11.253  1.00  0.00     0.000 A 
ENDBRANCH  28  29
ENDBRANCH  27  28
ENDBRANCH  26  27
ENDBRANCH  25  26
ENDBRANCH  24  25
ENDBRANCH  23  24
ENDBRANCH  22  23
ENDBRANCH  21  22
ENDBRANCH   1  21
TORSDOF 19
ENDMDL
MODEL 10
REMARK VINA RESULT:    -7.083      1.705      3.695
REMARK INTER + INTRA:         -16.455
REMARK INTER:                 -13.425
REMARK INTRA:                  -3.031
REMARK UNBOUND:                -2.126
REMARK SMILES OCc1cc(C(O)CNCCCCCCOCCCCc2ccccc2)ccc1O
REMARK SMILES IDX 12 1 11 2 10 3 9 4 8 6 6 7 5 8 3 9 29 10 4 11 28 12 27 13
REMARK SMILES IDX 2 14 1 15 30 17 7 19 13 21 14 22 15 23 16 24 17 25 18 26
REMARK SMILES IDX 19 27 20 28 21 29 22 30 26 31 23 32 25 33 24 34
REMARK H PARENT 9 5 1 16 30 18 7 20
REMARK Flexibility Score: inf
ROOT
ATOM      1  C   UNL     1      27.071  12.744  10.240  1.00  0.00     0.001 C 
ENDROOT
BRANCH   1   2
ATOM      2  C   UNL     1      28.206  12.159  11.097  1.00  0.00     0.015 C 
BRANCH   2   3
ATOM      3  C   UNL     1      29.571  12.761  10.732  1.00  0.00     0.081 C 
BRANCH   3   4
ATOM      4  N   UNL     1      30.164  13.472  11.876  1.00  0.00    -0.314 NA
ATOM      5  H   UNL     1      29.403  13.630  12.579  1.00  0.00     0.122 HD
BRANCH   4   6
ATOM      6  C   UNL     1      30.687  14.788  11.482  1.00  0.00     0.117 C 
BRANCH   6   7
ATOM      7  C   UNL     1      29.666  15.521  10.602  1.00  0.00     0.158 C 
BRANCH   7   8
ATOM      8  C   UNL     1      28.693  16.289  11.471  1.00  0.00    -0.018 A 
ATOM      9  C   UNL     1      26.392  16.793  12.116  1.00  0.00     0.020 A 
ATOM     10  C   UNL     1      26.866  17.630  13.143  1.00  0.00     0.121 A 
ATOM     11  C   UNL     1      27.309  16.137  11.279  1.00  0.00     0.016 A 
ATOM     12  C   UNL     1      28.246  17.771  13.344  1.00  0.00     0.047 A 
ATOM     13  C   UNL     1      29.152  17.099  12.523  1.00  0.00     0.010 A 
BRANCH   9  14
ATOM     14  C   UNL     1      24.914  16.635  11.869  1.00  0.00     0.195 C 
BRANCH  14  15
ATOM     15  O   UNL     1      24.304  16.024  12.972  1.00  0.00    -0.392 OA
ATOM     16  H   UNL     1      24.410  15.044  12.849  1.00  0.00     0.211 HD
ENDBRANCH  14  15
ENDBRANCH   9  14
BRANCH  10  17
ATOM     17  O   UNL     1      25.969  18.314  13.962  1.00  0.00    -0.508 OA
ATOM     18  H   UNL     1      25.303  18.976  13.584  1.00  0.00     0.293 HD
ENDBRANCH  10  17
ENDBRANCH   7   8
BRANCH   7  19
ATOM     19  O   UNL     1      30.336  16.391   9.725  1.00  0.00    -0.387 OA
ATOM     20  H   UNL     1      30.938  15.829   9.170  1.00  0.00     0.211 HD
ENDBRANCH   7  19
ENDBRANCH   6   7
ENDBRANCH   4   6
ENDBRANCH   3   4
ENDBRANCH   2   3
ENDBRANCH   1   2
BRANCH   1  21
ATOM     21  C   UNL     1      25.780  11.910  10.312  1.00  0.00     0.002 C 
BRANCH  21  22
ATOM     22  C   UNL     1      24.812  12.309  11.442  1.00  0.00     0.028 C 
BRANCH  22  23
ATOM     23  C   UNL     1      23.501  11.506  11.453  1.00  0.00     0.160 C 
BRANCH  23  24
ATOM     24  O   UNL     1      23.505  10.478  10.480  1.00  0.00    -0.381 OA
BRANCH  24  25
ATOM     25  C   UNL     1      23.176   9.220  11.045  1.00  0.00     0.160 C 
BRANCH  25  26
ATOM     26  C   UNL     1      23.908   8.102  10.300  1.00  0.00     0.029 C 
BRANCH  26  27
ATOM     27  C   UNL     1      25.207   8.607   9.652  1.00  0.00     0.007 C 
BRANCH  27  28
ATOM     28  C   UNL     1      26.459   8.070  10.360  1.00  0.00     0.035 C 
BRANCH  28  29
ATOM     29  C   UNL     1      27.724   8.670   9.801  1.00  0.00    -0.048 A 
ATOM     30  C   UNL     1      28.938   8.556  10.502  1.00  0.00     0.004 A 
ATOM     31  C   UNL     1      27.707   9.323   8.556  1.00  0.00     0.004 A 
ATOM     32  C   UNL     1      30.112   9.100   9.970  1.00  0.00     0.000 A 
ATOM     33  C   UNL     1      28.884   9.862   8.027  1.00  0.00     0.000 A 
ATOM     34  C   UNL     1      30.084   9.751   8.732  1.00  0.00     0.000 A 
ENDBRANCH  28  29
ENDBRANCH  27  28
ENDBRANCH  26  27
ENDBRANCH  25  26
ENDBRANCH  24  25
ENDBRANCH  23  24
ENDBRANCH  22  23
ENDBRANCH  21  22
ENDBRANCH   1  21
TORSDOF 19
ENDMDL
MODEL 11
REMARK VINA RESULT:    -7.074      8.940     14.021
REMARK INTER + INTRA:         -16.437
REMARK INTER:                 -15.778
REMARK INTRA:                  -0.659
REMARK UNBOUND:                -2.126
REMARK SMILES OCc1cc(C(O)CNCCCCCCOCCCCc2ccccc2)ccc1O
REMARK SMILES IDX 12 1 11 2 10 3 9 4 8 6 6 7 5 8 3 9 29 10 4 11 28 12 27 13
REMARK SMILES IDX 2 14 1 15 30 17 7 19 13 21 14 22 15 23 16 24 17 25 18 26
REMARK SMILES IDX 19 27 20 28 21 29 22 30 26 31 23 32 25 33 24 34
REMARK H PARENT 9 5 1 16 30 18 7 20
REMARK Flexibility Score: inf
ROOT
ATOM      1  C   UNL     1      33.731   6.163   7.924  1.00  0.00     0.001 C 
ENDROOT
BRANCH   1   2
ATOM      2  C   UNL     1      34.440   6.424   6.584  1.00  0.00     0.015 C 
BRANCH   2   3
ATOM      3  C   UNL     1      34.729   5.120   5.824  1.00  0.00     0.081 C 
BRANCH   3   4
ATOM      4  N   UNL     1      34.687   5.331   4.369  1.00  0.00    -0.314 NA
ATOM      5  H   UNL     1      33.680   5.401   4.087  1.00  0.00     0.122 HD
BRANCH   4   6
ATOM      6  C   UNL     1      35.275   4.196   3.641  1.00  0.00     0.117 C 
BRANCH   6   7
ATOM      7  C   UNL     1      34.912   4.277   2.153  1.00  0.00     0.158 C 
BRANCH   7   8
ATOM      8  C   UNL     1      35.409   3.042   1.433  1.00  0.00    -0.018 A 
ATOM      9  C   UNL     1      35.015   0.766   0.639  1.00  0.00     0.020 A 
ATOM     10  C   UNL     1      36.273   0.771   0.009  1.00  0.00     0.121 A 
ATOM     11  C   UNL     1      34.596   1.898   1.357  1.00  0.00     0.016 A 
ATOM     12  C   UNL     1      37.079   1.916   0.072  1.00  0.00     0.047 A 
ATOM     13  C   UNL     1      36.647   3.046   0.768  1.00  0.00     0.010 A 
BRANCH   9  14
ATOM     14  C   UNL     1      34.136  -0.457   0.599  1.00  0.00     0.195 C 
BRANCH  14  15
ATOM     15  O   UNL     1      32.953  -0.224   1.313  1.00  0.00    -0.392 OA
ATOM     16  H   UNL     1      33.206  -0.174   2.273  1.00  0.00     0.211 HD
ENDBRANCH  14  15
ENDBRANCH   9  14
BRANCH  10  17
ATOM     17  O   UNL     1      36.718  -0.357  -0.680  1.00  0.00    -0.508 OA
ATOM     18  H   UNL     1      36.498  -0.503  -1.657  1.00  0.00     0.293 HD
ENDBRANCH  10  17
ENDBRANCH   7   8
BRANCH   7  19
ATOM     19  O   UNL     1      33.519   4.401   2.012  1.00  0.00    -0.387 OA
ATOM     20  H   UNL     1      33.142   4.451   2.930  1.00  0.00     0.211 HD
ENDBRANCH   7  19
ENDBRANCH   6   7
ENDBRANCH   4   6
ENDBRANCH   3   4
ENDBRANCH   2   3
ENDBRANCH   1   2
BRANCH   1  21
ATOM     21  C   UNL     1      32.890   7.363   8.394  1.00  0.00     0.002 C 
BRANCH  21  22
ATOM     22  C   UNL     1      31.912   7.058   9.546  1.00  0.00     0.028 C 
BRANCH  22  23
ATOM     23  C   UNL     1      30.619   7.889   9.503  1.00  0.00     0.160 C 
BRANCH  23  24
ATOM     24  O   UNL     1      30.600   8.777   8.401  1.00  0.00    -0.381 OA
BRANCH  24  25
ATOM     25  C   UNL     1      29.487   9.653   8.453  1.00  0.00     0.160 C 
BRANCH  25  26
ATOM     26  C   UNL     1      28.186   8.849   8.491  1.00  0.00     0.029 C 
BRANCH  26  27
ATOM     27  C   UNL     1      27.222   9.380   9.564  1.00  0.00     0.007 C 
BRANCH  27  28
ATOM     28  C   UNL     1      26.643  10.754   9.197  1.00  0.00     0.035 C 
BRANCH  28  29
ATOM     29  C   UNL     1      25.507  11.148  10.108  1.00  0.00    -0.048 A 
ATOM     30  C   UNL     1      25.441  12.446  10.646  1.00  0.00     0.004 A 
ATOM     31  C   UNL     1      24.485  10.228  10.402  1.00  0.00     0.004 A 
ATOM     32  C   UNL     1      24.376  12.811  11.476  1.00  0.00     0.000 A 
ATOM     33  C   UNL     1      23.420  10.599  11.230  1.00  0.00     0.000 A 
ATOM     34  C   UNL     1      23.366  11.888  11.766  1.00  0.00     0.000 A 
ENDBRANCH  28  29
ENDBRANCH  27  28
ENDBRANCH  26  27
ENDBRANCH  25  26
ENDBRANCH  24  25
ENDBRANCH  23  24
ENDBRANCH  22  23
ENDBRANCH  21  22
ENDBRANCH   1  21
TORSDOF 19
ENDMDL
MODEL 12
REMARK VINA RESULT:    -7.072      5.053      9.537
REMARK INTER + INTRA:         -16.434
REMARK INTER:                 -14.701
REMARK INTRA:                  -1.732
REMARK UNBOUND:                -2.126
REMARK SMILES OCc1cc(C(O)CNCCCCCCOCCCCc2ccccc2)ccc1O
REMARK SMILES IDX 12 1 11 2 10 3 9 4 8 6 6 7 5 8 3 9 29 10 4 11 28 12 27 13
REMARK SMILES IDX 2 14 1 15 30 17 7 19 13 21 14 22 15 23 16 24 17 25 18 26
REMARK SMILES IDX 19 27 20 28 21 29 22 30 26 31 23 32 25 33 24 34
REMARK H PARENT 9 5 1 16 30 18 7 20
REMARK Flexibility Score: inf
ROOT
ATOM      1  C   UNL     1      33.340  10.775  10.755  1.00  0.00     0.001 C 
ENDROOT
BRANCH   1   2
ATOM      2  C   UNL     1      34.518  10.824   9.767  1.00  0.00     0.015 C 
BRANCH   2   3
ATOM      3  C   UNL     1      35.497   9.660   9.982  1.00  0.00     0.081 C 
BRANCH   3   4
ATOM      4  N   UNL     1      36.086   9.218   8.709  1.00  0.00    -0.314 NA
ATOM      5  H   UNL     1      36.932   9.809   8.528  1.00  0.00     0.122 HD
BRANCH   4   6
ATOM      6  C   UNL     1      35.157   9.415   7.587  1.00  0.00     0.117 C 
BRANCH   6   7
ATOM      7  C   UNL     1      35.228   8.222   6.625  1.00  0.00     0.158 C 
BRANCH   7   8
ATOM      8  C   UNL     1      34.471   7.046   7.204  1.00  0.00    -0.018 A 
ATOM      9  C   UNL     1      34.329   4.650   7.652  1.00  0.00     0.020 A 
ATOM     10  C   UNL     1      33.132   4.857   8.362  1.00  0.00     0.121 A 
ATOM     11  C   UNL     1      34.984   5.745   7.067  1.00  0.00     0.016 A 
ATOM     12  C   UNL     1      32.626   6.156   8.511  1.00  0.00     0.047 A 
ATOM     13  C   UNL     1      33.295   7.243   7.947  1.00  0.00     0.010 A 
BRANCH   9  14
ATOM     14  C   UNL     1      34.885   3.262   7.464  1.00  0.00     0.195 C 
BRANCH  14  15
ATOM     15  O   UNL     1      35.006   2.621   8.704  1.00  0.00    -0.392 OA
ATOM     16  H   UNL     1      34.183   2.077   8.824  1.00  0.00     0.211 HD
ENDBRANCH  14  15
ENDBRANCH   9  14
BRANCH  10  17
ATOM     17  O   UNL     1      32.450   3.776   8.921  1.00  0.00    -0.508 OA
ATOM     18  H   UNL     1      31.529   3.506   8.601  1.00  0.00     0.293 HD
ENDBRANCH  10  17
ENDBRANCH   7   8
BRANCH   7  19
ATOM     19  O   UNL     1      34.692   8.587   5.378  1.00  0.00    -0.387 OA
ATOM     20  H   UNL     1      35.356   8.317   4.691  1.00  0.00     0.211 HD
ENDBRANCH   7  19
ENDBRANCH   6   7
ENDBRANCH   4   6
ENDBRANCH   3   4
ENDBRANCH   2   3
ENDBRANCH   1   2
BRANCH   1  21
ATOM     21  C   UNL     1      32.303   9.697  10.392  1.00  0.00     0.002 C 
BRANCH  21  22
ATOM     22  C   UNL     1      30.894  10.234  10.074  1.00  0.00     0.028 C 
BRANCH  22  23
ATOM     23  C   UNL     1      30.306   9.702   8.757  1.00  0.00     0.160 C 
BRANCH  23  24
ATOM     24  O   UNL     1      28.937   9.369   8.888  1.00  0.00    -0.381 OA
BRANCH  24  25
ATOM     25  C   UNL     1      28.760   8.013   9.262  1.00  0.00     0.160 C 
BRANCH  25  26
ATOM     26  C   UNL     1      27.292   7.612   9.106  1.00  0.00     0.029 C 
BRANCH  26  27
ATOM     27  C   UNL     1      26.462   8.006  10.337  1.00  0.00     0.007 C 
BRANCH  27  28
ATOM     28  C   UNL     1      25.050   8.477   9.961  1.00  0.00     0.035 C 
BRANCH  28  29
ATOM     29  C   UNL     1      24.785   9.889  10.422  1.00  0.00    -0.048 A 
ATOM     30  C   UNL     1      25.726  10.906  10.183  1.00  0.00     0.004 A 
ATOM     31  C   UNL     1      23.577  10.207  11.068  1.00  0.00     0.004 A 
ATOM     32  C   UNL     1      25.467  12.217  10.597  1.00  0.00     0.000 A 
ATOM     33  C   UNL     1      23.321  11.519  11.477  1.00  0.00     0.000 A 
ATOM     34  C   UNL     1      24.264  12.523  11.242  1.00  0.00     0.000 A 
ENDBRANCH  28  29
ENDBRANCH  27  28
ENDBRANCH  26  27
ENDBRANCH  25  26
ENDBRANCH  24  25
ENDBRANCH  23  24
ENDBRANCH  22  23
ENDBRANCH  21  22
ENDBRANCH   1  21
TORSDOF 19
ENDMDL
MODEL 13
REMARK VINA RESULT:    -7.061      5.671     10.435
REMARK INTER + INTRA:         -16.411
REMARK INTER:                 -14.797
REMARK INTRA:                  -1.613
REMARK UNBOUND:                -2.126
REMARK SMILES OCc1cc(C(O)CNCCCCCCOCCCCc2ccccc2)ccc1O
REMARK SMILES IDX 12 1 11 2 10 3 9 4 8 6 6 7 5 8 3 9 29 10 4 11 28 12 27 13
REMARK SMILES IDX 2 14 1 15 30 17 7 19 13 21 14 22 15 23 16 24 17 25 18 26
REMARK SMILES IDX 19 27 20 28 21 29 22 30 26 31 23 32 25 33 24 34
REMARK H PARENT 9 5 1 16 30 18 7 20
REMARK Flexibility Score: inf
ROOT
ATOM      1  C   UNL     1      35.146   9.798   9.724  1.00  0.00     0.001 C 
ENDROOT
BRANCH   1   2
ATOM      2  C   UNL     1      35.647   9.531   8.294  1.00  0.00     0.015 C 
BRANCH   2   3
ATOM      3  C   UNL     1      34.642  10.006   7.234  1.00  0.00     0.081 C 
BRANCH   3   4
ATOM      4  N   UNL     1      34.826   9.286   5.965  1.00  0.00    -0.314 NA
ATOM      5  H   UNL     1      33.889   8.919   5.670  1.00  0.00     0.122 HD
BRANCH   4   6
ATOM      6  C   UNL     1      35.726   8.135   6.123  1.00  0.00     0.117 C 
BRANCH   6   7
ATOM      7  C   UNL     1      35.148   6.909   5.404  1.00  0.00     0.158 C 
BRANCH   7   8
ATOM      8  C   UNL     1      34.573   5.941   6.416  1.00  0.00    -0.018 A 
ATOM      9  C   UNL     1      34.653   3.773   7.536  1.00  0.00     0.020 A 
ATOM     10  C   UNL     1      33.583   4.163   8.362  1.00  0.00     0.121 A 
ATOM     11  C   UNL     1      35.133   4.661   6.560  1.00  0.00     0.016 A 
ATOM     12  C   UNL     1      33.032   5.445   8.229  1.00  0.00     0.047 A 
ATOM     13  C   UNL     1      33.529   6.331   7.272  1.00  0.00     0.010 A 
BRANCH   9  14
ATOM     14  C   UNL     1      35.252   2.395   7.649  1.00  0.00     0.195 C 
BRANCH  14  15
ATOM     15  O   UNL     1      35.708   2.174   8.955  1.00  0.00    -0.392 OA
ATOM     16  H   UNL     1      36.701   2.179   8.914  1.00  0.00     0.211 HD
ENDBRANCH  14  15
ENDBRANCH   9  14
BRANCH  10  17
ATOM     17  O   UNL     1      33.072   3.281   9.315  1.00  0.00    -0.508 OA
ATOM     18  H   UNL     1      32.989   3.543  10.289  1.00  0.00     0.293 HD
ENDBRANCH  10  17
ENDBRANCH   7   8
BRANCH   7  19
ATOM     19  O   UNL     1      34.158   7.317   4.494  1.00  0.00    -0.387 OA
ATOM     20  H   UNL     1      33.866   6.503   4.005  1.00  0.00     0.211 HD
ENDBRANCH   7  19
ENDBRANCH   6   7
ENDBRANCH   4   6
ENDBRANCH   3   4
ENDBRANCH   2   3
ENDBRANCH   1   2
BRANCH   1  21
ATOM     21  C   UNL     1      33.881  10.674   9.756  1.00  0.00     0.002 C 
BRANCH  21  22
ATOM     22  C   UNL     1      32.803  10.219  10.758  1.00  0.00     0.028 C 
BRANCH  22  23
ATOM     23  C   UNL     1      31.362  10.466  10.279  1.00  0.00     0.160 C 
BRANCH  23  24
ATOM     24  O   UNL     1      31.045   9.685   9.142  1.00  0.00    -0.381 OA
BRANCH  24  25
ATOM     25  C   UNL     1      30.355  10.442   8.162  1.00  0.00     0.160 C 
BRANCH  25  26
ATOM     26  C   UNL     1      29.018   9.776   7.828  1.00  0.00     0.029 C 
BRANCH  26  27
ATOM     27  C   UNL     1      27.839  10.508   8.489  1.00  0.00     0.007 C 
BRANCH  27  28
ATOM     28  C   UNL     1      27.561  10.000   9.911  1.00  0.00     0.035 C 
BRANCH  28  29
ATOM     29  C   UNL     1      26.107   9.653  10.111  1.00  0.00    -0.048 A 
ATOM     30  C   UNL     1      25.162  10.660  10.376  1.00  0.00     0.004 A 
ATOM     31  C   UNL     1      25.678   8.318  10.003  1.00  0.00     0.004 A 
ATOM     32  C   UNL     1      23.812  10.333  10.544  1.00  0.00     0.000 A 
ATOM     33  C   UNL     1      24.327   7.997  10.168  1.00  0.00     0.000 A 
ATOM     34  C   UNL     1      23.395   9.003  10.438  1.00  0.00     0.000 A 
ENDBRANCH  28  29
ENDBRANCH  27  28
ENDBRANCH  26  27
ENDBRANCH  25  26
ENDBRANCH  24  25
ENDBRANCH  23  24
ENDBRANCH  22  23
ENDBRANCH  21  22
ENDBRANCH   1  21
TORSDOF 19
ENDMDL
MODEL 14
REMARK VINA RESULT:    -7.025      6.365     11.286
REMARK INTER + INTRA:         -16.339
REMARK INTER:                 -15.219
REMARK INTRA:                  -1.120
REMARK UNBOUND:                -2.126
REMARK SMILES OCc1cc(C(O)CNCCCCCCOCCCCc2ccccc2)ccc1O
REMARK SMILES IDX 12 1 11 2 10 3 9 4 8 6 6 7 5 8 3 9 29 10 4 11 28 12 27 13
REMARK SMILES IDX 2 14 1 15 30 17 7 19 13 21 14 22 15 23 16 24 17 25 18 26
REMARK SMILES IDX 19 27 20 28 21 29 22 30 26 31 23 32 25 33 24 34
REMARK H PARENT 9 5 1 16 30 18 7 20
REMARK Flexibility Score: inf
ROOT
ATOM      1  C   UNL     1      32.822   8.997   9.634  1.00  0.00     0.001 C 
ENDROOT
BRANCH   1   2
ATOM      2  C   UNL     1      32.942   7.701   8.813  1.00  0.00     0.015 C 
BRANCH   2   3
ATOM      3  C   UNL     1      31.707   6.802   8.975  1.00  0.00     0.081 C 
BRANCH   3   4
ATOM      4  N   UNL     1      32.001   5.416   8.579  1.00  0.00    -0.314 NA
ATOM      5  H   UNL     1      31.631   4.787   9.331  1.00  0.00     0.122 HD
BRANCH   4   6
ATOM      6  C   UNL     1      33.448   5.181   8.474  1.00  0.00     0.117 C 
BRANCH   6   7
ATOM      7  C   UNL     1      33.724   3.698   8.195  1.00  0.00     0.158 C 
BRANCH   7   8
ATOM      8  C   UNL     1      34.752   3.562   7.092  1.00  0.00    -0.018 A 
ATOM      9  C   UNL     1      35.609   4.265   4.915  1.00  0.00     0.020 A 
ATOM     10  C   UNL     1      36.708   3.400   5.072  1.00  0.00     0.121 A 
ATOM     11  C   UNL     1      34.631   4.331   5.922  1.00  0.00     0.016 A 
ATOM     12  C   UNL     1      36.837   2.643   6.245  1.00  0.00     0.047 A 
ATOM     13  C   UNL     1      35.873   2.731   7.251  1.00  0.00     0.010 A 
BRANCH   9  14
ATOM     14  C   UNL     1      35.439   5.078   3.658  1.00  0.00     0.195 C 
BRANCH  14  15
ATOM     15  O   UNL     1      34.302   4.652   2.960  1.00  0.00    -0.392 OA
ATOM     16  H   UNL     1      33.676   5.424   2.939  1.00  0.00     0.211 HD
ENDBRANCH  14  15
ENDBRANCH   9  14
BRANCH  10  17
ATOM     17  O   UNL     1      37.671   3.298   4.068  1.00  0.00    -0.508 OA
ATOM     18  H   UNL     1      38.066   2.405   3.801  1.00  0.00     0.293 HD
ENDBRANCH  10  17
ENDBRANCH   7   8
BRANCH   7  19
ATOM     19  O   UNL     1      34.177   3.072   9.369  1.00  0.00    -0.387 OA
ATOM     20  H   UNL     1      33.396   2.596   9.758  1.00  0.00     0.211 HD
ENDBRANCH   7  19
ENDBRANCH   6   7
ENDBRANCH   4   6
ENDBRANCH   3   4
ENDBRANCH   2   3
ENDBRANCH   1   2
BRANCH   1  21
ATOM     21  C   UNL     1      31.537   9.783   9.320  1.00  0.00     0.002 C 
BRANCH  21  22
ATOM     22  C   UNL     1      30.652  10.093  10.543  1.00  0.00     0.028 C 
BRANCH  22  23
ATOM     23  C   UNL     1      29.161  10.267  10.205  1.00  0.00     0.160 C 
BRANCH  23  24
ATOM     24  O   UNL     1      28.865   9.833   8.892  1.00  0.00    -0.381 OA
BRANCH  24  25
ATOM     25  C   UNL     1      28.128   8.622   8.894  1.00  0.00     0.160 C 
BRANCH  25  26
ATOM     26  C   UNL     1      27.921   8.135  10.330  1.00  0.00     0.029 C 
BRANCH  26  27
ATOM     27  C   UNL     1      26.429   8.008  10.676  1.00  0.00     0.007 C 
BRANCH  27  28
ATOM     28  C   UNL     1      25.533   8.752   9.676  1.00  0.00     0.035 C 
BRANCH  28  29
ATOM     29  C   UNL     1      24.877   9.960  10.297  1.00  0.00    -0.048 A 
ATOM     30  C   UNL     1      23.627   9.846  10.931  1.00  0.00     0.004 A 
ATOM     31  C   UNL     1      25.527  11.207  10.275  1.00  0.00     0.004 A 
ATOM     32  C   UNL     1      23.032  10.967  11.520  1.00  0.00     0.000 A 
ATOM     33  C   UNL     1      24.929  12.323  10.869  1.00  0.00     0.000 A 
ATOM     34  C   UNL     1      23.684  12.204  11.490  1.00  0.00     0.000 A 
ENDBRANCH  28  29
ENDBRANCH  27  28
ENDBRANCH  26  27
ENDBRANCH  25  26
ENDBRANCH  24  25
ENDBRANCH  23  24
ENDBRANCH  22  23
ENDBRANCH  21  22
ENDBRANCH   1  21
TORSDOF 19
ENDMDL
MODEL 15
REMARK VINA RESULT:    -6.936      3.294      6.567
REMARK INTER + INTRA:         -16.157
REMARK INTER:                 -13.716
REMARK INTRA:                  -2.441
REMARK UNBOUND:                -2.126
REMARK SMILES OCc1cc(C(O)CNCCCCCCOCCCCc2ccccc2)ccc1O
REMARK SMILES IDX 12 1 11 2 10 3 9 4 8 6 6 7 5 8 3 9 29 10 4 11 28 12 27 13
REMARK SMILES IDX 2 14 1 15 30 17 7 19 13 21 14 22 15 23 16 24 17 25 18 26
REMARK SMILES IDX 19 27 20 28 21 29 22 30 26 31 23 32 25 33 24 34
REMARK H PARENT 9 5 1 16 30 18 7 20
REMARK Flexibility Score: inf
ROOT
ATOM      1  C   UNL     1      29.098  10.512  11.161  1.00  0.00     0.001 C 
ENDROOT
BRANCH   1   2
ATOM      2  C   UNL     1      28.673   9.478  10.104  1.00  0.00     0.015 C 
BRANCH   2   3
ATOM      3  C   UNL     1      29.294   9.772   8.730  1.00  0.00     0.081 C 
BRANCH   3   4
ATOM      4  N   UNL     1      30.327   8.781   8.389  1.00  0.00    -0.314 NA
ATOM      5  H   UNL     1      30.225   7.976   9.052  1.00  0.00     0.122 HD
BRANCH   4   6
ATOM      6  C   UNL     1      31.680   9.330   8.560  1.00  0.00     0.117 C 
BRANCH   6   7
ATOM      7  C   UNL     1      31.642  10.862   8.483  1.00  0.00     0.158 C 
BRANCH   7   8
ATOM      8  C   UNL     1      32.515  11.455   9.568  1.00  0.00    -0.018 A 
ATOM      9  C   UNL     1      33.314  13.412  10.791  1.00  0.00     0.020 A 
ATOM     10  C   UNL     1      34.053  12.572  11.646  1.00  0.00     0.121 A 
ATOM     11  C   UNL     1      32.560  12.847   9.750  1.00  0.00     0.016 A 
ATOM     12  C   UNL     1      33.998  11.182  11.474  1.00  0.00     0.047 A 
ATOM     13  C   UNL     1      33.228  10.627  10.451  1.00  0.00     0.010 A 
BRANCH   9  14
ATOM     14  C   UNL     1      33.368  14.910  10.945  1.00  0.00     0.195 C 
BRANCH  14  15
ATOM     15  O   UNL     1      34.698  15.349  10.913  1.00  0.00    -0.392 OA
ATOM     16  H   UNL     1      35.042  15.280  11.843  1.00  0.00     0.211 HD
ENDBRANCH  14  15
ENDBRANCH   9  14
BRANCH  10  17
ATOM     17  O   UNL     1      34.834  13.118  12.664  1.00  0.00    -0.508 OA
ATOM     18  H   UNL     1      34.645  14.038  13.043  1.00  0.00     0.293 HD
ENDBRANCH  10  17
ENDBRANCH   7   8
BRANCH   7  19
ATOM     19  O   UNL     1      32.078  11.282   7.215  1.00  0.00    -0.387 OA
ATOM     20  H   UNL     1      31.376  11.887   6.857  1.00  0.00     0.211 HD
ENDBRANCH   7  19
ENDBRANCH   6   7
ENDBRANCH   4   6
ENDBRANCH   3   4
ENDBRANCH   2   3
ENDBRANCH   1   2
BRANCH   1  21
ATOM     21  C   UNL     1      28.222  11.776  11.142  1.00  0.00     0.002 C 
BRANCH  21  22
ATOM     22  C   UNL     1      28.935  13.052  10.654  1.00  0.00     0.028 C 
BRANCH  22  23
ATOM     23  C   UNL     1      28.028  14.293  10.604  1.00  0.00     0.160 C 
BRANCH  23  24
ATOM     24  O   UNL     1      26.666  13.944  10.449  1.00  0.00    -0.381 OA
BRANCH  24  25
ATOM     25  C   UNL     1      25.815  14.812  11.178  1.00  0.00     0.160 C 
BRANCH  25  26
ATOM     26  C   UNL     1      24.522  14.086  11.556  1.00  0.00     0.029 C 
BRANCH  26  27
ATOM     27  C   UNL     1      24.722  12.563  11.614  1.00  0.00     0.007 C 
BRANCH  27  28
ATOM     28  C   UNL     1      23.425  11.794  11.327  1.00  0.00     0.035 C 
BRANCH  28  29
ATOM     29  C   UNL     1      23.692  10.358  10.953  1.00  0.00    -0.048 A 
ATOM     30  C   UNL     1      22.712   9.371  11.161  1.00  0.00     0.004 A 
ATOM     31  C   UNL     1      24.916   9.998  10.361  1.00  0.00     0.004 A 
ATOM     32  C   UNL     1      22.960   8.044  10.795  1.00  0.00     0.000 A 
ATOM     33  C   UNL     1      25.157   8.670   9.993  1.00  0.00     0.000 A 
ATOM     34  C   UNL     1      24.181   7.695  10.210  1.00  0.00     0.000 A 
ENDBRANCH  28  29
ENDBRANCH  27  28
ENDBRANCH  26  27
ENDBRANCH  25  26
ENDBRANCH  24  25
ENDBRANCH  23  24
ENDBRANCH  22  23
ENDBRANCH  21  22
ENDBRANCH   1  21
TORSDOF 19
ENDMDL
