MODEL 1
REMARK VINA RESULT:    -5.329      0.000      0.000
REMARK INTER + INTRA:          -7.411
REMARK INTER:                  -6.575
REMARK INTRA:                  -0.836
REMARK UNBOUND:                -0.836
REMARK SMILES CCOC(=O)C1(c2ccccc2)CCN(C)CC1
REMARK SMILES IDX 4 1 5 2 3 3 2 4 1 5 6 6 13 7 18 8 14 9 17 10 15 11 16 12
REMARK SMILES IDX 7 13 8 14 12 15 9 16 11 17 10 18
REMARK H PARENT
REMARK Flexibility Score: inf
ROOT
ATOM      1  C   UNL     1      26.427  22.517  10.160  1.00  0.00     0.316 C 
ATOM      2  O   UNL     1      26.724  23.154  11.210  1.00  0.00    -0.251 OA
ENDROOT
BRANCH   1   3
ATOM      3  O   UNL     1      25.133  22.006   9.991  1.00  0.00    -0.465 OA
BRANCH   3   4
ATOM      4  C   UNL     1      24.363  21.449  11.052  1.00  0.00     0.229 C 
ATOM      5  C   UNL     1      24.795  20.013  11.329  1.00  0.00     0.049 C 
ENDBRANCH   3   4
ENDBRANCH   1   3
BRANCH   1   6
ATOM      6  C   UNL     1      27.472  22.242   9.096  1.00  0.00     0.095 C 
ATOM      7  C   UNL     1      28.827  22.912   9.472  1.00  0.00     0.039 C 
ATOM      8  C   UNL     1      26.998  22.926   7.781  1.00  0.00     0.039 C 
ATOM      9  C   UNL     1      29.853  22.809   8.332  1.00  0.00     0.085 C 
ATOM     10  C   UNL     1      28.060  22.875   6.659  1.00  0.00     0.085 C 
ATOM     11  N   UNL     1      29.368  23.417   7.077  1.00  0.00    -0.306 NA
ATOM     12  C   UNL     1      29.391  24.889   7.106  1.00  0.00     0.105 C 
BRANCH   6  13
ATOM     13  C   UNL     1      27.613  20.705   9.007  1.00  0.00    -0.031 A 
ATOM     14  C   UNL     1      28.344  20.014  10.004  1.00  0.00     0.005 A 
ATOM     15  C   UNL     1      26.937  19.924   8.038  1.00  0.00     0.005 A 
ATOM     16  C   UNL     1      28.461  18.623   9.981  1.00  0.00     0.000 A 
ATOM     17  C   UNL     1      27.061  18.532   8.021  1.00  0.00     0.000 A 
ATOM     18  C   UNL     1      27.828  17.883   8.985  1.00  0.00     0.000 A 
ENDBRANCH   6  13
ENDBRANCH   1   6
TORSDOF 4
ENDMDL
MODEL 2
REMARK VINA RESULT:    -5.138      2.726      4.990
REMARK INTER + INTRA:          -7.175
REMARK INTER:                  -6.805
REMARK INTRA:                  -0.370
REMARK UNBOUND:                -0.836
REMARK SMILES CCOC(=O)C1(c2ccccc2)CCN(C)CC1
REMARK SMILES IDX 4 1 5 2 3 3 2 4 1 5 6 6 13 7 18 8 14 9 17 10 15 11 16 12
REMARK SMILES IDX 7 13 8 14 12 15 9 16 11 17 10 18
REMARK H PARENT
REMARK Flexibility Score: inf
ROOT
ATOM      1  C   UNL     1      30.281  22.638   9.178  1.00  0.00     0.316 C 
ATOM      2  O   UNL     1      30.738  23.096  10.263  1.00  0.00    -0.251 OA
ENDROOT
BRANCH   1   3
ATOM      3  O   UNL     1      30.070  21.260   9.031  1.00  0.00    -0.465 OA
BRANCH   3   4
ATOM      4  C   UNL     1      29.277  20.486   9.926  1.00  0.00     0.229 C 
ATOM      5  C   UNL     1      28.069  19.901   9.201  1.00  0.00     0.049 C 
ENDBRANCH   3   4
ENDBRANCH   1   3
BRANCH   1   6
ATOM      6  C   UNL     1      30.010  23.554   8.001  1.00  0.00     0.095 C 
ATOM      7  C   UNL     1      29.810  25.021   8.482  1.00  0.00     0.039 C 
ATOM      8  C   UNL     1      28.659  23.117   7.363  1.00  0.00     0.039 C 
ATOM      9  C   UNL     1      29.354  25.942   7.339  1.00  0.00     0.085 C 
ATOM     10  C   UNL     1      28.174  24.082   6.258  1.00  0.00     0.085 C 
ATOM     11  N   UNL     1      28.098  25.486   6.711  1.00  0.00    -0.306 NA
ATOM     12  C   UNL     1      26.911  25.752   7.541  1.00  0.00     0.105 C 
BRANCH   6  13
ATOM     13  C   UNL     1      31.233  23.434   7.062  1.00  0.00    -0.031 A 
ATOM     14  C   UNL     1      31.280  22.385   6.111  1.00  0.00     0.005 A 
ATOM     15  C   UNL     1      32.264  24.403   7.012  1.00  0.00     0.005 A 
ATOM     16  C   UNL     1      32.347  22.266   5.218  1.00  0.00     0.000 A 
ATOM     17  C   UNL     1      33.330  24.276   6.117  1.00  0.00     0.000 A 
ATOM     18  C   UNL     1      33.376  23.205   5.227  1.00  0.00     0.000 A 
ENDBRANCH   6  13
ENDBRANCH   1   6
TORSDOF 4
ENDMDL
MODEL 3
REMARK VINA RESULT:    -5.091      3.295      5.122
REMARK INTER + INTRA:          -7.118
REMARK INTER:                  -6.776
REMARK INTRA:                  -0.342
REMARK UNBOUND:                -0.836
REMARK SMILES CCOC(=O)C1(c2ccccc2)CCN(C)CC1
REMARK SMILES IDX 4 1 5 2 3 3 2 4 1 5 6 6 13 7 18 8 14 9 17 10 15 11 16 12
REMARK SMILES IDX 7 13 8 14 12 15 9 16 11 17 10 18
REMARK H PARENT
REMARK Flexibility Score: inf
ROOT
ATOM      1  C   UNL     1      29.857  22.315   7.572  1.00  0.00     0.316 C 
ATOM      2  O   UNL     1      30.620  21.572   8.251  1.00  0.00    -0.251 OA
ENDROOT
BRANCH   1   3
ATOM      3  O   UNL     1      28.507  21.975   7.412  1.00  0.00    -0.465 OA
BRANCH   3   4
ATOM      4  C   UNL     1      27.671  21.547   8.484  1.00  0.00     0.229 C 
ATOM      5  C   UNL     1      27.363  20.059   8.360  1.00  0.00     0.049 C 
ENDBRANCH   3   4
ENDBRANCH   1   3
BRANCH   1   6
ATOM      6  C   UNL     1      30.394  23.547   6.871  1.00  0.00     0.095 C 
ATOM      7  C   UNL     1      31.226  24.420   7.856  1.00  0.00     0.039 C 
ATOM      8  C   UNL     1      29.176  24.415   6.442  1.00  0.00     0.039 C 
ATOM      9  C   UNL     1      31.630  25.764   7.229  1.00  0.00     0.085 C 
ATOM     10  C   UNL     1      29.587  25.791   5.872  1.00  0.00     0.085 C 
ATOM     11  N   UNL     1      30.466  26.554   6.781  1.00  0.00    -0.306 NA
ATOM     12  C   UNL     1      29.730  27.174   7.895  1.00  0.00     0.105 C 
BRANCH   6  13
ATOM     13  C   UNL     1      31.266  23.040   5.699  1.00  0.00    -0.031 A 
ATOM     14  C   UNL     1      32.677  23.099   5.805  1.00  0.00     0.005 A 
ATOM     15  C   UNL     1      30.727  22.394   4.560  1.00  0.00     0.005 A 
ATOM     16  C   UNL     1      33.500  22.614   4.787  1.00  0.00     0.000 A 
ATOM     17  C   UNL     1      31.557  21.913   3.543  1.00  0.00     0.000 A 
ATOM     18  C   UNL     1      32.941  22.031   3.652  1.00  0.00     0.000 A 
ENDBRANCH   6  13
ENDBRANCH   1   6
TORSDOF 4
ENDMDL
MODEL 4
REMARK VINA RESULT:    -5.003      2.411      4.449
REMARK INTER + INTRA:          -7.009
REMARK INTER:                  -6.628
REMARK INTRA:                  -0.381
REMARK UNBOUND:                -0.836
REMARK SMILES CCOC(=O)C1(c2ccccc2)CCN(C)CC1
REMARK SMILES IDX 4 1 5 2 3 3 2 4 1 5 6 6 13 7 18 8 14 9 17 10 15 11 16 12
REMARK SMILES IDX 7 13 8 14 12 15 9 16 11 17 10 18
REMARK H PARENT
REMARK Flexibility Score: inf
ROOT
ATOM      1  C   UNL     1      29.506  21.526   9.279  1.00  0.00     0.316 C 
ATOM      2  O   UNL     1      30.390  21.561  10.180  1.00  0.00    -0.251 OA
ENDROOT
BRANCH   1   3
ATOM      3  O   UNL     1      28.922  20.305   8.915  1.00  0.00    -0.465 OA
BRANCH   3   4
ATOM      4  C   UNL     1      28.363  19.390   9.854  1.00  0.00     0.229 C 
ATOM      5  C   UNL     1      27.854  18.140   9.144  1.00  0.00     0.049 C 
ENDBRANCH   3   4
ENDBRANCH   1   3
BRANCH   1   6
ATOM      6  C   UNL     1      29.104  22.784   8.535  1.00  0.00     0.095 C 
ATOM      7  C   UNL     1      28.871  23.959   9.530  1.00  0.00     0.039 C 
ATOM      8  C   UNL     1      27.732  22.512   7.853  1.00  0.00     0.039 C 
ATOM      9  C   UNL     1      28.287  25.196   8.829  1.00  0.00     0.085 C 
ATOM     10  C   UNL     1      27.120  23.775   7.205  1.00  0.00     0.085 C 
ATOM     11  N   UNL     1      27.011  24.910   8.143  1.00  0.00    -0.306 NA
ATOM     12  C   UNL     1      25.878  24.771   9.074  1.00  0.00     0.105 C 
BRANCH   6  13
ATOM     13  C   UNL     1      30.257  23.101   7.554  1.00  0.00    -0.031 A 
ATOM     14  C   UNL     1      31.228  24.068   7.912  1.00  0.00     0.005 A 
ATOM     15  C   UNL     1      30.471  22.378   6.356  1.00  0.00     0.005 A 
ATOM     16  C   UNL     1      32.307  24.354   7.073  1.00  0.00     0.000 A 
ATOM     17  C   UNL     1      31.553  22.672   5.520  1.00  0.00     0.000 A 
ATOM     18  C   UNL     1      32.464  23.664   5.873  1.00  0.00     0.000 A 
ENDBRANCH   6  13
ENDBRANCH   1   6
TORSDOF 4
ENDMDL
MODEL 5
REMARK VINA RESULT:    -5.002      3.544      5.761
REMARK INTER + INTRA:          -7.008
REMARK INTER:                  -6.543
REMARK INTRA:                  -0.465
REMARK UNBOUND:                -0.836
REMARK SMILES CCOC(=O)C1(c2ccccc2)CCN(C)CC1
REMARK SMILES IDX 4 1 5 2 3 3 2 4 1 5 6 6 13 7 18 8 14 9 17 10 15 11 16 12
REMARK SMILES IDX 7 13 8 14 12 15 9 16 11 17 10 18
REMARK H PARENT
REMARK Flexibility Score: inf
ROOT
ATOM      1  C   UNL     1      31.093  22.423   5.731  1.00  0.00     0.316 C 
ATOM      2  O   UNL     1      31.939  21.608   6.197  1.00  0.00    -0.251 OA
ENDROOT
BRANCH   1   3
ATOM      3  O   UNL     1      30.745  22.374   4.374  1.00  0.00    -0.465 OA
BRANCH   3   4
ATOM      4  C   UNL     1      31.430  21.573   3.415  1.00  0.00     0.229 C 
ATOM      5  C   UNL     1      32.657  22.307   2.885  1.00  0.00     0.049 C 
ENDBRANCH   3   4
ENDBRANCH   1   3
BRANCH   1   6
ATOM      6  C   UNL     1      30.486  23.500   6.608  1.00  0.00     0.095 C 
ATOM      7  C   UNL     1      29.539  24.415   5.778  1.00  0.00     0.039 C 
ATOM      8  C   UNL     1      31.645  24.411   7.107  1.00  0.00     0.039 C 
ATOM      9  C   UNL     1      29.051  25.624   6.592  1.00  0.00     0.085 C 
ATOM     10  C   UNL     1      31.145  25.659   7.869  1.00  0.00     0.085 C 
ATOM     11  N   UNL     1      30.164  26.450   7.101  1.00  0.00    -0.306 NA
ATOM     12  C   UNL     1      30.792  27.274   6.054  1.00  0.00     0.105 C 
BRANCH   6  13
ATOM     13  C   UNL     1      29.716  22.768   7.732  1.00  0.00    -0.031 A 
ATOM     14  C   UNL     1      28.447  22.205   7.452  1.00  0.00     0.005 A 
ATOM     15  C   UNL     1      30.271  22.516   9.010  1.00  0.00     0.005 A 
ATOM     16  C   UNL     1      27.737  21.502   8.427  1.00  0.00     0.000 A 
ATOM     17  C   UNL     1      29.553  21.813   9.982  1.00  0.00     0.000 A 
ATOM     18  C   UNL     1      28.284  21.315   9.694  1.00  0.00     0.000 A 
ENDBRANCH   6  13
ENDBRANCH   1   6
TORSDOF 4
ENDMDL
MODEL 6
REMARK VINA RESULT:    -4.949      4.040      6.298
REMARK INTER + INTRA:          -6.943
REMARK INTER:                  -6.520
REMARK INTRA:                  -0.422
REMARK UNBOUND:                -0.836
REMARK SMILES CCOC(=O)C1(c2ccccc2)CCN(C)CC1
REMARK SMILES IDX 4 1 5 2 3 3 2 4 1 5 6 6 13 7 18 8 14 9 17 10 15 11 16 12
REMARK SMILES IDX 7 13 8 14 12 15 9 16 11 17 10 18
REMARK H PARENT
REMARK Flexibility Score: inf
ROOT
ATOM      1  C   UNL     1      31.790  25.098   8.298  1.00  0.00     0.316 C 
ATOM      2  O   UNL     1      32.581  24.590   9.143  1.00  0.00    -0.251 OA
ENDROOT
BRANCH   1   3
ATOM      3  O   UNL     1      31.557  26.480   8.297  1.00  0.00    -0.465 OA
BRANCH   3   4
ATOM      4  C   UNL     1      31.123  27.205   9.445  1.00  0.00     0.229 C 
ATOM      5  C   UNL     1      29.819  26.624   9.982  1.00  0.00     0.049 C 
ENDBRANCH   3   4
ENDBRANCH   1   3
BRANCH   1   6
ATOM      6  C   UNL     1      31.037  24.224   7.315  1.00  0.00     0.095 C 
ATOM      7  C   UNL     1      29.984  25.061   6.531  1.00  0.00     0.039 C 
ATOM      8  C   UNL     1      30.235  23.173   8.136  1.00  0.00     0.039 C 
ATOM      9  C   UNL     1      29.080  24.174   5.660  1.00  0.00     0.085 C 
ATOM     10  C   UNL     1      29.280  22.327   7.263  1.00  0.00     0.085 C 
ATOM     11  N   UNL     1      28.365  23.149   6.446  1.00  0.00    -0.306 NA
ATOM     12  C   UNL     1      27.247  23.703   7.229  1.00  0.00     0.105 C 
BRANCH   6  13
ATOM     13  C   UNL     1      32.096  23.622   6.362  1.00  0.00    -0.031 A 
ATOM     14  C   UNL     1      33.079  24.468   5.792  1.00  0.00     0.005 A 
ATOM     15  C   UNL     1      32.218  22.231   6.124  1.00  0.00     0.005 A 
ATOM     16  C   UNL     1      34.077  23.958   4.959  1.00  0.00     0.000 A 
ATOM     17  C   UNL     1      33.218  21.729   5.287  1.00  0.00     0.000 A 
ATOM     18  C   UNL     1      34.141  22.591   4.698  1.00  0.00     0.000 A 
ENDBRANCH   6  13
ENDBRANCH   1   6
TORSDOF 4
ENDMDL
MODEL 7
REMARK VINA RESULT:    -4.944      2.613      4.934
REMARK INTER + INTRA:          -6.936
REMARK INTER:                  -6.255
REMARK INTRA:                  -0.681
REMARK UNBOUND:                -0.836
REMARK SMILES CCOC(=O)C1(c2ccccc2)CCN(C)CC1
REMARK SMILES IDX 4 1 5 2 3 3 2 4 1 5 6 6 13 7 18 8 14 9 17 10 15 11 16 12
REMARK SMILES IDX 7 13 8 14 12 15 9 16 11 17 10 18
REMARK H PARENT
REMARK Flexibility Score: inf
ROOT
ATOM      1  C   UNL     1      30.333  22.591   9.199  1.00  0.00     0.316 C 
ATOM      2  O   UNL     1      30.600  23.112  10.319  1.00  0.00    -0.251 OA
ENDROOT
BRANCH   1   3
ATOM      3  O   UNL     1      30.005  21.231   9.118  1.00  0.00    -0.465 OA
BRANCH   3   4
ATOM      4  C   UNL     1      28.894  20.649   9.794  1.00  0.00     0.229 C 
ATOM      5  C   UNL     1      27.932  20.015   8.794  1.00  0.00     0.049 C 
ENDBRANCH   3   4
ENDBRANCH   1   3
BRANCH   1   6
ATOM      6  C   UNL     1      30.421  23.404   7.923  1.00  0.00     0.095 C 
ATOM      7  C   UNL     1      30.606  22.471   6.690  1.00  0.00     0.039 C 
ATOM      8  C   UNL     1      31.708  24.276   8.006  1.00  0.00     0.039 C 
ATOM      9  C   UNL     1      30.881  23.268   5.405  1.00  0.00     0.085 C 
ATOM     10  C   UNL     1      32.015  25.024   6.689  1.00  0.00     0.085 C 
ATOM     11  N   UNL     1      32.076  24.129   5.517  1.00  0.00    -0.306 NA
ATOM     12  C   UNL     1      33.337  23.372   5.444  1.00  0.00     0.105 C 
BRANCH   6  13
ATOM     13  C   UNL     1      29.105  24.209   7.824  1.00  0.00    -0.031 A 
ATOM     14  C   UNL     1      27.895  23.532   7.534  1.00  0.00     0.005 A 
ATOM     15  C   UNL     1      29.019  25.588   8.137  1.00  0.00     0.005 A 
ATOM     16  C   UNL     1      26.679  24.216   7.476  1.00  0.00     0.000 A 
ATOM     17  C   UNL     1      27.798  26.266   8.074  1.00  0.00     0.000 A 
ATOM     18  C   UNL     1      26.632  25.584   7.735  1.00  0.00     0.000 A 
ENDBRANCH   6  13
ENDBRANCH   1   6
TORSDOF 4
ENDMDL
MODEL 8
REMARK VINA RESULT:    -4.905      4.634      7.760
REMARK INTER + INTRA:          -6.888
REMARK INTER:                  -6.427
REMARK INTRA:                  -0.461
REMARK UNBOUND:                -0.836
REMARK SMILES CCOC(=O)C1(c2ccccc2)CCN(C)CC1
REMARK SMILES IDX 4 1 5 2 3 3 2 4 1 5 6 6 13 7 18 8 14 9 17 10 15 11 16 12
REMARK SMILES IDX 7 13 8 14 12 15 9 16 11 17 10 18
REMARK H PARENT
REMARK Flexibility Score: inf
ROOT
ATOM      1  C   UNL     1      23.348  20.266  11.961  1.00  0.00     0.316 C 
ATOM      2  O   UNL     1      22.725  20.118  10.872  1.00  0.00    -0.251 OA
ENDROOT
BRANCH   1   3
ATOM      3  O   UNL     1      24.688  19.868  12.064  1.00  0.00    -0.465 OA
BRANCH   3   4
ATOM      4  C   UNL     1      25.660  20.113  11.051  1.00  0.00     0.229 C 
ATOM      5  C   UNL     1      26.013  18.818  10.327  1.00  0.00     0.049 C 
ENDBRANCH   3   4
ENDBRANCH   1   3
BRANCH   1   6
ATOM      6  C   UNL     1      22.647  20.816  13.188  1.00  0.00     0.095 C 
ATOM      7  C   UNL     1      21.476  21.756  12.776  1.00  0.00     0.039 C 
ATOM      8  C   UNL     1      23.668  21.704  13.957  1.00  0.00     0.039 C 
ATOM      9  C   UNL     1      20.863  22.473  13.989  1.00  0.00     0.085 C 
ATOM     10  C   UNL     1      23.031  22.471  15.137  1.00  0.00     0.085 C 
ATOM     11  N   UNL     1      21.855  23.270  14.738  1.00  0.00    -0.306 NA
ATOM     12  C   UNL     1      22.223  24.520  14.052  1.00  0.00     0.105 C 
BRANCH   6  13
ATOM     13  C   UNL     1      22.131  19.594  13.983  1.00  0.00    -0.031 A 
ATOM     14  C   UNL     1      20.891  19.008  13.630  1.00  0.00     0.005 A 
ATOM     15  C   UNL     1      22.899  18.941  14.978  1.00  0.00     0.005 A 
ATOM     16  C   UNL     1      20.409  17.879  14.296  1.00  0.00     0.000 A 
ATOM     17  C   UNL     1      22.408  17.813  15.642  1.00  0.00     0.000 A 
ATOM     18  C   UNL     1      21.162  17.288  15.308  1.00  0.00     0.000 A 
ENDBRANCH   6  13
ENDBRANCH   1   6
TORSDOF 4
ENDMDL
MODEL 9
REMARK VINA RESULT:    -4.890      3.284      6.550
REMARK INTER + INTRA:          -6.869
REMARK INTER:                  -6.105
REMARK INTRA:                  -0.764
REMARK UNBOUND:                -0.836
REMARK SMILES CCOC(=O)C1(c2ccccc2)CCN(C)CC1
REMARK SMILES IDX 4 1 5 2 3 3 2 4 1 5 6 6 13 7 18 8 14 9 17 10 15 11 16 12
REMARK SMILES IDX 7 13 8 14 12 15 9 16 11 17 10 18
REMARK H PARENT
REMARK Flexibility Score: inf
ROOT
ATOM      1  C   UNL     1      30.612  22.590   5.875  1.00  0.00     0.316 C 
ATOM      2  O   UNL     1      30.191  22.679   4.687  1.00  0.00    -0.251 OA
ENDROOT
BRANCH   1   3
ATOM      3  O   UNL     1      31.862  22.012   6.135  1.00  0.00    -0.465 OA
BRANCH   3   4
ATOM      4  C   UNL     1      33.047  22.347   5.419  1.00  0.00     0.229 C 
ATOM      5  C   UNL     1      33.364  23.830   5.574  1.00  0.00     0.049 C 
ENDBRANCH   3   4
ENDBRANCH   1   3
BRANCH   1   6
ATOM      6  C   UNL     1      29.755  23.046   7.039  1.00  0.00     0.095 C 
ATOM      7  C   UNL     1      29.889  22.062   8.238  1.00  0.00     0.039 C 
ATOM      8  C   UNL     1      28.267  22.979   6.585  1.00  0.00     0.039 C 
ATOM      9  C   UNL     1      28.897  22.392   9.364  1.00  0.00     0.085 C 
ATOM     10  C   UNL     1      27.273  23.249   7.737  1.00  0.00     0.085 C 
ATOM     11  N   UNL     1      27.493  22.375   8.906  1.00  0.00    -0.306 NA
ATOM     12  C   UNL     1      26.973  21.012   8.703  1.00  0.00     0.105 C 
BRANCH   6  13
ATOM     13  C   UNL     1      30.248  24.462   7.418  1.00  0.00    -0.031 A 
ATOM     14  C   UNL     1      31.196  24.612   8.459  1.00  0.00     0.005 A 
ATOM     15  C   UNL     1      29.893  25.623   6.689  1.00  0.00     0.005 A 
ATOM     16  C   UNL     1      31.697  25.869   8.805  1.00  0.00     0.000 A 
ATOM     17  C   UNL     1      30.397  26.878   7.043  1.00  0.00     0.000 A 
ATOM     18  C   UNL     1      31.290  27.003   8.104  1.00  0.00     0.000 A 
ENDBRANCH   6  13
ENDBRANCH   1   6
TORSDOF 4
ENDMDL
MODEL 10
REMARK VINA RESULT:    -4.870      3.276      6.236
REMARK INTER + INTRA:          -6.844
REMARK INTER:                  -6.248
REMARK INTRA:                  -0.596
REMARK UNBOUND:                -0.836
REMARK SMILES CCOC(=O)C1(c2ccccc2)CCN(C)CC1
REMARK SMILES IDX 4 1 5 2 3 3 2 4 1 5 6 6 13 7 18 8 14 9 17 10 15 11 16 12
REMARK SMILES IDX 7 13 8 14 12 15 9 16 11 17 10 18
REMARK H PARENT
REMARK Flexibility Score: inf
ROOT
ATOM      1  C   UNL     1      29.379  25.565   7.014  1.00  0.00     0.316 C 
ATOM      2  O   UNL     1      28.927  25.691   5.840  1.00  0.00    -0.251 OA
ENDROOT
BRANCH   1   3
ATOM      3  O   UNL     1      29.540  26.694   7.829  1.00  0.00    -0.465 OA
BRANCH   3   4
ATOM      4  C   UNL     1      30.479  27.731   7.559  1.00  0.00     0.229 C 
ATOM      5  C   UNL     1      31.639  27.673   8.547  1.00  0.00     0.049 C 
ENDBRANCH   3   4
ENDBRANCH   1   3
BRANCH   1   6
ATOM      6  C   UNL     1      29.811  24.210   7.539  1.00  0.00     0.095 C 
ATOM      7  C   UNL     1      28.666  23.168   7.374  1.00  0.00     0.039 C 
ATOM      8  C   UNL     1      30.054  24.353   9.070  1.00  0.00     0.039 C 
ATOM      9  C   UNL     1      29.003  21.834   8.061  1.00  0.00     0.085 C 
ATOM     10  C   UNL     1      30.328  23.000   9.765  1.00  0.00     0.085 C 
ATOM     11  N   UNL     1      29.280  21.993   9.502  1.00  0.00    -0.306 NA
ATOM     12  C   UNL     1      28.062  22.219  10.300  1.00  0.00     0.105 C 
BRANCH   6  13
ATOM     13  C   UNL     1      31.062  23.802   6.726  1.00  0.00    -0.031 A 
ATOM     14  C   UNL     1      30.933  22.857   5.680  1.00  0.00     0.005 A 
ATOM     15  C   UNL     1      32.324  24.425   6.888  1.00  0.00     0.005 A 
ATOM     16  C   UNL     1      32.029  22.492   4.895  1.00  0.00     0.000 A 
ATOM     17  C   UNL     1      33.417  24.052   6.100  1.00  0.00     0.000 A 
ATOM     18  C   UNL     1      33.272  23.081   5.112  1.00  0.00     0.000 A 
ENDBRANCH   6  13
ENDBRANCH   1   6
TORSDOF 4
ENDMDL
MODEL 11
REMARK VINA RESULT:    -4.842      3.158      5.685
REMARK INTER + INTRA:          -6.811
REMARK INTER:                  -6.371
REMARK INTRA:                  -0.440
REMARK UNBOUND:                -0.836
REMARK SMILES CCOC(=O)C1(c2ccccc2)CCN(C)CC1
REMARK SMILES IDX 4 1 5 2 3 3 2 4 1 5 6 6 13 7 18 8 14 9 17 10 15 11 16 12
REMARK SMILES IDX 7 13 8 14 12 15 9 16 11 17 10 18
REMARK H PARENT
REMARK Flexibility Score: inf
ROOT
ATOM      1  C   UNL     1      29.211  25.378   7.035  1.00  0.00     0.316 C 
ATOM      2  O   UNL     1      29.127  25.606   5.795  1.00  0.00    -0.251 OA
ENDROOT
BRANCH   1   3
ATOM      3  O   UNL     1      28.874  26.378   7.957  1.00  0.00    -0.465 OA
BRANCH   3   4
ATOM      4  C   UNL     1      27.565  26.929   8.075  1.00  0.00     0.229 C 
ATOM      5  C   UNL     1      26.525  25.818   8.179  1.00  0.00     0.049 C 
ENDBRANCH   3   4
ENDBRANCH   1   3
BRANCH   1   6
ATOM      6  C   UNL     1      29.732  24.049   7.547  1.00  0.00     0.095 C 
ATOM      7  C   UNL     1      28.653  22.938   7.385  1.00  0.00     0.039 C 
ATOM      8  C   UNL     1      29.979  24.197   9.076  1.00  0.00     0.039 C 
ATOM      9  C   UNL     1      29.079  21.624   8.059  1.00  0.00     0.085 C 
ATOM     10  C   UNL     1      30.344  22.860   9.760  1.00  0.00     0.085 C 
ATOM     11  N   UNL     1      29.359  21.791   9.499  1.00  0.00    -0.306 NA
ATOM     12  C   UNL     1      28.137  21.934  10.309  1.00  0.00     0.105 C 
BRANCH   6  13
ATOM     13  C   UNL     1      30.998  23.726   6.719  1.00  0.00    -0.031 A 
ATOM     14  C   UNL     1      30.926  22.759   5.688  1.00  0.00     0.005 A 
ATOM     15  C   UNL     1      32.211  24.445   6.854  1.00  0.00     0.005 A 
ATOM     16  C   UNL     1      32.036  22.467   4.892  1.00  0.00     0.000 A 
ATOM     17  C   UNL     1      33.318  24.145   6.054  1.00  0.00     0.000 A 
ATOM     18  C   UNL     1      33.233  23.152   5.081  1.00  0.00     0.000 A 
ENDBRANCH   6  13
ENDBRANCH   1   6
TORSDOF 4
ENDMDL
MODEL 12
REMARK VINA RESULT:    -4.770      3.826      5.358
REMARK INTER + INTRA:          -6.722
REMARK INTER:                  -6.286
REMARK INTRA:                  -0.436
REMARK UNBOUND:                -0.836
REMARK SMILES CCOC(=O)C1(c2ccccc2)CCN(C)CC1
REMARK SMILES IDX 4 1 5 2 3 3 2 4 1 5 6 6 13 7 18 8 14 9 17 10 15 11 16 12
REMARK SMILES IDX 7 13 8 14 12 15 9 16 11 17 10 18
REMARK H PARENT
REMARK Flexibility Score: inf
ROOT
ATOM      1  C   UNL     1      29.341  24.054   5.597  1.00  0.00     0.316 C 
ATOM      2  O   UNL     1      28.494  23.299   5.040  1.00  0.00    -0.251 OA
ENDROOT
BRANCH   1   3
ATOM      3  O   UNL     1      29.071  25.421   5.748  1.00  0.00    -0.465 OA
BRANCH   3   4
ATOM      4  C   UNL     1      28.544  25.990   6.943  1.00  0.00     0.229 C 
ATOM      5  C   UNL     1      27.170  25.407   7.253  1.00  0.00     0.049 C 
ENDBRANCH   3   4
ENDBRANCH   1   3
BRANCH   1   6
ATOM      6  C   UNL     1      30.681  23.513   6.054  1.00  0.00     0.095 C 
ATOM      7  C   UNL     1      31.791  24.595   5.899  1.00  0.00     0.039 C 
ATOM      8  C   UNL     1      31.072  22.349   5.098  1.00  0.00     0.039 C 
ATOM      9  C   UNL     1      33.190  24.025   6.180  1.00  0.00     0.085 C 
ATOM     10  C   UNL     1      32.505  21.823   5.343  1.00  0.00     0.085 C 
ATOM     11  N   UNL     1      33.526  22.888   5.300  1.00  0.00    -0.306 NA
ATOM     12  C   UNL     1      33.855  23.305   3.926  1.00  0.00     0.105 C 
BRANCH   6  13
ATOM     13  C   UNL     1      30.506  23.099   7.533  1.00  0.00    -0.031 A 
ATOM     14  C   UNL     1      30.846  24.015   8.558  1.00  0.00     0.005 A 
ATOM     15  C   UNL     1      29.896  21.882   7.925  1.00  0.00     0.005 A 
ATOM     16  C   UNL     1      30.664  23.694   9.905  1.00  0.00     0.000 A 
ATOM     17  C   UNL     1      29.720  21.567   9.276  1.00  0.00     0.000 A 
ATOM     18  C   UNL     1      30.111  22.467  10.264  1.00  0.00     0.000 A 
ENDBRANCH   6  13
ENDBRANCH   1   6
TORSDOF 4
ENDMDL
MODEL 13
REMARK VINA RESULT:    -4.743      2.957      4.687
REMARK INTER + INTRA:          -6.688
REMARK INTER:                  -6.289
REMARK INTRA:                  -0.398
REMARK UNBOUND:                -0.836
REMARK SMILES CCOC(=O)C1(c2ccccc2)CCN(C)CC1
REMARK SMILES IDX 4 1 5 2 3 3 2 4 1 5 6 6 13 7 18 8 14 9 17 10 15 11 16 12
REMARK SMILES IDX 7 13 8 14 12 15 9 16 11 17 10 18
REMARK H PARENT
REMARK Flexibility Score: inf
ROOT
ATOM      1  C   UNL     1      29.589  22.794   6.138  1.00  0.00     0.316 C 
ATOM      2  O   UNL     1      29.232  23.204   4.997  1.00  0.00    -0.251 OA
ENDROOT
BRANCH   1   3
ATOM      3  O   UNL     1      30.721  21.978   6.268  1.00  0.00    -0.465 OA
BRANCH   3   4
ATOM      4  C   UNL     1      31.978  22.275   5.666  1.00  0.00     0.229 C 
ATOM      5  C   UNL     1      32.534  23.586   6.212  1.00  0.00     0.049 C 
ENDBRANCH   3   4
ENDBRANCH   1   3
BRANCH   1   6
ATOM      6  C   UNL     1      28.773  23.122   7.372  1.00  0.00     0.095 C 
ATOM      7  C   UNL     1      27.304  23.466   6.983  1.00  0.00     0.039 C 
ATOM      8  C   UNL     1      29.370  24.414   8.004  1.00  0.00     0.039 C 
ATOM      9  C   UNL     1      26.498  23.981   8.186  1.00  0.00     0.085 C 
ATOM     10  C   UNL     1      28.520  24.962   9.172  1.00  0.00     0.085 C 
ATOM     11  N   UNL     1      27.105  25.176   8.806  1.00  0.00    -0.306 NA
ATOM     12  C   UNL     1      26.902  26.399   8.012  1.00  0.00     0.105 C 
BRANCH   6  13
ATOM     13  C   UNL     1      28.833  21.874   8.283  1.00  0.00    -0.031 A 
ATOM     14  C   UNL     1      29.811  21.805   9.305  1.00  0.00     0.005 A 
ATOM     15  C   UNL     1      27.870  20.836   8.233  1.00  0.00     0.005 A 
ATOM     16  C   UNL     1      29.873  20.714  10.174  1.00  0.00     0.000 A 
ATOM     17  C   UNL     1      27.941  19.746   9.106  1.00  0.00     0.000 A 
ATOM     18  C   UNL     1      28.945  19.681  10.069  1.00  0.00     0.000 A 
ENDBRANCH   6  13
ENDBRANCH   1   6
TORSDOF 4
ENDMDL
MODEL 14
REMARK VINA RESULT:    -4.670      0.948      2.093
REMARK INTER + INTRA:          -6.598
REMARK INTER:                  -6.072
REMARK INTRA:                  -0.525
REMARK UNBOUND:                -0.836
REMARK SMILES CCOC(=O)C1(c2ccccc2)CCN(C)CC1
REMARK SMILES IDX 4 1 5 2 3 3 2 4 1 5 6 6 13 7 18 8 14 9 17 10 15 11 16 12
REMARK SMILES IDX 7 13 8 14 12 15 9 16 11 17 10 18
REMARK H PARENT
REMARK Flexibility Score: inf
ROOT
ATOM      1  C   UNL     1      26.317  22.528  10.135  1.00  0.00     0.316 C 
ATOM      2  O   UNL     1      25.100  22.323   9.865  1.00  0.00    -0.251 OA
ENDROOT
BRANCH   1   3
ATOM      3  O   UNL     1      26.676  23.106  11.360  1.00  0.00    -0.465 OA
BRANCH   3   4
ATOM      4  C   UNL     1      26.080  24.294  11.874  1.00  0.00     0.229 C 
ATOM      5  C   UNL     1      26.479  25.500  11.030  1.00  0.00     0.049 C 
ENDBRANCH   3   4
ENDBRANCH   1   3
BRANCH   1   6
ATOM      6  C   UNL     1      27.401  22.213   9.123  1.00  0.00     0.095 C 
ATOM      7  C   UNL     1      28.746  22.882   9.534  1.00  0.00     0.039 C 
ATOM      8  C   UNL     1      26.988  22.863   7.770  1.00  0.00     0.039 C 
ATOM      9  C   UNL     1      29.816  22.736   8.440  1.00  0.00     0.085 C 
ATOM     10  C   UNL     1      28.093  22.769   6.694  1.00  0.00     0.085 C 
ATOM     11  N   UNL     1      29.389  23.311   7.150  1.00  0.00    -0.306 NA
ATOM     12  C   UNL     1      29.425  24.784   7.137  1.00  0.00     0.105 C 
BRANCH   6  13
ATOM     13  C   UNL     1      27.530  20.673   9.084  1.00  0.00    -0.031 A 
ATOM     14  C   UNL     1      26.912  19.950   8.035  1.00  0.00     0.005 A 
ATOM     15  C   UNL     1      28.350  19.945   9.981  1.00  0.00     0.005 A 
ATOM     16  C   UNL     1      27.039  18.562   7.941  1.00  0.00     0.000 A 
ATOM     17  C   UNL     1      28.469  18.556   9.881  1.00  0.00     0.000 A 
ATOM     18  C   UNL     1      27.808  17.864   8.869  1.00  0.00     0.000 A 
ENDBRANCH   6  13
ENDBRANCH   1   6
TORSDOF 4
ENDMDL
MODEL 15
REMARK VINA RESULT:    -4.624      2.114      4.351
REMARK INTER + INTRA:          -6.541
REMARK INTER:                  -6.196
REMARK INTRA:                  -0.345
REMARK UNBOUND:                -0.836
REMARK SMILES CCOC(=O)C1(c2ccccc2)CCN(C)CC1
REMARK SMILES IDX 4 1 5 2 3 3 2 4 1 5 6 6 13 7 18 8 14 9 17 10 15 11 16 12
REMARK SMILES IDX 7 13 8 14 12 15 9 16 11 17 10 18
REMARK H PARENT
REMARK Flexibility Score: inf
ROOT
ATOM      1  C   UNL     1      27.805  21.433   8.122  1.00  0.00     0.316 C 
ATOM      2  O   UNL     1      26.549  21.311   8.052  1.00  0.00    -0.251 OA
ENDROOT
BRANCH   1   3
ATOM      3  O   UNL     1      28.592  20.356   8.551  1.00  0.00    -0.465 OA
BRANCH   3   4
ATOM      4  C   UNL     1      28.388  19.677   9.787  1.00  0.00     0.229 C 
ATOM      5  C   UNL     1      28.078  18.204   9.543  1.00  0.00     0.049 C 
ENDBRANCH   3   4
ENDBRANCH   1   3
BRANCH   1   6
ATOM      6  C   UNL     1      28.476  22.755   7.804  1.00  0.00     0.095 C 
ATOM      7  C   UNL     1      28.412  23.050   6.276  1.00  0.00     0.039 C 
ATOM      8  C   UNL     1      29.986  22.615   8.157  1.00  0.00     0.039 C 
ATOM      9  C   UNL     1      29.240  24.287   5.896  1.00  0.00     0.085 C 
ATOM     10  C   UNL     1      30.824  23.835   7.714  1.00  0.00     0.085 C 
ATOM     11  N   UNL     1      30.659  24.160   6.283  1.00  0.00    -0.306 NA
ATOM     12  C   UNL     1      31.415  23.253   5.403  1.00  0.00     0.105 C 
BRANCH   6  13
ATOM     13  C   UNL     1      27.724  23.835   8.616  1.00  0.00    -0.031 A 
ATOM     14  C   UNL     1      28.058  24.042   9.976  1.00  0.00     0.005 A 
ATOM     15  C   UNL     1      26.794  24.729   8.032  1.00  0.00     0.005 A 
ATOM     16  C   UNL     1      27.431  25.034  10.732  1.00  0.00     0.000 A 
ATOM     17  C   UNL     1      26.169  25.719   8.796  1.00  0.00     0.000 A 
ATOM     18  C   UNL     1      26.480  25.866  10.146  1.00  0.00     0.000 A 
ENDBRANCH   6  13
ENDBRANCH   1   6
TORSDOF 4
ENDMDL
