MODEL 1
REMARK VINA RESULT:    -6.786      0.000      0.000
REMARK INTER + INTRA:         -12.671
REMARK INTER:                 -11.745
REMARK INTRA:                  -0.925
REMARK UNBOUND:                -0.925
REMARK SMILES CC(C)NCC(O)COc1ccc(COCCOC(C)C)cc1
REMARK SMILES IDX 10 1 11 2 12 3 13 4 22 5 23 6 9 7 8 8 6 9 5 10 4 11 2 13
REMARK SMILES IDX 1 14 3 15 7 16 14 18 15 19 16 20 17 21 18 22 19 23 20 24
REMARK SMILES IDX 21 25
REMARK H PARENT 4 12 7 17
REMARK Flexibility Score: inf
ROOT
ATOM      1  C   UNL     1     -76.242 -17.473  87.655  1.00  0.00     0.119 A 
ATOM      2  C   UNL     1     -76.539 -17.020  86.355  1.00  0.00     0.047 A 
ATOM      3  C   UNL     1     -77.462 -17.707  85.562  1.00  0.00     0.010 A 
ATOM      4  C   UNL     1     -78.103 -18.855  86.052  1.00  0.00    -0.022 A 
ATOM      5  C   UNL     1     -77.813 -19.303  87.350  1.00  0.00     0.010 A 
ATOM      6  C   UNL     1     -76.890 -18.614  88.143  1.00  0.00     0.047 A 
ENDROOT
BRANCH   1   7
ATOM      7  O   UNL     1     -75.325 -16.824  88.498  1.00  0.00    -0.491 OA
BRANCH   7   8
ATOM      8  C   UNL     1     -74.335 -15.882  88.081  1.00  0.00     0.262 C 
BRANCH   8   9
ATOM      9  C   UNL     1     -74.348 -14.641  88.988  1.00  0.00     0.165 C 
BRANCH   9  10
ATOM     10  C   UNL     1     -74.466 -15.038  90.470  1.00  0.00     0.116 C 
BRANCH  10  11
ATOM     11  N   UNL     1     -75.879 -15.198  90.855  1.00  0.00    -0.312 NA
ATOM     12  H   UNL     1     -76.365 -15.735  90.099  1.00  0.00     0.123 HD
BRANCH  11  13
ATOM     13  C   UNL     1     -76.089 -15.908  92.133  1.00  0.00     0.047 C 
ATOM     14  C   UNL     1     -77.305 -15.390  92.919  1.00  0.00     0.024 C 
ATOM     15  C   UNL     1     -76.154 -17.427  91.926  1.00  0.00     0.024 C 
ENDBRANCH  11  13
ENDBRANCH  10  11
ENDBRANCH   9  10
BRANCH   9  16
ATOM     16  O   UNL     1     -73.179 -13.895  88.771  1.00  0.00    -0.388 OA
ATOM     17  H   UNL     1     -72.439 -14.383  89.220  1.00  0.00     0.211 HD
ENDBRANCH   9  16
ENDBRANCH   8   9
ENDBRANCH   7   8
ENDBRANCH   1   7
BRANCH   4  18
ATOM     18  C   UNL     1     -79.110 -19.592  85.209  1.00  0.00     0.195 C 
BRANCH  18  19
ATOM     19  O   UNL     1     -80.026 -18.685  84.625  1.00  0.00    -0.374 OA
BRANCH  19  20
ATOM     20  C   UNL     1     -81.340 -19.214  84.620  1.00  0.00     0.189 C 
BRANCH  20  21
ATOM     21  C   UNL     1     -81.526 -20.187  85.782  1.00  0.00     0.189 C 
BRANCH  21  22
ATOM     22  O   UNL     1     -82.902 -20.473  85.927  1.00  0.00    -0.376 OA
BRANCH  22  23
ATOM     23  C   UNL     1     -83.102 -21.512  86.871  1.00  0.00     0.112 C 
ATOM     24  C   UNL     1     -83.163 -22.859  86.144  1.00  0.00     0.038 C 
ATOM     25  C   UNL     1     -84.416 -21.252  87.606  1.00  0.00     0.038 C 
ENDBRANCH  22  23
ENDBRANCH  21  22
ENDBRANCH  20  21
ENDBRANCH  19  20
ENDBRANCH  18  19
ENDBRANCH   4  18
TORSDOF 13
ENDMDL
MODEL 2
REMARK VINA RESULT:    -6.637      4.253      7.523
REMARK INTER + INTRA:         -12.413
REMARK INTER:                 -11.527
REMARK INTRA:                  -0.886
REMARK UNBOUND:                -0.925
REMARK SMILES CC(C)NCC(O)COc1ccc(COCCOC(C)C)cc1
REMARK SMILES IDX 10 1 11 2 12 3 13 4 22 5 23 6 9 7 8 8 6 9 5 10 4 11 2 13
REMARK SMILES IDX 1 14 3 15 7 16 14 18 15 19 16 20 17 21 18 22 19 23 20 24
REMARK SMILES IDX 21 25
REMARK H PARENT 4 12 7 17
REMARK Flexibility Score: inf
ROOT
ATOM      1  C   UNL     1     -80.321 -21.351  88.680  1.00  0.00     0.119 A 
ATOM      2  C   UNL     1     -80.180 -21.000  87.323  1.00  0.00     0.047 A 
ATOM      3  C   UNL     1     -79.035 -20.335  86.880  1.00  0.00     0.010 A 
ATOM      4  C   UNL     1     -78.011 -20.008  87.783  1.00  0.00    -0.022 A 
ATOM      5  C   UNL     1     -78.147 -20.363  89.133  1.00  0.00     0.010 A 
ATOM      6  C   UNL     1     -79.293 -21.030  89.575  1.00  0.00     0.047 A 
ENDROOT
BRANCH   1   7
ATOM      7  O   UNL     1     -81.448 -22.021  89.182  1.00  0.00    -0.491 OA
BRANCH   7   8
ATOM      8  C   UNL     1     -82.005 -21.850  90.487  1.00  0.00     0.262 C 
BRANCH   8   9
ATOM      9  C   UNL     1     -83.289 -21.008  90.424  1.00  0.00     0.165 C 
BRANCH   9  10
ATOM     10  C   UNL     1     -84.303 -21.613  89.438  1.00  0.00     0.116 C 
BRANCH  10  11
ATOM     11  N   UNL     1     -84.964 -20.554  88.656  1.00  0.00    -0.312 NA
ATOM     12  H   UNL     1     -85.705 -20.119  89.255  1.00  0.00     0.123 HD
BRANCH  11  13
ATOM     13  C   UNL     1     -84.060 -19.482  88.189  1.00  0.00     0.047 C 
ATOM     14  C   UNL     1     -83.439 -19.773  86.814  1.00  0.00     0.024 C 
ATOM     15  C   UNL     1     -84.754 -18.113  88.220  1.00  0.00     0.024 C 
ENDBRANCH  11  13
ENDBRANCH  10  11
ENDBRANCH   9  10
BRANCH   9  16
ATOM     16  O   UNL     1     -83.848 -20.918  91.709  1.00  0.00    -0.388 OA
ATOM     17  H   UNL     1     -84.477 -20.149  91.696  1.00  0.00     0.211 HD
ENDBRANCH   9  16
ENDBRANCH   8   9
ENDBRANCH   7   8
ENDBRANCH   1   7
BRANCH   4  18
ATOM     18  C   UNL     1     -76.767 -19.303  87.311  1.00  0.00     0.195 C 
BRANCH  18  19
ATOM     19  O   UNL     1     -76.527 -19.582  85.945  1.00  0.00    -0.374 OA
BRANCH  19  20
ATOM     20  C   UNL     1     -77.027 -18.550  85.114  1.00  0.00     0.189 C 
BRANCH  20  21
ATOM     21  C   UNL     1     -77.197 -19.055  83.683  1.00  0.00     0.189 C 
BRANCH  21  22
ATOM     22  O   UNL     1     -78.505 -19.566  83.527  1.00  0.00    -0.376 OA
BRANCH  22  23
ATOM     23  C   UNL     1     -79.458 -18.517  83.528  1.00  0.00     0.112 C 
ATOM     24  C   UNL     1     -80.743 -18.994  84.211  1.00  0.00     0.038 C 
ATOM     25  C   UNL     1     -79.748 -18.125  82.079  1.00  0.00     0.038 C 
ENDBRANCH  22  23
ENDBRANCH  21  22
ENDBRANCH  20  21
ENDBRANCH  19  20
ENDBRANCH  18  19
ENDBRANCH   4  18
TORSDOF 13
ENDMDL
MODEL 3
REMARK VINA RESULT:    -6.637      4.034      5.840
REMARK INTER + INTRA:         -12.412
REMARK INTER:                 -11.090
REMARK INTRA:                  -1.322
REMARK UNBOUND:                -0.925
REMARK SMILES CC(C)NCC(O)COc1ccc(COCCOC(C)C)cc1
REMARK SMILES IDX 10 1 11 2 12 3 13 4 22 5 23 6 9 7 8 8 6 9 5 10 4 11 2 13
REMARK SMILES IDX 1 14 3 15 7 16 14 18 15 19 16 20 17 21 18 22 19 23 20 24
REMARK SMILES IDX 21 25
REMARK H PARENT 4 12 7 17
REMARK Flexibility Score: inf
ROOT
ATOM      1  C   UNL     1     -78.274 -19.123  85.839  1.00  0.00     0.119 A 
ATOM      2  C   UNL     1     -79.393 -19.975  85.757  1.00  0.00     0.047 A 
ATOM      3  C   UNL     1     -79.775 -20.746  86.858  1.00  0.00     0.010 A 
ATOM      4  C   UNL     1     -79.049 -20.679  88.057  1.00  0.00    -0.022 A 
ATOM      5  C   UNL     1     -77.939 -19.825  88.141  1.00  0.00     0.010 A 
ATOM      6  C   UNL     1     -77.558 -19.053  87.040  1.00  0.00     0.047 A 
ENDROOT
BRANCH   1   7
ATOM      7  O   UNL     1     -77.844 -18.324  84.767  1.00  0.00    -0.491 OA
BRANCH   7   8
ATOM      8  C   UNL     1     -77.895 -18.688  83.386  1.00  0.00     0.262 C 
BRANCH   8   9
ATOM      9  C   UNL     1     -77.213 -17.619  82.516  1.00  0.00     0.165 C 
BRANCH   9  10
ATOM     10  C   UNL     1     -75.706 -17.893  82.380  1.00  0.00     0.116 C 
BRANCH  10  11
ATOM     11  N   UNL     1     -75.075 -18.001  83.708  1.00  0.00    -0.312 NA
ATOM     12  H   UNL     1     -75.833 -17.999  84.431  1.00  0.00     0.123 HD
BRANCH  11  13
ATOM     13  C   UNL     1     -74.258 -19.217  83.901  1.00  0.00     0.047 C 
ATOM     14  C   UNL     1     -74.407 -19.828  85.304  1.00  0.00     0.024 C 
ATOM     15  C   UNL     1     -74.526 -20.252  82.800  1.00  0.00     0.024 C 
ENDBRANCH  11  13
ENDBRANCH  10  11
ENDBRANCH   9  10
BRANCH   9  16
ATOM     16  O   UNL     1     -77.823 -17.592  81.252  1.00  0.00    -0.388 OA
ATOM     17  H   UNL     1     -78.436 -18.373  81.211  1.00  0.00     0.211 HD
ENDBRANCH   9  16
ENDBRANCH   8   9
ENDBRANCH   7   8
ENDBRANCH   1   7
BRANCH   4  18
ATOM     18  C   UNL     1     -79.463 -21.496  89.252  1.00  0.00     0.195 C 
BRANCH  18  19
ATOM     19  O   UNL     1     -80.589 -20.915  89.883  1.00  0.00    -0.374 OA
BRANCH  19  20
ATOM     20  C   UNL     1     -81.602 -21.877  90.114  1.00  0.00     0.189 C 
BRANCH  20  21
ATOM     21  C   UNL     1     -82.169 -22.381  88.788  1.00  0.00     0.189 C 
BRANCH  21  22
ATOM     22  O   UNL     1     -83.443 -21.807  88.584  1.00  0.00    -0.376 OA
BRANCH  22  23
ATOM     23  C   UNL     1     -83.751 -21.744  87.202  1.00  0.00     0.112 C 
ATOM     24  C   UNL     1     -82.939 -22.802  86.448  1.00  0.00     0.038 C 
ATOM     25  C   UNL     1     -83.396 -20.348  86.690  1.00  0.00     0.038 C 
ENDBRANCH  22  23
ENDBRANCH  21  22
ENDBRANCH  20  21
ENDBRANCH  19  20
ENDBRANCH  18  19
ENDBRANCH   4  18
TORSDOF 13
ENDMDL
MODEL 4
REMARK VINA RESULT:    -6.601      4.111      7.579
REMARK INTER + INTRA:         -12.349
REMARK INTER:                 -11.111
REMARK INTRA:                  -1.238
REMARK UNBOUND:                -0.925
REMARK SMILES CC(C)NCC(O)COc1ccc(COCCOC(C)C)cc1
REMARK SMILES IDX 10 1 11 2 12 3 13 4 22 5 23 6 9 7 8 8 6 9 5 10 4 11 2 13
REMARK SMILES IDX 1 14 3 15 7 16 14 18 15 19 16 20 17 21 18 22 19 23 20 24
REMARK SMILES IDX 21 25
REMARK H PARENT 4 12 7 17
REMARK Flexibility Score: inf
ROOT
ATOM      1  C   UNL     1     -79.428 -21.140  89.688  1.00  0.00     0.119 A 
ATOM      2  C   UNL     1     -79.719 -21.127  88.310  1.00  0.00     0.047 A 
ATOM      3  C   UNL     1     -78.739 -20.759  87.384  1.00  0.00     0.010 A 
ATOM      4  C   UNL     1     -77.454 -20.399  87.818  1.00  0.00    -0.022 A 
ATOM      5  C   UNL     1     -77.161 -20.418  89.190  1.00  0.00     0.010 A 
ATOM      6  C   UNL     1     -78.142 -20.788  90.115  1.00  0.00     0.047 A 
ENDROOT
BRANCH   1   7
ATOM      7  O   UNL     1     -80.371 -21.502  90.663  1.00  0.00    -0.491 OA
BRANCH   7   8
ATOM      8  C   UNL     1     -81.677 -22.020  90.405  1.00  0.00     0.262 C 
BRANCH   8   9
ATOM      9  C   UNL     1     -82.728 -20.899  90.462  1.00  0.00     0.165 C 
BRANCH   9  10
ATOM     10  C   UNL     1     -83.527 -20.819  89.150  1.00  0.00     0.116 C 
BRANCH  10  11
ATOM     11  N   UNL     1     -83.236 -21.982  88.292  1.00  0.00    -0.312 NA
ATOM     12  H   UNL     1     -83.801 -22.793  88.638  1.00  0.00     0.123 HD
BRANCH  11  13
ATOM     13  C   UNL     1     -83.545 -21.781  86.862  1.00  0.00     0.047 C 
ATOM     14  C   UNL     1     -82.739 -20.638  86.224  1.00  0.00     0.024 C 
ATOM     15  C   UNL     1     -83.401 -23.088  86.069  1.00  0.00     0.024 C 
ENDBRANCH  11  13
ENDBRANCH  10  11
ENDBRANCH   9  10
BRANCH   9  16
ATOM     16  O   UNL     1     -83.590 -21.126  91.547  1.00  0.00    -0.388 OA
ATOM     17  H   UNL     1     -83.016 -21.250  92.349  1.00  0.00     0.211 HD
ENDBRANCH   9  16
ENDBRANCH   8   9
ENDBRANCH   7   8
ENDBRANCH   1   7
BRANCH   4  18
ATOM     18  C   UNL     1     -76.388 -20.015  86.826  1.00  0.00     0.195 C 
BRANCH  18  19
ATOM     19  O   UNL     1     -76.417 -18.622  86.581  1.00  0.00    -0.374 OA
BRANCH  19  20
ATOM     20  C   UNL     1     -76.176 -18.334  85.215  1.00  0.00     0.189 C 
BRANCH  20  21
ATOM     21  C   UNL     1     -77.490 -18.040  84.495  1.00  0.00     0.189 C 
BRANCH  21  22
ATOM     22  O   UNL     1     -77.686 -19.006  83.483  1.00  0.00    -0.376 OA
BRANCH  22  23
ATOM     23  C   UNL     1     -79.067 -19.167  83.203  1.00  0.00     0.112 C 
ATOM     24  C   UNL     1     -79.487 -18.177  82.112  1.00  0.00     0.038 C 
ATOM     25  C   UNL     1     -79.855 -18.902  84.485  1.00  0.00     0.038 C 
ENDBRANCH  22  23
ENDBRANCH  21  22
ENDBRANCH  20  21
ENDBRANCH  19  20
ENDBRANCH  18  19
ENDBRANCH   4  18
TORSDOF 13
ENDMDL
MODEL 5
REMARK VINA RESULT:    -6.590      0.957      1.250
REMARK INTER + INTRA:         -12.331
REMARK INTER:                 -11.404
REMARK INTRA:                  -0.927
REMARK UNBOUND:                -0.925
REMARK SMILES CC(C)NCC(O)COc1ccc(COCCOC(C)C)cc1
REMARK SMILES IDX 10 1 11 2 12 3 13 4 22 5 23 6 9 7 8 8 6 9 5 10 4 11 2 13
REMARK SMILES IDX 1 14 3 15 7 16 14 18 15 19 16 20 17 21 18 22 19 23 20 24
REMARK SMILES IDX 21 25
REMARK H PARENT 4 12 7 17
REMARK Flexibility Score: inf
ROOT
ATOM      1  C   UNL     1     -76.114 -17.491  87.851  1.00  0.00     0.119 A 
ATOM      2  C   UNL     1     -76.425 -17.037  86.555  1.00  0.00     0.047 A 
ATOM      3  C   UNL     1     -77.353 -17.724  85.769  1.00  0.00     0.010 A 
ATOM      4  C   UNL     1     -77.986 -18.876  86.263  1.00  0.00    -0.022 A 
ATOM      5  C   UNL     1     -77.682 -19.325  87.556  1.00  0.00     0.010 A 
ATOM      6  C   UNL     1     -76.754 -18.636  88.343  1.00  0.00     0.047 A 
ENDROOT
BRANCH   1   7
ATOM      7  O   UNL     1     -75.192 -16.841  88.687  1.00  0.00    -0.491 OA
BRANCH   7   8
ATOM      8  C   UNL     1     -74.234 -15.867  88.268  1.00  0.00     0.262 C 
BRANCH   8   9
ATOM      9  C   UNL     1     -74.331 -14.601  89.135  1.00  0.00     0.165 C 
BRANCH   9  10
ATOM     10  C   UNL     1     -74.465 -14.958  90.626  1.00  0.00     0.116 C 
BRANCH  10  11
ATOM     11  N   UNL     1     -75.881 -15.124  90.996  1.00  0.00    -0.312 NA
ATOM     12  H   UNL     1     -76.356 -15.666  90.235  1.00  0.00     0.123 HD
BRANCH  11  13
ATOM     13  C   UNL     1     -76.103 -15.832  92.273  1.00  0.00     0.047 C 
ATOM     14  C   UNL     1     -77.362 -15.358  93.016  1.00  0.00     0.024 C 
ATOM     15  C   UNL     1     -76.099 -17.354  92.078  1.00  0.00     0.024 C 
ENDBRANCH  11  13
ENDBRANCH  10  11
ENDBRANCH   9  10
BRANCH   9  16
ATOM     16  O   UNL     1     -73.195 -13.804  88.922  1.00  0.00    -0.388 OA
ATOM     17  H   UNL     1     -73.217 -13.084  89.606  1.00  0.00     0.211 HD
ENDBRANCH   9  16
ENDBRANCH   8   9
ENDBRANCH   7   8
ENDBRANCH   1   7
BRANCH   4  18
ATOM     18  C   UNL     1     -78.997 -19.615  85.428  1.00  0.00     0.195 C 
BRANCH  18  19
ATOM     19  O   UNL     1     -79.682 -20.573  86.211  1.00  0.00    -0.374 OA
BRANCH  19  20
ATOM     20  C   UNL     1     -81.084 -20.382  86.149  1.00  0.00     0.189 C 
BRANCH  20  21
ATOM     21  C   UNL     1     -81.809 -21.539  86.832  1.00  0.00     0.189 C 
BRANCH  21  22
ATOM     22  O   UNL     1     -82.631 -21.026  87.860  1.00  0.00    -0.376 OA
BRANCH  22  23
ATOM     23  C   UNL     1     -83.957 -20.838  87.396  1.00  0.00     0.112 C 
ATOM     24  C   UNL     1     -84.413 -19.410  87.714  1.00  0.00     0.038 C 
ATOM     25  C   UNL     1     -84.864 -21.847  88.099  1.00  0.00     0.038 C 
ENDBRANCH  22  23
ENDBRANCH  21  22
ENDBRANCH  20  21
ENDBRANCH  19  20
ENDBRANCH  18  19
ENDBRANCH   4  18
TORSDOF 13
ENDMDL
MODEL 6
REMARK VINA RESULT:    -6.534      5.008      7.949
REMARK INTER + INTRA:         -12.234
REMARK INTER:                 -11.005
REMARK INTRA:                  -1.229
REMARK UNBOUND:                -0.925
REMARK SMILES CC(C)NCC(O)COc1ccc(COCCOC(C)C)cc1
REMARK SMILES IDX 10 1 11 2 12 3 13 4 22 5 23 6 9 7 8 8 6 9 5 10 4 11 2 13
REMARK SMILES IDX 1 14 3 15 7 16 14 18 15 19 16 20 17 21 18 22 19 23 20 24
REMARK SMILES IDX 21 25
REMARK H PARENT 4 12 7 17
REMARK Flexibility Score: inf
ROOT
ATOM      1  C   UNL     1     -80.948 -20.573  86.696  1.00  0.00     0.119 A 
ATOM      2  C   UNL     1     -79.570 -20.457  86.426  1.00  0.00     0.047 A 
ATOM      3  C   UNL     1     -79.128 -19.780  85.287  1.00  0.00     0.010 A 
ATOM      4  C   UNL     1     -80.052 -19.207  84.399  1.00  0.00    -0.022 A 
ATOM      5  C   UNL     1     -81.424 -19.316  84.671  1.00  0.00     0.010 A 
ATOM      6  C   UNL     1     -81.865 -19.992  85.811  1.00  0.00     0.047 A 
ENDROOT
BRANCH   1   7
ATOM      7  O   UNL     1     -81.450 -21.240  87.824  1.00  0.00    -0.491 OA
BRANCH   7   8
ATOM      8  C   UNL     1     -80.708 -21.550  89.006  1.00  0.00     0.262 C 
BRANCH   8   9
ATOM      9  C   UNL     1     -81.582 -21.373  90.258  1.00  0.00     0.165 C 
BRANCH   9  10
ATOM     10  C   UNL     1     -83.076 -21.340  89.893  1.00  0.00     0.116 C 
BRANCH  10  11
ATOM     11  N   UNL     1     -83.518 -19.959  89.634  1.00  0.00    -0.312 NA
ATOM     12  H   UNL     1     -82.749 -19.459  89.127  1.00  0.00     0.123 HD
BRANCH  11  13
ATOM     13  C   UNL     1     -84.750 -19.850  88.826  1.00  0.00     0.047 C 
ATOM     14  C   UNL     1     -84.826 -18.547  88.015  1.00  0.00     0.024 C 
ATOM     15  C   UNL     1     -84.945 -21.084  87.935  1.00  0.00     0.024 C 
ENDBRANCH  11  13
ENDBRANCH  10  11
ENDBRANCH   9  10
BRANCH   9  16
ATOM     16  O   UNL     1     -81.320 -22.419  91.158  1.00  0.00    -0.388 OA
ATOM     17  H   UNL     1     -80.634 -22.998  90.733  1.00  0.00     0.211 HD
ENDBRANCH   9  16
ENDBRANCH   8   9
ENDBRANCH   7   8
ENDBRANCH   1   7
BRANCH   4  18
ATOM     18  C   UNL     1     -79.583 -18.463  83.177  1.00  0.00     0.195 C 
BRANCH  18  19
ATOM     19  O   UNL     1     -78.284 -18.885  82.807  1.00  0.00    -0.374 OA
BRANCH  19  20
ATOM     20  C   UNL     1     -77.473 -17.785  82.435  1.00  0.00     0.189 C 
BRANCH  20  21
ATOM     21  C   UNL     1     -76.088 -17.909  83.067  1.00  0.00     0.189 C 
BRANCH  21  22
ATOM     22  O   UNL     1     -75.294 -18.766  82.273  1.00  0.00    -0.376 OA
BRANCH  22  23
ATOM     23  C   UNL     1     -74.867 -19.892  83.021  1.00  0.00     0.112 C 
ATOM     24  C   UNL     1     -74.924 -19.565  84.516  1.00  0.00     0.038 C 
ATOM     25  C   UNL     1     -73.434 -20.231  82.612  1.00  0.00     0.038 C 
ENDBRANCH  22  23
ENDBRANCH  21  22
ENDBRANCH  20  21
ENDBRANCH  19  20
ENDBRANCH  18  19
ENDBRANCH   4  18
TORSDOF 13
ENDMDL
MODEL 7
REMARK VINA RESULT:    -6.524      4.032      8.466
REMARK INTER + INTRA:         -12.217
REMARK INTER:                 -11.059
REMARK INTRA:                  -1.159
REMARK UNBOUND:                -0.925
REMARK SMILES CC(C)NCC(O)COc1ccc(COCCOC(C)C)cc1
REMARK SMILES IDX 10 1 11 2 12 3 13 4 22 5 23 6 9 7 8 8 6 9 5 10 4 11 2 13
REMARK SMILES IDX 1 14 3 15 7 16 14 18 15 19 16 20 17 21 18 22 19 23 20 24
REMARK SMILES IDX 21 25
REMARK H PARENT 4 12 7 17
REMARK Flexibility Score: inf
ROOT
ATOM      1  C   UNL     1     -80.554 -20.878  87.005  1.00  0.00     0.119 A 
ATOM      2  C   UNL     1     -80.189 -20.238  85.804  1.00  0.00     0.047 A 
ATOM      3  C   UNL     1     -78.948 -19.606  85.690  1.00  0.00     0.010 A 
ATOM      4  C   UNL     1     -78.053 -19.600  86.770  1.00  0.00    -0.022 A 
ATOM      5  C   UNL     1     -78.413 -20.243  87.964  1.00  0.00     0.010 A 
ATOM      6  C   UNL     1     -79.654 -20.877  88.077  1.00  0.00     0.047 A 
ENDROOT
BRANCH   1   7
ATOM      7  O   UNL     1     -81.786 -21.531  87.177  1.00  0.00    -0.491 OA
BRANCH   7   8
ATOM      8  C   UNL     1     -82.649 -21.968  86.126  1.00  0.00     0.262 C 
BRANCH   8   9
ATOM      9  C   UNL     1     -83.575 -23.093  86.615  1.00  0.00     0.165 C 
BRANCH   9  10
ATOM     10  C   UNL     1     -84.579 -22.571  87.659  1.00  0.00     0.116 C 
BRANCH  10  11
ATOM     11  N   UNL     1     -84.891 -21.152  87.416  1.00  0.00    -0.312 NA
ATOM     12  H   UNL     1     -85.877 -21.089  87.069  1.00  0.00     0.123 HD
BRANCH  11  13
ATOM     13  C   UNL     1     -84.765 -20.284  88.605  1.00  0.00     0.047 C 
ATOM     14  C   UNL     1     -83.945 -20.925  89.736  1.00  0.00     0.024 C 
ATOM     15  C   UNL     1     -84.227 -18.897  88.231  1.00  0.00     0.024 C 
ENDBRANCH  11  13
ENDBRANCH  10  11
ENDBRANCH   9  10
BRANCH   9  16
ATOM     16  O   UNL     1     -84.253 -23.646  85.517  1.00  0.00    -0.388 OA
ATOM     17  H   UNL     1     -84.367 -24.615  85.709  1.00  0.00     0.211 HD
ENDBRANCH   9  16
ENDBRANCH   8   9
ENDBRANCH   7   8
ENDBRANCH   1   7
BRANCH   4  18
ATOM     18  C   UNL     1     -76.709 -18.934  86.651  1.00  0.00     0.195 C 
BRANCH  18  19
ATOM     19  O   UNL     1     -76.771 -17.603  87.127  1.00  0.00    -0.374 OA
BRANCH  19  20
ATOM     20  C   UNL     1     -76.719 -16.672  86.061  1.00  0.00     0.189 C 
BRANCH  20  21
ATOM     21  C   UNL     1     -75.650 -17.081  85.050  1.00  0.00     0.189 C 
BRANCH  21  22
ATOM     22  O   UNL     1     -76.061 -16.682  83.759  1.00  0.00    -0.376 OA
BRANCH  22  23
ATOM     23  C   UNL     1     -76.218 -17.808  82.912  1.00  0.00     0.112 C 
ATOM     24  C   UNL     1     -75.187 -17.747  81.781  1.00  0.00     0.038 C 
ATOM     25  C   UNL     1     -77.633 -17.785  82.334  1.00  0.00     0.038 C 
ENDBRANCH  22  23
ENDBRANCH  21  22
ENDBRANCH  20  21
ENDBRANCH  19  20
ENDBRANCH  18  19
ENDBRANCH   4  18
TORSDOF 13
ENDMDL
MODEL 8
REMARK VINA RESULT:    -6.408      2.964      7.699
REMARK INTER + INTRA:         -12.016
REMARK INTER:                 -10.740
REMARK INTRA:                  -1.276
REMARK UNBOUND:                -0.925
REMARK SMILES CC(C)NCC(O)COc1ccc(COCCOC(C)C)cc1
REMARK SMILES IDX 10 1 11 2 12 3 13 4 22 5 23 6 9 7 8 8 6 9 5 10 4 11 2 13
REMARK SMILES IDX 1 14 3 15 7 16 14 18 15 19 16 20 17 21 18 22 19 23 20 24
REMARK SMILES IDX 21 25
REMARK H PARENT 4 12 7 17
REMARK Flexibility Score: inf
ROOT
ATOM      1  C   UNL     1     -81.427 -19.696  85.037  1.00  0.00     0.119 A 
ATOM      2  C   UNL     1     -81.330 -18.930  83.859  1.00  0.00     0.047 A 
ATOM      3  C   UNL     1     -80.085 -18.491  83.403  1.00  0.00     0.010 A 
ATOM      4  C   UNL     1     -78.917 -18.808  84.114  1.00  0.00    -0.022 A 
ATOM      5  C   UNL     1     -79.012 -19.576  85.283  1.00  0.00     0.010 A 
ATOM      6  C   UNL     1     -80.258 -20.017  85.738  1.00  0.00     0.047 A 
ENDROOT
BRANCH   1   7
ATOM      7  O   UNL     1     -82.650 -20.167  85.542  1.00  0.00    -0.491 OA
BRANCH   7   8
ATOM      8  C   UNL     1     -83.109 -20.012  86.886  1.00  0.00     0.262 C 
BRANCH   8   9
ATOM      9  C   UNL     1     -83.993 -21.200  87.300  1.00  0.00     0.165 C 
BRANCH   9  10
ATOM     10  C   UNL     1     -83.171 -22.274  88.032  1.00  0.00     0.116 C 
BRANCH  10  11
ATOM     11  N   UNL     1     -81.782 -21.823  88.228  1.00  0.00    -0.312 NA
ATOM     12  H   UNL     1     -81.702 -20.844  87.864  1.00  0.00     0.123 HD
BRANCH  11  13
ATOM     13  C   UNL     1     -81.327 -21.830  89.634  1.00  0.00     0.047 C 
ATOM     14  C   UNL     1     -79.942 -21.191  89.824  1.00  0.00     0.024 C 
ATOM     15  C   UNL     1     -82.373 -21.202  90.564  1.00  0.00     0.024 C 
ENDBRANCH  11  13
ENDBRANCH  10  11
ENDBRANCH   9  10
BRANCH   9  16
ATOM     16  O   UNL     1     -85.037 -20.740  88.117  1.00  0.00    -0.388 OA
ATOM     17  H   UNL     1     -84.750 -20.881  89.057  1.00  0.00     0.211 HD
ENDBRANCH   9  16
ENDBRANCH   8   9
ENDBRANCH   7   8
ENDBRANCH   1   7
BRANCH   4  18
ATOM     18  C   UNL     1     -77.570 -18.350  83.621  1.00  0.00     0.195 C 
BRANCH  18  19
ATOM     19  O   UNL     1     -76.675 -18.187  84.705  1.00  0.00    -0.374 OA
BRANCH  19  20
ATOM     20  C   UNL     1     -76.461 -16.817  84.994  1.00  0.00     0.189 C 
BRANCH  20  21
ATOM     21  C   UNL     1     -76.209 -16.623  86.487  1.00  0.00     0.189 C 
BRANCH  21  22
ATOM     22  O   UNL     1     -76.833 -17.671  87.200  1.00  0.00    -0.376 OA
BRANCH  22  23
ATOM     23  C   UNL     1     -76.039 -18.068  88.306  1.00  0.00     0.112 C 
ATOM     24  C   UNL     1     -76.823 -19.063  89.167  1.00  0.00     0.038 C 
ATOM     25  C   UNL     1     -75.693 -16.825  89.125  1.00  0.00     0.038 C 
ENDBRANCH  22  23
ENDBRANCH  21  22
ENDBRANCH  20  21
ENDBRANCH  19  20
ENDBRANCH  18  19
ENDBRANCH   4  18
TORSDOF 13
ENDMDL
MODEL 9
REMARK VINA RESULT:    -6.399      2.679      3.812
REMARK INTER + INTRA:         -12.000
REMARK INTER:                 -11.176
REMARK INTRA:                  -0.825
REMARK UNBOUND:                -0.925
REMARK SMILES CC(C)NCC(O)COc1ccc(COCCOC(C)C)cc1
REMARK SMILES IDX 10 1 11 2 12 3 13 4 22 5 23 6 9 7 8 8 6 9 5 10 4 11 2 13
REMARK SMILES IDX 1 14 3 15 7 16 14 18 15 19 16 20 17 21 18 22 19 23 20 24
REMARK SMILES IDX 21 25
REMARK H PARENT 4 12 7 17
REMARK Flexibility Score: inf
ROOT
ATOM      1  C   UNL     1     -77.485 -20.220  90.343  1.00  0.00     0.119 A 
ATOM      2  C   UNL     1     -78.602 -21.059  90.166  1.00  0.00     0.047 A 
ATOM      3  C   UNL     1     -79.217 -21.160  88.915  1.00  0.00     0.010 A 
ATOM      4  C   UNL     1     -78.729 -20.427  87.823  1.00  0.00    -0.022 A 
ATOM      5  C   UNL     1     -77.612 -19.597  87.997  1.00  0.00     0.010 A 
ATOM      6  C   UNL     1     -76.996 -19.497  89.248  1.00  0.00     0.047 A 
ENDROOT
BRANCH   1   7
ATOM      7  O   UNL     1     -76.825 -20.079  91.575  1.00  0.00    -0.491 OA
BRANCH   7   8
ATOM      8  C   UNL     1     -76.030 -18.959  91.969  1.00  0.00     0.262 C 
BRANCH   8   9
ATOM      9  C   UNL     1     -76.085 -18.763  93.493  1.00  0.00     0.165 C 
BRANCH   9  10
ATOM     10  C   UNL     1     -75.804 -17.299  93.874  1.00  0.00     0.116 C 
BRANCH  10  11
ATOM     11  N   UNL     1     -74.922 -16.662  92.879  1.00  0.00    -0.312 NA
ATOM     12  H   UNL     1     -74.747 -17.351  92.110  1.00  0.00     0.123 HD
BRANCH  11  13
ATOM     13  C   UNL     1     -75.468 -15.429  92.277  1.00  0.00     0.047 C 
ATOM     14  C   UNL     1     -75.028 -15.223  90.819  1.00  0.00     0.024 C 
ATOM     15  C   UNL     1     -76.995 -15.362  92.423  1.00  0.00     0.024 C 
ENDBRANCH  11  13
ENDBRANCH  10  11
ENDBRANCH   9  10
BRANCH   9  16
ATOM     16  O   UNL     1     -77.346 -19.159  93.967  1.00  0.00    -0.388 OA
ATOM     17  H   UNL     1     -77.350 -18.991  94.946  1.00  0.00     0.211 HD
ENDBRANCH   9  16
ENDBRANCH   8   9
ENDBRANCH   7   8
ENDBRANCH   1   7
BRANCH   4  18
ATOM     18  C   UNL     1     -79.378 -20.542  86.469  1.00  0.00     0.195 C 
BRANCH  18  19
ATOM     19  O   UNL     1     -80.640 -21.172  86.576  1.00  0.00    -0.374 OA
BRANCH  19  20
ATOM     20  C   UNL     1     -81.651 -20.408  85.944  1.00  0.00     0.189 C 
BRANCH  20  21
ATOM     21  C   UNL     1     -83.026 -20.795  86.485  1.00  0.00     0.189 C 
BRANCH  21  22
ATOM     22  O   UNL     1     -83.111 -20.415  87.843  1.00  0.00    -0.376 OA
BRANCH  22  23
ATOM     23  C   UNL     1     -83.354 -21.542  88.667  1.00  0.00     0.112 C 
ATOM     24  C   UNL     1     -84.845 -21.888  88.635  1.00  0.00     0.038 C 
ATOM     25  C   UNL     1     -82.924 -21.201  90.093  1.00  0.00     0.038 C 
ENDBRANCH  22  23
ENDBRANCH  21  22
ENDBRANCH  20  21
ENDBRANCH  19  20
ENDBRANCH  18  19
ENDBRANCH   4  18
TORSDOF 13
ENDMDL
MODEL 10
REMARK VINA RESULT:    -6.396      3.405      5.399
REMARK INTER + INTRA:         -11.996
REMARK INTER:                 -10.667
REMARK INTRA:                  -1.328
REMARK UNBOUND:                -0.925
REMARK SMILES CC(C)NCC(O)COc1ccc(COCCOC(C)C)cc1
REMARK SMILES IDX 10 1 11 2 12 3 13 4 22 5 23 6 9 7 8 8 6 9 5 10 4 11 2 13
REMARK SMILES IDX 1 14 3 15 7 16 14 18 15 19 16 20 17 21 18 22 19 23 20 24
REMARK SMILES IDX 21 25
REMARK H PARENT 4 12 7 17
REMARK Flexibility Score: inf
ROOT
ATOM      1  C   UNL     1     -77.086 -19.331  87.548  1.00  0.00     0.119 A 
ATOM      2  C   UNL     1     -78.200 -20.022  87.031  1.00  0.00     0.047 A 
ATOM      3  C   UNL     1     -79.063 -20.712  87.887  1.00  0.00     0.010 A 
ATOM      4  C   UNL     1     -78.829 -20.724  89.271  1.00  0.00    -0.022 A 
ATOM      5  C   UNL     1     -77.725 -20.030  89.787  1.00  0.00     0.010 A 
ATOM      6  C   UNL     1     -76.863 -19.339  88.931  1.00  0.00     0.047 A 
ENDROOT
BRANCH   1   7
ATOM      7  O   UNL     1     -76.187 -18.620  86.738  1.00  0.00    -0.491 OA
BRANCH   7   8
ATOM      8  C   UNL     1     -76.466 -17.391  86.065  1.00  0.00     0.262 C 
BRANCH   8   9
ATOM      9  C   UNL     1     -75.674 -17.298  84.751  1.00  0.00     0.165 C 
BRANCH   9  10
ATOM     10  C   UNL     1     -76.550 -17.679  83.546  1.00  0.00     0.116 C 
BRANCH  10  11
ATOM     11  N   UNL     1     -77.421 -18.821  83.876  1.00  0.00    -0.312 NA
ATOM     12  H   UNL     1     -77.664 -18.763  84.894  1.00  0.00     0.123 HD
BRANCH  11  13
ATOM     13  C   UNL     1     -78.679 -18.877  83.104  1.00  0.00     0.047 C 
ATOM     14  C   UNL     1     -79.934 -18.809  83.989  1.00  0.00     0.024 C 
ATOM     15  C   UNL     1     -78.706 -17.812  82.000  1.00  0.00     0.024 C 
ENDBRANCH  11  13
ENDBRANCH  10  11
ENDBRANCH   9  10
BRANCH   9  16
ATOM     16  O   UNL     1     -75.175 -15.994  84.602  1.00  0.00    -0.388 OA
ATOM     17  H   UNL     1     -75.534 -15.646  83.743  1.00  0.00     0.211 HD
ENDBRANCH   9  16
ENDBRANCH   8   9
ENDBRANCH   7   8
ENDBRANCH   1   7
BRANCH   4  18
ATOM     18  C   UNL     1     -79.762 -21.453  90.200  1.00  0.00     0.195 C 
BRANCH  18  19
ATOM     19  O   UNL     1     -80.945 -21.829  89.521  1.00  0.00    -0.374 OA
BRANCH  19  20
ATOM     20  C   UNL     1     -82.058 -21.076  89.970  1.00  0.00     0.189 C 
BRANCH  20  21
ATOM     21  C   UNL     1     -82.957 -20.704  88.794  1.00  0.00     0.189 C 
BRANCH  21  22
ATOM     22  O   UNL     1     -83.510 -21.883  88.245  1.00  0.00    -0.376 OA
BRANCH  22  23
ATOM     23  C   UNL     1     -83.527 -21.818  86.829  1.00  0.00     0.112 C 
ATOM     24  C   UNL     1     -82.965 -23.120  86.250  1.00  0.00     0.038 C 
ATOM     25  C   UNL     1     -82.669 -20.633  86.388  1.00  0.00     0.038 C 
ENDBRANCH  22  23
ENDBRANCH  21  22
ENDBRANCH  20  21
ENDBRANCH  19  20
ENDBRANCH  18  19
ENDBRANCH   4  18
TORSDOF 13
ENDMDL
MODEL 11
REMARK VINA RESULT:    -6.396      3.963      9.104
REMARK INTER + INTRA:         -11.995
REMARK INTER:                 -11.140
REMARK INTRA:                  -0.855
REMARK UNBOUND:                -0.925
REMARK SMILES CC(C)NCC(O)COc1ccc(COCCOC(C)C)cc1
REMARK SMILES IDX 10 1 11 2 12 3 13 4 22 5 23 6 9 7 8 8 6 9 5 10 4 11 2 13
REMARK SMILES IDX 1 14 3 15 7 16 14 18 15 19 16 20 17 21 18 22 19 23 20 24
REMARK SMILES IDX 21 25
REMARK H PARENT 4 12 7 17
REMARK Flexibility Score: inf
ROOT
ATOM      1  C   UNL     1     -80.419 -20.820  86.876  1.00  0.00     0.119 A 
ATOM      2  C   UNL     1     -79.350 -20.757  87.792  1.00  0.00     0.047 A 
ATOM      3  C   UNL     1     -78.204 -20.017  87.489  1.00  0.00     0.010 A 
ATOM      4  C   UNL     1     -78.105 -19.330  86.269  1.00  0.00    -0.022 A 
ATOM      5  C   UNL     1     -79.172 -19.387  85.360  1.00  0.00     0.010 A 
ATOM      6  C   UNL     1     -80.319 -20.126  85.664  1.00  0.00     0.047 A 
ENDROOT
BRANCH   1   7
ATOM      7  O   UNL     1     -81.595 -21.545  87.126  1.00  0.00    -0.491 OA
BRANCH   7   8
ATOM      8  C   UNL     1     -82.572 -21.908  86.149  1.00  0.00     0.262 C 
BRANCH   8   9
ATOM      9  C   UNL     1     -83.461 -23.051  86.666  1.00  0.00     0.165 C 
BRANCH   9  10
ATOM     10  C   UNL     1     -84.605 -22.512  87.542  1.00  0.00     0.116 C 
BRANCH  10  11
ATOM     11  N   UNL     1     -84.761 -21.058  87.358  1.00  0.00    -0.312 NA
ATOM     12  H   UNL     1     -85.692 -20.884  86.911  1.00  0.00     0.123 HD
BRANCH  11  13
ATOM     13  C   UNL     1     -84.693 -20.271  88.606  1.00  0.00     0.047 C 
ATOM     14  C   UNL     1     -83.831 -20.935  89.692  1.00  0.00     0.024 C 
ATOM     15  C   UNL     1     -84.250 -18.827  88.334  1.00  0.00     0.024 C 
ENDBRANCH  11  13
ENDBRANCH  10  11
ENDBRANCH   9  10
BRANCH   9  16
ATOM     16  O   UNL     1     -83.975 -23.769  85.575  1.00  0.00    -0.388 OA
ATOM     17  H   UNL     1     -84.556 -23.143  85.067  1.00  0.00     0.211 HD
ENDBRANCH   9  16
ENDBRANCH   8   9
ENDBRANCH   7   8
ENDBRANCH   1   7
BRANCH   4  18
ATOM     18  C   UNL     1     -76.879 -18.520  85.942  1.00  0.00     0.195 C 
BRANCH  18  19
ATOM     19  O   UNL     1     -77.229 -17.371  85.195  1.00  0.00    -0.374 OA
BRANCH  19  20
ATOM     20  C   UNL     1     -76.347 -17.178  84.103  1.00  0.00     0.189 C 
BRANCH  20  21
ATOM     21  C   UNL     1     -74.900 -17.160  84.587  1.00  0.00     0.189 C 
BRANCH  21  22
ATOM     22  O   UNL     1     -74.447 -15.822  84.635  1.00  0.00    -0.376 OA
BRANCH  22  23
ATOM     23  C   UNL     1     -73.043 -15.774  84.829  1.00  0.00     0.112 C 
ATOM     24  C   UNL     1     -72.736 -15.182  86.207  1.00  0.00     0.038 C 
ATOM     25  C   UNL     1     -72.434 -14.898  83.734  1.00  0.00     0.038 C 
ENDBRANCH  22  23
ENDBRANCH  21  22
ENDBRANCH  20  21
ENDBRANCH  19  20
ENDBRANCH  18  19
ENDBRANCH   4  18
TORSDOF 13
ENDMDL
MODEL 12
REMARK VINA RESULT:    -6.394      3.019      8.262
REMARK INTER + INTRA:         -11.992
REMARK INTER:                 -10.890
REMARK INTRA:                  -1.103
REMARK UNBOUND:                -0.925
REMARK SMILES CC(C)NCC(O)COc1ccc(COCCOC(C)C)cc1
REMARK SMILES IDX 10 1 11 2 12 3 13 4 22 5 23 6 9 7 8 8 6 9 5 10 4 11 2 13
REMARK SMILES IDX 1 14 3 15 7 16 14 18 15 19 16 20 17 21 18 22 19 23 20 24
REMARK SMILES IDX 21 25
REMARK H PARENT 4 12 7 17
REMARK Flexibility Score: inf
ROOT
ATOM      1  C   UNL     1     -79.029 -20.604  87.859  1.00  0.00     0.119 A 
ATOM      2  C   UNL     1     -79.426 -20.430  86.518  1.00  0.00     0.047 A 
ATOM      3  C   UNL     1     -78.773 -19.502  85.704  1.00  0.00     0.010 A 
ATOM      4  C   UNL     1     -77.715 -18.731  86.212  1.00  0.00    -0.022 A 
ATOM      5  C   UNL     1     -77.315 -18.909  87.545  1.00  0.00     0.010 A 
ATOM      6  C   UNL     1     -77.968 -19.840  88.359  1.00  0.00     0.047 A 
ENDROOT
BRANCH   1   7
ATOM      7  O   UNL     1     -79.646 -21.522  88.723  1.00  0.00    -0.491 OA
BRANCH   7   8
ATOM      8  C   UNL     1     -80.141 -21.230  90.032  1.00  0.00     0.262 C 
BRANCH   8   9
ATOM      9  C   UNL     1     -81.670 -21.380  90.081  1.00  0.00     0.165 C 
BRANCH   9  10
ATOM     10  C   UNL     1     -82.177 -22.273  88.936  1.00  0.00     0.116 C 
BRANCH  10  11
ATOM     11  N   UNL     1     -82.603 -21.454  87.787  1.00  0.00    -0.312 NA
ATOM     12  H   UNL     1     -81.836 -21.468  87.074  1.00  0.00     0.123 HD
BRANCH  11  13
ATOM     13  C   UNL     1     -83.847 -21.912  87.136  1.00  0.00     0.047 C 
ATOM     14  C   UNL     1     -83.619 -23.059  86.137  1.00  0.00     0.024 C 
ATOM     15  C   UNL     1     -84.924 -22.267  88.171  1.00  0.00     0.024 C 
ENDBRANCH  11  13
ENDBRANCH  10  11
ENDBRANCH   9  10
BRANCH   9  16
ATOM     16  O   UNL     1     -82.043 -21.916  91.324  1.00  0.00    -0.388 OA
ATOM     17  H   UNL     1     -81.206 -22.197  91.779  1.00  0.00     0.211 HD
ENDBRANCH   9  16
ENDBRANCH   8   9
ENDBRANCH   7   8
ENDBRANCH   1   7
BRANCH   4  18
ATOM     18  C   UNL     1     -76.998 -17.739  85.337  1.00  0.00     0.195 C 
BRANCH  18  19
ATOM     19  O   UNL     1     -76.566 -16.628  86.098  1.00  0.00    -0.374 OA
BRANCH  19  20
ATOM     20  C   UNL     1     -75.152 -16.566  86.162  1.00  0.00     0.189 C 
BRANCH  20  21
ATOM     21  C   UNL     1     -74.699 -16.230  87.581  1.00  0.00     0.189 C 
BRANCH  21  22
ATOM     22  O   UNL     1     -75.825 -15.852  88.347  1.00  0.00    -0.376 OA
BRANCH  22  23
ATOM     23  C   UNL     1     -75.534 -15.916  89.733  1.00  0.00     0.112 C 
ATOM     24  C   UNL     1     -74.511 -14.835  90.093  1.00  0.00     0.038 C 
ATOM     25  C   UNL     1     -74.965 -17.301  90.045  1.00  0.00     0.038 C 
ENDBRANCH  22  23
ENDBRANCH  21  22
ENDBRANCH  20  21
ENDBRANCH  19  20
ENDBRANCH  18  19
ENDBRANCH   4  18
TORSDOF 13
ENDMDL
MODEL 13
REMARK VINA RESULT:    -6.393      3.515      5.198
REMARK INTER + INTRA:         -11.989
REMARK INTER:                 -10.809
REMARK INTRA:                  -1.180
REMARK UNBOUND:                -0.925
REMARK SMILES CC(C)NCC(O)COc1ccc(COCCOC(C)C)cc1
REMARK SMILES IDX 10 1 11 2 12 3 13 4 22 5 23 6 9 7 8 8 6 9 5 10 4 11 2 13
REMARK SMILES IDX 1 14 3 15 7 16 14 18 15 19 16 20 17 21 18 22 19 23 20 24
REMARK SMILES IDX 21 25
REMARK H PARENT 4 12 7 17
REMARK Flexibility Score: inf
ROOT
ATOM      1  C   UNL     1     -78.792 -19.249  84.420  1.00  0.00     0.119 A 
ATOM      2  C   UNL     1     -79.996 -18.760  83.876  1.00  0.00     0.047 A 
ATOM      3  C   UNL     1     -81.221 -19.095  84.458  1.00  0.00     0.010 A 
ATOM      4  C   UNL     1     -81.266 -19.923  85.590  1.00  0.00    -0.022 A 
ATOM      5  C   UNL     1     -80.067 -20.405  86.136  1.00  0.00     0.010 A 
ATOM      6  C   UNL     1     -78.841 -20.068  85.555  1.00  0.00     0.047 A 
ENDROOT
BRANCH   1   7
ATOM      7  O   UNL     1     -77.532 -18.944  83.880  1.00  0.00    -0.491 OA
BRANCH   7   8
ATOM      8  C   UNL     1     -77.288 -18.054  82.790  1.00  0.00     0.262 C 
BRANCH   8   9
ATOM      9  C   UNL     1     -75.779 -17.916  82.528  1.00  0.00     0.165 C 
BRANCH   9  10
ATOM     10  C   UNL     1     -75.096 -17.091  83.632  1.00  0.00     0.116 C 
BRANCH  10  11
ATOM     11  N   UNL     1     -75.227 -17.761  84.938  1.00  0.00    -0.312 NA
ATOM     12  H   UNL     1     -74.318 -18.236  85.154  1.00  0.00     0.123 HD
BRANCH  11  13
ATOM     13  C   UNL     1     -75.553 -16.858  86.061  1.00  0.00     0.047 C 
ATOM     14  C   UNL     1     -76.518 -17.487  87.080  1.00  0.00     0.024 C 
ATOM     15  C   UNL     1     -74.283 -16.324  86.737  1.00  0.00     0.024 C 
ENDBRANCH  11  13
ENDBRANCH  10  11
ENDBRANCH   9  10
BRANCH   9  16
ATOM     16  O   UNL     1     -75.205 -19.194  82.444  1.00  0.00    -0.388 OA
ATOM     17  H   UNL     1     -74.233 -19.063  82.284  1.00  0.00     0.211 HD
ENDBRANCH   9  16
ENDBRANCH   8   9
ENDBRANCH   7   8
ENDBRANCH   1   7
BRANCH   4  18
ATOM     18  C   UNL     1     -82.581 -20.277  86.231  1.00  0.00     0.195 C 
BRANCH  18  19
ATOM     19  O   UNL     1     -83.067 -21.504  85.721  1.00  0.00    -0.374 OA
BRANCH  19  20
ATOM     20  C   UNL     1     -83.055 -22.515  86.713  1.00  0.00     0.189 C 
BRANCH  20  21
ATOM     21  C   UNL     1     -83.068 -21.892  88.106  1.00  0.00     0.189 C 
BRANCH  21  22
ATOM     22  O   UNL     1     -82.041 -22.475  88.882  1.00  0.00    -0.376 OA
BRANCH  22  23
ATOM     23  C   UNL     1     -81.504 -21.533  89.795  1.00  0.00     0.112 C 
ATOM     24  C   UNL     1     -80.032 -21.276  89.458  1.00  0.00     0.038 C 
ATOM     25  C   UNL     1     -81.628 -22.103  91.207  1.00  0.00     0.038 C 
ENDBRANCH  22  23
ENDBRANCH  21  22
ENDBRANCH  20  21
ENDBRANCH  19  20
ENDBRANCH  18  19
ENDBRANCH   4  18
TORSDOF 13
ENDMDL
MODEL 14
REMARK VINA RESULT:    -6.378      3.470      9.047
REMARK INTER + INTRA:         -11.964
REMARK INTER:                 -10.856
REMARK INTRA:                  -1.108
REMARK UNBOUND:                -0.925
REMARK SMILES CC(C)NCC(O)COc1ccc(COCCOC(C)C)cc1
REMARK SMILES IDX 10 1 11 2 12 3 13 4 22 5 23 6 9 7 8 8 6 9 5 10 4 11 2 13
REMARK SMILES IDX 1 14 3 15 7 16 14 18 15 19 16 20 17 21 18 22 19 23 20 24
REMARK SMILES IDX 21 25
REMARK H PARENT 4 12 7 17
REMARK Flexibility Score: inf
ROOT
ATOM      1  C   UNL     1     -80.822 -20.899  87.452  1.00  0.00     0.119 A 
ATOM      2  C   UNL     1     -80.625 -21.174  88.820  1.00  0.00     0.047 A 
ATOM      3  C   UNL     1     -79.339 -21.164  89.364  1.00  0.00     0.010 A 
ATOM      4  C   UNL     1     -78.228 -20.879  88.554  1.00  0.00    -0.022 A 
ATOM      5  C   UNL     1     -78.424 -20.598  87.194  1.00  0.00     0.010 A 
ATOM      6  C   UNL     1     -79.712 -20.607  86.650  1.00  0.00     0.047 A 
ENDROOT
BRANCH   1   7
ATOM      7  O   UNL     1     -82.091 -20.893  86.850  1.00  0.00    -0.491 OA
BRANCH   7   8
ATOM      8  C   UNL     1     -82.548 -21.822  85.865  1.00  0.00     0.262 C 
BRANCH   8   9
ATOM      9  C   UNL     1     -83.141 -23.074  86.532  1.00  0.00     0.165 C 
BRANCH   9  10
ATOM     10  C   UNL     1     -83.997 -22.699  87.754  1.00  0.00     0.116 C 
BRANCH  10  11
ATOM     11  N   UNL     1     -84.852 -21.537  87.454  1.00  0.00    -0.312 NA
ATOM     12  H   UNL     1     -85.808 -21.888  87.211  1.00  0.00     0.123 HD
BRANCH  11  13
ATOM     13  C   UNL     1     -84.984 -20.570  88.563  1.00  0.00     0.047 C 
ATOM     14  C   UNL     1     -84.129 -20.935  89.787  1.00  0.00     0.024 C 
ATOM     15  C   UNL     1     -84.715 -19.135  88.090  1.00  0.00     0.024 C 
ENDBRANCH  11  13
ENDBRANCH  10  11
ENDBRANCH   9  10
BRANCH   9  16
ATOM     16  O   UNL     1     -83.909 -23.780  85.593  1.00  0.00    -0.388 OA
ATOM     17  H   UNL     1     -83.680 -23.411  84.699  1.00  0.00     0.211 HD
ENDBRANCH   9  16
ENDBRANCH   8   9
ENDBRANCH   7   8
ENDBRANCH   1   7
BRANCH   4  18
ATOM     18  C   UNL     1     -76.840 -20.852  89.136  1.00  0.00     0.195 C 
BRANCH  18  19
ATOM     19  O   UNL     1     -76.890 -20.981  90.544  1.00  0.00    -0.374 OA
BRANCH  19  20
ATOM     20  C   UNL     1     -75.932 -20.148  91.172  1.00  0.00     0.189 C 
BRANCH  20  21
ATOM     21  C   UNL     1     -76.050 -18.717  90.652  1.00  0.00     0.189 C 
BRANCH  21  22
ATOM     22  O   UNL     1     -76.281 -17.848  91.741  1.00  0.00    -0.376 OA
BRANCH  22  23
ATOM     23  C   UNL     1     -75.766 -16.555  91.471  1.00  0.00     0.112 C 
ATOM     24  C   UNL     1     -76.669 -15.499  92.117  1.00  0.00     0.038 C 
ATOM     25  C   UNL     1     -75.727 -16.356  89.956  1.00  0.00     0.038 C 
ENDBRANCH  22  23
ENDBRANCH  21  22
ENDBRANCH  20  21
ENDBRANCH  19  20
ENDBRANCH  18  19
ENDBRANCH   4  18
TORSDOF 13
ENDMDL
MODEL 15
REMARK VINA RESULT:    -6.334      3.204      8.584
REMARK INTER + INTRA:         -11.888
REMARK INTER:                 -10.563
REMARK INTRA:                  -1.325
REMARK UNBOUND:                -0.925
REMARK SMILES CC(C)NCC(O)COc1ccc(COCCOC(C)C)cc1
REMARK SMILES IDX 10 1 11 2 12 3 13 4 22 5 23 6 9 7 8 8 6 9 5 10 4 11 2 13
REMARK SMILES IDX 1 14 3 15 7 16 14 18 15 19 16 20 17 21 18 22 19 23 20 24
REMARK SMILES IDX 21 25
REMARK H PARENT 4 12 7 17
REMARK Flexibility Score: inf
ROOT
ATOM      1  C   UNL     1     -79.795 -21.405  89.277  1.00  0.00     0.119 A 
ATOM      2  C   UNL     1     -79.568 -20.901  87.981  1.00  0.00     0.047 A 
ATOM      3  C   UNL     1     -78.381 -20.228  87.683  1.00  0.00     0.010 A 
ATOM      4  C   UNL     1     -77.402 -20.045  88.671  1.00  0.00    -0.022 A 
ATOM      5  C   UNL     1     -77.624 -20.552  89.960  1.00  0.00     0.010 A 
ATOM      6  C   UNL     1     -78.811 -21.228  90.258  1.00  0.00     0.047 A 
ENDROOT
BRANCH   1   7
ATOM      7  O   UNL     1     -80.967 -22.092  89.635  1.00  0.00    -0.491 OA
BRANCH   7   8
ATOM      8  C   UNL     1     -81.775 -21.816  90.780  1.00  0.00     0.262 C 
BRANCH   8   9
ATOM      9  C   UNL     1     -82.989 -20.955  90.394  1.00  0.00     0.165 C 
BRANCH   9  10
ATOM     10  C   UNL     1     -83.567 -21.387  89.035  1.00  0.00     0.116 C 
BRANCH  10  11
ATOM     11  N   UNL     1     -83.310 -20.360  88.010  1.00  0.00    -0.312 NA
ATOM     12  H   UNL     1     -82.408 -19.882  88.246  1.00  0.00     0.123 HD
BRANCH  11  13
ATOM     13  C   UNL     1     -83.209 -20.882  86.632  1.00  0.00     0.047 C 
ATOM     14  C   UNL     1     -82.275 -20.050  85.738  1.00  0.00     0.024 C 
ATOM     15  C   UNL     1     -82.828 -22.368  86.622  1.00  0.00     0.024 C 
ENDBRANCH  11  13
ENDBRANCH  10  11
ENDBRANCH   9  10
BRANCH   9  16
ATOM     16  O   UNL     1     -83.966 -21.054  91.397  1.00  0.00    -0.388 OA
ATOM     17  H   UNL     1     -83.540 -20.758  92.244  1.00  0.00     0.211 HD
ENDBRANCH   9  16
ENDBRANCH   8   9
ENDBRANCH   7   8
ENDBRANCH   1   7
BRANCH   4  18
ATOM     18  C   UNL     1     -76.114 -19.332  88.354  1.00  0.00     0.195 C 
BRANCH  18  19
ATOM     19  O   UNL     1     -75.745 -18.478  89.420  1.00  0.00    -0.374 OA
BRANCH  19  20
ATOM     20  C   UNL     1     -75.658 -17.130  88.992  1.00  0.00     0.189 C 
BRANCH  20  21
ATOM     21  C   UNL     1     -75.621 -16.193  90.197  1.00  0.00     0.189 C 
BRANCH  21  22
ATOM     22  O   UNL     1     -75.058 -16.877  91.297  1.00  0.00    -0.376 OA
BRANCH  22  23
ATOM     23  C   UNL     1     -75.774 -16.592  92.486  1.00  0.00     0.112 C 
ATOM     24  C   UNL     1     -76.522 -17.846  92.947  1.00  0.00     0.038 C 
ATOM     25  C   UNL     1     -76.766 -15.466  92.196  1.00  0.00     0.038 C 
ENDBRANCH  22  23
ENDBRANCH  21  22
ENDBRANCH  20  21
ENDBRANCH  19  20
ENDBRANCH  18  19
ENDBRANCH   4  18
TORSDOF 13
ENDMDL
