MODEL 1
REMARK VINA RESULT:    -8.137      0.000      0.000
REMARK INTER + INTRA:         -11.777
REMARK INTER:                 -11.228
REMARK INTRA:                  -0.548
REMARK UNBOUND:                -0.548
REMARK SMILES CN1CCCN=C1COC(=O)C(O)(c1ccccc1)C1CCCCC1
REMARK SMILES IDX 10 1 11 2 9 3 8 4 7 5 1 6 2 7 3 8 4 9 6 10 5 11 12 12 13 13
REMARK SMILES IDX 20 15 21 16 25 17 22 18 24 19 23 20 14 21 15 22 19 23 16 24
REMARK SMILES IDX 18 25 17 26
REMARK H PARENT 13 14
REMARK Flexibility Score: inf
ROOT
ATOM      1  C   UNL     1     -77.559 -20.635  87.725  1.00  0.00     0.343 C 
ATOM      2  O   UNL     1     -77.218 -21.850  87.702  1.00  0.00    -0.248 OA
ENDROOT
BRANCH   1   3
ATOM      3  O   UNL     1     -78.790 -20.266  88.278  1.00  0.00    -0.455 OA
BRANCH   3   4
ATOM      4  C   UNL     1     -79.581 -21.129  89.090  1.00  0.00     0.307 C 
BRANCH   4   5
ATOM      5  C   UNL     1     -80.965 -21.259  88.506  1.00  0.00     0.137 C 
ATOM      6  C   UNL     1     -82.070 -21.516  90.777  1.00  0.00     0.145 C 
ATOM      7  N   UNL     1     -82.117 -21.610  89.316  1.00  0.00    -0.360 N 
ATOM      8  C   UNL     1     -83.417 -21.884  88.683  1.00  0.00     0.119 C 
ATOM      9  C   UNL     1     -83.261 -22.260  87.209  1.00  0.00     0.045 C 
ATOM     10  N   UNL     1     -81.088 -21.130  87.217  1.00  0.00    -0.269 NA
ATOM     11  C   UNL     1     -82.364 -21.238  86.518  1.00  0.00     0.146 C 
ENDBRANCH   4   5
ENDBRANCH   3   4
ENDBRANCH   1   3
BRANCH   1  12
ATOM     12  C   UNL     1     -76.641 -19.573  87.121  1.00  0.00     0.190 C 
BRANCH  12  13
ATOM     13  O   UNL     1     -75.418 -20.183  86.766  1.00  0.00    -0.374 OA
ATOM     14  H   UNL     1     -75.555 -20.680  85.915  1.00  0.00     0.212 HD
ENDBRANCH  12  13
BRANCH  12  15
ATOM     15  C   UNL     1     -77.277 -19.014  85.797  1.00  0.00     0.037 C 
ATOM     16  C   UNL     1     -78.726 -19.523  85.524  1.00  0.00     0.007 C 
ATOM     17  C   UNL     1     -76.362 -19.225  84.565  1.00  0.00     0.007 C 
ATOM     18  C   UNL     1     -79.079 -19.611  84.029  1.00  0.00     0.000 C 
ATOM     19  C   UNL     1     -76.900 -18.501  83.317  1.00  0.00     0.000 C 
ATOM     20  C   UNL     1     -78.439 -18.466  83.240  1.00  0.00     0.000 C 
ENDBRANCH  12  15
BRANCH  12  21
ATOM     21  C   UNL     1     -76.329 -18.425  88.104  1.00  0.00    -0.005 A 
ATOM     22  C   UNL     1     -76.289 -18.604  89.507  1.00  0.00     0.007 A 
ATOM     23  C   UNL     1     -76.003 -17.151  87.590  1.00  0.00     0.007 A 
ATOM     24  C   UNL     1     -75.986 -17.535  90.355  1.00  0.00     0.000 A 
ATOM     25  C   UNL     1     -75.699 -16.088  88.444  1.00  0.00     0.000 A 
ATOM     26  C   UNL     1     -75.698 -16.277  89.825  1.00  0.00     0.000 A 
ENDBRANCH  12  21
ENDBRANCH   1  12
TORSDOF 7
ENDMDL
MODEL 2
REMARK VINA RESULT:    -8.003      2.322      6.581
REMARK INTER + INTRA:         -11.593
REMARK INTER:                 -10.981
REMARK INTRA:                  -0.612
REMARK UNBOUND:                -0.548
REMARK SMILES CN1CCCN=C1COC(=O)C(O)(c1ccccc1)C1CCCCC1
REMARK SMILES IDX 10 1 11 2 9 3 8 4 7 5 1 6 2 7 3 8 4 9 6 10 5 11 12 12 13 13
REMARK SMILES IDX 20 15 21 16 25 17 22 18 24 19 23 20 14 21 15 22 19 23 16 24
REMARK SMILES IDX 18 25 17 26
REMARK H PARENT 13 14
REMARK Flexibility Score: inf
ROOT
ATOM      1  C   UNL     1     -77.003 -19.670  87.233  1.00  0.00     0.343 C 
ATOM      2  O   UNL     1     -75.899 -19.957  86.691  1.00  0.00    -0.248 OA
ENDROOT
BRANCH   1   3
ATOM      3  O   UNL     1     -77.618 -18.444  86.957  1.00  0.00    -0.455 OA
BRANCH   3   4
ATOM      4  C   UNL     1     -77.066 -17.463  86.081  1.00  0.00     0.307 C 
BRANCH   4   5
ATOM      5  C   UNL     1     -77.390 -17.811  84.651  1.00  0.00     0.137 C 
ATOM      6  C   UNL     1     -75.067 -17.217  83.816  1.00  0.00     0.145 C 
ATOM      7  N   UNL     1     -76.475 -17.529  83.560  1.00  0.00    -0.360 N 
ATOM      8  C   UNL     1     -76.894 -17.737  82.164  1.00  0.00     0.119 C 
ATOM      9  C   UNL     1     -78.417 -17.742  82.025  1.00  0.00     0.045 C 
ATOM     10  N   UNL     1     -78.569 -18.305  84.404  1.00  0.00    -0.269 NA
ATOM     11  C   UNL     1     -79.017 -18.680  83.067  1.00  0.00     0.146 C 
ENDBRANCH   4   5
ENDBRANCH   3   4
ENDBRANCH   1   3
BRANCH   1  12
ATOM     12  C   UNL     1     -77.649 -20.649  88.212  1.00  0.00     0.190 C 
BRANCH  12  13
ATOM     13  O   UNL     1     -77.014 -21.903  88.082  1.00  0.00    -0.374 OA
ATOM     14  H   UNL     1     -77.256 -22.456  88.872  1.00  0.00     0.212 HD
ENDBRANCH  12  13
BRANCH  12  15
ATOM     15  C   UNL     1     -77.406 -20.161  89.687  1.00  0.00     0.037 C 
ATOM     16  C   UNL     1     -76.528 -18.876  89.793  1.00  0.00     0.007 C 
ATOM     17  C   UNL     1     -76.872 -21.290  90.603  1.00  0.00     0.007 C 
ATOM     18  C   UNL     1     -75.708 -18.794  91.093  1.00  0.00     0.000 C 
ATOM     19  C   UNL     1     -76.826 -20.859  92.081  1.00  0.00     0.000 C 
ATOM     20  C   UNL     1     -76.489 -19.368  92.278  1.00  0.00     0.000 C 
ENDBRANCH  12  15
BRANCH  12  21
ATOM     21  C   UNL     1     -79.156 -20.851  87.946  1.00  0.00    -0.005 A 
ATOM     22  C   UNL     1     -79.724 -20.783  86.652  1.00  0.00     0.007 A 
ATOM     23  C   UNL     1     -80.005 -21.186  89.023  1.00  0.00     0.007 A 
ATOM     24  C   UNL     1     -81.093 -20.989  86.460  1.00  0.00     0.000 A 
ATOM     25  C   UNL     1     -81.372 -21.393  88.824  1.00  0.00     0.000 A 
ATOM     26  C   UNL     1     -81.917 -21.287  87.545  1.00  0.00     0.000 A 
ENDBRANCH  12  21
ENDBRANCH   1  12
TORSDOF 7
ENDMDL
MODEL 3
REMARK VINA RESULT:    -7.919      2.973      6.011
REMARK INTER + INTRA:         -11.477
REMARK INTER:                  -9.884
REMARK INTRA:                  -1.593
REMARK UNBOUND:                -0.548
REMARK SMILES CN1CCCN=C1COC(=O)C(O)(c1ccccc1)C1CCCCC1
REMARK SMILES IDX 10 1 11 2 9 3 8 4 7 5 1 6 2 7 3 8 4 9 6 10 5 11 12 12 13 13
REMARK SMILES IDX 20 15 21 16 25 17 22 18 24 19 23 20 14 21 15 22 19 23 16 24
REMARK SMILES IDX 18 25 17 26
REMARK H PARENT 13 14
REMARK Flexibility Score: inf
ROOT
ATOM      1  C   UNL     1     -76.809 -20.241  89.685  1.00  0.00     0.343 C 
ATOM      2  O   UNL     1     -76.365 -21.211  90.360  1.00  0.00    -0.248 OA
ENDROOT
BRANCH   1   3
ATOM      3  O   UNL     1     -76.905 -18.971  90.267  1.00  0.00    -0.455 OA
BRANCH   3   4
ATOM      4  C   UNL     1     -75.911 -18.420  91.127  1.00  0.00     0.307 C 
BRANCH   4   5
ATOM      5  C   UNL     1     -75.133 -17.356  90.397  1.00  0.00     0.137 C 
ATOM      6  C   UNL     1     -76.055 -15.475  91.829  1.00  0.00     0.145 C 
ATOM      7  N   UNL     1     -75.342 -15.941  90.638  1.00  0.00    -0.360 N 
ATOM      8  C   UNL     1     -74.679 -14.934  89.792  1.00  0.00     0.119 C 
ATOM      9  C   UNL     1     -74.254 -15.519  88.444  1.00  0.00     0.045 C 
ATOM     10  N   UNL     1     -74.311 -17.745  89.465  1.00  0.00    -0.269 NA
ATOM     11  C   UNL     1     -73.500 -16.825  88.674  1.00  0.00     0.146 C 
ENDBRANCH   4   5
ENDBRANCH   3   4
ENDBRANCH   1   3
BRANCH   1  12
ATOM     12  C   UNL     1     -77.269 -20.460  88.244  1.00  0.00     0.190 C 
BRANCH  12  13
ATOM     13  O   UNL     1     -76.861 -21.747  87.832  1.00  0.00    -0.374 OA
ATOM     14  H   UNL     1     -77.379 -21.991  87.018  1.00  0.00     0.212 HD
ENDBRANCH  12  13
BRANCH  12  15
ATOM     15  C   UNL     1     -78.839 -20.432  88.179  1.00  0.00     0.037 C 
ATOM     16  C   UNL     1     -79.537 -21.089  89.410  1.00  0.00     0.007 C 
ATOM     17  C   UNL     1     -79.386 -21.002  86.847  1.00  0.00     0.007 C 
ATOM     18  C   UNL     1     -80.907 -21.710  89.085  1.00  0.00     0.000 C 
ATOM     19  C   UNL     1     -80.905 -20.788  86.710  1.00  0.00     0.000 C 
ATOM     20  C   UNL     1     -81.663 -20.873  88.050  1.00  0.00     0.000 C 
ENDBRANCH  12  15
BRANCH  12  21
ATOM     21  C   UNL     1     -76.663 -19.435  87.263  1.00  0.00    -0.005 A 
ATOM     22  C   UNL     1     -77.194 -18.135  87.084  1.00  0.00     0.007 A 
ATOM     23  C   UNL     1     -75.489 -19.772  86.555  1.00  0.00     0.007 A 
ATOM     24  C   UNL     1     -76.600 -17.237  86.194  1.00  0.00     0.000 A 
ATOM     25  C   UNL     1     -74.899 -18.868  85.669  1.00  0.00     0.000 A 
ATOM     26  C   UNL     1     -75.458 -17.604  85.482  1.00  0.00     0.000 A 
ENDBRANCH  12  21
ENDBRANCH   1  12
TORSDOF 7
ENDMDL
MODEL 4
REMARK VINA RESULT:    -7.857      3.319      5.979
REMARK INTER + INTRA:         -11.391
REMARK INTER:                 -10.074
REMARK INTRA:                  -1.317
REMARK UNBOUND:                -0.548
REMARK SMILES CN1CCCN=C1COC(=O)C(O)(c1ccccc1)C1CCCCC1
REMARK SMILES IDX 10 1 11 2 9 3 8 4 7 5 1 6 2 7 3 8 4 9 6 10 5 11 12 12 13 13
REMARK SMILES IDX 20 15 21 16 25 17 22 18 24 19 23 20 14 21 15 22 19 23 16 24
REMARK SMILES IDX 18 25 17 26
REMARK H PARENT 13 14
REMARK Flexibility Score: inf
ROOT
ATOM      1  C   UNL     1     -75.718 -18.834  85.299  1.00  0.00     0.343 C 
ATOM      2  O   UNL     1     -75.391 -20.006  84.961  1.00  0.00    -0.248 OA
ENDROOT
BRANCH   1   3
ATOM      3  O   UNL     1     -74.739 -17.838  85.399  1.00  0.00    -0.455 OA
BRANCH   3   4
ATOM      4  C   UNL     1     -73.643 -17.896  86.308  1.00  0.00     0.307 C 
BRANCH   4   5
ATOM      5  C   UNL     1     -74.026 -17.251  87.615  1.00  0.00     0.137 C 
ATOM      6  C   UNL     1     -72.494 -18.745  88.981  1.00  0.00     0.145 C 
ATOM      7  N   UNL     1     -73.593 -17.780  88.895  1.00  0.00    -0.360 N 
ATOM      8  C   UNL     1     -74.118 -17.218  90.150  1.00  0.00     0.119 C 
ATOM      9  C   UNL     1     -75.442 -16.484  89.931  1.00  0.00     0.045 C 
ATOM     10  N   UNL     1     -74.840 -16.236  87.570  1.00  0.00    -0.269 NA
ATOM     11  C   UNL     1     -75.298 -15.522  88.757  1.00  0.00     0.146 C 
ENDBRANCH   4   5
ENDBRANCH   3   4
ENDBRANCH   1   3
BRANCH   1  12
ATOM     12  C   UNL     1     -77.174 -18.513  85.630  1.00  0.00     0.190 C 
BRANCH  12  13
ATOM     13  O   UNL     1     -77.275 -17.140  85.940  1.00  0.00    -0.374 OA
ATOM     14  H   UNL     1     -78.238 -16.916  86.048  1.00  0.00     0.212 HD
ENDBRANCH  12  13
BRANCH  12  15
ATOM     15  C   UNL     1     -78.073 -18.766  84.366  1.00  0.00     0.037 C 
ATOM     16  C   UNL     1     -77.508 -18.145  83.051  1.00  0.00     0.007 C 
ATOM     17  C   UNL     1     -79.549 -18.356  84.596  1.00  0.00     0.007 C 
ATOM     18  C   UNL     1     -78.596 -17.744  82.040  1.00  0.00     0.000 C 
ATOM     19  C   UNL     1     -80.456 -18.790  83.430  1.00  0.00     0.000 C 
ATOM     20  C   UNL     1     -79.761 -18.737  82.055  1.00  0.00     0.000 C 
ENDBRANCH  12  15
BRANCH  12  21
ATOM     21  C   UNL     1     -77.700 -19.311  86.842  1.00  0.00    -0.005 A 
ATOM     22  C   UNL     1     -78.706 -20.300  86.733  1.00  0.00     0.007 A 
ATOM     23  C   UNL     1     -77.112 -19.103  88.109  1.00  0.00     0.007 A 
ATOM     24  C   UNL     1     -79.137 -21.008  87.859  1.00  0.00     0.000 A 
ATOM     25  C   UNL     1     -77.547 -19.815  89.229  1.00  0.00     0.000 A 
ATOM     26  C   UNL     1     -78.564 -20.762  89.106  1.00  0.00     0.000 A 
ENDBRANCH  12  21
ENDBRANCH   1  12
TORSDOF 7
ENDMDL
MODEL 5
REMARK VINA RESULT:    -7.833      2.993      6.919
REMARK INTER + INTRA:         -11.358
REMARK INTER:                 -10.545
REMARK INTRA:                  -0.813
REMARK UNBOUND:                -0.548
REMARK SMILES CN1CCCN=C1COC(=O)C(O)(c1ccccc1)C1CCCCC1
REMARK SMILES IDX 10 1 11 2 9 3 8 4 7 5 1 6 2 7 3 8 4 9 6 10 5 11 12 12 13 13
REMARK SMILES IDX 20 15 21 16 25 17 22 18 24 19 23 20 14 21 15 22 19 23 16 24
REMARK SMILES IDX 18 25 17 26
REMARK H PARENT 13 14
REMARK Flexibility Score: inf
ROOT
ATOM      1  C   UNL     1     -75.959 -18.709  88.255  1.00  0.00     0.343 C 
ATOM      2  O   UNL     1     -74.862 -19.062  88.771  1.00  0.00    -0.248 OA
ENDROOT
BRANCH   1   3
ATOM      3  O   UNL     1     -76.434 -17.406  88.448  1.00  0.00    -0.455 OA
BRANCH   3   4
ATOM      4  C   UNL     1     -75.625 -16.242  88.301  1.00  0.00     0.307 C 
BRANCH   4   5
ATOM      5  C   UNL     1     -75.264 -15.693  89.657  1.00  0.00     0.137 C 
ATOM      6  C   UNL     1     -73.212 -14.474  88.792  1.00  0.00     0.145 C 
ATOM      7  N   UNL     1     -74.018 -14.990  89.901  1.00  0.00    -0.360 N 
ATOM      8  C   UNL     1     -73.632 -14.611  91.270  1.00  0.00     0.119 C 
ATOM      9  C   UNL     1     -74.355 -15.459  92.317  1.00  0.00     0.045 C 
ATOM     10  N   UNL     1     -76.076 -15.944  90.643  1.00  0.00    -0.269 NA
ATOM     11  C   UNL     1     -75.848 -15.480  92.008  1.00  0.00     0.146 C 
ENDBRANCH   4   5
ENDBRANCH   3   4
ENDBRANCH   1   3
BRANCH   1  12
ATOM     12  C   UNL     1     -76.781 -19.713  87.448  1.00  0.00     0.190 C 
BRANCH  12  13
ATOM     13  O   UNL     1     -76.063 -20.925  87.370  1.00  0.00    -0.374 OA
ATOM     14  H   UNL     1     -75.440 -20.867  86.597  1.00  0.00     0.212 HD
ENDBRANCH  12  13
BRANCH  12  15
ATOM     15  C   UNL     1     -78.126 -20.023  88.201  1.00  0.00     0.037 C 
ATOM     16  C   UNL     1     -77.933 -20.494  89.676  1.00  0.00     0.007 C 
ATOM     17  C   UNL     1     -79.036 -20.996  87.411  1.00  0.00     0.007 C 
ATOM     18  C   UNL     1     -79.039 -21.441  90.172  1.00  0.00     0.000 C 
ATOM     19  C   UNL     1     -80.427 -21.137  88.058  1.00  0.00     0.000 C 
ATOM     20  C   UNL     1     -80.403 -21.051  89.596  1.00  0.00     0.000 C 
ENDBRANCH  12  15
BRANCH  12  21
ATOM     21  C   UNL     1     -77.061 -19.234  86.008  1.00  0.00    -0.005 A 
ATOM     22  C   UNL     1     -78.278 -18.625  85.623  1.00  0.00     0.007 A 
ATOM     23  C   UNL     1     -76.040 -19.341  85.039  1.00  0.00     0.007 A 
ATOM     24  C   UNL     1     -78.477 -18.193  84.309  1.00  0.00     0.000 A 
ATOM     25  C   UNL     1     -76.245 -18.906  83.727  1.00  0.00     0.000 A 
ATOM     26  C   UNL     1     -77.465 -18.339  83.360  1.00  0.00     0.000 A 
ENDBRANCH  12  21
ENDBRANCH   1  12
TORSDOF 7
ENDMDL
MODEL 6
REMARK VINA RESULT:    -7.792      3.831      7.858
REMARK INTER + INTRA:         -11.301
REMARK INTER:                 -10.141
REMARK INTRA:                  -1.160
REMARK UNBOUND:                -0.548
REMARK SMILES CN1CCCN=C1COC(=O)C(O)(c1ccccc1)C1CCCCC1
REMARK SMILES IDX 10 1 11 2 9 3 8 4 7 5 1 6 2 7 3 8 4 9 6 10 5 11 12 12 13 13
REMARK SMILES IDX 20 15 21 16 25 17 22 18 24 19 23 20 14 21 15 22 19 23 16 24
REMARK SMILES IDX 18 25 17 26
REMARK H PARENT 13 14
REMARK Flexibility Score: inf
ROOT
ATOM      1  C   UNL     1     -76.103 -17.300  85.910  1.00  0.00     0.343 C 
ATOM      2  O   UNL     1     -76.811 -16.268  86.077  1.00  0.00    -0.248 OA
ENDROOT
BRANCH   1   3
ATOM      3  O   UNL     1     -74.707 -17.197  85.919  1.00  0.00    -0.455 OA
BRANCH   3   4
ATOM      4  C   UNL     1     -73.987 -16.172  85.240  1.00  0.00     0.307 C 
BRANCH   4   5
ATOM      5  C   UNL     1     -73.524 -16.673  83.897  1.00  0.00     0.137 C 
ATOM      6  C   UNL     1     -72.249 -14.543  83.365  1.00  0.00     0.145 C 
ATOM      7  N   UNL     1     -72.835 -15.819  82.947  1.00  0.00    -0.360 N 
ATOM      8  C   UNL     1     -72.543 -16.300  81.587  1.00  0.00     0.119 C 
ATOM      9  C   UNL     1     -73.457 -17.460  81.188  1.00  0.00     0.045 C 
ATOM     10  N   UNL     1     -73.838 -17.893  83.569  1.00  0.00    -0.269 NA
ATOM     11  C   UNL     1     -73.461 -18.505  82.299  1.00  0.00     0.146 C 
ENDBRANCH   4   5
ENDBRANCH   3   4
ENDBRANCH   1   3
BRANCH   1  12
ATOM     12  C   UNL     1     -76.770 -18.653  85.667  1.00  0.00     0.190 C 
BRANCH  12  13
ATOM     13  O   UNL     1     -75.784 -19.575  85.254  1.00  0.00    -0.374 OA
ATOM     14  H   UNL     1     -74.898 -19.235  85.552  1.00  0.00     0.212 HD
ENDBRANCH  12  13
BRANCH  12  15
ATOM     15  C   UNL     1     -77.372 -19.197  87.014  1.00  0.00     0.037 C 
ATOM     16  C   UNL     1     -76.843 -18.464  88.286  1.00  0.00     0.007 C 
ATOM     17  C   UNL     1     -77.232 -20.733  87.148  1.00  0.00     0.007 C 
ATOM     18  C   UNL     1     -76.811 -19.352  89.542  1.00  0.00     0.000 C 
ATOM     19  C   UNL     1     -77.996 -21.277  88.369  1.00  0.00     0.000 C 
ATOM     20  C   UNL     1     -78.002 -20.314  89.572  1.00  0.00     0.000 C 
ENDBRANCH  12  15
BRANCH  12  21
ATOM     21  C   UNL     1     -77.854 -18.595  84.571  1.00  0.00    -0.005 A 
ATOM     22  C   UNL     1     -79.215 -18.894  84.818  1.00  0.00     0.007 A 
ATOM     23  C   UNL     1     -77.497 -18.161  83.275  1.00  0.00     0.007 A 
ATOM     24  C   UNL     1     -80.162 -18.811  83.793  1.00  0.00     0.000 A 
ATOM     25  C   UNL     1     -78.450 -18.079  82.257  1.00  0.00     0.000 A 
ATOM     26  C   UNL     1     -79.780 -18.411  82.513  1.00  0.00     0.000 A 
ENDBRANCH  12  21
ENDBRANCH   1  12
TORSDOF 7
ENDMDL
MODEL 7
REMARK VINA RESULT:    -7.766      2.886      7.372
REMARK INTER + INTRA:         -11.265
REMARK INTER:                 -10.648
REMARK INTRA:                  -0.617
REMARK UNBOUND:                -0.548
REMARK SMILES CN1CCCN=C1COC(=O)C(O)(c1ccccc1)C1CCCCC1
REMARK SMILES IDX 10 1 11 2 9 3 8 4 7 5 1 6 2 7 3 8 4 9 6 10 5 11 12 12 13 13
REMARK SMILES IDX 20 15 21 16 25 17 22 18 24 19 23 20 14 21 15 22 19 23 16 24
REMARK SMILES IDX 18 25 17 26
REMARK H PARENT 13 14
REMARK Flexibility Score: inf
ROOT
ATOM      1  C   UNL     1     -81.125 -19.835  85.493  1.00  0.00     0.343 C 
ATOM      2  O   UNL     1     -82.088 -19.613  84.708  1.00  0.00    -0.248 OA
ENDROOT
BRANCH   1   3
ATOM      3  O   UNL     1     -79.966 -19.054  85.412  1.00  0.00    -0.455 OA
BRANCH   3   4
ATOM      4  C   UNL     1     -79.156 -18.963  84.243  1.00  0.00     0.307 C 
BRANCH   4   5
ATOM      5  C   UNL     1     -77.947 -18.107  84.521  1.00  0.00     0.137 C 
ATOM      6  C   UNL     1     -77.479 -17.694  82.060  1.00  0.00     0.145 C 
ATOM      7  N   UNL     1     -77.064 -17.649  83.464  1.00  0.00    -0.360 N 
ATOM      8  C   UNL     1     -75.809 -16.952  83.791  1.00  0.00     0.119 C 
ATOM      9  C   UNL     1     -75.351 -17.251  85.219  1.00  0.00     0.045 C 
ATOM     10  N   UNL     1     -77.662 -17.854  85.765  1.00  0.00    -0.269 NA
ATOM     11  C   UNL     1     -76.519 -17.046  86.179  1.00  0.00     0.146 C 
ENDBRANCH   4   5
ENDBRANCH   3   4
ENDBRANCH   1   3
BRANCH   1  12
ATOM     12  C   UNL     1     -81.214 -20.973  86.509  1.00  0.00     0.190 C 
BRANCH  12  13
ATOM     13  O   UNL     1     -80.859 -22.179  85.867  1.00  0.00    -0.374 OA
ATOM     14  H   UNL     1     -80.873 -22.907  86.545  1.00  0.00     0.212 HD
ENDBRANCH  12  13
BRANCH  12  15
ATOM     15  C   UNL     1     -80.168 -20.739  87.659  1.00  0.00     0.037 C 
ATOM     16  C   UNL     1     -78.690 -21.011  87.238  1.00  0.00     0.007 C 
ATOM     17  C   UNL     1     -80.535 -21.500  88.957  1.00  0.00     0.007 C 
ATOM     18  C   UNL     1     -77.796 -21.488  88.395  1.00  0.00     0.000 C 
ATOM     19  C   UNL     1     -79.619 -21.110  90.132  1.00  0.00     0.000 C 
ATOM     20  C   UNL     1     -78.171 -20.796  89.708  1.00  0.00     0.000 C 
ENDBRANCH  12  15
BRANCH  12  21
ATOM     21  C   UNL     1     -82.633 -21.145  87.089  1.00  0.00    -0.005 A 
ATOM     22  C   UNL     1     -83.345 -20.089  87.706  1.00  0.00     0.007 A 
ATOM     23  C   UNL     1     -83.288 -22.387  86.944  1.00  0.00     0.007 A 
ATOM     24  C   UNL     1     -84.636 -20.291  88.202  1.00  0.00     0.000 A 
ATOM     25  C   UNL     1     -84.579 -22.582  87.441  1.00  0.00     0.000 A 
ATOM     26  C   UNL     1     -85.250 -21.537  88.076  1.00  0.00     0.000 A 
ENDBRANCH  12  21
ENDBRANCH   1  12
TORSDOF 7
ENDMDL
MODEL 8
REMARK VINA RESULT:    -7.689      3.600      7.034
REMARK INTER + INTRA:         -11.159
REMARK INTER:                 -10.003
REMARK INTRA:                  -1.156
REMARK UNBOUND:                -0.548
REMARK SMILES CN1CCCN=C1COC(=O)C(O)(c1ccccc1)C1CCCCC1
REMARK SMILES IDX 10 1 11 2 9 3 8 4 7 5 1 6 2 7 3 8 4 9 6 10 5 11 12 12 13 13
REMARK SMILES IDX 20 15 21 16 25 17 22 18 24 19 23 20 14 21 15 22 19 23 16 24
REMARK SMILES IDX 18 25 17 26
REMARK H PARENT 13 14
REMARK Flexibility Score: inf
ROOT
ATOM      1  C   UNL     1     -76.114 -17.377  86.002  1.00  0.00     0.343 C 
ATOM      2  O   UNL     1     -76.797 -16.316  86.019  1.00  0.00    -0.248 OA
ENDROOT
BRANCH   1   3
ATOM      3  O   UNL     1     -74.726 -17.316  86.174  1.00  0.00    -0.455 OA
BRANCH   3   4
ATOM      4  C   UNL     1     -74.044 -16.175  86.686  1.00  0.00     0.307 C 
BRANCH   4   5
ATOM      5  C   UNL     1     -74.061 -16.199  88.193  1.00  0.00     0.137 C 
ATOM      6  C   UNL     1     -72.388 -18.103  88.339  1.00  0.00     0.145 C 
ATOM      7  N   UNL     1     -73.393 -17.235  88.958  1.00  0.00    -0.360 N 
ATOM      8  C   UNL     1     -73.567 -17.314  90.418  1.00  0.00     0.119 C 
ATOM      9  C   UNL     1     -74.839 -16.598  90.875  1.00  0.00     0.045 C 
ATOM     10  N   UNL     1     -74.776 -15.296  88.801  1.00  0.00    -0.269 NA
ATOM     11  C   UNL     1     -74.888 -15.206  90.253  1.00  0.00     0.146 C 
ENDBRANCH   4   5
ENDBRANCH   3   4
ENDBRANCH   1   3
BRANCH   1  12
ATOM     12  C   UNL     1     -76.799 -18.722  85.763  1.00  0.00     0.190 C 
BRANCH  12  13
ATOM     13  O   UNL     1     -75.824 -19.658  85.356  1.00  0.00    -0.374 OA
ATOM     14  H   UNL     1     -76.143 -20.095  84.521  1.00  0.00     0.212 HD
ENDBRANCH  12  13
BRANCH  12  15
ATOM     15  C   UNL     1     -77.410 -19.253  87.111  1.00  0.00     0.037 C 
ATOM     16  C   UNL     1     -76.812 -18.582  88.386  1.00  0.00     0.007 C 
ATOM     17  C   UNL     1     -77.369 -20.797  87.212  1.00  0.00     0.007 C 
ATOM     18  C   UNL     1     -76.816 -19.495  89.624  1.00  0.00     0.000 C 
ATOM     19  C   UNL     1     -78.146 -21.315  88.437  1.00  0.00     0.000 C 
ATOM     20  C   UNL     1     -78.067 -20.378  89.658  1.00  0.00     0.000 C 
ENDBRANCH  12  15
BRANCH  12  21
ATOM     21  C   UNL     1     -77.879 -18.654  84.664  1.00  0.00    -0.005 A 
ATOM     22  C   UNL     1     -79.245 -18.926  84.910  1.00  0.00     0.007 A 
ATOM     23  C   UNL     1     -77.511 -18.238  83.365  1.00  0.00     0.007 A 
ATOM     24  C   UNL     1     -80.189 -18.835  83.883  1.00  0.00     0.000 A 
ATOM     25  C   UNL     1     -78.460 -18.148  82.344  1.00  0.00     0.000 A 
ATOM     26  C   UNL     1     -79.797 -18.453  82.600  1.00  0.00     0.000 A 
ENDBRANCH  12  21
ENDBRANCH   1  12
TORSDOF 7
ENDMDL
MODEL 9
REMARK VINA RESULT:    -7.663      4.478      8.599
REMARK INTER + INTRA:         -11.123
REMARK INTER:                 -10.682
REMARK INTRA:                  -0.441
REMARK UNBOUND:                -0.548
REMARK SMILES CN1CCCN=C1COC(=O)C(O)(c1ccccc1)C1CCCCC1
REMARK SMILES IDX 10 1 11 2 9 3 8 4 7 5 1 6 2 7 3 8 4 9 6 10 5 11 12 12 13 13
REMARK SMILES IDX 20 15 21 16 25 17 22 18 24 19 23 20 14 21 15 22 19 23 16 24
REMARK SMILES IDX 18 25 17 26
REMARK H PARENT 13 14
REMARK Flexibility Score: inf
ROOT
ATOM      1  C   UNL     1     -75.668 -17.001  85.052  1.00  0.00     0.343 C 
ATOM      2  O   UNL     1     -76.305 -15.911  85.061  1.00  0.00    -0.248 OA
ENDROOT
BRANCH   1   3
ATOM      3  O   UNL     1     -74.269 -16.991  85.109  1.00  0.00    -0.455 OA
BRANCH   3   4
ATOM      4  C   UNL     1     -73.432 -17.345  84.012  1.00  0.00     0.307 C 
BRANCH   4   5
ATOM      5  C   UNL     1     -72.971 -16.103  83.295  1.00  0.00     0.137 C 
ATOM      6  C   UNL     1     -72.965 -17.227  81.019  1.00  0.00     0.145 C 
ATOM      7  N   UNL     1     -72.594 -16.112  81.893  1.00  0.00    -0.360 N 
ATOM      8  C   UNL     1     -71.997 -14.918  81.274  1.00  0.00     0.119 C 
ATOM      9  C   UNL     1     -71.383 -13.985  82.319  1.00  0.00     0.045 C 
ATOM     10  N   UNL     1     -72.836 -15.017  84.000  1.00  0.00    -0.269 NA
ATOM     11  C   UNL     1     -72.391 -13.745  83.438  1.00  0.00     0.146 C 
ENDBRANCH   4   5
ENDBRANCH   3   4
ENDBRANCH   1   3
BRANCH   1  12
ATOM     12  C   UNL     1     -76.421 -18.325  84.948  1.00  0.00     0.190 C 
BRANCH  12  13
ATOM     13  O   UNL     1     -75.530 -19.316  84.482  1.00  0.00    -0.374 OA
ATOM     14  H   UNL     1     -74.606 -18.953  84.539  1.00  0.00     0.212 HD
ENDBRANCH  12  13
BRANCH  12  15
ATOM     15  C   UNL     1     -76.902 -18.775  86.376  1.00  0.00     0.037 C 
ATOM     16  C   UNL     1     -76.590 -17.744  87.504  1.00  0.00     0.007 C 
ATOM     17  C   UNL     1     -76.402 -20.193  86.750  1.00  0.00     0.007 C 
ATOM     18  C   UNL     1     -76.372 -18.387  88.885  1.00  0.00     0.000 C 
ATOM     19  C   UNL     1     -77.038 -20.702  88.057  1.00  0.00     0.000 C 
ATOM     20  C   UNL     1     -77.298 -19.589  89.090  1.00  0.00     0.000 C 
ENDBRANCH  12  15
BRANCH  12  21
ATOM     21  C   UNL     1     -77.611 -18.259  83.968  1.00  0.00    -0.005 A 
ATOM     22  C   UNL     1     -77.479 -17.831  82.626  1.00  0.00     0.007 A 
ATOM     23  C   UNL     1     -78.880 -18.707  84.397  1.00  0.00     0.007 A 
ATOM     24  C   UNL     1     -78.585 -17.804  81.772  1.00  0.00     0.000 A 
ATOM     25  C   UNL     1     -79.981 -18.679  83.537  1.00  0.00     0.000 A 
ATOM     26  C   UNL     1     -79.835 -18.221  82.228  1.00  0.00     0.000 A 
ENDBRANCH  12  21
ENDBRANCH   1  12
TORSDOF 7
ENDMDL
MODEL 10
REMARK VINA RESULT:    -7.636      3.460      6.737
REMARK INTER + INTRA:         -11.085
REMARK INTER:                 -10.314
REMARK INTRA:                  -0.771
REMARK UNBOUND:                -0.548
REMARK SMILES CN1CCCN=C1COC(=O)C(O)(c1ccccc1)C1CCCCC1
REMARK SMILES IDX 10 1 11 2 9 3 8 4 7 5 1 6 2 7 3 8 4 9 6 10 5 11 12 12 13 13
REMARK SMILES IDX 20 15 21 16 25 17 22 18 24 19 23 20 14 21 15 22 19 23 16 24
REMARK SMILES IDX 18 25 17 26
REMARK H PARENT 13 14
REMARK Flexibility Score: inf
ROOT
ATOM      1  C   UNL     1     -75.506 -17.474  87.480  1.00  0.00     0.343 C 
ATOM      2  O   UNL     1     -74.533 -18.247  87.702  1.00  0.00    -0.248 OA
ENDROOT
BRANCH   1   3
ATOM      3  O   UNL     1     -75.834 -16.480  88.409  1.00  0.00    -0.455 OA
BRANCH   3   4
ATOM      4  C   UNL     1     -74.925 -15.469  88.837  1.00  0.00     0.307 C 
BRANCH   4   5
ATOM      5  C   UNL     1     -74.973 -15.337  90.337  1.00  0.00     0.137 C 
ATOM      6  C   UNL     1     -72.717 -14.180  90.464  1.00  0.00     0.145 C 
ATOM      7  N   UNL     1     -73.836 -14.870  91.109  1.00  0.00    -0.360 N 
ATOM      8  C   UNL     1     -73.868 -14.908  92.581  1.00  0.00     0.119 C 
ATOM      9  C   UNL     1     -74.901 -15.910  93.098  1.00  0.00     0.045 C 
ATOM     10  N   UNL     1     -76.052 -15.740  90.943  1.00  0.00    -0.269 NA
ATOM     11  C   UNL     1     -76.231 -15.678  92.390  1.00  0.00     0.146 C 
ENDBRANCH   4   5
ENDBRANCH   3   4
ENDBRANCH   1   3
BRANCH   1  12
ATOM     12  C   UNL     1     -76.343 -17.645  86.213  1.00  0.00     0.190 C 
BRANCH  12  13
ATOM     13  O   UNL     1     -76.933 -16.404  85.891  1.00  0.00    -0.374 OA
ATOM     14  H   UNL     1     -77.259 -16.449  84.952  1.00  0.00     0.212 HD
ENDBRANCH  12  13
BRANCH  12  15
ATOM     15  C   UNL     1     -75.409 -18.036  85.010  1.00  0.00     0.037 C 
ATOM     16  C   UNL     1     -75.742 -17.290  83.680  1.00  0.00     0.007 C 
ATOM     17  C   UNL     1     -75.330 -19.567  84.794  1.00  0.00     0.007 C 
ATOM     18  C   UNL     1     -75.401 -18.098  82.416  1.00  0.00     0.000 C 
ATOM     19  C   UNL     1     -74.265 -19.948  83.749  1.00  0.00     0.000 C 
ATOM     20  C   UNL     1     -74.122 -18.918  82.611  1.00  0.00     0.000 C 
ENDBRANCH  12  15
BRANCH  12  21
ATOM     21  C   UNL     1     -77.476 -18.679  86.382  1.00  0.00    -0.005 A 
ATOM     22  C   UNL     1     -77.625 -19.474  87.543  1.00  0.00     0.007 A 
ATOM     23  C   UNL     1     -78.453 -18.797  85.369  1.00  0.00     0.007 A 
ATOM     24  C   UNL     1     -78.678 -20.385  87.654  1.00  0.00     0.000 A 
ATOM     25  C   UNL     1     -79.505 -19.709  85.489  1.00  0.00     0.000 A 
ATOM     26  C   UNL     1     -79.614 -20.508  86.627  1.00  0.00     0.000 A 
ENDBRANCH  12  21
ENDBRANCH   1  12
TORSDOF 7
ENDMDL
MODEL 11
REMARK VINA RESULT:    -7.598      3.807      7.802
REMARK INTER + INTRA:         -11.034
REMARK INTER:                  -9.867
REMARK INTRA:                  -1.167
REMARK UNBOUND:                -0.548
REMARK SMILES CN1CCCN=C1COC(=O)C(O)(c1ccccc1)C1CCCCC1
REMARK SMILES IDX 10 1 11 2 9 3 8 4 7 5 1 6 2 7 3 8 4 9 6 10 5 11 12 12 13 13
REMARK SMILES IDX 20 15 21 16 25 17 22 18 24 19 23 20 14 21 15 22 19 23 16 24
REMARK SMILES IDX 18 25 17 26
REMARK H PARENT 13 14
REMARK Flexibility Score: inf
ROOT
ATOM      1  C   UNL     1     -76.154 -17.255  85.619  1.00  0.00     0.343 C 
ATOM      2  O   UNL     1     -76.822 -16.195  85.779  1.00  0.00    -0.248 OA
ENDROOT
BRANCH   1   3
ATOM      3  O   UNL     1     -74.756 -17.200  85.582  1.00  0.00    -0.455 OA
BRANCH   3   4
ATOM      4  C   UNL     1     -74.015 -16.683  84.479  1.00  0.00     0.307 C 
BRANCH   4   5
ATOM      5  C   UNL     1     -73.294 -17.803  83.775  1.00  0.00     0.137 C 
ATOM      6  C   UNL     1     -72.738 -16.382  81.747  1.00  0.00     0.145 C 
ATOM      7  N   UNL     1     -72.836 -17.688  82.403  1.00  0.00    -0.360 N 
ATOM      8  C   UNL     1     -72.281 -18.857  81.701  1.00  0.00     0.119 C 
ATOM      9  C   UNL     1     -72.728 -20.170  82.347  1.00  0.00     0.045 C 
ATOM     10  N   UNL     1     -73.163 -18.930  84.415  1.00  0.00    -0.269 NA
ATOM     11  C   UNL     1     -72.493 -20.098  83.853  1.00  0.00     0.146 C 
ENDBRANCH   4   5
ENDBRANCH   3   4
ENDBRANCH   1   3
BRANCH   1  12
ATOM     12  C   UNL     1     -76.874 -18.590  85.434  1.00  0.00     0.190 C 
BRANCH  12  13
ATOM     13  O   UNL     1     -75.938 -19.550  84.994  1.00  0.00    -0.374 OA
ATOM     14  H   UNL     1     -76.399 -20.169  84.368  1.00  0.00     0.212 HD
ENDBRANCH  12  13
BRANCH  12  15
ATOM     15  C   UNL     1     -77.428 -19.089  86.818  1.00  0.00     0.037 C 
ATOM     16  C   UNL     1     -76.804 -18.363  88.050  1.00  0.00     0.007 C 
ATOM     17  C   UNL     1     -77.349 -20.628  86.967  1.00  0.00     0.007 C 
ATOM     18  C   UNL     1     -76.746 -19.235  89.316  1.00  0.00     0.000 C 
ATOM     19  C   UNL     1     -78.072 -21.122  88.234  1.00  0.00     0.000 C 
ATOM     20  C   UNL     1     -77.975 -20.144  89.421  1.00  0.00     0.000 C 
ENDBRANCH  12  15
BRANCH  12  21
ATOM     21  C   UNL     1     -78.006 -18.517  84.388  1.00  0.00    -0.005 A 
ATOM     22  C   UNL     1     -77.783 -18.155  83.038  1.00  0.00     0.007 A 
ATOM     23  C   UNL     1     -79.314 -18.892  84.764  1.00  0.00     0.007 A 
ATOM     24  C   UNL     1     -78.839 -18.120  82.124  1.00  0.00     0.000 A 
ATOM     25  C   UNL     1     -80.365 -18.857  83.844  1.00  0.00     0.000 A 
ATOM     26  C   UNL     1     -80.129 -18.464  82.527  1.00  0.00     0.000 A 
ENDBRANCH  12  21
ENDBRANCH   1  12
TORSDOF 7
ENDMDL
MODEL 12
REMARK VINA RESULT:    -7.497      2.921      6.847
REMARK INTER + INTRA:         -10.894
REMARK INTER:                 -10.476
REMARK INTRA:                  -0.418
REMARK UNBOUND:                -0.548
REMARK SMILES CN1CCCN=C1COC(=O)C(O)(c1ccccc1)C1CCCCC1
REMARK SMILES IDX 10 1 11 2 9 3 8 4 7 5 1 6 2 7 3 8 4 9 6 10 5 11 12 12 13 13
REMARK SMILES IDX 20 15 21 16 25 17 22 18 24 19 23 20 14 21 15 22 19 23 16 24
REMARK SMILES IDX 18 25 17 26
REMARK H PARENT 13 14
REMARK Flexibility Score: inf
ROOT
ATOM      1  C   UNL     1     -75.361 -18.082  87.911  1.00  0.00     0.343 C 
ATOM      2  O   UNL     1     -74.203 -18.404  87.527  1.00  0.00    -0.248 OA
ENDROOT
BRANCH   1   3
ATOM      3  O   UNL     1     -76.114 -17.166  87.167  1.00  0.00    -0.455 OA
BRANCH   3   4
ATOM      4  C   UNL     1     -75.631 -16.516  85.994  1.00  0.00     0.307 C 
BRANCH   4   5
ATOM      5  C   UNL     1     -76.135 -17.231  84.766  1.00  0.00     0.137 C 
ATOM      6  C   UNL     1     -73.936 -16.978  83.523  1.00  0.00     0.145 C 
ATOM      7  N   UNL     1     -75.367 -17.294  83.537  1.00  0.00    -0.360 N 
ATOM      8  C   UNL     1     -75.960 -17.860  82.315  1.00  0.00     0.119 C 
ATOM      9  C   UNL     1     -77.489 -17.844  82.368  1.00  0.00     0.045 C 
ATOM     10  N   UNL     1     -77.338 -17.727  84.810  1.00  0.00    -0.269 NA
ATOM     11  C   UNL     1     -77.955 -18.437  83.694  1.00  0.00     0.146 C 
ENDBRANCH   4   5
ENDBRANCH   3   4
ENDBRANCH   1   3
BRANCH   1  12
ATOM     12  C   UNL     1     -75.927 -18.667  89.204  1.00  0.00     0.190 C 
BRANCH  12  13
ATOM     13  O   UNL     1     -74.947 -19.497  89.791  1.00  0.00    -0.374 OA
ATOM     14  H   UNL     1     -75.365 -19.982  90.551  1.00  0.00     0.212 HD
ENDBRANCH  12  13
BRANCH  12  15
ATOM     15  C   UNL     1     -76.220 -17.510  90.227  1.00  0.00     0.037 C 
ATOM     16  C   UNL     1     -75.533 -16.156  89.866  1.00  0.00     0.007 C 
ATOM     17  C   UNL     1     -75.924 -17.922  91.690  1.00  0.00     0.007 C 
ATOM     18  C   UNL     1     -75.193 -15.290  91.092  1.00  0.00     0.000 C 
ATOM     19  C   UNL     1     -76.400 -16.858  92.696  1.00  0.00     0.000 C 
ATOM     20  C   UNL     1     -76.269 -15.414  92.174  1.00  0.00     0.000 C 
ENDBRANCH  12  15
BRANCH  12  21
ATOM     21  C   UNL     1     -77.191 -19.521  88.970  1.00  0.00    -0.005 A 
ATOM     22  C   UNL     1     -77.823 -19.628  87.708  1.00  0.00     0.007 A 
ATOM     23  C   UNL     1     -77.710 -20.286  90.036  1.00  0.00     0.007 A 
ATOM     24  C   UNL     1     -78.957 -20.428  87.543  1.00  0.00     0.000 A 
ATOM     25  C   UNL     1     -78.843 -21.085  89.863  1.00  0.00     0.000 A 
ATOM     26  C   UNL     1     -79.471 -21.150  88.620  1.00  0.00     0.000 A 
ENDBRANCH  12  21
ENDBRANCH   1  12
TORSDOF 7
ENDMDL
MODEL 13
REMARK VINA RESULT:    -7.487      1.342      2.175
REMARK INTER + INTRA:         -10.880
REMARK INTER:                 -10.680
REMARK INTRA:                  -0.200
REMARK UNBOUND:                -0.548
REMARK SMILES CN1CCCN=C1COC(=O)C(O)(c1ccccc1)C1CCCCC1
REMARK SMILES IDX 10 1 11 2 9 3 8 4 7 5 1 6 2 7 3 8 4 9 6 10 5 11 12 12 13 13
REMARK SMILES IDX 20 15 21 16 25 17 22 18 24 19 23 20 14 21 15 22 19 23 16 24
REMARK SMILES IDX 18 25 17 26
REMARK H PARENT 13 14
REMARK Flexibility Score: inf
ROOT
ATOM      1  C   UNL     1     -76.834 -20.140  89.649  1.00  0.00     0.343 C 
ATOM      2  O   UNL     1     -76.170 -21.141  90.039  1.00  0.00    -0.248 OA
ENDROOT
BRANCH   1   3
ATOM      3  O   UNL     1     -78.232 -20.159  89.720  1.00  0.00    -0.455 OA
BRANCH   3   4
ATOM      4  C   UNL     1     -78.991 -21.326  90.028  1.00  0.00     0.307 C 
BRANCH   4   5
ATOM      5  C   UNL     1     -80.260 -21.343  89.216  1.00  0.00     0.137 C 
ATOM      6  C   UNL     1     -81.724 -21.861  91.223  1.00  0.00     0.145 C 
ATOM      7  N   UNL     1     -81.531 -21.764  89.774  1.00  0.00    -0.360 N 
ATOM      8  C   UNL     1     -82.711 -21.919  88.908  1.00  0.00     0.119 C 
ATOM      9  C   UNL     1     -82.317 -22.106  87.443  1.00  0.00     0.045 C 
ATOM     10  N   UNL     1     -80.169 -21.044  87.952  1.00  0.00    -0.269 NA
ATOM     11  C   UNL     1     -81.313 -21.028  87.047  1.00  0.00     0.146 C 
ENDBRANCH   4   5
ENDBRANCH   3   4
ENDBRANCH   1   3
BRANCH   1  12
ATOM     12  C   UNL     1     -76.113 -18.924  89.070  1.00  0.00     0.190 C 
BRANCH  12  13
ATOM     13  O   UNL     1     -74.812 -19.313  88.682  1.00  0.00    -0.374 OA
ATOM     14  H   UNL     1     -74.892 -19.925  87.902  1.00  0.00     0.212 HD
ENDBRANCH  12  13
BRANCH  12  15
ATOM     15  C   UNL     1     -76.853 -18.437  87.772  1.00  0.00     0.037 C 
ATOM     16  C   UNL     1     -77.354 -19.595  86.854  1.00  0.00     0.007 C 
ATOM     17  C   UNL     1     -76.027 -17.399  86.973  1.00  0.00     0.007 C 
ATOM     18  C   UNL     1     -77.404 -19.223  85.362  1.00  0.00     0.000 C 
ATOM     19  C   UNL     1     -76.838 -16.782  85.818  1.00  0.00     0.000 C 
ATOM     20  C   UNL     1     -77.830 -17.765  85.168  1.00  0.00     0.000 C 
ENDBRANCH  12  15
BRANCH  12  21
ATOM     21  C   UNL     1     -75.978 -17.771  90.087  1.00  0.00    -0.005 A 
ATOM     22  C   UNL     1     -75.547 -16.473  89.724  1.00  0.00     0.007 A 
ATOM     23  C   UNL     1     -76.363 -17.990  91.427  1.00  0.00     0.007 A 
ATOM     24  C   UNL     1     -75.457 -15.457  90.680  1.00  0.00     0.000 A 
ATOM     25  C   UNL     1     -76.272 -16.969  92.377  1.00  0.00     0.000 A 
ATOM     26  C   UNL     1     -75.813 -15.706  92.006  1.00  0.00     0.000 A 
ENDBRANCH  12  21
ENDBRANCH   1  12
TORSDOF 7
ENDMDL
MODEL 14
REMARK VINA RESULT:    -7.421      4.803      8.180
REMARK INTER + INTRA:         -10.789
REMARK INTER:                 -10.019
REMARK INTRA:                  -0.769
REMARK UNBOUND:                -0.548
REMARK SMILES CN1CCCN=C1COC(=O)C(O)(c1ccccc1)C1CCCCC1
REMARK SMILES IDX 10 1 11 2 9 3 8 4 7 5 1 6 2 7 3 8 4 9 6 10 5 11 12 12 13 13
REMARK SMILES IDX 20 15 21 16 25 17 22 18 24 19 23 20 14 21 15 22 19 23 16 24
REMARK SMILES IDX 18 25 17 26
REMARK H PARENT 13 14
REMARK Flexibility Score: inf
ROOT
ATOM      1  C   UNL     1     -74.802 -18.272  84.243  1.00  0.00     0.343 C 
ATOM      2  O   UNL     1     -74.740 -19.501  83.959  1.00  0.00    -0.248 OA
ENDROOT
BRANCH   1   3
ATOM      3  O   UNL     1     -73.675 -17.459  84.073  1.00  0.00    -0.455 OA
BRANCH   3   4
ATOM      4  C   UNL     1     -72.856 -17.478  82.907  1.00  0.00     0.307 C 
BRANCH   4   5
ATOM      5  C   UNL     1     -72.478 -16.071  82.521  1.00  0.00     0.137 C 
ATOM      6  C   UNL     1     -71.842 -16.723  80.152  1.00  0.00     0.145 C 
ATOM      7  N   UNL     1     -71.839 -15.760  81.256  1.00  0.00    -0.360 N 
ATOM      8  C   UNL     1     -71.342 -14.401  80.986  1.00  0.00     0.119 C 
ATOM      9  C   UNL     1     -71.108 -13.618  82.279  1.00  0.00     0.045 C 
ATOM     10  N   UNL     1     -72.666 -15.134  83.405  1.00  0.00    -0.269 NA
ATOM     11  C   UNL     1     -72.340 -13.732  83.170  1.00  0.00     0.146 C 
ENDBRANCH   4   5
ENDBRANCH   3   4
ENDBRANCH   1   3
BRANCH   1  12
ATOM     12  C   UNL     1     -76.096 -17.681  84.799  1.00  0.00     0.190 C 
BRANCH  12  13
ATOM     13  O   UNL     1     -76.108 -16.294  84.537  1.00  0.00    -0.374 OA
ATOM     14  H   UNL     1     -76.902 -16.092  83.972  1.00  0.00     0.212 HD
ENDBRANCH  12  13
BRANCH  12  15
ATOM     15  C   UNL     1     -77.329 -18.302  84.046  1.00  0.00     0.037 C 
ATOM     16  C   UNL     1     -77.456 -17.851  82.558  1.00  0.00     0.007 C 
ATOM     17  C   UNL     1     -78.657 -18.096  84.815  1.00  0.00     0.007 C 
ATOM     18  C   UNL     1     -78.905 -17.821  82.043  1.00  0.00     0.000 C 
ATOM     19  C   UNL     1     -79.821 -18.875  84.173  1.00  0.00     0.000 C 
ATOM     20  C   UNL     1     -79.729 -18.966  82.638  1.00  0.00     0.000 C 
ENDBRANCH  12  15
BRANCH  12  21
ATOM     21  C   UNL     1     -76.234 -17.876  86.323  1.00  0.00    -0.005 A 
ATOM     22  C   UNL     1     -76.635 -19.100  86.909  1.00  0.00     0.007 A 
ATOM     23  C   UNL     1     -75.882 -16.815  87.186  1.00  0.00     0.007 A 
ATOM     24  C   UNL     1     -76.728 -19.231  88.297  1.00  0.00     0.000 A 
ATOM     25  C   UNL     1     -75.976 -16.954  88.573  1.00  0.00     0.000 A 
ATOM     26  C   UNL     1     -76.406 -18.158  89.128  1.00  0.00     0.000 A 
ENDBRANCH  12  21
ENDBRANCH   1  12
TORSDOF 7
ENDMDL
MODEL 15
REMARK VINA RESULT:    -7.289      1.421      2.002
REMARK INTER + INTRA:         -10.607
REMARK INTER:                  -9.912
REMARK INTRA:                  -0.694
REMARK UNBOUND:                -0.548
REMARK SMILES CN1CCCN=C1COC(=O)C(O)(c1ccccc1)C1CCCCC1
REMARK SMILES IDX 10 1 11 2 9 3 8 4 7 5 1 6 2 7 3 8 4 9 6 10 5 11 12 12 13 13
REMARK SMILES IDX 20 15 21 16 25 17 22 18 24 19 23 20 14 21 15 22 19 23 16 24
REMARK SMILES IDX 18 25 17 26
REMARK H PARENT 13 14
REMARK Flexibility Score: inf
ROOT
ATOM      1  C   UNL     1     -77.943 -19.520  86.331  1.00  0.00     0.343 C 
ATOM      2  O   UNL     1     -78.454 -18.569  85.677  1.00  0.00    -0.248 OA
ENDROOT
BRANCH   1   3
ATOM      3  O   UNL     1     -78.726 -20.628  86.679  1.00  0.00    -0.455 OA
BRANCH   3   4
ATOM      4  C   UNL     1     -79.373 -20.771  87.941  1.00  0.00     0.307 C 
BRANCH   4   5
ATOM      5  C   UNL     1     -80.824 -21.123  87.737  1.00  0.00     0.137 C 
ATOM      6  C   UNL     1     -81.200 -21.670  90.187  1.00  0.00     0.145 C 
ATOM      7  N   UNL     1     -81.634 -21.709  88.789  1.00  0.00    -0.360 N 
ATOM      8  C   UNL     1     -82.997 -22.185  88.502  1.00  0.00     0.119 C 
ATOM      9  C   UNL     1     -83.198 -22.464  87.012  1.00  0.00     0.045 C 
ATOM     10  N   UNL     1     -81.320 -20.963  86.544  1.00  0.00    -0.269 NA
ATOM     11  C   UNL     1     -82.705 -21.269  86.202  1.00  0.00     0.146 C 
ENDBRANCH   4   5
ENDBRANCH   3   4
ENDBRANCH   1   3
BRANCH   1  12
ATOM     12  C   UNL     1     -76.481 -19.447  86.769  1.00  0.00     0.190 C 
BRANCH  12  13
ATOM     13  O   UNL     1     -76.094 -20.712  87.262  1.00  0.00    -0.374 OA
ATOM     14  H   UNL     1     -75.670 -21.218  86.519  1.00  0.00     0.212 HD
ENDBRANCH  12  13
BRANCH  12  15
ATOM     15  C   UNL     1     -75.570 -19.140  85.526  1.00  0.00     0.037 C 
ATOM     16  C   UNL     1     -76.173 -19.611  84.166  1.00  0.00     0.007 C 
ATOM     17  C   UNL     1     -74.121 -19.656  85.711  1.00  0.00     0.007 C 
ATOM     18  C   UNL     1     -75.112 -19.988  83.117  1.00  0.00     0.000 C 
ATOM     19  C   UNL     1     -73.191 -19.178  84.580  1.00  0.00     0.000 C 
ATOM     20  C   UNL     1     -73.889 -19.071  83.211  1.00  0.00     0.000 C 
ENDBRANCH  12  15
BRANCH  12  21
ATOM     21  C   UNL     1     -76.245 -18.410  87.887  1.00  0.00    -0.005 A 
ATOM     22  C   UNL     1     -76.281 -18.741  89.263  1.00  0.00     0.007 A 
ATOM     23  C   UNL     1     -75.910 -17.085  87.535  1.00  0.00     0.007 A 
ATOM     24  C   UNL     1     -76.045 -17.768  90.238  1.00  0.00     0.000 A 
ATOM     25  C   UNL     1     -75.673 -16.118  88.515  1.00  0.00     0.000 A 
ATOM     26  C   UNL     1     -75.747 -16.457  89.866  1.00  0.00     0.000 A 
ENDBRANCH  12  21
ENDBRANCH   1  12
TORSDOF 7
ENDMDL
