MODEL 1
REMARK VINA RESULT:    -6.417      0.000      0.000
REMARK INTER + INTRA:         -10.727
REMARK INTER:                  -9.606
REMARK INTRA:                  -1.121
REMARK UNBOUND:                -1.121
REMARK SMILES CC(C)NCC(O)COc1ccc(CC(N)=O)cc1
REMARK SMILES IDX 8 1 6 2 5 3 4 4 2 6 1 7 3 8 7 9 9 11 10 12 11 13 19 14 12 15
REMARK SMILES IDX 18 16 13 17 14 18 15 19 16 20 17 21
REMARK H PARENT 4 5 7 10 16 22 16 23
REMARK Flexibility Score: inf
ROOT
ATOM      1  C   UNL     1      12.957   7.828  17.975  1.00  0.00     0.262 C 
ENDROOT
BRANCH   1   2
ATOM      2  C   UNL     1      13.532   8.222  19.345  1.00  0.00     0.165 C 
BRANCH   2   3
ATOM      3  C   UNL     1      14.332   9.536  19.275  1.00  0.00     0.116 C 
BRANCH   3   4
ATOM      4  N   UNL     1      14.806   9.793  17.905  1.00  0.00    -0.312 NA
ATOM      5  H   UNL     1      13.997   9.604  17.266  1.00  0.00     0.123 HD
BRANCH   4   6
ATOM      6  C   UNL     1      15.237  11.196  17.732  1.00  0.00     0.047 C 
ATOM      7  C   UNL     1      14.068  12.040  17.208  1.00  0.00     0.024 C 
ATOM      8  C   UNL     1      15.724  11.778  19.069  1.00  0.00     0.024 C 
ENDBRANCH   4   6
ENDBRANCH   3   4
ENDBRANCH   2   3
BRANCH   2   9
ATOM      9  O   UNL     1      14.346   7.183  19.824  1.00  0.00    -0.388 OA
ATOM     10  H   UNL     1      15.237   7.578  20.012  1.00  0.00     0.211 HD
ENDBRANCH   2   9
ENDBRANCH   1   2
BRANCH   1  11
ATOM     11  O   UNL     1      11.726   8.509  17.729  1.00  0.00    -0.491 OA
BRANCH  11  12
ATOM     12  C   UNL     1      11.519   9.500  16.756  1.00  0.00     0.119 A 
ATOM     13  C   UNL     1      10.692  10.620  16.970  1.00  0.00     0.047 A 
ATOM     14  C   UNL     1      12.172   9.361  15.525  1.00  0.00     0.047 A 
ATOM     15  C   UNL     1      10.525  11.575  15.963  1.00  0.00     0.008 A 
ATOM     16  C   UNL     1      12.005  10.316  14.518  1.00  0.00     0.008 A 
ATOM     17  C   UNL     1      11.188  11.436  14.734  1.00  0.00    -0.038 A 
BRANCH  17  18
ATOM     18  C   UNL     1      10.979  12.447  13.641  1.00  0.00     0.135 C 
BRANCH  18  19
ATOM     19  C   UNL     1      12.298  12.861  13.063  1.00  0.00     0.221 C 
ATOM     20  N   UNL     1      12.649  12.494  11.729  1.00  0.00    -0.369 N 
ATOM     21  O   UNL     1      13.085  13.571  13.744  1.00  0.00    -0.275 OA
ATOM     22  H   UNL     1      13.562  12.798  11.323  1.00  0.00     0.159 HD
ATOM     23  H   UNL     1      11.999  11.922  11.145  1.00  0.00     0.159 HD
ENDBRANCH  18  19
ENDBRANCH  17  18
ENDBRANCH  11  12
ENDBRANCH   1  11
TORSDOF 9
ENDMDL
MODEL 2
REMARK VINA RESULT:    -6.314      2.702      6.814
REMARK INTER + INTRA:         -10.572
REMARK INTER:                  -9.457
REMARK INTRA:                  -1.115
REMARK UNBOUND:                -1.121
REMARK SMILES CC(C)NCC(O)COc1ccc(CC(N)=O)cc1
REMARK SMILES IDX 8 1 6 2 5 3 4 4 2 6 1 7 3 8 7 9 9 11 10 12 11 13 19 14 12 15
REMARK SMILES IDX 18 16 13 17 14 18 15 19 16 20 17 21
REMARK H PARENT 4 5 7 10 16 22 16 23
REMARK Flexibility Score: inf
ROOT
ATOM      1  C   UNL     1      13.240  10.870  15.762  1.00  0.00     0.262 C 
ENDROOT
BRANCH   1   2
ATOM      2  C   UNL     1      11.821  10.554  15.265  1.00  0.00     0.165 C 
BRANCH   2   3
ATOM      3  C   UNL     1      10.766  10.772  16.364  1.00  0.00     0.116 C 
BRANCH   3   4
ATOM      4  N   UNL     1      10.278   9.485  16.890  1.00  0.00    -0.312 NA
ATOM      5  H   UNL     1      11.097   8.832  16.895  1.00  0.00     0.123 HD
BRANCH   4   6
ATOM      6  C   UNL     1       9.761   9.621  18.268  1.00  0.00     0.047 C 
ATOM      7  C   UNL     1      10.571  10.680  19.027  1.00  0.00     0.024 C 
ATOM      8  C   UNL     1       8.280  10.031  18.249  1.00  0.00     0.024 C 
ENDBRANCH   4   6
ENDBRANCH   3   4
ENDBRANCH   2   3
BRANCH   2   9
ATOM      9  O   UNL     1      11.775   9.228  14.803  1.00  0.00    -0.388 OA
ATOM     10  H   UNL     1      11.707   9.270  13.814  1.00  0.00     0.211 HD
ENDBRANCH   2   9
ENDBRANCH   1   2
BRANCH   1  11
ATOM     11  O   UNL     1      13.844   9.710  16.337  1.00  0.00    -0.491 OA
BRANCH  11  12
ATOM     12  C   UNL     1      13.816   9.362  17.698  1.00  0.00     0.119 A 
ATOM     13  C   UNL     1      13.282   8.145  18.164  1.00  0.00     0.047 A 
ATOM     14  C   UNL     1      14.348  10.270  18.621  1.00  0.00     0.047 A 
ATOM     15  C   UNL     1      13.282   7.853  19.531  1.00  0.00     0.008 A 
ATOM     16  C   UNL     1      14.348   9.978  19.988  1.00  0.00     0.008 A 
ATOM     17  C   UNL     1      13.824   8.762  20.452  1.00  0.00    -0.038 A 
BRANCH  17  18
ATOM     18  C   UNL     1      13.792   8.461  21.925  1.00  0.00     0.135 C 
BRANCH  18  19
ATOM     19  C   UNL     1      14.191   7.038  22.169  1.00  0.00     0.221 C 
ATOM     20  N   UNL     1      15.550   6.631  22.009  1.00  0.00    -0.369 N 
ATOM     21  O   UNL     1      13.330   6.203  22.554  1.00  0.00    -0.275 OA
ATOM     22  H   UNL     1      15.829   5.642  22.195  1.00  0.00     0.159 HD
ATOM     23  H   UNL     1      16.279   7.316  21.708  1.00  0.00     0.159 HD
ENDBRANCH  18  19
ENDBRANCH  17  18
ENDBRANCH  11  12
ENDBRANCH   1  11
TORSDOF 9
ENDMDL
MODEL 3
REMARK VINA RESULT:    -6.284      1.681      2.786
REMARK INTER + INTRA:         -10.527
REMARK INTER:                  -9.354
REMARK INTRA:                  -1.174
REMARK UNBOUND:                -1.121
REMARK SMILES CC(C)NCC(O)COc1ccc(CC(N)=O)cc1
REMARK SMILES IDX 8 1 6 2 5 3 4 4 2 6 1 7 3 8 7 9 9 11 10 12 11 13 19 14 12 15
REMARK SMILES IDX 18 16 13 17 14 18 15 19 16 20 17 21
REMARK H PARENT 4 5 7 10 16 22 16 23
REMARK Flexibility Score: inf
ROOT
ATOM      1  C   UNL     1      14.300   9.316  18.651  1.00  0.00     0.262 C 
ENDROOT
BRANCH   1   2
ATOM      2  C   UNL     1      13.692   7.912  18.804  1.00  0.00     0.165 C 
BRANCH   2   3
ATOM      3  C   UNL     1      12.180   7.969  19.085  1.00  0.00     0.116 C 
BRANCH   3   4
ATOM      4  N   UNL     1      11.842   9.135  19.919  1.00  0.00    -0.312 NA
ATOM      5  H   UNL     1      12.684   9.757  19.923  1.00  0.00     0.123 HD
BRANCH   4   6
ATOM      6  C   UNL     1      10.693   9.884  19.369  1.00  0.00     0.047 C 
ATOM      7  C   UNL     1      11.061  11.365  19.215  1.00  0.00     0.024 C 
ATOM      8  C   UNL     1      10.287   9.316  17.999  1.00  0.00     0.024 C 
ENDBRANCH   4   6
ENDBRANCH   3   4
ENDBRANCH   2   3
BRANCH   2   9
ATOM      9  O   UNL     1      14.354   7.230  19.839  1.00  0.00    -0.388 OA
ATOM     10  H   UNL     1      15.229   7.680  19.966  1.00  0.00     0.211 HD
ENDBRANCH   2   9
ENDBRANCH   1   2
BRANCH   1  11
ATOM     11  O   UNL     1      14.568   9.603  17.278  1.00  0.00    -0.491 OA
BRANCH  11  12
ATOM     12  C   UNL     1      13.677  10.215  16.381  1.00  0.00     0.119 A 
ATOM     13  C   UNL     1      12.903   9.486  15.456  1.00  0.00     0.047 A 
ATOM     14  C   UNL     1      13.557  11.610  16.419  1.00  0.00     0.047 A 
ATOM     15  C   UNL     1      12.032  10.149  14.588  1.00  0.00     0.008 A 
ATOM     16  C   UNL     1      12.685  12.273  15.551  1.00  0.00     0.008 A 
ATOM     17  C   UNL     1      11.908  11.546  14.636  1.00  0.00    -0.038 A 
BRANCH  17  18
ATOM     18  C   UNL     1      10.996  12.261  13.678  1.00  0.00     0.135 C 
BRANCH  18  19
ATOM     19  C   UNL     1      11.801  13.029  12.675  1.00  0.00     0.221 C 
ATOM     20  N   UNL     1      12.523  12.344  11.651  1.00  0.00    -0.369 N 
ATOM     21  O   UNL     1      11.810  14.288  12.711  1.00  0.00    -0.275 OA
ATOM     22  H   UNL     1      13.070  12.883  10.943  1.00  0.00     0.159 HD
ATOM     23  H   UNL     1      12.510  11.301  11.597  1.00  0.00     0.159 HD
ENDBRANCH  18  19
ENDBRANCH  17  18
ENDBRANCH  11  12
ENDBRANCH   1  11
TORSDOF 9
ENDMDL
MODEL 4
REMARK VINA RESULT:    -6.138      1.796      2.965
REMARK INTER + INTRA:         -10.309
REMARK INTER:                  -9.228
REMARK INTRA:                  -1.081
REMARK UNBOUND:                -1.121
REMARK SMILES CC(C)NCC(O)COc1ccc(CC(N)=O)cc1
REMARK SMILES IDX 8 1 6 2 5 3 4 4 2 6 1 7 3 8 7 9 9 11 10 12 11 13 19 14 12 15
REMARK SMILES IDX 18 16 13 17 14 18 15 19 16 20 17 21
REMARK H PARENT 4 5 7 10 16 22 16 23
REMARK Flexibility Score: inf
ROOT
ATOM      1  C   UNL     1      13.964   9.051  18.738  1.00  0.00     0.262 C 
ENDROOT
BRANCH   1   2
ATOM      2  C   UNL     1      12.699   8.247  19.077  1.00  0.00     0.165 C 
BRANCH   2   3
ATOM      3  C   UNL     1      11.463   9.154  19.219  1.00  0.00     0.116 C 
BRANCH   3   4
ATOM      4  N   UNL     1      10.438   8.809  18.219  1.00  0.00    -0.312 NA
ATOM      5  H   UNL     1       9.742   8.194  18.702  1.00  0.00     0.123 HD
BRANCH   4   6
ATOM      6  C   UNL     1       9.746  10.012  17.711  1.00  0.00     0.047 C 
ATOM      7  C   UNL     1       8.259   9.956  18.086  1.00  0.00     0.024 C 
ATOM      8  C   UNL     1      10.373  11.284  18.305  1.00  0.00     0.024 C 
ENDBRANCH   4   6
ENDBRANCH   3   4
ENDBRANCH   2   3
BRANCH   2   9
ATOM      9  O   UNL     1      12.911   7.527  20.265  1.00  0.00    -0.388 OA
ATOM     10  H   UNL     1      12.114   7.675  20.837  1.00  0.00     0.211 HD
ENDBRANCH   2   9
ENDBRANCH   1   2
BRANCH   1  11
ATOM     11  O   UNL     1      14.131   9.158  17.324  1.00  0.00    -0.491 OA
BRANCH  11  12
ATOM     12  C   UNL     1      13.485  10.087  16.491  1.00  0.00     0.119 A 
ATOM     13  C   UNL     1      13.641  11.480  16.636  1.00  0.00     0.047 A 
ATOM     14  C   UNL     1      12.656   9.596  15.475  1.00  0.00     0.047 A 
ATOM     15  C   UNL     1      12.973  12.356  15.777  1.00  0.00     0.008 A 
ATOM     16  C   UNL     1      11.987  10.473  14.616  1.00  0.00     0.008 A 
ATOM     17  C   UNL     1      12.149  11.860  14.755  1.00  0.00    -0.038 A 
BRANCH  17  18
ATOM     18  C   UNL     1      11.405  12.806  13.854  1.00  0.00     0.135 C 
BRANCH  18  19
ATOM     19  C   UNL     1      12.099  12.912  12.531  1.00  0.00     0.221 C 
ATOM     20  N   UNL     1      11.400  12.611  11.322  1.00  0.00    -0.369 N 
ATOM     21  O   UNL     1      13.294  13.307  12.480  1.00  0.00    -0.275 OA
ATOM     22  H   UNL     1      11.881  12.701  10.400  1.00  0.00     0.159 HD
ATOM     23  H   UNL     1      10.404  12.300  11.347  1.00  0.00     0.159 HD
ENDBRANCH  18  19
ENDBRANCH  17  18
ENDBRANCH  11  12
ENDBRANCH   1  11
TORSDOF 9
ENDMDL
MODEL 5
REMARK VINA RESULT:    -6.114      2.189      3.342
REMARK INTER + INTRA:         -10.273
REMARK INTER:                  -9.798
REMARK INTRA:                  -0.475
REMARK UNBOUND:                -1.121
REMARK SMILES CC(C)NCC(O)COc1ccc(CC(N)=O)cc1
REMARK SMILES IDX 8 1 6 2 5 3 4 4 2 6 1 7 3 8 7 9 9 11 10 12 11 13 19 14 12 15
REMARK SMILES IDX 18 16 13 17 14 18 15 19 16 20 17 21
REMARK H PARENT 4 5 7 10 16 22 16 23
REMARK Flexibility Score: inf
ROOT
ATOM      1  C   UNL     1      14.388   9.465  18.473  1.00  0.00     0.262 C 
ENDROOT
BRANCH   1   2
ATOM      2  C   UNL     1      13.331   8.416  18.853  1.00  0.00     0.165 C 
BRANCH   2   3
ATOM      3  C   UNL     1      13.074   8.383  20.370  1.00  0.00     0.116 C 
BRANCH   3   4
ATOM      4  N   UNL     1      13.318   7.038  20.918  1.00  0.00    -0.312 NA
ATOM      5  H   UNL     1      13.955   6.549  20.245  1.00  0.00     0.123 HD
BRANCH   4   6
ATOM      6  C   UNL     1      13.971   7.099  22.242  1.00  0.00     0.047 C 
ATOM      7  C   UNL     1      13.398   6.009  23.157  1.00  0.00     0.024 C 
ATOM      8  C   UNL     1      15.489   6.900  22.103  1.00  0.00     0.024 C 
ENDBRANCH   4   6
ENDBRANCH   3   4
ENDBRANCH   2   3
BRANCH   2   9
ATOM      9  O   UNL     1      13.748   7.152  18.404  1.00  0.00    -0.388 OA
ATOM     10  H   UNL     1      13.935   7.239  17.433  1.00  0.00     0.211 HD
ENDBRANCH   2   9
ENDBRANCH   1   2
BRANCH   1  11
ATOM     11  O   UNL     1      14.492   9.586  17.054  1.00  0.00    -0.491 OA
BRANCH  11  12
ATOM     12  C   UNL     1      13.620  10.314  16.228  1.00  0.00     0.119 A 
ATOM     13  C   UNL     1      13.550  11.721  16.245  1.00  0.00     0.047 A 
ATOM     14  C   UNL     1      12.792   9.602  15.352  1.00  0.00     0.047 A 
ATOM     15  C   UNL     1      12.662  12.393  15.400  1.00  0.00     0.008 A 
ATOM     16  C   UNL     1      11.904  10.273  14.507  1.00  0.00     0.008 A 
ATOM     17  C   UNL     1      11.840  11.675  14.518  1.00  0.00    -0.038 A 
BRANCH  17  18
ATOM     18  C   UNL     1      10.861  12.398  13.634  1.00  0.00     0.135 C 
BRANCH  18  19
ATOM     19  C   UNL     1      11.591  13.148  12.562  1.00  0.00     0.221 C 
ATOM     20  N   UNL     1      12.532  12.477  11.724  1.00  0.00    -0.369 N 
ATOM     21  O   UNL     1      11.345  14.369  12.373  1.00  0.00    -0.275 OA
ATOM     22  H   UNL     1      13.028  12.998  10.967  1.00  0.00     0.159 HD
ATOM     23  H   UNL     1      12.734  11.461  11.857  1.00  0.00     0.159 HD
ENDBRANCH  18  19
ENDBRANCH  17  18
ENDBRANCH  11  12
ENDBRANCH   1  11
TORSDOF 9
ENDMDL
MODEL 6
REMARK VINA RESULT:    -6.090      2.179      3.160
REMARK INTER + INTRA:         -10.237
REMARK INTER:                  -9.203
REMARK INTRA:                  -1.033
REMARK UNBOUND:                -1.121
REMARK SMILES CC(C)NCC(O)COc1ccc(CC(N)=O)cc1
REMARK SMILES IDX 8 1 6 2 5 3 4 4 2 6 1 7 3 8 7 9 9 11 10 12 11 13 19 14 12 15
REMARK SMILES IDX 18 16 13 17 14 18 15 19 16 20 17 21
REMARK H PARENT 4 5 7 10 16 22 16 23
REMARK Flexibility Score: inf
ROOT
ATOM      1  C   UNL     1      11.715   7.298  16.495  1.00  0.00     0.262 C 
ENDROOT
BRANCH   1   2
ATOM      2  C   UNL     1      11.980   7.290  18.009  1.00  0.00     0.165 C 
BRANCH   2   3
ATOM      3  C   UNL     1      11.360   8.515  18.706  1.00  0.00     0.116 C 
BRANCH   3   4
ATOM      4  N   UNL     1       9.953   8.692  18.310  1.00  0.00    -0.312 NA
ATOM      5  H   UNL     1       9.377   8.550  19.173  1.00  0.00     0.123 HD
BRANCH   4   6
ATOM      6  C   UNL     1       9.703  10.049  17.781  1.00  0.00     0.047 C 
ATOM      7  C   UNL     1       8.235  10.434  18.008  1.00  0.00     0.024 C 
ATOM      8  C   UNL     1      10.611  11.074  18.478  1.00  0.00     0.024 C 
ENDBRANCH   4   6
ENDBRANCH   3   4
ENDBRANCH   2   3
BRANCH   2   9
ATOM      9  O   UNL     1      13.365   7.251  18.238  1.00  0.00    -0.388 OA
ATOM     10  H   UNL     1      13.506   6.717  19.062  1.00  0.00     0.211 HD
ENDBRANCH   2   9
ENDBRANCH   1   2
BRANCH   1  11
ATOM     11  O   UNL     1      12.706   8.068  15.813  1.00  0.00    -0.491 OA
BRANCH  11  12
ATOM     12  C   UNL     1      12.658   9.455  15.597  1.00  0.00     0.119 A 
ATOM     13  C   UNL     1      11.723  10.062  14.735  1.00  0.00     0.047 A 
ATOM     14  C   UNL     1      13.580  10.260  16.276  1.00  0.00     0.047 A 
ATOM     15  C   UNL     1      11.722  11.449  14.560  1.00  0.00     0.008 A 
ATOM     16  C   UNL     1      13.580  11.647  16.101  1.00  0.00     0.008 A 
ATOM     17  C   UNL     1      12.643  12.252  15.249  1.00  0.00    -0.038 A 
BRANCH  17  18
ATOM     18  C   UNL     1      12.663  13.740  15.033  1.00  0.00     0.135 C 
BRANCH  18  19
ATOM     19  C   UNL     1      12.456  14.053  13.583  1.00  0.00     0.221 C 
ATOM     20  N   UNL     1      13.477  13.762  12.628  1.00  0.00    -0.369 N 
ATOM     21  O   UNL     1      11.360  14.541  13.197  1.00  0.00    -0.275 OA
ATOM     22  H   UNL     1      13.324  13.966  11.616  1.00  0.00     0.159 HD
ATOM     23  H   UNL     1      14.384  13.341  12.930  1.00  0.00     0.159 HD
ENDBRANCH  18  19
ENDBRANCH  17  18
ENDBRANCH  11  12
ENDBRANCH   1  11
TORSDOF 9
ENDMDL
MODEL 7
REMARK VINA RESULT:    -6.071      9.255     11.477
REMARK INTER + INTRA:         -10.208
REMARK INTER:                  -9.795
REMARK INTRA:                  -0.413
REMARK UNBOUND:                -1.121
REMARK SMILES CC(C)NCC(O)COc1ccc(CC(N)=O)cc1
REMARK SMILES IDX 8 1 6 2 5 3 4 4 2 6 1 7 3 8 7 9 9 11 10 12 11 13 19 14 12 15
REMARK SMILES IDX 18 16 13 17 14 18 15 19 16 20 17 21
REMARK H PARENT 4 5 7 10 16 22 16 23
REMARK Flexibility Score: inf
ROOT
ATOM      1  C   UNL     1      23.750   6.910  15.650  1.00  0.00     0.262 C 
ENDROOT
BRANCH   1   2
ATOM      2  C   UNL     1      23.429   8.318  15.123  1.00  0.00     0.165 C 
BRANCH   2   3
ATOM      3  C   UNL     1      23.551   9.385  16.225  1.00  0.00     0.116 C 
BRANCH   3   4
ATOM      4  N   UNL     1      22.326  10.197  16.312  1.00  0.00    -0.312 NA
ATOM      5  H   UNL     1      21.571   9.566  16.669  1.00  0.00     0.123 HD
BRANCH   4   6
ATOM      6  C   UNL     1      22.489  11.330  17.246  1.00  0.00     0.047 C 
ATOM      7  C   UNL     1      22.881  12.595  16.470  1.00  0.00     0.024 C 
ATOM      8  C   UNL     1      21.181  11.589  18.012  1.00  0.00     0.024 C 
ENDBRANCH   4   6
ENDBRANCH   3   4
ENDBRANCH   2   3
BRANCH   2   9
ATOM      9  O   UNL     1      22.134   8.326  14.580  1.00  0.00    -0.388 OA
ATOM     10  H   UNL     1      21.533   8.701  15.275  1.00  0.00     0.211 HD
ENDBRANCH   2   9
ENDBRANCH   1   2
BRANCH   1  11
ATOM     11  O   UNL     1      22.564   6.258  16.103  1.00  0.00    -0.491 OA
BRANCH  11  12
ATOM     12  C   UNL     1      22.274   5.919  17.435  1.00  0.00     0.119 A 
ATOM     13  C   UNL     1      21.686   6.823  18.342  1.00  0.00     0.047 A 
ATOM     14  C   UNL     1      22.583   4.624  17.869  1.00  0.00     0.047 A 
ATOM     15  C   UNL     1      21.420   6.429  19.657  1.00  0.00     0.008 A 
ATOM     16  C   UNL     1      22.318   4.230  19.183  1.00  0.00     0.008 A 
ATOM     17  C   UNL     1      21.724   5.128  20.084  1.00  0.00    -0.038 A 
BRANCH  17  18
ATOM     18  C   UNL     1      21.469   4.718  21.508  1.00  0.00     0.135 C 
BRANCH  18  19
ATOM     19  C   UNL     1      20.615   5.740  22.194  1.00  0.00     0.221 C 
ATOM     20  N   UNL     1      19.203   5.760  21.981  1.00  0.00    -0.369 N 
ATOM     21  O   UNL     1      21.139   6.561  22.992  1.00  0.00    -0.275 OA
ATOM     22  H   UNL     1      18.607   6.463  22.473  1.00  0.00     0.159 HD
ATOM     23  H   UNL     1      18.751   5.074  21.337  1.00  0.00     0.159 HD
ENDBRANCH  18  19
ENDBRANCH  17  18
ENDBRANCH  11  12
ENDBRANCH   1  11
TORSDOF 9
ENDMDL
MODEL 8
REMARK VINA RESULT:    -6.067      2.760      4.157
REMARK INTER + INTRA:         -10.202
REMARK INTER:                  -9.188
REMARK INTRA:                  -1.015
REMARK UNBOUND:                -1.121
REMARK SMILES CC(C)NCC(O)COc1ccc(CC(N)=O)cc1
REMARK SMILES IDX 8 1 6 2 5 3 4 4 2 6 1 7 3 8 7 9 9 11 10 12 11 13 19 14 12 15
REMARK SMILES IDX 18 16 13 17 14 18 15 19 16 20 17 21
REMARK H PARENT 4 5 7 10 16 22 16 23
REMARK Flexibility Score: inf
ROOT
ATOM      1  C   UNL     1      12.511   7.952  16.123  1.00  0.00     0.262 C 
ENDROOT
BRANCH   1   2
ATOM      2  C   UNL     1      12.237   7.392  17.528  1.00  0.00     0.165 C 
BRANCH   2   3
ATOM      3  C   UNL     1      11.334   8.329  18.352  1.00  0.00     0.116 C 
BRANCH   3   4
ATOM      4  N   UNL     1      10.137   8.716  17.587  1.00  0.00    -0.312 NA
ATOM      5  H   UNL     1       9.327   8.214  18.022  1.00  0.00     0.123 HD
BRANCH   4   6
ATOM      6  C   UNL     1       9.895  10.172  17.654  1.00  0.00     0.047 C 
ATOM      7  C   UNL     1       8.419  10.440  17.979  1.00  0.00     0.024 C 
ATOM      8  C   UNL     1      10.778  10.815  18.736  1.00  0.00     0.024 C 
ENDBRANCH   4   6
ENDBRANCH   3   4
ENDBRANCH   2   3
BRANCH   2   9
ATOM      9  O   UNL     1      13.457   7.186  18.192  1.00  0.00    -0.388 OA
ATOM     10  H   UNL     1      14.171   7.530  17.595  1.00  0.00     0.211 HD
ENDBRANCH   2   9
ENDBRANCH   1   2
BRANCH   1  11
ATOM     11  O   UNL     1      13.714   8.722  16.112  1.00  0.00    -0.491 OA
BRANCH  11  12
ATOM     12  C   UNL     1      13.821  10.077  16.465  1.00  0.00     0.119 A 
ATOM     13  C   UNL     1      13.066  11.091  15.843  1.00  0.00     0.047 A 
ATOM     14  C   UNL     1      14.716  10.424  17.485  1.00  0.00     0.047 A 
ATOM     15  C   UNL     1      13.214  12.423  16.237  1.00  0.00     0.008 A 
ATOM     16  C   UNL     1      14.865  11.756  17.879  1.00  0.00     0.008 A 
ATOM     17  C   UNL     1      14.107  12.765  17.265  1.00  0.00    -0.038 A 
BRANCH  17  18
ATOM     18  C   UNL     1      14.290  14.203  17.663  1.00  0.00     0.135 C 
BRANCH  18  19
ATOM     19  C   UNL     1      15.376  14.831  16.845  1.00  0.00     0.221 C 
ATOM     20  N   UNL     1      15.062  15.514  15.631  1.00  0.00    -0.369 N 
ATOM     21  O   UNL     1      16.568  14.790  17.249  1.00  0.00    -0.275 OA
ATOM     22  H   UNL     1      15.819  15.965  15.071  1.00  0.00     0.159 HD
ATOM     23  H   UNL     1      14.076  15.573  15.293  1.00  0.00     0.159 HD
ENDBRANCH  18  19
ENDBRANCH  17  18
ENDBRANCH  11  12
ENDBRANCH   1  11
TORSDOF 9
ENDMDL
MODEL 9
REMARK VINA RESULT:    -5.971      2.023      6.896
REMARK INTER + INTRA:         -10.059
REMARK INTER:                  -9.134
REMARK INTRA:                  -0.925
REMARK UNBOUND:                -1.121
REMARK SMILES CC(C)NCC(O)COc1ccc(CC(N)=O)cc1
REMARK SMILES IDX 8 1 6 2 5 3 4 4 2 6 1 7 3 8 7 9 9 11 10 12 11 13 19 14 12 15
REMARK SMILES IDX 18 16 13 17 14 18 15 19 16 20 17 21
REMARK H PARENT 4 5 7 10 16 22 16 23
REMARK Flexibility Score: inf
ROOT
ATOM      1  C   UNL     1       9.988  13.584  13.863  1.00  0.00     0.262 C 
ENDROOT
BRANCH   1   2
ATOM      2  C   UNL     1       9.966  14.585  12.697  1.00  0.00     0.165 C 
BRANCH   2   3
ATOM      3  C   UNL     1      10.217  13.895  11.344  1.00  0.00     0.116 C 
BRANCH   3   4
ATOM      4  N   UNL     1      11.184  12.794  11.485  1.00  0.00    -0.312 NA
ATOM      5  H   UNL     1      10.744  11.949  11.049  1.00  0.00     0.123 HD
BRANCH   4   6
ATOM      6  C   UNL     1      12.453  13.090  10.788  1.00  0.00     0.047 C 
ATOM      7  C   UNL     1      12.249  14.253   9.806  1.00  0.00     0.024 C 
ATOM      8  C   UNL     1      13.548  13.465  11.799  1.00  0.00     0.024 C 
ENDBRANCH   4   6
ENDBRANCH   3   4
ENDBRANCH   2   3
BRANCH   2   9
ATOM      9  O   UNL     1      10.931  15.581  12.922  1.00  0.00    -0.388 OA
ATOM     10  H   UNL     1      10.905  16.188  12.138  1.00  0.00     0.211 HD
ENDBRANCH   2   9
ENDBRANCH   1   2
BRANCH   1  11
ATOM     11  O   UNL     1      11.277  13.552  14.477  1.00  0.00    -0.491 OA
BRANCH  11  12
ATOM     12  C   UNL     1      11.924  12.404  14.963  1.00  0.00     0.119 A 
ATOM     13  C   UNL     1      11.569  11.100  14.562  1.00  0.00     0.047 A 
ATOM     14  C   UNL     1      12.967  12.574  15.882  1.00  0.00     0.047 A 
ATOM     15  C   UNL     1      12.249   9.995  15.080  1.00  0.00     0.008 A 
ATOM     16  C   UNL     1      13.647  11.468  16.399  1.00  0.00     0.008 A 
ATOM     17  C   UNL     1      13.299  10.170  15.994  1.00  0.00    -0.038 A 
BRANCH  17  18
ATOM     18  C   UNL     1      14.007   8.977  16.575  1.00  0.00     0.135 C 
BRANCH  18  19
ATOM     19  C   UNL     1      13.263   8.470  17.773  1.00  0.00     0.221 C 
ATOM     20  N   UNL     1      13.482   7.142  18.249  1.00  0.00    -0.369 N 
ATOM     21  O   UNL     1      12.470   9.232  18.387  1.00  0.00    -0.275 OA
ATOM     22  H   UNL     1      12.974   6.796  19.094  1.00  0.00     0.159 HD
ATOM     23  H   UNL     1      14.150   6.505  17.762  1.00  0.00     0.159 HD
ENDBRANCH  18  19
ENDBRANCH  17  18
ENDBRANCH  11  12
ENDBRANCH   1  11
TORSDOF 9
ENDMDL
MODEL 10
REMARK VINA RESULT:    -5.969      3.022      5.294
REMARK INTER + INTRA:         -10.055
REMARK INTER:                  -9.261
REMARK INTRA:                  -0.795
REMARK UNBOUND:                -1.121
REMARK SMILES CC(C)NCC(O)COc1ccc(CC(N)=O)cc1
REMARK SMILES IDX 8 1 6 2 5 3 4 4 2 6 1 7 3 8 7 9 9 11 10 12 11 13 19 14 12 15
REMARK SMILES IDX 18 16 13 17 14 18 15 19 16 20 17 21
REMARK H PARENT 4 5 7 10 16 22 16 23
REMARK Flexibility Score: inf
ROOT
ATOM      1  C   UNL     1      12.691   9.430  15.612  1.00  0.00     0.262 C 
ENDROOT
BRANCH   1   2
ATOM      2  C   UNL     1      12.390   8.181  16.455  1.00  0.00     0.165 C 
BRANCH   2   3
ATOM      3  C   UNL     1      11.540   8.517  17.694  1.00  0.00     0.116 C 
BRANCH   3   4
ATOM      4  N   UNL     1      10.151   8.824  17.314  1.00  0.00    -0.312 NA
ATOM      5  H   UNL     1       9.569   8.006  17.611  1.00  0.00     0.123 HD
BRANCH   4   6
ATOM      6  C   UNL     1       9.657  10.039  17.994  1.00  0.00     0.047 C 
ATOM      7  C   UNL     1       8.123  10.022  18.042  1.00  0.00     0.024 C 
ATOM      8  C   UNL     1      10.208  10.116  19.427  1.00  0.00     0.024 C 
ENDBRANCH   4   6
ENDBRANCH   3   4
ENDBRANCH   2   3
BRANCH   2   9
ATOM      9  O   UNL     1      13.599   7.581  16.844  1.00  0.00    -0.388 OA
ATOM     10  H   UNL     1      13.966   7.127  16.041  1.00  0.00     0.211 HD
ENDBRANCH   2   9
ENDBRANCH   1   2
BRANCH   1  11
ATOM     11  O   UNL     1      12.549  10.615  16.396  1.00  0.00    -0.491 OA
BRANCH  11  12
ATOM     12  C   UNL     1      13.603  11.385  16.914  1.00  0.00     0.119 A 
ATOM     13  C   UNL     1      14.719  10.817  17.559  1.00  0.00     0.047 A 
ATOM     14  C   UNL     1      13.535  12.777  16.773  1.00  0.00     0.047 A 
ATOM     15  C   UNL     1      15.739  11.634  18.055  1.00  0.00     0.008 A 
ATOM     16  C   UNL     1      14.555  13.594  17.268  1.00  0.00     0.008 A 
ATOM     17  C   UNL     1      15.670  13.027  17.904  1.00  0.00    -0.038 A 
BRANCH  17  18
ATOM     18  C   UNL     1      16.752  13.906  18.467  1.00  0.00     0.135 C 
BRANCH  18  19
ATOM     19  C   UNL     1      18.003  13.769  17.655  1.00  0.00     0.221 C 
ATOM     20  N   UNL     1      19.087  12.969  18.128  1.00  0.00    -0.369 N 
ATOM     21  O   UNL     1      18.085  14.331  16.531  1.00  0.00    -0.275 OA
ATOM     22  H   UNL     1      19.952  12.862  17.553  1.00  0.00     0.159 HD
ATOM     23  H   UNL     1      19.027  12.482  19.050  1.00  0.00     0.159 HD
ENDBRANCH  18  19
ENDBRANCH  17  18
ENDBRANCH  11  12
ENDBRANCH   1  11
TORSDOF 9
ENDMDL
MODEL 11
REMARK VINA RESULT:    -5.957      1.419      1.667
REMARK INTER + INTRA:         -10.038
REMARK INTER:                  -9.075
REMARK INTRA:                  -0.963
REMARK UNBOUND:                -1.121
REMARK SMILES CC(C)NCC(O)COc1ccc(CC(N)=O)cc1
REMARK SMILES IDX 8 1 6 2 5 3 4 4 2 6 1 7 3 8 7 9 9 11 10 12 11 13 19 14 12 15
REMARK SMILES IDX 18 16 13 17 14 18 15 19 16 20 17 21
REMARK H PARENT 4 5 7 10 16 22 16 23
REMARK Flexibility Score: inf
ROOT
ATOM      1  C   UNL     1      10.943   8.699  18.317  1.00  0.00     0.262 C 
ENDROOT
BRANCH   1   2
ATOM      2  C   UNL     1      11.945   7.536  18.380  1.00  0.00     0.165 C 
BRANCH   2   3
ATOM      3  C   UNL     1      13.311   7.986  18.931  1.00  0.00     0.116 C 
BRANCH   3   4
ATOM      4  N   UNL     1      14.088   8.695  17.900  1.00  0.00    -0.312 NA
ATOM      5  H   UNL     1      13.414   8.959  17.143  1.00  0.00     0.123 HD
BRANCH   4   6
ATOM      6  C   UNL     1      14.713   9.921  18.437  1.00  0.00     0.047 C 
ATOM      7  C   UNL     1      14.616  11.052  17.404  1.00  0.00     0.024 C 
ATOM      8  C   UNL     1      14.015  10.357  19.735  1.00  0.00     0.024 C 
ENDBRANCH   4   6
ENDBRANCH   3   4
ENDBRANCH   2   3
BRANCH   2   9
ATOM      9  O   UNL     1      12.096   6.983  17.098  1.00  0.00    -0.388 OA
ATOM     10  H   UNL     1      11.201   6.663  16.816  1.00  0.00     0.211 HD
ENDBRANCH   2   9
ENDBRANCH   1   2
BRANCH   1  11
ATOM     11  O   UNL     1      10.581   8.981  16.964  1.00  0.00    -0.491 OA
BRANCH  11  12
ATOM     12  C   UNL     1      10.987  10.105  16.226  1.00  0.00     0.119 A 
ATOM     13  C   UNL     1      10.473  11.396  16.456  1.00  0.00     0.047 A 
ATOM     14  C   UNL     1      11.949   9.924  15.224  1.00  0.00     0.047 A 
ATOM     15  C   UNL     1      10.916  12.478  15.689  1.00  0.00     0.008 A 
ATOM     16  C   UNL     1      12.392  11.005  14.458  1.00  0.00     0.008 A 
ATOM     17  C   UNL     1      11.886  12.293  14.692  1.00  0.00    -0.038 A 
BRANCH  17  18
ATOM     18  C   UNL     1      12.335  13.452  13.846  1.00  0.00     0.135 C 
BRANCH  18  19
ATOM     19  C   UNL     1      12.385  13.049  12.404  1.00  0.00     0.221 C 
ATOM     20  N   UNL     1      11.199  12.630  11.730  1.00  0.00    -0.369 N 
ATOM     21  O   UNL     1      13.473  13.117  11.772  1.00  0.00    -0.275 OA
ATOM     22  H   UNL     1      11.233  12.365  10.720  1.00  0.00     0.159 HD
ATOM     23  H   UNL     1      10.286  12.586  12.235  1.00  0.00     0.159 HD
ENDBRANCH  18  19
ENDBRANCH  17  18
ENDBRANCH  11  12
ENDBRANCH   1  11
TORSDOF 9
ENDMDL
MODEL 12
REMARK VINA RESULT:    -5.885      2.582      5.140
REMARK INTER + INTRA:          -9.930
REMARK INTER:                  -8.865
REMARK INTRA:                  -1.065
REMARK UNBOUND:                -1.121
REMARK SMILES CC(C)NCC(O)COc1ccc(CC(N)=O)cc1
REMARK SMILES IDX 8 1 6 2 5 3 4 4 2 6 1 7 3 8 7 9 9 11 10 12 11 13 19 14 12 15
REMARK SMILES IDX 18 16 13 17 14 18 15 19 16 20 17 21
REMARK H PARENT 4 5 7 10 16 22 16 23
REMARK Flexibility Score: inf
ROOT
ATOM      1  C   UNL     1      12.247   8.069  18.784  1.00  0.00     0.262 C 
ENDROOT
BRANCH   1   2
ATOM      2  C   UNL     1      12.178   7.403  17.400  1.00  0.00     0.165 C 
BRANCH   2   3
ATOM      3  C   UNL     1      11.734   8.393  16.308  1.00  0.00     0.116 C 
BRANCH   3   4
ATOM      4  N   UNL     1      10.713   9.322  16.821  1.00  0.00    -0.312 NA
ATOM      5  H   UNL     1      10.812   9.333  17.864  1.00  0.00     0.123 HD
BRANCH   4   6
ATOM      6  C   UNL     1      10.914  10.691  16.304  1.00  0.00     0.047 C 
ATOM      7  C   UNL     1      11.377  11.614  17.439  1.00  0.00     0.024 C 
ATOM      8  C   UNL     1      11.967  10.695  15.184  1.00  0.00     0.024 C 
ENDBRANCH   4   6
ENDBRANCH   3   4
ENDBRANCH   2   3
BRANCH   2   9
ATOM      9  O   UNL     1      11.296   6.311  17.454  1.00  0.00    -0.388 OA
ATOM     10  H   UNL     1      11.146   6.016  16.519  1.00  0.00     0.211 HD
ENDBRANCH   2   9
ENDBRANCH   1   2
BRANCH   1  11
ATOM     11  O   UNL     1      13.599   8.367  19.134  1.00  0.00    -0.491 OA
BRANCH  11  12
ATOM     12  C   UNL     1      14.230   9.612  18.977  1.00  0.00     0.119 A 
ATOM     13  C   UNL     1      14.675  10.091  17.729  1.00  0.00     0.047 A 
ATOM     14  C   UNL     1      14.415  10.405  20.116  1.00  0.00     0.047 A 
ATOM     15  C   UNL     1      15.295  11.339  17.634  1.00  0.00     0.008 A 
ATOM     16  C   UNL     1      15.036  11.654  20.021  1.00  0.00     0.008 A 
ATOM     17  C   UNL     1      15.472  12.135  18.777  1.00  0.00    -0.038 A 
BRANCH  17  18
ATOM     18  C   UNL     1      16.170  13.462  18.677  1.00  0.00     0.135 C 
BRANCH  18  19
ATOM     19  C   UNL     1      17.528  13.286  18.069  1.00  0.00     0.221 C 
ATOM     20  N   UNL     1      18.479  12.405  18.669  1.00  0.00    -0.369 N 
ATOM     21  O   UNL     1      17.821  13.887  17.002  1.00  0.00    -0.275 OA
ATOM     22  H   UNL     1      19.419  12.271  18.235  1.00  0.00     0.159 HD
ATOM     23  H   UNL     1      18.245  11.885  19.544  1.00  0.00     0.159 HD
ENDBRANCH  18  19
ENDBRANCH  17  18
ENDBRANCH  11  12
ENDBRANCH   1  11
TORSDOF 9
ENDMDL
MODEL 13
REMARK VINA RESULT:    -5.871      2.430      3.272
REMARK INTER + INTRA:          -9.909
REMARK INTER:                  -8.607
REMARK INTRA:                  -1.302
REMARK UNBOUND:                -1.121
REMARK SMILES CC(C)NCC(O)COc1ccc(CC(N)=O)cc1
REMARK SMILES IDX 8 1 6 2 5 3 4 4 2 6 1 7 3 8 7 9 9 11 10 12 11 13 19 14 12 15
REMARK SMILES IDX 18 16 13 17 14 18 15 19 16 20 17 21
REMARK H PARENT 4 5 7 10 16 22 16 23
REMARK Flexibility Score: inf
ROOT
ATOM      1  C   UNL     1      10.039  11.223  18.157  1.00  0.00     0.262 C 
ENDROOT
BRANCH   1   2
ATOM      2  C   UNL     1       9.991   9.734  18.535  1.00  0.00     0.165 C 
BRANCH   2   3
ATOM      3  C   UNL     1      11.399   9.122  18.634  1.00  0.00     0.116 C 
BRANCH   3   4
ATOM      4  N   UNL     1      11.801   8.512  17.355  1.00  0.00    -0.312 NA
ATOM      5  H   UNL     1      11.417   9.124  16.596  1.00  0.00     0.123 HD
BRANCH   4   6
ATOM      6  C   UNL     1      13.271   8.444  17.221  1.00  0.00     0.047 C 
ATOM      7  C   UNL     1      13.688   8.888  15.812  1.00  0.00     0.024 C 
ATOM      8  C   UNL     1      13.948   9.352  18.261  1.00  0.00     0.024 C 
ENDBRANCH   4   6
ENDBRANCH   3   4
ENDBRANCH   2   3
BRANCH   2   9
ATOM      9  O   UNL     1       9.224   9.039  17.585  1.00  0.00    -0.388 OA
ATOM     10  H   UNL     1       9.804   8.903  16.792  1.00  0.00     0.211 HD
ENDBRANCH   2   9
ENDBRANCH   1   2
BRANCH   1  11
ATOM     11  O   UNL     1      11.339  11.584  17.690  1.00  0.00    -0.491 OA
BRANCH  11  12
ATOM     12  C   UNL     1      11.663  11.951  16.373  1.00  0.00     0.119 A 
ATOM     13  C   UNL     1      12.649  12.910  16.068  1.00  0.00     0.047 A 
ATOM     14  C   UNL     1      10.972  11.328  15.326  1.00  0.00     0.047 A 
ATOM     15  C   UNL     1      12.928  13.235  14.738  1.00  0.00     0.008 A 
ATOM     16  C   UNL     1      11.251  11.653  13.996  1.00  0.00     0.008 A 
ATOM     17  C   UNL     1      12.239  12.602  13.692  1.00  0.00    -0.038 A 
BRANCH  17  18
ATOM     18  C   UNL     1      12.518  12.978  12.263  1.00  0.00     0.135 C 
BRANCH  18  19
ATOM     19  C   UNL     1      11.285  13.547  11.630  1.00  0.00     0.221 C 
ATOM     20  N   UNL     1      10.832  14.855  11.978  1.00  0.00    -0.369 N 
ATOM     21  O   UNL     1      10.665  12.883  10.757  1.00  0.00    -0.275 OA
ATOM     22  H   UNL     1       9.982  15.256  11.523  1.00  0.00     0.159 HD
ATOM     23  H   UNL     1      11.346  15.426  12.686  1.00  0.00     0.159 HD
ENDBRANCH  18  19
ENDBRANCH  17  18
ENDBRANCH  11  12
ENDBRANCH   1  11
TORSDOF 9
ENDMDL
MODEL 14
REMARK VINA RESULT:    -5.785      2.094      3.600
REMARK INTER + INTRA:          -9.780
REMARK INTER:                  -8.737
REMARK INTRA:                  -1.043
REMARK UNBOUND:                -1.121
REMARK SMILES CC(C)NCC(O)COc1ccc(CC(N)=O)cc1
REMARK SMILES IDX 8 1 6 2 5 3 4 4 2 6 1 7 3 8 7 9 9 11 10 12 11 13 19 14 12 15
REMARK SMILES IDX 18 16 13 17 14 18 15 19 16 20 17 21
REMARK H PARENT 4 5 7 10 16 22 16 23
REMARK Flexibility Score: inf
ROOT
ATOM      1  C   UNL     1      13.342   9.235  21.311  1.00  0.00     0.262 C 
ENDROOT
BRANCH   1   2
ATOM      2  C   UNL     1      13.670   7.839  20.759  1.00  0.00     0.165 C 
BRANCH   2   3
ATOM      3  C   UNL     1      12.793   7.480  19.546  1.00  0.00     0.116 C 
BRANCH   3   4
ATOM      4  N   UNL     1      13.593   7.435  18.311  1.00  0.00    -0.312 NA
ATOM      5  H   UNL     1      13.704   6.424  18.060  1.00  0.00     0.123 HD
BRANCH   4   6
ATOM      6  C   UNL     1      12.919   8.137  17.199  1.00  0.00     0.047 C 
ATOM      7  C   UNL     1      13.900   8.334  16.035  1.00  0.00     0.024 C 
ATOM      8  C   UNL     1      11.707   7.328  16.709  1.00  0.00     0.024 C 
ENDBRANCH   4   6
ENDBRANCH   3   4
ENDBRANCH   2   3
BRANCH   2   9
ATOM      9  O   UNL     1      13.503   6.886  21.778  1.00  0.00    -0.388 OA
ATOM     10  H   UNL     1      14.282   6.274  21.730  1.00  0.00     0.211 HD
ENDBRANCH   2   9
ENDBRANCH   1   2
BRANCH   1  11
ATOM     11  O   UNL     1      14.126  10.234  20.656  1.00  0.00    -0.491 OA
BRANCH  11  12
ATOM     12  C   UNL     1      13.847  10.798  19.400  1.00  0.00     0.119 A 
ATOM     13  C   UNL     1      14.838  11.008  18.420  1.00  0.00     0.047 A 
ATOM     14  C   UNL     1      12.524  11.159  19.118  1.00  0.00     0.047 A 
ATOM     15  C   UNL     1      14.501  11.573  17.187  1.00  0.00     0.008 A 
ATOM     16  C   UNL     1      12.187  11.725  17.885  1.00  0.00     0.008 A 
ATOM     17  C   UNL     1      13.172  11.926  16.906  1.00  0.00    -0.038 A 
BRANCH  17  18
ATOM     18  C   UNL     1      12.818  12.566  15.592  1.00  0.00     0.135 C 
BRANCH  18  19
ATOM     19  C   UNL     1      11.601  11.912  15.012  1.00  0.00     0.221 C 
ATOM     20  N   UNL     1      11.670  10.579  14.505  1.00  0.00    -0.369 N 
ATOM     21  O   UNL     1      10.502  12.528  15.006  1.00  0.00    -0.275 OA
ATOM     22  H   UNL     1      10.816  10.120  14.116  1.00  0.00     0.159 HD
ATOM     23  H   UNL     1      12.569  10.049  14.520  1.00  0.00     0.159 HD
ENDBRANCH  18  19
ENDBRANCH  17  18
ENDBRANCH  11  12
ENDBRANCH   1  11
TORSDOF 9
ENDMDL
MODEL 15
REMARK VINA RESULT:    -5.771      2.344      3.616
REMARK INTER + INTRA:          -9.759
REMARK INTER:                  -8.774
REMARK INTRA:                  -0.985
REMARK UNBOUND:                -1.121
REMARK SMILES CC(C)NCC(O)COc1ccc(CC(N)=O)cc1
REMARK SMILES IDX 8 1 6 2 5 3 4 4 2 6 1 7 3 8 7 9 9 11 10 12 11 13 19 14 12 15
REMARK SMILES IDX 18 16 13 17 14 18 15 19 16 20 17 21
REMARK H PARENT 4 5 7 10 16 22 16 23
REMARK Flexibility Score: inf
ROOT
ATOM      1  C   UNL     1      12.219   8.589  16.126  1.00  0.00     0.262 C 
ENDROOT
BRANCH   1   2
ATOM      2  C   UNL     1      11.722   7.696  17.275  1.00  0.00     0.165 C 
BRANCH   2   3
ATOM      3  C   UNL     1      10.850   8.477  18.274  1.00  0.00     0.116 C 
BRANCH   3   4
ATOM      4  N   UNL     1       9.711   9.115  17.593  1.00  0.00    -0.312 NA
ATOM      5  H   UNL     1       8.912   8.439  17.645  1.00  0.00     0.123 HD
BRANCH   4   6
ATOM      6  C   UNL     1       9.318  10.377  18.255  1.00  0.00     0.047 C 
ATOM      7  C   UNL     1       9.440  11.544  17.266  1.00  0.00     0.024 C 
ATOM      8  C   UNL     1       7.869  10.290  18.762  1.00  0.00     0.024 C 
ENDBRANCH   4   6
ENDBRANCH   3   4
ENDBRANCH   2   3
BRANCH   2   9
ATOM      9  O   UNL     1      12.827   7.130  17.933  1.00  0.00    -0.388 OA
ATOM     10  H   UNL     1      12.483   6.367  18.467  1.00  0.00     0.211 HD
ENDBRANCH   2   9
ENDBRANCH   1   2
BRANCH   1  11
ATOM     11  O   UNL     1      12.644   9.859  16.622  1.00  0.00    -0.491 OA
BRANCH  11  12
ATOM     12  C   UNL     1      12.662  11.058  15.891  1.00  0.00     0.119 A 
ATOM     13  C   UNL     1      13.263  12.238  16.373  1.00  0.00     0.047 A 
ATOM     14  C   UNL     1      12.058  11.069  14.628  1.00  0.00     0.047 A 
ATOM     15  C   UNL     1      13.250  13.402  15.600  1.00  0.00     0.008 A 
ATOM     16  C   UNL     1      12.046  12.233  13.855  1.00  0.00     0.008 A 
ATOM     17  C   UNL     1      12.651  13.406  14.331  1.00  0.00    -0.038 A 
BRANCH  17  18
ATOM     18  C   UNL     1      12.609  14.669  13.516  1.00  0.00     0.135 C 
BRANCH  18  19
ATOM     19  C   UNL     1      13.821  14.758  12.641  1.00  0.00     0.221 C 
ATOM     20  N   UNL     1      13.824  14.153  11.347  1.00  0.00    -0.369 N 
ATOM     21  O   UNL     1      14.830  15.403  13.031  1.00  0.00    -0.275 OA
ATOM     22  H   UNL     1      14.664  14.231  10.732  1.00  0.00     0.159 HD
ATOM     23  H   UNL     1      12.988  13.631  11.002  1.00  0.00     0.159 HD
ENDBRANCH  18  19
ENDBRANCH  17  18
ENDBRANCH  11  12
ENDBRANCH   1  11
TORSDOF 9
ENDMDL
