MODEL 1
REMARK VINA RESULT:    -6.568      0.000      0.000
REMARK INTER + INTRA:         -10.161
REMARK INTER:                  -8.680
REMARK INTRA:                  -1.481
REMARK UNBOUND:                -1.481
REMARK SMILES OC(CCN1CCCCC1)(c1ccccc1)C1CCCCC1
REMARK SMILES IDX 3 1 2 2 1 3 17 5 18 6 22 7 19 8 21 9 20 10 11 11 12 12 16 13
REMARK SMILES IDX 13 14 15 15 14 16 4 17 5 18 6 19 10 20 7 21 9 22 8 23
REMARK H PARENT 1 4
REMARK Flexibility Score: inf
ROOT
ATOM      1  C   UNL     1      26.651  22.743  10.090  1.00  0.00     0.056 C 
ENDROOT
BRANCH   1   2
ATOM      2  C   UNL     1      27.012  22.144   8.682  1.00  0.00     0.094 C 
BRANCH   2   3
ATOM      3  O   UNL     1      25.919  22.323   7.807  1.00  0.00    -0.385 OA
ATOM      4  H   UNL     1      26.266  22.472   6.890  1.00  0.00     0.211 HD
ENDBRANCH   2   3
BRANCH   2   5
ATOM      5  C   UNL     1      28.237  22.921   8.065  1.00  0.00     0.025 C 
ATOM      6  C   UNL     1      28.230  22.888   6.507  1.00  0.00     0.007 C 
ATOM      7  C   UNL     1      28.377  24.385   8.601  1.00  0.00     0.007 C 
ATOM      8  C   UNL     1      29.170  23.944   5.917  1.00  0.00     0.000 C 
ATOM      9  C   UNL     1      27.912  25.440   7.587  1.00  0.00     0.000 C 
ATOM     10  C   UNL     1      28.725  25.372   6.282  1.00  0.00     0.000 C 
ENDBRANCH   2   5
BRANCH   2  11
ATOM     11  C   UNL     1      27.374  20.651   8.816  1.00  0.00    -0.016 A 
ATOM     12  C   UNL     1      28.284  20.196   9.796  1.00  0.00     0.007 A 
ATOM     13  C   UNL     1      26.741  19.690   7.996  1.00  0.00     0.007 A 
ATOM     14  C   UNL     1      28.578  18.835   9.919  1.00  0.00     0.000 A 
ATOM     15  C   UNL     1      27.041  18.331   8.125  1.00  0.00     0.000 A 
ATOM     16  C   UNL     1      27.962  17.904   9.082  1.00  0.00     0.000 A 
ENDBRANCH   2  11
ENDBRANCH   1   2
BRANCH   1  17
ATOM     17  C   UNL     1      25.162  23.107  10.284  1.00  0.00     0.088 C 
BRANCH  17  18
ATOM     18  N   UNL     1      24.385  21.903  10.658  1.00  0.00    -0.303 NA
ATOM     19  C   UNL     1      23.102  22.288  11.285  1.00  0.00     0.084 C 
ATOM     20  C   UNL     1      25.158  21.036  11.576  1.00  0.00     0.084 C 
ATOM     21  C   UNL     1      22.253  21.046  11.581  1.00  0.00     0.016 C 
ATOM     22  C   UNL     1      24.386  19.748  11.874  1.00  0.00     0.016 C 
ATOM     23  C   UNL     1      23.018  20.072  12.478  1.00  0.00     0.003 C 
ENDBRANCH  17  18
ENDBRANCH   1  17
TORSDOF 6
ENDMDL
MODEL 2
REMARK VINA RESULT:    -6.531      3.284      5.436
REMARK INTER + INTRA:         -10.112
REMARK INTER:                  -9.035
REMARK INTRA:                  -1.077
REMARK UNBOUND:                -1.481
REMARK SMILES OC(CCN1CCCCC1)(c1ccccc1)C1CCCCC1
REMARK SMILES IDX 3 1 2 2 1 3 17 5 18 6 22 7 19 8 21 9 20 10 11 11 12 12 16 13
REMARK SMILES IDX 13 14 15 15 14 16 4 17 5 18 6 19 10 20 7 21 9 22 8 23
REMARK H PARENT 1 4
REMARK Flexibility Score: inf
ROOT
ATOM      1  C   UNL     1      30.278  22.282   7.891  1.00  0.00     0.056 C 
ENDROOT
BRANCH   1   2
ATOM      2  C   UNL     1      30.610  23.409   6.848  1.00  0.00     0.094 C 
BRANCH   2   3
ATOM      3  O   UNL     1      29.406  23.982   6.383  1.00  0.00    -0.385 OA
ATOM      4  H   UNL     1      29.518  24.966   6.339  1.00  0.00     0.211 HD
ENDBRANCH   2   3
BRANCH   2   5
ATOM      5  C   UNL     1      31.437  24.558   7.542  1.00  0.00     0.025 C 
ATOM      6  C   UNL     1      31.068  25.966   6.986  1.00  0.00     0.007 C 
ATOM      7  C   UNL     1      31.353  24.526   9.105  1.00  0.00     0.007 C 
ATOM      8  C   UNL     1      31.567  27.084   7.906  1.00  0.00     0.000 C 
ATOM      9  C   UNL     1      30.427  25.609   9.676  1.00  0.00     0.000 C 
ATOM     10  C   UNL     1      30.900  27.022   9.292  1.00  0.00     0.000 C 
ENDBRANCH   2   5
BRANCH   2  11
ATOM     11  C   UNL     1      31.432  22.828   5.679  1.00  0.00    -0.016 A 
ATOM     12  C   UNL     1      30.808  22.268   4.543  1.00  0.00     0.007 A 
ATOM     13  C   UNL     1      32.843  22.910   5.693  1.00  0.00     0.007 A 
ATOM     14  C   UNL     1      31.570  21.771   3.482  1.00  0.00     0.000 A 
ATOM     15  C   UNL     1      33.598  22.410   4.628  1.00  0.00     0.000 A 
ATOM     16  C   UNL     1      32.963  21.836   3.527  1.00  0.00     0.000 A 
ENDBRANCH   2  11
ENDBRANCH   1   2
BRANCH   1  17
ATOM     17  C   UNL     1      28.776  21.956   8.046  1.00  0.00     0.088 C 
BRANCH  17  18
ATOM     18  N   UNL     1      28.595  20.530   8.405  1.00  0.00    -0.303 NA
ATOM     19  C   UNL     1      27.224  20.082   8.078  1.00  0.00     0.084 C 
ATOM     20  C   UNL     1      28.873  20.305   9.841  1.00  0.00     0.084 C 
ATOM     21  C   UNL     1      27.066  18.583   8.355  1.00  0.00     0.016 C 
ATOM     22  C   UNL     1      28.782  18.814  10.178  1.00  0.00     0.016 C 
ATOM     23  C   UNL     1      27.401  18.266   9.814  1.00  0.00     0.003 C 
ENDBRANCH  17  18
ENDBRANCH   1  17
TORSDOF 6
ENDMDL
MODEL 3
REMARK VINA RESULT:    -6.495      3.132      5.598
REMARK INTER + INTRA:         -10.064
REMARK INTER:                  -9.049
REMARK INTRA:                  -1.015
REMARK UNBOUND:                -1.481
REMARK SMILES OC(CCN1CCCCC1)(c1ccccc1)C1CCCCC1
REMARK SMILES IDX 3 1 2 2 1 3 17 5 18 6 22 7 19 8 21 9 20 10 11 11 12 12 16 13
REMARK SMILES IDX 13 14 15 15 14 16 4 17 5 18 6 19 10 20 7 21 9 22 8 23
REMARK H PARENT 1 4
REMARK Flexibility Score: inf
ROOT
ATOM      1  C   UNL     1      29.620  22.329   7.572  1.00  0.00     0.056 C 
ENDROOT
BRANCH   1   2
ATOM      2  C   UNL     1      30.290  23.749   7.646  1.00  0.00     0.094 C 
BRANCH   2   3
ATOM      3  O   UNL     1      31.175  23.788   8.745  1.00  0.00    -0.385 OA
ATOM      4  H   UNL     1      31.780  23.004   8.694  1.00  0.00     0.211 HD
ENDBRANCH   2   3
BRANCH   2   5
ATOM      5  C   UNL     1      31.144  24.009   6.347  1.00  0.00     0.025 C 
ATOM      6  C   UNL     1      32.573  24.534   6.678  1.00  0.00     0.007 C 
ATOM      7  C   UNL     1      31.203  22.775   5.386  1.00  0.00     0.007 C 
ATOM      8  C   UNL     1      33.512  24.414   5.474  1.00  0.00     0.000 C 
ATOM      9  C   UNL     1      32.546  22.033   5.446  1.00  0.00     0.000 C 
ATOM     10  C   UNL     1      33.720  22.947   5.056  1.00  0.00     0.000 C 
ENDBRANCH   2   5
BRANCH   2  11
ATOM     11  C   UNL     1      29.209  24.842   7.768  1.00  0.00    -0.016 A 
ATOM     12  C   UNL     1      27.952  24.713   7.136  1.00  0.00     0.007 A 
ATOM     13  C   UNL     1      29.432  25.974   8.583  1.00  0.00     0.007 A 
ATOM     14  C   UNL     1      26.975  25.702   7.281  1.00  0.00     0.000 A 
ATOM     15  C   UNL     1      28.450  26.959   8.722  1.00  0.00     0.000 A 
ATOM     16  C   UNL     1      27.225  26.826   8.069  1.00  0.00     0.000 A 
ENDBRANCH   2  11
ENDBRANCH   1   2
BRANCH   1  17
ATOM     17  C   UNL     1      29.250  21.708   8.938  1.00  0.00     0.088 C 
BRANCH  17  18
ATOM     18  N   UNL     1      28.617  20.383   8.744  1.00  0.00    -0.303 NA
ATOM     19  C   UNL     1      27.219  20.538   8.287  1.00  0.00     0.084 C 
ATOM     20  C   UNL     1      28.658  19.588   9.992  1.00  0.00     0.084 C 
ATOM     21  C   UNL     1      26.595  19.170   7.989  1.00  0.00     0.016 C 
ATOM     22  C   UNL     1      28.094  18.185   9.753  1.00  0.00     0.016 C 
ATOM     23  C   UNL     1      26.660  18.268   9.224  1.00  0.00     0.003 C 
ENDBRANCH  17  18
ENDBRANCH   1  17
TORSDOF 6
ENDMDL
MODEL 4
REMARK VINA RESULT:    -6.395      3.520      8.043
REMARK INTER + INTRA:          -9.932
REMARK INTER:                  -8.783
REMARK INTRA:                  -1.149
REMARK UNBOUND:                -1.481
REMARK SMILES OC(CCN1CCCCC1)(c1ccccc1)C1CCCCC1
REMARK SMILES IDX 3 1 2 2 1 3 17 5 18 6 22 7 19 8 21 9 20 10 11 11 12 12 16 13
REMARK SMILES IDX 13 14 15 15 14 16 4 17 5 18 6 19 10 20 7 21 9 22 8 23
REMARK H PARENT 1 4
REMARK Flexibility Score: inf
ROOT
ATOM      1  C   UNL     1      30.081  23.431   5.446  1.00  0.00     0.056 C 
ENDROOT
BRANCH   1   2
ATOM      2  C   UNL     1      28.792  23.216   6.319  1.00  0.00     0.094 C 
BRANCH   2   3
ATOM      3  O   UNL     1      27.754  22.721   5.500  1.00  0.00    -0.385 OA
ATOM      4  H   UNL     1      28.141  22.086   4.845  1.00  0.00     0.211 HD
ENDBRANCH   2   3
BRANCH   2   5
ATOM      5  C   UNL     1      29.069  22.133   7.430  1.00  0.00     0.025 C 
ATOM      6  C   UNL     1      29.729  22.748   8.700  1.00  0.00     0.007 C 
ATOM      7  C   UNL     1      27.804  21.288   7.801  1.00  0.00     0.007 C 
ATOM      8  C   UNL     1      29.639  21.799   9.899  1.00  0.00     0.000 C 
ATOM      9  C   UNL     1      27.184  21.698   9.144  1.00  0.00     0.000 C 
ATOM     10  C   UNL     1      28.179  21.530  10.306  1.00  0.00     0.000 C 
ENDBRANCH   2   5
BRANCH   2  11
ATOM     11  C   UNL     1      28.379  24.540   6.994  1.00  0.00    -0.016 A 
ATOM     12  C   UNL     1      29.308  25.583   7.205  1.00  0.00     0.007 A 
ATOM     13  C   UNL     1      27.032  24.764   7.354  1.00  0.00     0.007 A 
ATOM     14  C   UNL     1      28.908  26.786   7.794  1.00  0.00     0.000 A 
ATOM     15  C   UNL     1      26.640  25.969   7.944  1.00  0.00     0.000 A 
ATOM     16  C   UNL     1      27.577  26.977   8.168  1.00  0.00     0.000 A 
ENDBRANCH   2  11
ENDBRANCH   1   2
BRANCH   1  17
ATOM     17  C   UNL     1      30.946  22.169   5.234  1.00  0.00     0.088 C 
BRANCH  17  18
ATOM     18  N   UNL     1      32.368  22.545   5.061  1.00  0.00    -0.303 NA
ATOM     19  C   UNL     1      32.613  23.903   5.590  1.00  0.00     0.084 C 
ATOM     20  C   UNL     1      32.766  22.475   3.637  1.00  0.00     0.084 C 
ATOM     21  C   UNL     1      34.103  24.255   5.504  1.00  0.00     0.016 C 
ATOM     22  C   UNL     1      34.261  22.766   3.484  1.00  0.00     0.016 C 
ATOM     23  C   UNL     1      34.601  24.142   4.062  1.00  0.00     0.003 C 
ENDBRANCH  17  18
ENDBRANCH   1  17
TORSDOF 6
ENDMDL
MODEL 5
REMARK VINA RESULT:    -6.234      3.261      6.466
REMARK INTER + INTRA:          -9.720
REMARK INTER:                  -8.649
REMARK INTRA:                  -1.070
REMARK UNBOUND:                -1.481
REMARK SMILES OC(CCN1CCCCC1)(c1ccccc1)C1CCCCC1
REMARK SMILES IDX 3 1 2 2 1 3 17 5 18 6 22 7 19 8 21 9 20 10 11 11 12 12 16 13
REMARK SMILES IDX 13 14 15 15 14 16 4 17 5 18 6 19 10 20 7 21 9 22 8 23
REMARK H PARENT 1 4
REMARK Flexibility Score: inf
ROOT
ATOM      1  C   UNL     1      29.310  22.413   7.108  1.00  0.00     0.056 C 
ENDROOT
BRANCH   1   2
ATOM      2  C   UNL     1      28.603  22.327   8.510  1.00  0.00     0.094 C 
BRANCH   2   3
ATOM      3  O   UNL     1      29.409  22.969   9.476  1.00  0.00    -0.385 OA
ATOM      4  H   UNL     1      30.068  22.316   9.824  1.00  0.00     0.211 HD
ENDBRANCH   2   3
BRANCH   2   5
ATOM      5  C   UNL     1      27.226  23.091   8.466  1.00  0.00     0.025 C 
ATOM      6  C   UNL     1      27.005  23.978   9.729  1.00  0.00     0.007 C 
ATOM      7  C   UNL     1      27.015  23.915   7.152  1.00  0.00     0.007 C 
ATOM      8  C   UNL     1      25.882  24.997   9.513  1.00  0.00     0.000 C 
ATOM      9  C   UNL     1      27.210  25.425   7.354  1.00  0.00     0.000 C 
ATOM     10  C   UNL     1      26.225  25.993   8.389  1.00  0.00     0.000 C 
ENDBRANCH   2   5
BRANCH   2  11
ATOM     11  C   UNL     1      28.353  20.853   8.890  1.00  0.00    -0.016 A 
ATOM     12  C   UNL     1      27.421  20.057   8.190  1.00  0.00     0.007 A 
ATOM     13  C   UNL     1      29.113  20.245   9.914  1.00  0.00     0.007 A 
ATOM     14  C   UNL     1      27.228  18.716   8.533  1.00  0.00     0.000 A 
ATOM     15  C   UNL     1      28.914  18.903  10.252  1.00  0.00     0.000 A 
ATOM     16  C   UNL     1      27.969  18.141   9.566  1.00  0.00     0.000 A 
ENDBRANCH   2  11
ENDBRANCH   1   2
BRANCH   1  17
ATOM     17  C   UNL     1      30.754  22.960   7.136  1.00  0.00     0.088 C 
BRANCH  17  18
ATOM     18  N   UNL     1      31.534  22.406   6.005  1.00  0.00    -0.303 NA
ATOM     19  C   UNL     1      32.772  23.187   5.796  1.00  0.00     0.084 C 
ATOM     20  C   UNL     1      30.729  22.388   4.763  1.00  0.00     0.084 C 
ATOM     21  C   UNL     1      33.629  22.555   4.693  1.00  0.00     0.016 C 
ATOM     22  C   UNL     1      31.509  21.721   3.628  1.00  0.00     0.016 C 
ATOM     23  C   UNL     1      32.835  22.447   3.389  1.00  0.00     0.003 C 
ENDBRANCH  17  18
ENDBRANCH   1  17
TORSDOF 6
ENDMDL
MODEL 6
REMARK VINA RESULT:    -6.186      2.401      4.691
REMARK INTER + INTRA:          -9.656
REMARK INTER:                  -8.544
REMARK INTRA:                  -1.113
REMARK UNBOUND:                -1.481
REMARK SMILES OC(CCN1CCCCC1)(c1ccccc1)C1CCCCC1
REMARK SMILES IDX 3 1 2 2 1 3 17 5 18 6 22 7 19 8 21 9 20 10 11 11 12 12 16 13
REMARK SMILES IDX 13 14 15 15 14 16 4 17 5 18 6 19 10 20 7 21 9 22 8 23
REMARK H PARENT 1 4
REMARK Flexibility Score: inf
ROOT
ATOM      1  C   UNL     1      29.743  22.843   8.872  1.00  0.00     0.056 C 
ENDROOT
BRANCH   1   2
ATOM      2  C   UNL     1      29.550  22.838   7.312  1.00  0.00     0.094 C 
BRANCH   2   3
ATOM      3  O   UNL     1      29.067  21.574   6.908  1.00  0.00    -0.385 OA
ATOM      4  H   UNL     1      28.456  21.228   7.609  1.00  0.00     0.211 HD
ENDBRANCH   2   3
BRANCH   2   5
ATOM      5  C   UNL     1      28.467  23.906   6.900  1.00  0.00     0.025 C 
ATOM      6  C   UNL     1      27.341  24.044   7.969  1.00  0.00     0.007 C 
ATOM      7  C   UNL     1      29.078  25.301   6.538  1.00  0.00     0.007 C 
ATOM      8  C   UNL     1      26.525  25.324   7.766  1.00  0.00     0.000 C 
ATOM      9  C   UNL     1      28.880  26.347   7.644  1.00  0.00     0.000 C 
ATOM     10  C   UNL     1      27.390  26.586   7.941  1.00  0.00     0.000 C 
ENDBRANCH   2   5
BRANCH   2  11
ATOM     11  C   UNL     1      30.882  23.170   6.610  1.00  0.00    -0.016 A 
ATOM     12  C   UNL     1      31.828  24.042   7.193  1.00  0.00     0.007 A 
ATOM     13  C   UNL     1      31.216  22.546   5.388  1.00  0.00     0.007 A 
ATOM     14  C   UNL     1      33.042  24.310   6.554  1.00  0.00     0.000 A 
ATOM     15  C   UNL     1      32.432  22.819   4.754  1.00  0.00     0.000 A 
ATOM     16  C   UNL     1      33.341  23.703   5.333  1.00  0.00     0.000 A 
ENDBRANCH   2  11
ENDBRANCH   1   2
BRANCH   1  17
ATOM     17  C   UNL     1      29.837  21.445   9.524  1.00  0.00     0.088 C 
BRANCH  17  18
ATOM     18  N   UNL     1      28.526  20.759   9.458  1.00  0.00    -0.303 NA
ATOM     19  C   UNL     1      27.515  21.494  10.249  1.00  0.00     0.084 C 
ATOM     20  C   UNL     1      28.632  19.364   9.941  1.00  0.00     0.084 C 
ATOM     21  C   UNL     1      26.136  20.842  10.101  1.00  0.00     0.016 C 
ATOM     22  C   UNL     1      27.296  18.636   9.773  1.00  0.00     0.016 C 
ATOM     23  C   UNL     1      26.186  19.373  10.524  1.00  0.00     0.003 C 
ENDBRANCH  17  18
ENDBRANCH   1  17
TORSDOF 6
ENDMDL
MODEL 7
REMARK VINA RESULT:    -6.185      4.161      8.174
REMARK INTER + INTRA:          -9.655
REMARK INTER:                  -8.170
REMARK INTRA:                  -1.485
REMARK UNBOUND:                -1.481
REMARK SMILES OC(CCN1CCCCC1)(c1ccccc1)C1CCCCC1
REMARK SMILES IDX 3 1 2 2 1 3 17 5 18 6 22 7 19 8 21 9 20 10 11 11 12 12 16 13
REMARK SMILES IDX 13 14 15 15 14 16 4 17 5 18 6 19 10 20 7 21 9 22 8 23
REMARK H PARENT 1 4
REMARK Flexibility Score: inf
ROOT
ATOM      1  C   UNL     1      30.154  25.230   6.140  1.00  0.00     0.056 C 
ENDROOT
BRANCH   1   2
ATOM      2  C   UNL     1      30.832  24.000   6.846  1.00  0.00     0.094 C 
BRANCH   2   3
ATOM      3  O   UNL     1      31.131  24.340   8.183  1.00  0.00    -0.385 OA
ATOM      4  H   UNL     1      30.490  23.875   8.780  1.00  0.00     0.211 HD
ENDBRANCH   2   3
BRANCH   2   5
ATOM      5  C   UNL     1      29.831  22.784   6.885  1.00  0.00     0.025 C 
ATOM      6  C   UNL     1      29.672  22.198   8.320  1.00  0.00     0.007 C 
ATOM      7  C   UNL     1      28.438  23.105   6.247  1.00  0.00     0.007 C 
ATOM      8  C   UNL     1      28.438  21.297   8.429  1.00  0.00     0.000 C 
ATOM      9  C   UNL     1      27.337  23.324   7.295  1.00  0.00     0.000 C 
ATOM     10  C   UNL     1      27.137  22.081   8.179  1.00  0.00     0.000 C 
ENDBRANCH   2   5
BRANCH   2  11
ATOM     11  C   UNL     1      32.106  23.585   6.083  1.00  0.00    -0.016 A 
ATOM     12  C   UNL     1      32.292  22.264   5.619  1.00  0.00     0.007 A 
ATOM     13  C   UNL     1      33.092  24.546   5.769  1.00  0.00     0.007 A 
ATOM     14  C   UNL     1      33.442  21.913   4.906  1.00  0.00     0.000 A 
ATOM     15  C   UNL     1      34.240  24.188   5.056  1.00  0.00     0.000 A 
ATOM     16  C   UNL     1      34.417  22.872   4.630  1.00  0.00     0.000 A 
ENDBRANCH   2  11
ENDBRANCH   1   2
BRANCH   1  17
ATOM     17  C   UNL     1      29.940  26.467   7.042  1.00  0.00     0.088 C 
BRANCH  17  18
ATOM     18  N   UNL     1      31.182  27.271   7.111  1.00  0.00    -0.303 NA
ATOM     19  C   UNL     1      31.071  28.308   8.160  1.00  0.00     0.084 C 
ATOM     20  C   UNL     1      31.481  27.900   5.805  1.00  0.00     0.084 C 
ATOM     21  C   UNL     1      32.390  29.075   8.302  1.00  0.00     0.016 C 
ATOM     22  C   UNL     1      32.818  28.644   5.862  1.00  0.00     0.016 C 
ATOM     23  C   UNL     1      32.795  29.702   6.967  1.00  0.00     0.003 C 
ENDBRANCH  17  18
ENDBRANCH   1  17
TORSDOF 6
ENDMDL
MODEL 8
REMARK VINA RESULT:    -6.176      4.138      8.657
REMARK INTER + INTRA:          -9.643
REMARK INTER:                  -8.307
REMARK INTRA:                  -1.336
REMARK UNBOUND:                -1.481
REMARK SMILES OC(CCN1CCCCC1)(c1ccccc1)C1CCCCC1
REMARK SMILES IDX 3 1 2 2 1 3 17 5 18 6 22 7 19 8 21 9 20 10 11 11 12 12 16 13
REMARK SMILES IDX 13 14 15 15 14 16 4 17 5 18 6 19 10 20 7 21 9 22 8 23
REMARK H PARENT 1 4
REMARK Flexibility Score: inf
ROOT
ATOM      1  C   UNL     1      31.583  22.046   6.172  1.00  0.00     0.056 C 
ENDROOT
BRANCH   1   2
ATOM      2  C   UNL     1      30.231  22.839   6.290  1.00  0.00     0.094 C 
BRANCH   2   3
ATOM      3  O   UNL     1      29.536  22.757   5.064  1.00  0.00    -0.385 OA
ATOM      4  H   UNL     1      30.193  22.798   4.323  1.00  0.00     0.211 HD
ENDBRANCH   2   3
BRANCH   2   5
ATOM      5  C   UNL     1      29.316  22.181   7.392  1.00  0.00     0.025 C 
ATOM      6  C   UNL     1      30.070  21.984   8.742  1.00  0.00     0.007 C 
ATOM      7  C   UNL     1      27.962  22.937   7.605  1.00  0.00     0.007 C 
ATOM      8  C   UNL     1      29.099  21.718   9.896  1.00  0.00     0.000 C 
ATOM      9  C   UNL     1      27.942  23.780   8.887  1.00  0.00     0.000 C 
ATOM     10  C   UNL     1      28.163  22.916  10.141  1.00  0.00     0.000 C 
ENDBRANCH   2   5
BRANCH   2  11
ATOM     11  C   UNL     1      30.508  24.308   6.672  1.00  0.00    -0.016 A 
ATOM     12  C   UNL     1      31.436  24.647   7.681  1.00  0.00     0.007 A 
ATOM     13  C   UNL     1      29.882  25.356   5.961  1.00  0.00     0.007 A 
ATOM     14  C   UNL     1      31.692  25.986   7.993  1.00  0.00     0.000 A 
ATOM     15  C   UNL     1      30.143  26.692   6.280  1.00  0.00     0.000 A 
ATOM     16  C   UNL     1      31.043  27.006   7.298  1.00  0.00     0.000 A 
ENDBRANCH   2  11
ENDBRANCH   1   2
BRANCH   1  17
ATOM     17  C   UNL     1      31.981  21.642   4.734  1.00  0.00     0.088 C 
BRANCH  17  18
ATOM     18  N   UNL     1      32.731  22.741   4.083  1.00  0.00    -0.303 NA
ATOM     19  C   UNL     1      33.370  22.266   2.837  1.00  0.00     0.084 C 
ATOM     20  C   UNL     1      33.752  23.302   4.996  1.00  0.00     0.084 C 
ATOM     21  C   UNL     1      34.062  23.424   2.109  1.00  0.00     0.016 C 
ATOM     22  C   UNL     1      34.449  24.501   4.349  1.00  0.00     0.016 C 
ATOM     23  C   UNL     1      35.092  24.095   3.021  1.00  0.00     0.003 C 
ENDBRANCH  17  18
ENDBRANCH   1  17
TORSDOF 6
ENDMDL
MODEL 9
REMARK VINA RESULT:    -6.176      3.073      5.120
REMARK INTER + INTRA:          -9.643
REMARK INTER:                  -9.159
REMARK INTRA:                  -0.484
REMARK UNBOUND:                -1.481
REMARK SMILES OC(CCN1CCCCC1)(c1ccccc1)C1CCCCC1
REMARK SMILES IDX 3 1 2 2 1 3 17 5 18 6 22 7 19 8 21 9 20 10 11 11 12 12 16 13
REMARK SMILES IDX 13 14 15 15 14 16 4 17 5 18 6 19 10 20 7 21 9 22 8 23
REMARK H PARENT 1 4
REMARK Flexibility Score: inf
ROOT
ATOM      1  C   UNL     1      29.655  22.409   7.436  1.00  0.00     0.056 C 
ENDROOT
BRANCH   1   2
ATOM      2  C   UNL     1      29.661  23.119   6.035  1.00  0.00     0.094 C 
BRANCH   2   3
ATOM      3  O   UNL     1      28.469  22.802   5.348  1.00  0.00    -0.385 OA
ATOM      4  H   UNL     1      28.091  23.635   4.965  1.00  0.00     0.211 HD
ENDBRANCH   2   3
BRANCH   2   5
ATOM      5  C   UNL     1      29.690  24.683   6.224  1.00  0.00     0.025 C 
ATOM      6  C   UNL     1      28.490  25.195   7.077  1.00  0.00     0.007 C 
ATOM      7  C   UNL     1      31.051  25.215   6.785  1.00  0.00     0.007 C 
ATOM      8  C   UNL     1      28.724  26.622   7.581  1.00  0.00     0.000 C 
ATOM      9  C   UNL     1      30.978  25.597   8.270  1.00  0.00     0.000 C 
ATOM     10  C   UNL     1      29.939  26.702   8.524  1.00  0.00     0.000 C 
ENDBRANCH   2   5
BRANCH   2  11
ATOM     11  C   UNL     1      30.898  22.684   5.222  1.00  0.00    -0.016 A 
ATOM     12  C   UNL     1      32.172  22.568   5.821  1.00  0.00     0.007 A 
ATOM     13  C   UNL     1      30.764  22.322   3.863  1.00  0.00     0.007 A 
ATOM     14  C   UNL     1      33.276  22.146   5.074  1.00  0.00     0.000 A 
ATOM     15  C   UNL     1      31.873  21.901   3.123  1.00  0.00     0.000 A 
ATOM     16  C   UNL     1      33.128  21.818   3.726  1.00  0.00     0.000 A 
ENDBRANCH   2  11
ENDBRANCH   1   2
BRANCH   1  17
ATOM     17  C   UNL     1      28.270  21.924   7.919  1.00  0.00     0.088 C 
BRANCH  17  18
ATOM     18  N   UNL     1      28.340  20.503   8.333  1.00  0.00    -0.303 NA
ATOM     19  C   UNL     1      27.068  19.812   8.032  1.00  0.00     0.084 C 
ATOM     20  C   UNL     1      28.652  20.386   9.776  1.00  0.00     0.084 C 
ATOM     21  C   UNL     1      27.173  18.320   8.367  1.00  0.00     0.016 C 
ATOM     22  C   UNL     1      28.821  18.916  10.169  1.00  0.00     0.016 C 
ATOM     23  C   UNL     1      27.556  18.123   9.835  1.00  0.00     0.003 C 
ENDBRANCH  17  18
ENDBRANCH   1  17
TORSDOF 6
ENDMDL
MODEL 10
REMARK VINA RESULT:    -6.144      3.031      7.661
REMARK INTER + INTRA:          -9.600
REMARK INTER:                  -8.530
REMARK INTRA:                  -1.070
REMARK UNBOUND:                -1.481
REMARK SMILES OC(CCN1CCCCC1)(c1ccccc1)C1CCCCC1
REMARK SMILES IDX 3 1 2 2 1 3 17 5 18 6 22 7 19 8 21 9 20 10 11 11 12 12 16 13
REMARK SMILES IDX 13 14 15 15 14 16 4 17 5 18 6 19 10 20 7 21 9 22 8 23
REMARK H PARENT 1 4
REMARK Flexibility Score: inf
ROOT
ATOM      1  C   UNL     1      29.948  22.323   7.727  1.00  0.00     0.056 C 
ENDROOT
BRANCH   1   2
ATOM      2  C   UNL     1      28.416  22.493   8.033  1.00  0.00     0.094 C 
BRANCH   2   3
ATOM      3  O   UNL     1      27.666  21.912   6.987  1.00  0.00    -0.385 OA
ATOM      4  H   UNL     1      26.703  21.970   7.215  1.00  0.00     0.211 HD
ENDBRANCH   2   3
BRANCH   2   5
ATOM      5  C   UNL     1      28.043  21.725   9.358  1.00  0.00     0.025 C 
ATOM      6  C   UNL     1      26.507  21.503   9.497  1.00  0.00     0.007 C 
ATOM      7  C   UNL     1      28.827  20.383   9.538  1.00  0.00     0.007 C 
ATOM      8  C   UNL     1      26.183  20.443  10.554  1.00  0.00     0.000 C 
ATOM      9  C   UNL     1      27.971  19.144   9.241  1.00  0.00     0.000 C 
ATOM     10  C   UNL     1      26.746  19.063  10.167  1.00  0.00     0.000 C 
ENDBRANCH   2   5
BRANCH   2  11
ATOM     11  C   UNL     1      28.068  23.986   8.197  1.00  0.00    -0.016 A 
ATOM     12  C   UNL     1      28.755  24.809   9.117  1.00  0.00     0.007 A 
ATOM     13  C   UNL     1      27.090  24.583   7.371  1.00  0.00     0.007 A 
ATOM     14  C   UNL     1      28.443  26.166   9.232  1.00  0.00     0.000 A 
ATOM     15  C   UNL     1      26.783  25.942   7.492  1.00  0.00     0.000 A 
ATOM     16  C   UNL     1      27.455  26.731   8.425  1.00  0.00     0.000 A 
ENDBRANCH   2  11
ENDBRANCH   1   2
BRANCH   1  17
ATOM     17  C   UNL     1      30.334  22.436   6.235  1.00  0.00     0.088 C 
BRANCH  17  18
ATOM     18  N   UNL     1      31.780  22.728   6.101  1.00  0.00    -0.303 NA
ATOM     19  C   UNL     1      32.007  24.186   5.993  1.00  0.00     0.084 C 
ATOM     20  C   UNL     1      32.354  22.037   4.925  1.00  0.00     0.084 C 
ATOM     21  C   UNL     1      33.507  24.497   5.956  1.00  0.00     0.016 C 
ATOM     22  C   UNL     1      33.867  22.265   4.855  1.00  0.00     0.016 C 
ATOM     23  C   UNL     1      34.181  23.761   4.796  1.00  0.00     0.003 C 
ENDBRANCH  17  18
ENDBRANCH   1  17
TORSDOF 6
ENDMDL
MODEL 11
REMARK VINA RESULT:    -6.080      3.598      5.991
REMARK INTER + INTRA:          -9.515
REMARK INTER:                  -7.917
REMARK INTRA:                  -1.599
REMARK UNBOUND:                -1.481
REMARK SMILES OC(CCN1CCCCC1)(c1ccccc1)C1CCCCC1
REMARK SMILES IDX 3 1 2 2 1 3 17 5 18 6 22 7 19 8 21 9 20 10 11 11 12 12 16 13
REMARK SMILES IDX 13 14 15 15 14 16 4 17 5 18 6 19 10 20 7 21 9 22 8 23
REMARK H PARENT 1 4
REMARK Flexibility Score: inf
ROOT
ATOM      1  C   UNL     1      30.742  22.655   7.379  1.00  0.00     0.056 C 
ENDROOT
BRANCH   1   2
ATOM      2  C   UNL     1      31.113  23.763   6.328  1.00  0.00     0.094 C 
BRANCH   2   3
ATOM      3  O   UNL     1      29.928  24.283   5.763  1.00  0.00    -0.385 OA
ATOM      4  H   UNL     1      29.351  23.527   5.484  1.00  0.00     0.211 HD
ENDBRANCH   2   3
BRANCH   2   5
ATOM      5  C   UNL     1      31.853  24.956   7.044  1.00  0.00     0.025 C 
ATOM      6  C   UNL     1      31.325  26.344   6.571  1.00  0.00     0.007 C 
ATOM      7  C   UNL     1      31.840  24.848   8.606  1.00  0.00     0.007 C 
ATOM      8  C   UNL     1      31.751  27.465   7.524  1.00  0.00     0.000 C 
ATOM      9  C   UNL     1      30.838  25.808   9.264  1.00  0.00     0.000 C 
ATOM     10  C   UNL     1      31.154  27.276   8.930  1.00  0.00     0.000 C 
ENDBRANCH   2   5
BRANCH   2  11
ATOM     11  C   UNL     1      32.034  23.177   5.238  1.00  0.00    -0.016 A 
ATOM     12  C   UNL     1      31.520  22.399   4.177  1.00  0.00     0.007 A 
ATOM     13  C   UNL     1      33.416  23.469   5.243  1.00  0.00     0.007 A 
ATOM     14  C   UNL     1      32.367  21.900   3.184  1.00  0.00     0.000 A 
ATOM     15  C   UNL     1      34.256  22.965   4.246  1.00  0.00     0.000 A 
ATOM     16  C   UNL     1      33.734  22.177   3.221  1.00  0.00     0.000 A 
ENDBRANCH   2  11
ENDBRANCH   1   2
BRANCH   1  17
ATOM     17  C   UNL     1      29.251  22.250   7.404  1.00  0.00     0.088 C 
BRANCH  17  18
ATOM     18  N   UNL     1      28.466  23.232   8.188  1.00  0.00    -0.303 NA
ATOM     19  C   UNL     1      28.486  22.883   9.625  1.00  0.00     0.084 C 
ATOM     20  C   UNL     1      27.070  23.304   7.702  1.00  0.00     0.084 C 
ATOM     21  C   UNL     1      27.760  23.952  10.450  1.00  0.00     0.016 C 
ATOM     22  C   UNL     1      26.298  24.393   8.452  1.00  0.00     0.016 C 
ATOM     23  C   UNL     1      26.321  24.126   9.958  1.00  0.00     0.003 C 
ENDBRANCH  17  18
ENDBRANCH   1  17
TORSDOF 6
ENDMDL
MODEL 12
REMARK VINA RESULT:    -5.939      2.428      3.900
REMARK INTER + INTRA:          -9.330
REMARK INTER:                  -7.844
REMARK INTRA:                  -1.486
REMARK UNBOUND:                -1.481
REMARK SMILES OC(CCN1CCCCC1)(c1ccccc1)C1CCCCC1
REMARK SMILES IDX 3 1 2 2 1 3 17 5 18 6 22 7 19 8 21 9 20 10 11 11 12 12 16 13
REMARK SMILES IDX 13 14 15 15 14 16 4 17 5 18 6 19 10 20 7 21 9 22 8 23
REMARK H PARENT 1 4
REMARK Flexibility Score: inf
ROOT
ATOM      1  C   UNL     1      27.650  22.920   9.710  1.00  0.00     0.056 C 
ENDROOT
BRANCH   1   2
ATOM      2  C   UNL     1      27.467  22.072   8.399  1.00  0.00     0.094 C 
BRANCH   2   3
ATOM      3  O   UNL     1      26.202  22.352   7.839  1.00  0.00    -0.385 OA
ATOM      4  H   UNL     1      25.837  23.167   8.268  1.00  0.00     0.211 HD
ENDBRANCH   2   3
BRANCH   2   5
ATOM      5  C   UNL     1      28.553  22.486   7.335  1.00  0.00     0.025 C 
ATOM      6  C   UNL     1      28.147  23.770   6.550  1.00  0.00     0.007 C 
ATOM      7  C   UNL     1      29.992  22.620   7.936  1.00  0.00     0.007 C 
ATOM      8  C   UNL     1      29.343  24.382   5.814  1.00  0.00     0.000 C 
ATOM      9  C   UNL     1      30.427  24.080   8.125  1.00  0.00     0.000 C 
ATOM     10  C   UNL     1      30.436  24.849   6.793  1.00  0.00     0.000 C 
ENDBRANCH   2   5
BRANCH   2  11
ATOM     11  C   UNL     1      27.612  20.569   8.713  1.00  0.00    -0.016 A 
ATOM     12  C   UNL     1      27.018  19.583   7.894  1.00  0.00     0.007 A 
ATOM     13  C   UNL     1      28.410  20.143   9.798  1.00  0.00     0.007 A 
ATOM     14  C   UNL     1      27.184  18.224   8.180  1.00  0.00     0.000 A 
ATOM     15  C   UNL     1      28.570  18.782  10.078  1.00  0.00     0.000 A 
ATOM     16  C   UNL     1      27.954  17.824   9.273  1.00  0.00     0.000 A 
ENDBRANCH   2  11
ENDBRANCH   1   2
BRANCH   1  17
ATOM     17  C   UNL     1      26.399  23.706  10.161  1.00  0.00     0.088 C 
BRANCH  17  18
ATOM     18  N   UNL     1      26.229  24.919   9.327  1.00  0.00    -0.303 NA
ATOM     19  C   UNL     1      27.452  25.749   9.362  1.00  0.00     0.084 C 
ATOM     20  C   UNL     1      25.064  25.714   9.779  1.00  0.00     0.084 C 
ATOM     21  C   UNL     1      27.315  26.951   8.421  1.00  0.00     0.016 C 
ATOM     22  C   UNL     1      24.837  26.908   8.848  1.00  0.00     0.016 C 
ATOM     23  C   UNL     1      26.088  27.787   8.791  1.00  0.00     0.003 C 
ENDBRANCH  17  18
ENDBRANCH   1  17
TORSDOF 6
ENDMDL
MODEL 13
REMARK VINA RESULT:    -5.925      4.799      9.552
REMARK INTER + INTRA:          -9.312
REMARK INTER:                  -7.813
REMARK INTRA:                  -1.498
REMARK UNBOUND:                -1.481
REMARK SMILES OC(CCN1CCCCC1)(c1ccccc1)C1CCCCC1
REMARK SMILES IDX 3 1 2 2 1 3 17 5 18 6 22 7 19 8 21 9 20 10 11 11 12 12 16 13
REMARK SMILES IDX 13 14 15 15 14 16 4 17 5 18 6 19 10 20 7 21 9 22 8 23
REMARK H PARENT 1 4
REMARK Flexibility Score: inf
ROOT
ATOM      1  C   UNL     1      32.503  24.267   7.002  1.00  0.00     0.056 C 
ENDROOT
BRANCH   1   2
ATOM      2  C   UNL     1      31.240  25.200   6.951  1.00  0.00     0.094 C 
BRANCH   2   3
ATOM      3  O   UNL     1      30.482  24.893   5.799  1.00  0.00    -0.385 OA
ATOM      4  H   UNL     1      29.733  24.298   6.061  1.00  0.00     0.211 HD
ENDBRANCH   2   3
BRANCH   2   5
ATOM      5  C   UNL     1      30.320  24.931   8.202  1.00  0.00     0.025 C 
ATOM      6  C   UNL     1      28.826  24.735   7.803  1.00  0.00     0.007 C 
ATOM      7  C   UNL     1      30.825  23.753   9.100  1.00  0.00     0.007 C 
ATOM      8  C   UNL     1      28.018  24.099   8.938  1.00  0.00     0.000 C 
ATOM      9  C   UNL     1      30.004  22.468   8.920  1.00  0.00     0.000 C 
ATOM     10  C   UNL     1      28.523  22.684   9.274  1.00  0.00     0.000 C 
ENDBRANCH   2   5
BRANCH   2  11
ATOM     11  C   UNL     1      31.671  26.681   6.949  1.00  0.00    -0.016 A 
ATOM     12  C   UNL     1      31.575  27.480   8.109  1.00  0.00     0.007 A 
ATOM     13  C   UNL     1      32.244  27.253   5.791  1.00  0.00     0.007 A 
ATOM     14  C   UNL     1      31.997  28.813   8.094  1.00  0.00     0.000 A 
ATOM     15  C   UNL     1      32.663  28.586   5.784  1.00  0.00     0.000 A 
ATOM     16  C   UNL     1      32.535  29.367   6.932  1.00  0.00     0.000 A 
ENDBRANCH   2  11
ENDBRANCH   1   2
BRANCH   1  17
ATOM     17  C   UNL     1      32.585  23.215   5.874  1.00  0.00     0.088 C 
BRANCH  17  18
ATOM     18  N   UNL     1      33.247  23.793   4.681  1.00  0.00    -0.303 NA
ATOM     19  C   UNL     1      33.567  22.733   3.700  1.00  0.00     0.084 C 
ATOM     20  C   UNL     1      34.478  24.523   5.059  1.00  0.00     0.084 C 
ATOM     21  C   UNL     1      34.159  23.341   2.424  1.00  0.00     0.016 C 
ATOM     22  C   UNL     1      35.096  25.200   3.833  1.00  0.00     0.016 C 
ATOM     23  C   UNL     1      35.406  24.166   2.748  1.00  0.00     0.003 C 
ENDBRANCH  17  18
ENDBRANCH   1  17
TORSDOF 6
ENDMDL
MODEL 14
REMARK VINA RESULT:    -5.894      3.711      6.236
REMARK INTER + INTRA:          -9.270
REMARK INTER:                  -7.770
REMARK INTRA:                  -1.500
REMARK UNBOUND:                -1.481
REMARK SMILES OC(CCN1CCCCC1)(c1ccccc1)C1CCCCC1
REMARK SMILES IDX 3 1 2 2 1 3 17 5 18 6 22 7 19 8 21 9 20 10 11 11 12 12 16 13
REMARK SMILES IDX 13 14 15 15 14 16 4 17 5 18 6 19 10 20 7 21 9 22 8 23
REMARK H PARENT 1 4
REMARK Flexibility Score: inf
ROOT
ATOM      1  C   UNL     1      30.322  25.248   6.545  1.00  0.00     0.056 C 
ENDROOT
BRANCH   1   2
ATOM      2  C   UNL     1      31.062  23.954   7.041  1.00  0.00     0.094 C 
BRANCH   2   3
ATOM      3  O   UNL     1      31.477  24.139   8.378  1.00  0.00    -0.385 OA
ATOM      4  H   UNL     1      32.313  23.626   8.526  1.00  0.00     0.211 HD
ENDBRANCH   2   3
BRANCH   2   5
ATOM      5  C   UNL     1      30.072  22.728   7.025  1.00  0.00     0.025 C 
ATOM      6  C   UNL     1      29.695  22.257   8.462  1.00  0.00     0.007 C 
ATOM      7  C   UNL     1      28.793  22.975   6.156  1.00  0.00     0.007 C 
ATOM      8  C   UNL     1      28.462  21.348   8.452  1.00  0.00     0.000 C 
ATOM      9  C   UNL     1      27.542  23.260   7.000  1.00  0.00     0.000 C 
ATOM     10  C   UNL     1      27.212  22.089   7.942  1.00  0.00     0.000 C 
ENDBRANCH   2   5
BRANCH   2  11
ATOM     11  C   UNL     1      32.266  23.645   6.127  1.00  0.00    -0.016 A 
ATOM     12  C   UNL     1      33.223  24.633   5.806  1.00  0.00     0.007 A 
ATOM     13  C   UNL     1      32.474  22.334   5.645  1.00  0.00     0.007 A 
ATOM     14  C   UNL     1      34.321  24.327   4.998  1.00  0.00     0.000 A 
ATOM     15  C   UNL     1      33.575  22.035   4.837  1.00  0.00     0.000 A 
ATOM     16  C   UNL     1      34.494  23.031   4.510  1.00  0.00     0.000 A 
ENDBRANCH   2  11
ENDBRANCH   1   2
BRANCH   1  17
ATOM     17  C   UNL     1      29.987  26.275   7.651  1.00  0.00     0.088 C 
BRANCH  17  18
ATOM     18  N   UNL     1      28.764  25.864   8.378  1.00  0.00    -0.303 NA
ATOM     19  C   UNL     1      27.661  26.813   8.115  1.00  0.00     0.084 C 
ATOM     20  C   UNL     1      29.018  25.771   9.833  1.00  0.00     0.084 C 
ATOM     21  C   UNL     1      26.367  26.336   8.785  1.00  0.00     0.016 C 
ATOM     22  C   UNL     1      27.776  25.248  10.562  1.00  0.00     0.016 C 
ATOM     23  C   UNL     1      26.575  26.156  10.290  1.00  0.00     0.003 C 
ENDBRANCH  17  18
ENDBRANCH   1  17
TORSDOF 6
ENDMDL
MODEL 15
REMARK VINA RESULT:    -5.879      4.300      8.008
REMARK INTER + INTRA:          -9.250
REMARK INTER:                  -8.015
REMARK INTRA:                  -1.235
REMARK UNBOUND:                -1.481
REMARK SMILES OC(CCN1CCCCC1)(c1ccccc1)C1CCCCC1
REMARK SMILES IDX 3 1 2 2 1 3 17 5 18 6 22 7 19 8 21 9 20 10 11 11 12 12 16 13
REMARK SMILES IDX 13 14 15 15 14 16 4 17 5 18 6 19 10 20 7 21 9 22 8 23
REMARK H PARENT 1 4
REMARK Flexibility Score: inf
ROOT
ATOM      1  C   UNL     1      31.333  23.798   5.981  1.00  0.00     0.056 C 
ENDROOT
BRANCH   1   2
ATOM      2  C   UNL     1      30.835  24.207   7.414  1.00  0.00     0.094 C 
BRANCH   2   3
ATOM      3  O   UNL     1      31.951  24.519   8.221  1.00  0.00    -0.385 OA
ATOM      4  H   UNL     1      32.444  25.272   7.805  1.00  0.00     0.211 HD
ENDBRANCH   2   3
BRANCH   2   5
ATOM      5  C   UNL     1      29.945  25.504   7.325  1.00  0.00     0.025 C 
ATOM      6  C   UNL     1      29.804  26.216   8.704  1.00  0.00     0.007 C 
ATOM      7  C   UNL     1      30.415  26.504   6.216  1.00  0.00     0.007 C 
ATOM      8  C   UNL     1      29.284  27.648   8.548  1.00  0.00     0.000 C 
ATOM      9  C   UNL     1      31.153  27.724   6.785  1.00  0.00     0.000 C 
ATOM     10  C   UNL     1      30.264  28.527   7.750  1.00  0.00     0.000 C 
ENDBRANCH   2   5
BRANCH   2  11
ATOM     11  C   UNL     1      30.006  23.064   8.036  1.00  0.00    -0.016 A 
ATOM     12  C   UNL     1      30.329  22.519   9.298  1.00  0.00     0.007 A 
ATOM     13  C   UNL     1      28.852  22.585   7.378  1.00  0.00     0.007 A 
ATOM     14  C   UNL     1      29.549  21.502   9.857  1.00  0.00     0.000 A 
ATOM     15  C   UNL     1      28.077  21.568   7.943  1.00  0.00     0.000 A 
ATOM     16  C   UNL     1      28.428  21.023   9.178  1.00  0.00     0.000 A 
ENDBRANCH   2  11
ENDBRANCH   1   2
BRANCH   1  17
ATOM     17  C   UNL     1      32.352  22.637   5.948  1.00  0.00     0.088 C 
BRANCH  17  18
ATOM     18  N   UNL     1      33.537  23.017   5.144  1.00  0.00    -0.303 NA
ATOM     19  C   UNL     1      33.821  24.461   5.290  1.00  0.00     0.084 C 
ATOM     20  C   UNL     1      33.340  22.681   3.716  1.00  0.00     0.084 C 
ATOM     21  C   UNL     1      35.104  24.837   4.541  1.00  0.00     0.016 C 
ATOM     22  C   UNL     1      34.608  22.984   2.914  1.00  0.00     0.016 C 
ATOM     23  C   UNL     1      34.996  24.457   3.063  1.00  0.00     0.003 C 
ENDBRANCH  17  18
ENDBRANCH   1  17
TORSDOF 6
ENDMDL
