MODEL 1
REMARK VINA RESULT:    -8.953      0.000      0.000
REMARK INTER + INTRA:         -15.619
REMARK INTER:                 -13.140
REMARK INTRA:                  -2.479
REMARK UNBOUND:                -2.479
REMARK SMILES CC/C(=C(\c1ccccc1)c1ccc(OCCN(C)C)cc1)c1ccccc1
REMARK SMILES IDX 15 1 14 2 11 3 12 4 22 5 13 6 21 7 4 8 3 9 2 10 1 11 23 12
REMARK SMILES IDX 24 13 28 14 25 15 27 16 26 17 5 18 6 19 10 20 7 21 9 22 8 23
REMARK SMILES IDX 16 24 17 25 18 26 19 27 20 28
REMARK H PARENT
REMARK Flexibility Score: inf
ROOT
ATOM      1  O   UNL     1      13.735  79.283  -1.134  1.00  0.00    -0.492 OA
ENDROOT
BRANCH   1   2
ATOM      2  C   UNL     1      12.718  78.361  -1.430  1.00  0.00     0.119 A 
ATOM      3  C   UNL     1      10.686  76.467  -1.916  1.00  0.00    -0.017 A 
ATOM      4  C   UNL     1      11.199  77.241  -2.967  1.00  0.00     0.012 A 
ATOM      5  C   UNL     1      11.184  76.661  -0.617  1.00  0.00     0.012 A 
ATOM      6  C   UNL     1      12.212  78.175  -2.732  1.00  0.00     0.047 A 
ATOM      7  C   UNL     1      12.196  77.595  -0.382  1.00  0.00     0.047 A 
BRANCH   3   8
ATOM      8  C   UNL     1       9.602  75.485  -2.173  1.00  0.00    -0.007 C 
ATOM      9  C   UNL     1       8.285  75.832  -2.095  1.00  0.00    -0.033 C 
BRANCH   9  10
ATOM     10  C   UNL     1       7.178  74.906  -2.571  1.00  0.00     0.033 C 
ATOM     11  C   UNL     1       6.771  75.199  -4.015  1.00  0.00     0.009 C 
ENDBRANCH   9  10
BRANCH   9  12
ATOM     12  C   UNL     1       7.872  77.140  -1.517  1.00  0.00    -0.022 A 
ATOM     13  C   UNL     1       7.343  77.204  -0.215  1.00  0.00     0.008 A 
ATOM     14  C   UNL     1       7.985  78.322  -2.269  1.00  0.00     0.008 A 
ATOM     15  C   UNL     1       6.956  78.432   0.330  1.00  0.00     0.001 A 
ATOM     16  C   UNL     1       7.596  79.547  -1.720  1.00  0.00     0.001 A 
ATOM     17  C   UNL     1       7.084  79.603  -0.421  1.00  0.00     0.000 A 
ENDBRANCH   9  12
BRANCH   8  18
ATOM     18  C   UNL     1      10.030  74.117  -2.551  1.00  0.00    -0.018 A 
ATOM     19  C   UNL     1      10.099  73.110  -1.574  1.00  0.00     0.009 A 
ATOM     20  C   UNL     1      10.286  73.793  -3.893  1.00  0.00     0.009 A 
ATOM     21  C   UNL     1      10.462  71.808  -1.929  1.00  0.00     0.001 A 
ATOM     22  C   UNL     1      10.648  72.490  -4.246  1.00  0.00     0.001 A 
ATOM     23  C   UNL     1      10.740  71.499  -3.263  1.00  0.00     0.000 A 
ENDBRANCH   8  18
ENDBRANCH   3   8
ENDBRANCH   1   2
BRANCH   1  24
ATOM     24  C   UNL     1      13.638  80.344  -0.183  1.00  0.00     0.245 C 
BRANCH  24  25
ATOM     25  C   UNL     1      12.372  81.173  -0.427  1.00  0.00     0.125 C 
BRANCH  25  26
ATOM     26  N   UNL     1      11.647  81.404   0.842  1.00  0.00    -0.306 NA
ATOM     27  C   UNL     1      12.241  80.598   1.921  1.00  0.00     0.105 C 
ATOM     28  C   UNL     1      10.221  81.058   0.703  1.00  0.00     0.105 C 
ENDBRANCH  25  26
ENDBRANCH  24  25
ENDBRANCH   1  24
TORSDOF 8
ENDMDL
MODEL 2
REMARK VINA RESULT:    -8.632      1.926      2.844
REMARK INTER + INTRA:         -15.149
REMARK INTER:                 -12.877
REMARK INTRA:                  -2.272
REMARK UNBOUND:                -2.479
REMARK SMILES CC/C(=C(\c1ccccc1)c1ccc(OCCN(C)C)cc1)c1ccccc1
REMARK SMILES IDX 15 1 14 2 11 3 12 4 22 5 13 6 21 7 4 8 3 9 2 10 1 11 23 12
REMARK SMILES IDX 24 13 28 14 25 15 27 16 26 17 5 18 6 19 10 20 7 21 9 22 8 23
REMARK SMILES IDX 16 24 17 25 18 26 19 27 20 28
REMARK H PARENT
REMARK Flexibility Score: inf
ROOT
ATOM      1  O   UNL     1      13.803  79.243  -1.370  1.00  0.00    -0.492 OA
ENDROOT
BRANCH   1   2
ATOM      2  C   UNL     1      12.757  78.319  -1.528  1.00  0.00     0.119 A 
ATOM      3  C   UNL     1      10.648  76.497  -1.956  1.00  0.00    -0.017 A 
ATOM      4  C   UNL     1      11.166  76.691  -0.667  1.00  0.00     0.012 A 
ATOM      5  C   UNL     1      11.206  77.208  -3.032  1.00  0.00     0.012 A 
ATOM      6  C   UNL     1      12.206  77.599  -0.449  1.00  0.00     0.047 A 
ATOM      7  C   UNL     1      12.246  78.114  -2.814  1.00  0.00     0.047 A 
BRANCH   3   8
ATOM      8  C   UNL     1       9.550  75.522  -2.180  1.00  0.00    -0.007 C 
ATOM      9  C   UNL     1       8.238  75.884  -2.088  1.00  0.00    -0.033 C 
BRANCH   9  10
ATOM     10  C   UNL     1       7.115  74.962  -2.530  1.00  0.00     0.033 C 
ATOM     11  C   UNL     1       6.776  75.145  -4.009  1.00  0.00     0.009 C 
ENDBRANCH   9  10
BRANCH   9  12
ATOM     12  C   UNL     1       7.848  77.206  -1.526  1.00  0.00    -0.022 A 
ATOM     13  C   UNL     1       7.334  77.297  -0.219  1.00  0.00     0.008 A 
ATOM     14  C   UNL     1       7.966  78.375  -2.297  1.00  0.00     0.008 A 
ATOM     15  C   UNL     1       6.968  78.538   0.311  1.00  0.00     0.001 A 
ATOM     16  C   UNL     1       7.598  79.613  -1.764  1.00  0.00     0.001 A 
ATOM     17  C   UNL     1       7.101  79.695  -0.460  1.00  0.00     0.000 A 
ENDBRANCH   9  12
BRANCH   8  18
ATOM     18  C   UNL     1       9.958  74.144  -2.541  1.00  0.00    -0.018 A 
ATOM     19  C   UNL     1      10.331  73.846  -3.862  1.00  0.00     0.009 A 
ATOM     20  C   UNL     1      10.060  73.147  -1.555  1.00  0.00     0.009 A 
ATOM     21  C   UNL     1      10.757  72.559  -4.201  1.00  0.00     0.001 A 
ATOM     22  C   UNL     1      10.487  71.861  -1.897  1.00  0.00     0.001 A 
ATOM     23  C   UNL     1      10.831  71.566  -3.220  1.00  0.00     0.000 A 
ENDBRANCH   8  18
ENDBRANCH   3   8
ENDBRANCH   1   2
BRANCH   1  24
ATOM     24  C   UNL     1      14.197  80.220  -2.334  1.00  0.00     0.245 C 
BRANCH  24  25
ATOM     25  C   UNL     1      15.395  79.720  -3.149  1.00  0.00     0.125 C 
BRANCH  25  26
ATOM     26  N   UNL     1      15.165  79.927  -4.596  1.00  0.00    -0.306 NA
ATOM     27  C   UNL     1      16.303  80.644  -5.194  1.00  0.00     0.105 C 
ATOM     28  C   UNL     1      13.929  80.695  -4.827  1.00  0.00     0.105 C 
ENDBRANCH  25  26
ENDBRANCH  24  25
ENDBRANCH   1  24
TORSDOF 8
ENDMDL
MODEL 3
REMARK VINA RESULT:    -8.208      2.705      6.642
REMARK INTER + INTRA:         -14.526
REMARK INTER:                 -12.701
REMARK INTRA:                  -1.825
REMARK UNBOUND:                -2.479
REMARK SMILES CC/C(=C(\c1ccccc1)c1ccc(OCCN(C)C)cc1)c1ccccc1
REMARK SMILES IDX 15 1 14 2 11 3 12 4 22 5 13 6 21 7 4 8 3 9 2 10 1 11 23 12
REMARK SMILES IDX 24 13 28 14 25 15 27 16 26 17 5 18 6 19 10 20 7 21 9 22 8 23
REMARK SMILES IDX 16 24 17 25 18 26 19 27 20 28
REMARK H PARENT
REMARK Flexibility Score: inf
ROOT
ATOM      1  O   UNL     1       7.390  77.074  -1.051  1.00  0.00    -0.492 OA
ENDROOT
BRANCH   1   2
ATOM      2  C   UNL     1       8.673  77.566  -1.342  1.00  0.00     0.119 A 
ATOM      3  C   UNL     1      11.199  78.638  -1.989  1.00  0.00    -0.017 A 
ATOM      4  C   UNL     1      11.102  77.410  -1.318  1.00  0.00     0.012 A 
ATOM      5  C   UNL     1      10.024  79.334  -2.316  1.00  0.00     0.012 A 
ATOM      6  C   UNL     1       9.852  76.871  -1.003  1.00  0.00     0.047 A 
ATOM      7  C   UNL     1       8.775  78.796  -2.000  1.00  0.00     0.047 A 
BRANCH   3   8
ATOM      8  C   UNL     1      12.533  79.209  -2.309  1.00  0.00    -0.007 C 
ATOM      9  C   UNL     1      13.233  79.952  -1.404  1.00  0.00    -0.033 C 
BRANCH   9  10
ATOM     10  C   UNL     1      14.681  80.348  -1.636  1.00  0.00     0.033 C 
ATOM     11  C   UNL     1      15.648  79.229  -1.247  1.00  0.00     0.009 C 
ENDBRANCH   9  10
BRANCH   9  12
ATOM     12  C   UNL     1      12.594  80.425  -0.147  1.00  0.00    -0.022 A 
ATOM     13  C   UNL     1      12.884  79.795   1.077  1.00  0.00     0.008 A 
ATOM     14  C   UNL     1      11.677  81.490  -0.166  1.00  0.00     0.008 A 
ATOM     15  C   UNL     1      12.285  80.239   2.260  1.00  0.00     0.001 A 
ATOM     16  C   UNL     1      11.080  81.930   1.018  1.00  0.00     0.001 A 
ATOM     17  C   UNL     1      11.385  81.307   2.231  1.00  0.00     0.000 A 
ENDBRANCH   9  12
BRANCH   8  18
ATOM     18  C   UNL     1      13.074  78.899  -3.654  1.00  0.00    -0.018 A 
ATOM     19  C   UNL     1      13.396  79.943  -4.537  1.00  0.00     0.009 A 
ATOM     20  C   UNL     1      13.351  77.573  -4.026  1.00  0.00     0.009 A 
ATOM     21  C   UNL     1      13.945  79.661  -5.791  1.00  0.00     0.001 A 
ATOM     22  C   UNL     1      13.900  77.294  -5.280  1.00  0.00     0.001 A 
ATOM     23  C   UNL     1      14.194  78.337  -6.164  1.00  0.00     0.000 A 
ENDBRANCH   8  18
ENDBRANCH   3   8
ENDBRANCH   1   2
BRANCH   1  24
ATOM     24  C   UNL     1       7.102  75.785  -0.508  1.00  0.00     0.245 C 
BRANCH  24  25
ATOM     25  C   UNL     1       6.772  74.790  -1.626  1.00  0.00     0.125 C 
BRANCH  25  26
ATOM     26  N   UNL     1       7.647  75.013  -2.798  1.00  0.00    -0.306 NA
ATOM     27  C   UNL     1       6.837  75.121  -4.023  1.00  0.00     0.105 C 
ATOM     28  C   UNL     1       8.616  73.914  -2.949  1.00  0.00     0.105 C 
ENDBRANCH  25  26
ENDBRANCH  24  25
ENDBRANCH   1  24
TORSDOF 8
ENDMDL
MODEL 4
REMARK VINA RESULT:    -8.060      3.179      6.568
REMARK INTER + INTRA:         -14.309
REMARK INTER:                 -12.902
REMARK INTRA:                  -1.407
REMARK UNBOUND:                -2.479
REMARK SMILES CC/C(=C(\c1ccccc1)c1ccc(OCCN(C)C)cc1)c1ccccc1
REMARK SMILES IDX 15 1 14 2 11 3 12 4 22 5 13 6 21 7 4 8 3 9 2 10 1 11 23 12
REMARK SMILES IDX 24 13 28 14 25 15 27 16 26 17 5 18 6 19 10 20 7 21 9 22 8 23
REMARK SMILES IDX 16 24 17 25 18 26 19 27 20 28
REMARK H PARENT
REMARK Flexibility Score: inf
ROOT
ATOM      1  O   UNL     1       7.161  77.763  -1.432  1.00  0.00    -0.492 OA
ENDROOT
BRANCH   1   2
ATOM      2  C   UNL     1       8.503  78.108  -1.658  1.00  0.00     0.119 A 
ATOM      3  C   UNL     1      11.163  78.905  -2.148  1.00  0.00    -0.017 A 
ATOM      4  C   UNL     1      10.872  77.571  -1.826  1.00  0.00     0.012 A 
ATOM      5  C   UNL     1      10.116  79.841  -2.204  1.00  0.00     0.012 A 
ATOM      6  C   UNL     1       9.554  77.170  -1.590  1.00  0.00     0.047 A 
ATOM      7  C   UNL     1       8.800  79.440  -1.968  1.00  0.00     0.047 A 
BRANCH   3   8
ATOM      8  C   UNL     1      12.568  79.325  -2.385  1.00  0.00    -0.007 C 
ATOM      9  C   UNL     1      13.308  79.938  -1.417  1.00  0.00    -0.033 C 
BRANCH   9  10
ATOM     10  C   UNL     1      14.802  80.167  -1.568  1.00  0.00     0.033 C 
ATOM     11  C   UNL     1      15.617  78.984  -1.045  1.00  0.00     0.009 C 
ENDBRANCH   9  10
BRANCH   9  12
ATOM     12  C   UNL     1      12.671  80.430  -0.165  1.00  0.00    -0.022 A 
ATOM     13  C   UNL     1      12.858  79.736   1.045  1.00  0.00     0.008 A 
ATOM     14  C   UNL     1      11.859  81.576  -0.178  1.00  0.00     0.008 A 
ATOM     15  C   UNL     1      12.261  80.198   2.223  1.00  0.00     0.001 A 
ATOM     16  C   UNL     1      11.264  82.033   1.001  1.00  0.00     0.001 A 
ATOM     17  C   UNL     1      11.466  81.347   2.201  1.00  0.00     0.000 A 
ENDBRANCH   9  12
BRANCH   8  18
ATOM     18  C   UNL     1      13.132  79.011  -3.720  1.00  0.00    -0.018 A 
ATOM     19  C   UNL     1      13.415  80.049  -4.622  1.00  0.00     0.009 A 
ATOM     20  C   UNL     1      13.466  77.690  -4.062  1.00  0.00     0.009 A 
ATOM     21  C   UNL     1      13.984  79.765  -5.866  1.00  0.00     0.001 A 
ATOM     22  C   UNL     1      14.036  77.409  -5.307  1.00  0.00     0.001 A 
ATOM     23  C   UNL     1      14.291  78.446  -6.210  1.00  0.00     0.000 A 
ENDBRANCH   8  18
ENDBRANCH   3   8
ENDBRANCH   1   2
BRANCH   1  24
ATOM     24  C   UNL     1       6.603  77.390  -0.171  1.00  0.00     0.245 C 
BRANCH  24  25
ATOM     25  C   UNL     1       7.281  76.124   0.365  1.00  0.00     0.125 C 
BRANCH  25  26
ATOM     26  N   UNL     1       6.439  74.935   0.112  1.00  0.00    -0.306 NA
ATOM     27  C   UNL     1       6.593  74.490  -1.283  1.00  0.00     0.105 C 
ATOM     28  C   UNL     1       5.019  75.229   0.375  1.00  0.00     0.105 C 
ENDBRANCH  25  26
ENDBRANCH  24  25
ENDBRANCH   1  24
TORSDOF 8
ENDMDL
MODEL 5
REMARK VINA RESULT:    -7.927      1.422      2.431
REMARK INTER + INTRA:         -14.114
REMARK INTER:                 -11.974
REMARK INTRA:                  -2.140
REMARK UNBOUND:                -2.479
REMARK SMILES CC/C(=C(\c1ccccc1)c1ccc(OCCN(C)C)cc1)c1ccccc1
REMARK SMILES IDX 15 1 14 2 11 3 12 4 22 5 13 6 21 7 4 8 3 9 2 10 1 11 23 12
REMARK SMILES IDX 24 13 28 14 25 15 27 16 26 17 5 18 6 19 10 20 7 21 9 22 8 23
REMARK SMILES IDX 16 24 17 25 18 26 19 27 20 28
REMARK H PARENT
REMARK Flexibility Score: inf
ROOT
ATOM      1  O   UNL     1      13.294  77.935   0.703  1.00  0.00    -0.492 OA
ENDROOT
BRANCH   1   2
ATOM      2  C   UNL     1      12.287  77.173   0.089  1.00  0.00     0.119 A 
ATOM      3  C   UNL     1      10.247  75.733  -1.220  1.00  0.00    -0.017 A 
ATOM      4  C   UNL     1      10.803  75.247  -0.028  1.00  0.00     0.012 A 
ATOM      5  C   UNL     1      10.732  76.934  -1.763  1.00  0.00     0.012 A 
ATOM      6  C   UNL     1      11.809  75.962   0.628  1.00  0.00     0.047 A 
ATOM      7  C   UNL     1      11.738  77.648  -1.107  1.00  0.00     0.047 A 
BRANCH   3   8
ATOM      8  C   UNL     1       9.187  74.960  -1.917  1.00  0.00    -0.007 C 
ATOM      9  C   UNL     1       7.887  75.374  -1.929  1.00  0.00    -0.033 C 
BRANCH   9  10
ATOM     10  C   UNL     1       6.842  74.721  -2.818  1.00  0.00     0.033 C 
ATOM     11  C   UNL     1       6.846  75.308  -4.229  1.00  0.00     0.009 C 
ENDBRANCH   9  10
BRANCH   9  12
ATOM     12  C   UNL     1       7.430  76.484  -1.049  1.00  0.00    -0.022 A 
ATOM     13  C   UNL     1       7.669  77.822  -1.413  1.00  0.00     0.008 A 
ATOM     14  C   UNL     1       6.776  76.212   0.165  1.00  0.00     0.008 A 
ATOM     15  C   UNL     1       7.239  78.865  -0.588  1.00  0.00     0.001 A 
ATOM     16  C   UNL     1       6.350  77.258   0.987  1.00  0.00     0.001 A 
ATOM     17  C   UNL     1       6.578  78.584   0.611  1.00  0.00     0.000 A 
ENDBRANCH   9  12
BRANCH   8  18
ATOM     18  C   UNL     1       9.624  73.733  -2.624  1.00  0.00    -0.018 A 
ATOM     19  C   UNL     1      10.350  73.836  -3.823  1.00  0.00     0.009 A 
ATOM     20  C   UNL     1       9.396  72.465  -2.065  1.00  0.00     0.009 A 
ATOM     21  C   UNL     1      10.802  72.685  -4.473  1.00  0.00     0.001 A 
ATOM     22  C   UNL     1       9.849  71.316  -2.718  1.00  0.00     0.001 A 
ATOM     23  C   UNL     1      10.548  71.426  -3.924  1.00  0.00     0.000 A 
ENDBRANCH   8  18
ENDBRANCH   3   8
ENDBRANCH   1   2
BRANCH   1  24
ATOM     24  C   UNL     1      13.339  79.361   0.755  1.00  0.00     0.245 C 
BRANCH  24  25
ATOM     25  C   UNL     1      14.670  79.879   0.200  1.00  0.00     0.125 C 
BRANCH  25  26
ATOM     26  N   UNL     1      14.489  80.433  -1.159  1.00  0.00    -0.306 NA
ATOM     27  C   UNL     1      13.094  80.863  -1.351  1.00  0.00     0.105 C 
ATOM     28  C   UNL     1      14.837  79.434  -2.185  1.00  0.00     0.105 C 
ENDBRANCH  25  26
ENDBRANCH  24  25
ENDBRANCH   1  24
TORSDOF 8
ENDMDL
MODEL 6
REMARK VINA RESULT:    -7.689      2.952      6.110
REMARK INTER + INTRA:         -13.765
REMARK INTER:                 -11.939
REMARK INTRA:                  -1.826
REMARK UNBOUND:                -2.479
REMARK SMILES CC/C(=C(\c1ccccc1)c1ccc(OCCN(C)C)cc1)c1ccccc1
REMARK SMILES IDX 15 1 14 2 11 3 12 4 22 5 13 6 21 7 4 8 3 9 2 10 1 11 23 12
REMARK SMILES IDX 24 13 28 14 25 15 27 16 26 17 5 18 6 19 10 20 7 21 9 22 8 23
REMARK SMILES IDX 16 24 17 25 18 26 19 27 20 28
REMARK H PARENT
REMARK Flexibility Score: inf
ROOT
ATOM      1  O   UNL     1       7.888  75.863  -0.974  1.00  0.00    -0.492 OA
ENDROOT
BRANCH   1   2
ATOM      2  C   UNL     1       9.039  76.601  -1.297  1.00  0.00     0.119 A 
ATOM      3  C   UNL     1      11.289  78.133  -2.031  1.00  0.00    -0.017 A 
ATOM      4  C   UNL     1      11.406  77.119  -1.069  1.00  0.00     0.012 A 
ATOM      5  C   UNL     1      10.034  78.388  -2.608  1.00  0.00     0.012 A 
ATOM      6  C   UNL     1      10.295  76.352  -0.708  1.00  0.00     0.047 A 
ATOM      7  C   UNL     1       8.924  77.621  -2.247  1.00  0.00     0.047 A 
BRANCH   3   8
ATOM      8  C   UNL     1      12.473  78.951  -2.400  1.00  0.00    -0.007 C 
ATOM      9  C   UNL     1      13.001  79.876  -1.547  1.00  0.00    -0.033 C 
BRANCH   9  10
ATOM     10  C   UNL     1      14.334  80.553  -1.817  1.00  0.00     0.033 C 
ATOM     11  C   UNL     1      15.513  79.619  -1.549  1.00  0.00     0.009 C 
ENDBRANCH   9  10
BRANCH   9  12
ATOM     12  C   UNL     1      12.276  80.277  -0.311  1.00  0.00    -0.022 A 
ATOM     13  C   UNL     1      11.061  80.981  -0.398  1.00  0.00     0.008 A 
ATOM     14  C   UNL     1      12.804  79.979   0.958  1.00  0.00     0.008 A 
ATOM     15  C   UNL     1      10.378  81.358   0.762  1.00  0.00     0.001 A 
ATOM     16  C   UNL     1      12.118  80.358   2.115  1.00  0.00     0.001 A 
ATOM     17  C   UNL     1      10.905  81.045   2.018  1.00  0.00     0.000 A 
ENDBRANCH   9  12
BRANCH   8  18
ATOM     18  C   UNL     1      13.068  78.684  -3.731  1.00  0.00    -0.018 A 
ATOM     19  C   UNL     1      13.423  79.756  -4.567  1.00  0.00     0.009 A 
ATOM     20  C   UNL     1      13.360  77.370  -4.133  1.00  0.00     0.009 A 
ATOM     21  C   UNL     1      14.022  79.513  -5.806  1.00  0.00     0.001 A 
ATOM     22  C   UNL     1      13.959  77.131  -5.372  1.00  0.00     0.001 A 
ATOM     23  C   UNL     1      14.287  78.202  -6.210  1.00  0.00     0.000 A 
ENDBRANCH   8  18
ENDBRANCH   3   8
ENDBRANCH   1   2
BRANCH   1  24
ATOM     24  C   UNL     1       7.275  75.807   0.314  1.00  0.00     0.245 C 
BRANCH  24  25
ATOM     25  C   UNL     1       6.148  76.841   0.421  1.00  0.00     0.125 C 
BRANCH  25  26
ATOM     26  N   UNL     1       6.638  78.083   1.057  1.00  0.00    -0.306 NA
ATOM     27  C   UNL     1       5.699  78.525   2.100  1.00  0.00     0.105 C 
ATOM     28  C   UNL     1       6.800  79.156   0.060  1.00  0.00     0.105 C 
ENDBRANCH  25  26
ENDBRANCH  24  25
ENDBRANCH   1  24
TORSDOF 8
ENDMDL
MODEL 7
REMARK VINA RESULT:    -7.647      2.942      6.664
REMARK INTER + INTRA:         -13.702
REMARK INTER:                 -11.391
REMARK INTRA:                  -2.311
REMARK UNBOUND:                -2.479
REMARK SMILES CC/C(=C(\c1ccccc1)c1ccc(OCCN(C)C)cc1)c1ccccc1
REMARK SMILES IDX 15 1 14 2 11 3 12 4 22 5 13 6 21 7 4 8 3 9 2 10 1 11 23 12
REMARK SMILES IDX 24 13 28 14 25 15 27 16 26 17 5 18 6 19 10 20 7 21 9 22 8 23
REMARK SMILES IDX 16 24 17 25 18 26 19 27 20 28
REMARK H PARENT
REMARK Flexibility Score: inf
ROOT
ATOM      1  O   UNL     1       9.072  73.799  -2.137  1.00  0.00    -0.492 OA
ENDROOT
BRANCH   1   2
ATOM      2  C   UNL     1       9.680  75.038  -1.879  1.00  0.00     0.119 A 
ATOM      3  C   UNL     1      10.896  77.502  -1.248  1.00  0.00    -0.017 A 
ATOM      4  C   UNL     1      10.509  77.221  -2.567  1.00  0.00     0.012 A 
ATOM      5  C   UNL     1      10.687  76.534  -0.252  1.00  0.00     0.012 A 
ATOM      6  C   UNL     1       9.899  76.003  -2.882  1.00  0.00     0.047 A 
ATOM      7  C   UNL     1      10.078  75.318  -0.567  1.00  0.00     0.047 A 
BRANCH   3   8
ATOM      8  C   UNL     1      11.554  78.794  -0.924  1.00  0.00    -0.007 C 
ATOM      9  C   UNL     1      10.833  79.924  -0.669  1.00  0.00    -0.033 C 
BRANCH   9  10
ATOM     10  C   UNL     1      11.478  81.185  -0.121  1.00  0.00     0.033 C 
ATOM     11  C   UNL     1      11.347  81.278   1.399  1.00  0.00     0.009 C 
ENDBRANCH   9  10
BRANCH   9  12
ATOM     12  C   UNL     1       9.370  79.973  -0.938  1.00  0.00    -0.022 A 
ATOM     13  C   UNL     1       8.886  80.550  -2.126  1.00  0.00     0.008 A 
ATOM     14  C   UNL     1       8.453  79.466  -0.001  1.00  0.00     0.008 A 
ATOM     15  C   UNL     1       7.512  80.596  -2.381  1.00  0.00     0.001 A 
ATOM     16  C   UNL     1       7.080  79.515  -0.260  1.00  0.00     0.001 A 
ATOM     17  C   UNL     1       6.610  80.077  -1.449  1.00  0.00     0.000 A 
ENDBRANCH   9  12
BRANCH   8  18
ATOM     18  C   UNL     1      13.035  78.780  -0.862  1.00  0.00    -0.018 A 
ATOM     19  C   UNL     1      13.787  79.153  -1.988  1.00  0.00     0.009 A 
ATOM     20  C   UNL     1      13.697  78.480   0.340  1.00  0.00     0.009 A 
ATOM     21  C   UNL     1      15.183  79.182  -1.925  1.00  0.00     0.001 A 
ATOM     22  C   UNL     1      15.093  78.510   0.400  1.00  0.00     0.001 A 
ATOM     23  C   UNL     1      15.836  78.857  -0.732  1.00  0.00     0.000 A 
ENDBRANCH   8  18
ENDBRANCH   3   8
ENDBRANCH   1   2
BRANCH   1  24
ATOM     24  C   UNL     1       9.338  72.964  -3.264  1.00  0.00     0.245 C 
BRANCH  24  25
ATOM     25  C   UNL     1      10.760  72.396  -3.190  1.00  0.00     0.125 C 
BRANCH  25  26
ATOM     26  N   UNL     1      11.169  71.840  -4.499  1.00  0.00    -0.306 NA
ATOM     27  C   UNL     1      12.074  72.775  -5.187  1.00  0.00     0.105 C 
ATOM     28  C   UNL     1       9.995  71.582  -5.351  1.00  0.00     0.105 C 
ENDBRANCH  25  26
ENDBRANCH  24  25
ENDBRANCH   1  24
TORSDOF 8
ENDMDL
MODEL 8
REMARK VINA RESULT:    -7.524      3.294      5.117
REMARK INTER + INTRA:         -13.522
REMARK INTER:                 -12.834
REMARK INTRA:                  -0.688
REMARK UNBOUND:                -2.479
REMARK SMILES CC/C(=C(\c1ccccc1)c1ccc(OCCN(C)C)cc1)c1ccccc1
REMARK SMILES IDX 15 1 14 2 11 3 12 4 22 5 13 6 21 7 4 8 3 9 2 10 1 11 23 12
REMARK SMILES IDX 24 13 28 14 25 15 27 16 26 17 5 18 6 19 10 20 7 21 9 22 8 23
REMARK SMILES IDX 16 24 17 25 18 26 19 27 20 28
REMARK H PARENT
REMARK Flexibility Score: inf
ROOT
ATOM      1  O   UNL     1      14.713  79.541  -4.970  1.00  0.00    -0.492 OA
ENDROOT
BRANCH   1   2
ATOM      2  C   UNL     1      13.586  79.098  -4.261  1.00  0.00     0.119 A 
ATOM      3  C   UNL     1      11.301  78.318  -2.803  1.00  0.00    -0.017 A 
ATOM      4  C   UNL     1      12.156  77.351  -3.351  1.00  0.00     0.012 A 
ATOM      5  C   UNL     1      11.587  79.679  -3.007  1.00  0.00     0.012 A 
ATOM      6  C   UNL     1      13.294  77.733  -4.067  1.00  0.00     0.047 A 
ATOM      7  C   UNL     1      12.724  80.060  -3.723  1.00  0.00     0.047 A 
BRANCH   3   8
ATOM      8  C   UNL     1      10.088  77.903  -2.053  1.00  0.00    -0.007 C 
ATOM      9  C   UNL     1       9.684  78.553  -0.924  1.00  0.00    -0.033 C 
BRANCH   9  10
ATOM     10  C   UNL     1       8.335  78.285  -0.279  1.00  0.00     0.033 C 
ATOM     11  C   UNL     1       7.296  79.336  -0.672  1.00  0.00     0.009 C 
ENDBRANCH   9  10
BRANCH   9  12
ATOM     12  C   UNL     1      10.566  79.549  -0.259  1.00  0.00    -0.022 A 
ATOM     13  C   UNL     1      11.824  79.162   0.239  1.00  0.00     0.008 A 
ATOM     14  C   UNL     1      10.148  80.882  -0.099  1.00  0.00     0.008 A 
ATOM     15  C   UNL     1      12.655  80.098   0.863  1.00  0.00     0.001 A 
ATOM     16  C   UNL     1      10.982  81.813   0.526  1.00  0.00     0.001 A 
ATOM     17  C   UNL     1      12.235  81.423   1.004  1.00  0.00     0.000 A 
ENDBRANCH   9  12
BRANCH   8  18
ATOM     18  C   UNL     1       9.324  76.765  -2.618  1.00  0.00    -0.018 A 
ATOM     19  C   UNL     1       9.807  75.454  -2.469  1.00  0.00     0.009 A 
ATOM     20  C   UNL     1       8.075  76.974  -3.227  1.00  0.00     0.009 A 
ATOM     21  C   UNL     1       9.072  74.373  -2.962  1.00  0.00     0.001 A 
ATOM     22  C   UNL     1       7.342  75.890  -3.718  1.00  0.00     0.001 A 
ATOM     23  C   UNL     1       7.842  74.591  -3.590  1.00  0.00     0.000 A 
ENDBRANCH   8  18
ENDBRANCH   3   8
ENDBRANCH   1   2
BRANCH   1  24
ATOM     24  C   UNL     1      15.742  80.382  -4.448  1.00  0.00     0.245 C 
BRANCH  24  25
ATOM     25  C   UNL     1      17.030  80.231  -5.267  1.00  0.00     0.125 C 
BRANCH  25  26
ATOM     26  N   UNL     1      16.717  79.933  -6.681  1.00  0.00    -0.306 NA
ATOM     27  C   UNL     1      17.572  78.840  -7.172  1.00  0.00     0.105 C 
ATOM     28  C   UNL     1      16.915  81.124  -7.526  1.00  0.00     0.105 C 
ENDBRANCH  25  26
ENDBRANCH  24  25
ENDBRANCH   1  24
TORSDOF 8
ENDMDL
MODEL 9
REMARK VINA RESULT:    -7.333      2.120      5.315
REMARK INTER + INTRA:         -13.241
REMARK INTER:                 -11.907
REMARK INTRA:                  -1.334
REMARK UNBOUND:                -2.479
REMARK SMILES CC/C(=C(\c1ccccc1)c1ccc(OCCN(C)C)cc1)c1ccccc1
REMARK SMILES IDX 15 1 14 2 11 3 12 4 22 5 13 6 21 7 4 8 3 9 2 10 1 11 23 12
REMARK SMILES IDX 24 13 28 14 25 15 27 16 26 17 5 18 6 19 10 20 7 21 9 22 8 23
REMARK SMILES IDX 16 24 17 25 18 26 19 27 20 28
REMARK H PARENT
REMARK Flexibility Score: inf
ROOT
ATOM      1  O   UNL     1      13.613  78.337  -2.266  1.00  0.00    -0.492 OA
ENDROOT
BRANCH   1   2
ATOM      2  C   UNL     1      12.328  77.836  -1.998  1.00  0.00     0.119 A 
ATOM      3  C   UNL     1       9.787  76.801  -1.353  1.00  0.00    -0.017 A 
ATOM      4  C   UNL     1      10.071  77.214  -2.662  1.00  0.00     0.012 A 
ATOM      5  C   UNL     1      10.777  76.927  -0.364  1.00  0.00     0.012 A 
ATOM      6  C   UNL     1      11.332  77.721  -2.988  1.00  0.00     0.047 A 
ATOM      7  C   UNL     1      12.037  77.433  -0.690  1.00  0.00     0.047 A 
BRANCH   3   8
ATOM      8  C   UNL     1       8.439  76.274  -1.013  1.00  0.00    -0.007 C 
ATOM      9  C   UNL     1       8.085  74.984  -1.279  1.00  0.00    -0.033 C 
BRANCH   9  10
ATOM     10  C   UNL     1       6.802  74.373  -0.739  1.00  0.00     0.033 C 
ATOM     11  C   UNL     1       5.648  74.500  -1.733  1.00  0.00     0.009 C 
ENDBRANCH   9  10
BRANCH   9  12
ATOM     12  C   UNL     1       8.940  74.117  -2.133  1.00  0.00    -0.022 A 
ATOM     13  C   UNL     1      10.043  73.441  -1.578  1.00  0.00     0.008 A 
ATOM     14  C   UNL     1       8.674  73.978  -3.507  1.00  0.00     0.008 A 
ATOM     15  C   UNL     1      10.847  72.625  -2.380  1.00  0.00     0.001 A 
ATOM     16  C   UNL     1       9.481  73.162  -4.303  1.00  0.00     0.001 A 
ATOM     17  C   UNL     1      10.565  72.484  -3.741  1.00  0.00     0.000 A 
ENDBRANCH   9  12
BRANCH   8  18
ATOM     18  C   UNL     1       7.515  77.218  -0.342  1.00  0.00    -0.018 A 
ATOM     19  C   UNL     1       6.732  76.782   0.740  1.00  0.00     0.009 A 
ATOM     20  C   UNL     1       7.474  78.570  -0.720  1.00  0.00     0.009 A 
ATOM     21  C   UNL     1       5.889  77.676   1.405  1.00  0.00     0.001 A 
ATOM     22  C   UNL     1       6.630  79.462  -0.053  1.00  0.00     0.001 A 
ATOM     23  C   UNL     1       5.835  79.014   1.006  1.00  0.00     0.000 A 
ENDBRANCH   8  18
ENDBRANCH   3   8
ENDBRANCH   1   2
BRANCH   1  24
ATOM     24  C   UNL     1      14.173  78.524  -3.566  1.00  0.00     0.245 C 
BRANCH  24  25
ATOM     25  C   UNL     1      15.162  79.696  -3.563  1.00  0.00     0.125 C 
BRANCH  25  26
ATOM     26  N   UNL     1      14.703  80.769  -4.472  1.00  0.00    -0.306 NA
ATOM     27  C   UNL     1      13.475  80.354  -5.168  1.00  0.00     0.105 C 
ATOM     28  C   UNL     1      15.741  81.096  -5.466  1.00  0.00     0.105 C 
ENDBRANCH  25  26
ENDBRANCH  24  25
ENDBRANCH   1  24
TORSDOF 8
ENDMDL
MODEL 10
REMARK VINA RESULT:    -7.271      3.034      6.376
REMARK INTER + INTRA:         -13.151
REMARK INTER:                 -13.715
REMARK INTRA:                   0.565
REMARK UNBOUND:                -2.479
REMARK SMILES CC/C(=C(\c1ccccc1)c1ccc(OCCN(C)C)cc1)c1ccccc1
REMARK SMILES IDX 15 1 14 2 11 3 12 4 22 5 13 6 21 7 4 8 3 9 2 10 1 11 23 12
REMARK SMILES IDX 24 13 28 14 25 15 27 16 26 17 5 18 6 19 10 20 7 21 9 22 8 23
REMARK SMILES IDX 16 24 17 25 18 26 19 27 20 28
REMARK H PARENT
REMARK Flexibility Score: inf
ROOT
ATOM      1  O   UNL     1       9.372  72.565  -1.694  1.00  0.00    -0.492 OA
ENDROOT
BRANCH   1   2
ATOM      2  C   UNL     1       9.562  73.955  -1.754  1.00  0.00     0.119 A 
ATOM      3  C   UNL     1       9.993  76.742  -1.769  1.00  0.00    -0.017 A 
ATOM      4  C   UNL     1       9.235  76.137  -2.782  1.00  0.00     0.012 A 
ATOM      5  C   UNL     1      10.550  75.939  -0.759  1.00  0.00     0.012 A 
ATOM      6  C   UNL     1       9.013  74.757  -2.774  1.00  0.00     0.047 A 
ATOM      7  C   UNL     1      10.328  74.561  -0.751  1.00  0.00     0.047 A 
BRANCH   3   8
ATOM      8  C   UNL     1      10.234  78.208  -1.792  1.00  0.00    -0.007 C 
ATOM      9  C   UNL     1       9.461  79.074  -1.076  1.00  0.00    -0.033 C 
BRANCH   9  10
ATOM     10  C   UNL     1       9.831  80.538  -0.913  1.00  0.00     0.033 C 
ATOM     11  C   UNL     1      10.494  80.811   0.436  1.00  0.00     0.009 C 
ENDBRANCH   9  10
BRANCH   9  12
ATOM     12  C   UNL     1       8.198  78.619  -0.433  1.00  0.00    -0.022 A 
ATOM     13  C   UNL     1       7.990  77.252  -0.168  1.00  0.00     0.008 A 
ATOM     14  C   UNL     1       7.189  79.540  -0.104  1.00  0.00     0.008 A 
ATOM     15  C   UNL     1       6.805  76.823   0.437  1.00  0.00     0.001 A 
ATOM     16  C   UNL     1       6.006  79.107   0.499  1.00  0.00     0.001 A 
ATOM     17  C   UNL     1       5.814  77.750   0.772  1.00  0.00     0.000 A 
ENDBRANCH   9  12
BRANCH   8  18
ATOM     18  C   UNL     1      11.380  78.673  -2.609  1.00  0.00    -0.018 A 
ATOM     19  C   UNL     1      12.322  77.746  -3.085  1.00  0.00     0.009 A 
ATOM     20  C   UNL     1      11.489  80.022  -2.985  1.00  0.00     0.009 A 
ATOM     21  C   UNL     1      13.382  78.171  -3.890  1.00  0.00     0.001 A 
ATOM     22  C   UNL     1      12.550  80.444  -3.791  1.00  0.00     0.001 A 
ATOM     23  C   UNL     1      13.499  79.520  -4.240  1.00  0.00     0.000 A 
ENDBRANCH   8  18
ENDBRANCH   3   8
ENDBRANCH   1   2
BRANCH   1  24
ATOM     24  C   UNL     1      10.256  71.585  -2.238  1.00  0.00     0.245 C 
BRANCH  24  25
ATOM     25  C   UNL     1       9.728  71.068  -3.581  1.00  0.00     0.125 C 
BRANCH  25  26
ATOM     26  N   UNL     1      10.595  71.520  -4.692  1.00  0.00    -0.306 NA
ATOM     27  C   UNL     1      11.766  72.238  -4.163  1.00  0.00     0.105 C 
ATOM     28  C   UNL     1       9.855  72.403  -5.611  1.00  0.00     0.105 C 
ENDBRANCH  25  26
ENDBRANCH  24  25
ENDBRANCH   1  24
TORSDOF 8
ENDMDL
MODEL 11
REMARK VINA RESULT:    -7.268      1.330      4.797
REMARK INTER + INTRA:         -13.146
REMARK INTER:                 -11.682
REMARK INTRA:                  -1.464
REMARK UNBOUND:                -2.479
REMARK SMILES CC/C(=C(\c1ccccc1)c1ccc(OCCN(C)C)cc1)c1ccccc1
REMARK SMILES IDX 15 1 14 2 11 3 12 4 22 5 13 6 21 7 4 8 3 9 2 10 1 11 23 12
REMARK SMILES IDX 24 13 28 14 25 15 27 16 26 17 5 18 6 19 10 20 7 21 9 22 8 23
REMARK SMILES IDX 16 24 17 25 18 26 19 27 20 28
REMARK H PARENT
REMARK Flexibility Score: inf
ROOT
ATOM      1  O   UNL     1      13.716  78.172  -2.248  1.00  0.00    -0.492 OA
ENDROOT
BRANCH   1   2
ATOM      2  C   UNL     1      12.415  77.707  -1.994  1.00  0.00     0.119 A 
ATOM      3  C   UNL     1       9.840  76.736  -1.380  1.00  0.00    -0.017 A 
ATOM      4  C   UNL     1      10.129  77.211  -2.667  1.00  0.00     0.012 A 
ATOM      5  C   UNL     1      10.844  76.768  -0.397  1.00  0.00     0.012 A 
ATOM      6  C   UNL     1      11.407  77.686  -2.978  1.00  0.00     0.047 A 
ATOM      7  C   UNL     1      12.120  77.243  -0.707  1.00  0.00     0.047 A 
BRANCH   3   8
ATOM      8  C   UNL     1       8.476  76.244  -1.055  1.00  0.00    -0.007 C 
ATOM      9  C   UNL     1       8.087  74.968  -1.341  1.00  0.00    -0.033 C 
BRANCH   9  10
ATOM     10  C   UNL     1       6.784  74.388  -0.817  1.00  0.00     0.033 C 
ATOM     11  C   UNL     1       5.668  74.461  -1.858  1.00  0.00     0.009 C 
ENDBRANCH   9  10
BRANCH   9  12
ATOM     12  C   UNL     1       8.923  74.088  -2.202  1.00  0.00    -0.022 A 
ATOM     13  C   UNL     1      10.005  73.378  -1.651  1.00  0.00     0.008 A 
ATOM     14  C   UNL     1       8.658  73.972  -3.578  1.00  0.00     0.008 A 
ATOM     15  C   UNL     1      10.790  72.550  -2.458  1.00  0.00     0.001 A 
ATOM     16  C   UNL     1       9.446  73.144  -4.381  1.00  0.00     0.001 A 
ATOM     17  C   UNL     1      10.510  72.431  -3.822  1.00  0.00     0.000 A 
ENDBRANCH   9  12
BRANCH   8  18
ATOM     18  C   UNL     1       7.575  77.205  -0.376  1.00  0.00    -0.018 A 
ATOM     19  C   UNL     1       7.512  78.537  -0.817  1.00  0.00     0.009 A 
ATOM     20  C   UNL     1       6.717  76.777   0.650  1.00  0.00     0.009 A 
ATOM     21  C   UNL     1       6.634  79.439  -0.209  1.00  0.00     0.001 A 
ATOM     22  C   UNL     1       5.840  77.681   1.256  1.00  0.00     0.001 A 
ATOM     23  C   UNL     1       5.801  79.012   0.830  1.00  0.00     0.000 A 
ENDBRANCH   8  18
ENDBRANCH   3   8
ENDBRANCH   1   2
BRANCH   1  24
ATOM     24  C   UNL     1      14.130  79.538  -2.200  1.00  0.00     0.245 C 
BRANCH  24  25
ATOM     25  C   UNL     1      14.818  79.846  -0.865  1.00  0.00     0.125 C 
BRANCH  25  26
ATOM     26  N   UNL     1      13.937  80.661  -0.001  1.00  0.00    -0.306 NA
ATOM     27  C   UNL     1      13.439  79.852   1.124  1.00  0.00     0.105 C 
ATOM     28  C   UNL     1      12.794  81.191  -0.765  1.00  0.00     0.105 C 
ENDBRANCH  25  26
ENDBRANCH  24  25
ENDBRANCH   1  24
TORSDOF 8
ENDMDL
MODEL 12
REMARK VINA RESULT:    -7.249      3.054      6.918
REMARK INTER + INTRA:         -13.119
REMARK INTER:                 -12.100
REMARK INTRA:                  -1.019
REMARK UNBOUND:                -2.479
REMARK SMILES CC/C(=C(\c1ccccc1)c1ccc(OCCN(C)C)cc1)c1ccccc1
REMARK SMILES IDX 15 1 14 2 11 3 12 4 22 5 13 6 21 7 4 8 3 9 2 10 1 11 23 12
REMARK SMILES IDX 24 13 28 14 25 15 27 16 26 17 5 18 6 19 10 20 7 21 9 22 8 23
REMARK SMILES IDX 16 24 17 25 18 26 19 27 20 28
REMARK H PARENT
REMARK Flexibility Score: inf
ROOT
ATOM      1  O   UNL     1      10.644  72.381  -1.982  1.00  0.00    -0.492 OA
ENDROOT
BRANCH   1   2
ATOM      2  C   UNL     1      10.243  73.705  -1.743  1.00  0.00     0.119 A 
ATOM      3  C   UNL     1       9.463  76.349  -1.151  1.00  0.00    -0.017 A 
ATOM      4  C   UNL     1       9.224  75.809  -2.423  1.00  0.00     0.012 A 
ATOM      5  C   UNL     1      10.111  75.563  -0.183  1.00  0.00     0.012 A 
ATOM      6  C   UNL     1       9.602  74.496  -2.718  1.00  0.00     0.047 A 
ATOM      7  C   UNL     1      10.489  74.252  -0.479  1.00  0.00     0.047 A 
BRANCH   3   8
ATOM      8  C   UNL     1       9.068  77.749  -0.849  1.00  0.00    -0.007 C 
ATOM      9  C   UNL     1       9.869  78.806  -1.169  1.00  0.00    -0.033 C 
BRANCH   9  10
ATOM     10  C   UNL     1       9.385  80.242  -1.073  1.00  0.00     0.033 C 
ATOM     11  C   UNL     1       9.082  80.835  -2.448  1.00  0.00     0.009 C 
ENDBRANCH   9  10
BRANCH   9  12
ATOM     12  C   UNL     1      11.274  78.593  -1.612  1.00  0.00    -0.022 A 
ATOM     13  C   UNL     1      12.324  78.612  -0.676  1.00  0.00     0.008 A 
ATOM     14  C   UNL     1      11.573  78.392  -2.971  1.00  0.00     0.008 A 
ATOM     15  C   UNL     1      13.644  78.411  -1.091  1.00  0.00     0.001 A 
ATOM     16  C   UNL     1      12.894  78.193  -3.381  1.00  0.00     0.001 A 
ATOM     17  C   UNL     1      13.929  78.200  -2.442  1.00  0.00     0.000 A 
ENDBRANCH   9  12
BRANCH   8  18
ATOM     18  C   UNL     1       7.742  77.936  -0.213  1.00  0.00    -0.018 A 
ATOM     19  C   UNL     1       7.060  76.831   0.322  1.00  0.00     0.009 A 
ATOM     20  C   UNL     1       7.196  79.222  -0.062  1.00  0.00     0.009 A 
ATOM     21  C   UNL     1       5.829  77.005   0.961  1.00  0.00     0.001 A 
ATOM     22  C   UNL     1       5.965  79.393   0.577  1.00  0.00     0.001 A 
ATOM     23  C   UNL     1       5.280  78.284   1.085  1.00  0.00     0.000 A 
ENDBRANCH   8  18
ENDBRANCH   3   8
ENDBRANCH   1   2
BRANCH   1  24
ATOM     24  C   UNL     1      11.203  71.893  -3.202  1.00  0.00     0.245 C 
BRANCH  24  25
ATOM     25  C   UNL     1      10.119  71.244  -4.070  1.00  0.00     0.125 C 
BRANCH  25  26
ATOM     26  N   UNL     1      10.201  71.737  -5.463  1.00  0.00    -0.306 NA
ATOM     27  C   UNL     1      11.382  72.599  -5.629  1.00  0.00     0.105 C 
ATOM     28  C   UNL     1       8.989  72.495  -5.824  1.00  0.00     0.105 C 
ENDBRANCH  25  26
ENDBRANCH  24  25
ENDBRANCH   1  24
TORSDOF 8
ENDMDL
MODEL 13
REMARK VINA RESULT:    -7.193      2.917      6.567
REMARK INTER + INTRA:         -13.037
REMARK INTER:                 -12.915
REMARK INTRA:                  -0.121
REMARK UNBOUND:                -2.479
REMARK SMILES CC/C(=C(\c1ccccc1)c1ccc(OCCN(C)C)cc1)c1ccccc1
REMARK SMILES IDX 15 1 14 2 11 3 12 4 22 5 13 6 21 7 4 8 3 9 2 10 1 11 23 12
REMARK SMILES IDX 24 13 28 14 25 15 27 16 26 17 5 18 6 19 10 20 7 21 9 22 8 23
REMARK SMILES IDX 16 24 17 25 18 26 19 27 20 28
REMARK H PARENT
REMARK Flexibility Score: inf
ROOT
ATOM      1  O   UNL     1       9.797  72.810  -1.557  1.00  0.00    -0.492 OA
ENDROOT
BRANCH   1   2
ATOM      2  C   UNL     1      10.057  74.188  -1.489  1.00  0.00     0.119 A 
ATOM      3  C   UNL     1      10.561  76.962  -1.468  1.00  0.00    -0.017 A 
ATOM      4  C   UNL     1      10.779  76.194  -0.314  1.00  0.00     0.012 A 
ATOM      5  C   UNL     1      10.071  76.335  -2.625  1.00  0.00     0.012 A 
ATOM      6  C   UNL     1      10.537  74.817  -0.323  1.00  0.00     0.047 A 
ATOM      7  C   UNL     1       9.830  74.960  -2.634  1.00  0.00     0.047 A 
BRANCH   3   8
ATOM      8  C   UNL     1      10.809  78.427  -1.445  1.00  0.00    -0.007 C 
ATOM      9  C   UNL     1       9.928  79.296  -0.871  1.00  0.00    -0.033 C 
BRANCH   9  10
ATOM     10  C   UNL     1      10.271  80.758  -0.643  1.00  0.00     0.033 C 
ATOM     11  C   UNL     1      10.892  80.990   0.734  1.00  0.00     0.009 C 
ENDBRANCH   9  10
BRANCH   9  12
ATOM     12  C   UNL     1       8.571  78.846  -0.456  1.00  0.00    -0.022 A 
ATOM     13  C   UNL     1       8.258  77.474  -0.424  1.00  0.00     0.008 A 
ATOM     14  C   UNL     1       7.581  79.782  -0.112  1.00  0.00     0.008 A 
ATOM     15  C   UNL     1       6.985  77.050  -0.033  1.00  0.00     0.001 A 
ATOM     16  C   UNL     1       6.309  79.353   0.278  1.00  0.00     0.001 A 
ATOM     17  C   UNL     1       6.011  77.988   0.319  1.00  0.00     0.000 A 
ENDBRANCH   9  12
BRANCH   8  18
ATOM     18  C   UNL     1      12.080  78.887  -2.052  1.00  0.00    -0.018 A 
ATOM     19  C   UNL     1      13.299  78.637  -1.400  1.00  0.00     0.009 A 
ATOM     20  C   UNL     1      12.089  79.498  -3.318  1.00  0.00     0.009 A 
ATOM     21  C   UNL     1      14.505  79.032  -1.986  1.00  0.00     0.001 A 
ATOM     22  C   UNL     1      13.296  79.891  -3.901  1.00  0.00     0.001 A 
ATOM     23  C   UNL     1      14.503  79.661  -3.234  1.00  0.00     0.000 A 
ENDBRANCH   8  18
ENDBRANCH   3   8
ENDBRANCH   1   2
BRANCH   1  24
ATOM     24  C   UNL     1      10.655  71.834  -2.150  1.00  0.00     0.245 C 
BRANCH  24  25
ATOM     25  C   UNL     1       9.931  71.097  -3.283  1.00  0.00     0.125 C 
BRANCH  25  26
ATOM     26  N   UNL     1       9.957  71.897  -4.527  1.00  0.00    -0.306 NA
ATOM     27  C   UNL     1       9.422  71.109  -5.649  1.00  0.00     0.105 C 
ATOM     28  C   UNL     1      11.330  72.329  -4.845  1.00  0.00     0.105 C 
ENDBRANCH  25  26
ENDBRANCH  24  25
ENDBRANCH   1  24
TORSDOF 8
ENDMDL
MODEL 14
REMARK VINA RESULT:    -7.068      2.007      2.733
REMARK INTER + INTRA:         -12.853
REMARK INTER:                 -11.602
REMARK INTRA:                  -1.252
REMARK UNBOUND:                -2.479
REMARK SMILES CC/C(=C(\c1ccccc1)c1ccc(OCCN(C)C)cc1)c1ccccc1
REMARK SMILES IDX 15 1 14 2 11 3 12 4 22 5 13 6 21 7 4 8 3 9 2 10 1 11 23 12
REMARK SMILES IDX 24 13 28 14 25 15 27 16 26 17 5 18 6 19 10 20 7 21 9 22 8 23
REMARK SMILES IDX 16 24 17 25 18 26 19 27 20 28
REMARK H PARENT
REMARK Flexibility Score: inf
ROOT
ATOM      1  O   UNL     1      13.144  78.184  -0.413  1.00  0.00    -0.492 OA
ENDROOT
BRANCH   1   2
ATOM      2  C   UNL     1      12.087  77.329  -0.767  1.00  0.00     0.119 A 
ATOM      3  C   UNL     1       9.948  75.678  -1.573  1.00  0.00    -0.017 A 
ATOM      4  C   UNL     1      10.531  75.515  -0.308  1.00  0.00     0.012 A 
ATOM      5  C   UNL     1      10.456  76.661  -2.439  1.00  0.00     0.012 A 
ATOM      6  C   UNL     1      11.586  76.336   0.098  1.00  0.00     0.047 A 
ATOM      7  C   UNL     1      11.511  77.481  -2.033  1.00  0.00     0.047 A 
BRANCH   3   8
ATOM      8  C   UNL     1       8.835  74.793  -2.001  1.00  0.00    -0.007 C 
ATOM      9  C   UNL     1       7.529  75.125  -1.784  1.00  0.00    -0.033 C 
BRANCH   9  10
ATOM     10  C   UNL     1       6.385  74.345  -2.410  1.00  0.00     0.033 C 
ATOM     11  C   UNL     1       6.100  74.801  -3.841  1.00  0.00     0.009 C 
ENDBRANCH   9  10
BRANCH   9  12
ATOM     12  C   UNL     1       7.168  76.266  -0.901  1.00  0.00    -0.022 A 
ATOM     13  C   UNL     1       6.420  76.047   0.271  1.00  0.00     0.008 A 
ATOM     14  C   UNL     1       7.547  77.578  -1.234  1.00  0.00     0.008 A 
ATOM     15  C   UNL     1       6.081  77.118   1.103  1.00  0.00     0.001 A 
ATOM     16  C   UNL     1       7.205  78.645  -0.400  1.00  0.00     0.001 A 
ATOM     17  C   UNL     1       6.474  78.416   0.769  1.00  0.00     0.000 A 
ENDBRANCH   9  12
BRANCH   8  18
ATOM     18  C   UNL     1       9.219  73.546  -2.704  1.00  0.00    -0.018 A 
ATOM     19  C   UNL     1       9.549  72.398  -1.965  1.00  0.00     0.009 A 
ATOM     20  C   UNL     1       9.174  73.473  -4.106  1.00  0.00     0.009 A 
ATOM     21  C   UNL     1       9.873  71.207  -2.621  1.00  0.00     0.001 A 
ATOM     22  C   UNL     1       9.498  72.281  -4.760  1.00  0.00     0.001 A 
ATOM     23  C   UNL     1       9.851  71.149  -4.017  1.00  0.00     0.000 A 
ENDBRANCH   8  18
ENDBRANCH   3   8
ENDBRANCH   1   2
BRANCH   1  24
ATOM     24  C   UNL     1      14.266  77.822   0.393  1.00  0.00     0.245 C 
BRANCH  24  25
ATOM     25  C   UNL     1      13.818  77.488   1.820  1.00  0.00     0.125 C 
BRANCH  25  26
ATOM     26  N   UNL     1      14.536  76.299   2.328  1.00  0.00    -0.306 NA
ATOM     27  C   UNL     1      14.823  75.368   1.223  1.00  0.00     0.105 C 
ATOM     28  C   UNL     1      13.743  75.604   3.357  1.00  0.00     0.105 C 
ENDBRANCH  25  26
ENDBRANCH  24  25
ENDBRANCH   1  24
TORSDOF 8
ENDMDL
MODEL 15
REMARK VINA RESULT:    -6.987      2.763      6.164
REMARK INTER + INTRA:         -12.734
REMARK INTER:                 -10.796
REMARK INTRA:                  -1.939
REMARK UNBOUND:                -2.479
REMARK SMILES CC/C(=C(\c1ccccc1)c1ccc(OCCN(C)C)cc1)c1ccccc1
REMARK SMILES IDX 15 1 14 2 11 3 12 4 22 5 13 6 21 7 4 8 3 9 2 10 1 11 23 12
REMARK SMILES IDX 24 13 28 14 25 15 27 16 26 17 5 18 6 19 10 20 7 21 9 22 8 23
REMARK SMILES IDX 16 24 17 25 18 26 19 27 20 28
REMARK H PARENT
REMARK Flexibility Score: inf
ROOT
ATOM      1  O   UNL     1       9.115  74.042  -2.041  1.00  0.00    -0.492 OA
ENDROOT
BRANCH   1   2
ATOM      2  C   UNL     1       9.758  75.260  -1.766  1.00  0.00     0.119 A 
ATOM      3  C   UNL     1      11.039  77.733  -1.328  1.00  0.00    -0.017 A 
ATOM      4  C   UNL     1      10.969  76.780  -0.301  1.00  0.00     0.012 A 
ATOM      5  C   UNL     1      10.447  77.447  -2.569  1.00  0.00     0.012 A 
ATOM      6  C   UNL     1      10.342  75.550  -0.517  1.00  0.00     0.047 A 
ATOM      7  C   UNL     1       9.820  76.218  -2.784  1.00  0.00     0.047 A 
BRANCH   3   8
ATOM      8  C   UNL     1      11.698  79.043  -1.086  1.00  0.00    -0.007 C 
ATOM      9  C   UNL     1      10.977  80.180  -0.868  1.00  0.00    -0.033 C 
BRANCH   9  10
ATOM     10  C   UNL     1      11.629  81.470  -0.400  1.00  0.00     0.033 C 
ATOM     11  C   UNL     1      11.232  81.822   1.033  1.00  0.00     0.009 C 
ENDBRANCH   9  10
BRANCH   9  12
ATOM     12  C   UNL     1       9.507  80.209  -1.100  1.00  0.00    -0.022 A 
ATOM     13  C   UNL     1       8.989  80.736  -2.298  1.00  0.00     0.008 A 
ATOM     14  C   UNL     1       8.618  79.734  -0.121  1.00  0.00     0.008 A 
ATOM     15  C   UNL     1       7.609  80.762  -2.518  1.00  0.00     0.001 A 
ATOM     16  C   UNL     1       7.239  79.764  -0.346  1.00  0.00     0.001 A 
ATOM     17  C   UNL     1       6.734  80.275  -1.544  1.00  0.00     0.000 A 
ENDBRANCH   9  12
BRANCH   8  18
ATOM     18  C   UNL     1      13.180  79.039  -1.062  1.00  0.00    -0.018 A 
ATOM     19  C   UNL     1      13.861  78.648   0.103  1.00  0.00     0.009 A 
ATOM     20  C   UNL     1      13.915  79.339  -2.221  1.00  0.00     0.009 A 
ATOM     21  C   UNL     1      15.257  78.602   0.121  1.00  0.00     0.001 A 
ATOM     22  C   UNL     1      15.312  79.292  -2.200  1.00  0.00     0.001 A 
ATOM     23  C   UNL     1      15.982  78.927  -1.029  1.00  0.00     0.000 A 
ENDBRANCH   8  18
ENDBRANCH   3   8
ENDBRANCH   1   2
BRANCH   1  24
ATOM     24  C   UNL     1       7.707  73.816  -1.974  1.00  0.00     0.245 C 
BRANCH  24  25
ATOM     25  C   UNL     1       6.974  75.098  -1.564  1.00  0.00     0.125 C 
BRANCH  25  26
ATOM     26  N   UNL     1       6.704  75.103  -0.109  1.00  0.00    -0.306 NA
ATOM     27  C   UNL     1       5.271  74.879   0.142  1.00  0.00     0.105 C 
ATOM     28  C   UNL     1       7.111  76.382   0.498  1.00  0.00     0.105 C 
ENDBRANCH  25  26
ENDBRANCH  24  25
ENDBRANCH   1  24
TORSDOF 8
ENDMDL
