MODEL 1
REMARK VINA RESULT:    -9.209      0.000      0.000
REMARK INTER + INTRA:         -13.181
REMARK INTER:                 -12.439
REMARK INTRA:                  -0.742
REMARK UNBOUND:                -0.742
REMARK SMILES Clc1ccc(CO/N=C(\Cn2ccnc2)c2ccc(Cl)cc2Cl)c(Cl)c1
REMARK SMILES IDX 8 1 9 2 7 3 6 4 5 5 1 6 2 7 26 8 3 9 24 10 4 11 25 12 10 13
REMARK SMILES IDX 11 14 12 15 15 16 13 17 14 18 16 19 17 20 22 21 18 22 21 23
REMARK SMILES IDX 23 24 19 25 20 26
REMARK H PARENT
REMARK Flexibility Score: inf
ROOT
ATOM      1  N   UNL     1      11.078  77.226  -1.460  1.00  0.00    -0.089 NA
ATOM      2  C   UNL     1      11.377  78.488  -1.408  1.00  0.00     0.108 C 
ENDROOT
BRANCH   1   3
ATOM      3  O   UNL     1      10.027  76.695  -0.743  1.00  0.00    -0.391 OA
BRANCH   3   4
ATOM      4  C   UNL     1       8.823  76.325  -1.398  1.00  0.00     0.301 C 
BRANCH   4   5
ATOM      5  C   UNL     1       9.006  74.977  -2.047  1.00  0.00     0.011 A 
ATOM      6  Cl  UNL     1       9.884  70.990  -4.090  1.00  0.00    -0.084 Cl
ATOM      7  C   UNL     1       9.543  72.520  -3.304  1.00  0.00     0.042 A 
ATOM      8  C   UNL     1       8.612  73.401  -3.861  1.00  0.00     0.041 A 
ATOM      9  C   UNL     1      10.210  72.864  -2.126  1.00  0.00     0.021 A 
ATOM     10  C   UNL     1       8.343  74.630  -3.246  1.00  0.00     0.049 A 
ATOM     11  C   UNL     1       9.947  74.086  -1.504  1.00  0.00     0.010 A 
ATOM     12  Cl  UNL     1       7.181  75.705  -4.016  1.00  0.00    -0.084 Cl
ENDBRANCH   4   5
ENDBRANCH   3   4
ENDBRANCH   1   3
BRANCH   2  13
ATOM     13  C   UNL     1      10.668  79.406  -0.442  1.00  0.00     0.183 C 
BRANCH  13  14
ATOM     14  N   UNL     1       9.327  79.717  -0.937  1.00  0.00    -0.331 N 
ATOM     15  C   UNL     1       9.006  80.230  -2.136  1.00  0.00     0.107 A 
ATOM     16  C   UNL     1       8.163  79.573  -0.276  1.00  0.00     0.199 A 
ATOM     17  C   UNL     1       7.639  80.389  -2.173  1.00  0.00     0.130 A 
ATOM     18  N   UNL     1       7.102  79.976  -1.007  1.00  0.00    -0.245 NA
ENDBRANCH  13  14
ENDBRANCH   2  13
BRANCH   2  19
ATOM     19  C   UNL     1      12.556  78.966  -2.154  1.00  0.00     0.020 A 
ATOM     20  C   UNL     1      12.368  79.570  -3.410  1.00  0.00     0.013 A 
ATOM     21  C   UNL     1      13.864  78.839  -1.639  1.00  0.00     0.051 A 
ATOM     22  C   UNL     1      13.463  80.020  -4.151  1.00  0.00     0.021 A 
ATOM     23  C   UNL     1      14.955  79.294  -2.390  1.00  0.00     0.041 A 
ATOM     24  Cl  UNL     1      14.170  78.183  -0.034  1.00  0.00    -0.084 Cl
ATOM     25  C   UNL     1      14.757  79.879  -3.644  1.00  0.00     0.042 A 
ATOM     26  Cl  UNL     1      16.131  80.446  -4.576  1.00  0.00    -0.084 Cl
ENDBRANCH   2  19
TORSDOF 6
ENDMDL
MODEL 2
REMARK VINA RESULT:    -8.994      2.121      3.039
REMARK INTER + INTRA:         -12.891
REMARK INTER:                 -12.270
REMARK INTRA:                  -0.620
REMARK UNBOUND:                -0.742
REMARK SMILES Clc1ccc(CO/N=C(\Cn2ccnc2)c2ccc(Cl)cc2Cl)c(Cl)c1
REMARK SMILES IDX 8 1 9 2 7 3 6 4 5 5 1 6 2 7 26 8 3 9 24 10 4 11 25 12 10 13
REMARK SMILES IDX 11 14 12 15 15 16 13 17 14 18 16 19 17 20 22 21 18 22 21 23
REMARK SMILES IDX 23 24 19 25 20 26
REMARK H PARENT
REMARK Flexibility Score: inf
ROOT
ATOM      1  N   UNL     1      11.436  78.042  -2.499  1.00  0.00    -0.089 NA
ATOM      2  C   UNL     1      11.623  79.287  -2.815  1.00  0.00     0.108 C 
ENDROOT
BRANCH   1   3
ATOM      3  O   UNL     1      10.259  77.601  -1.933  1.00  0.00    -0.391 OA
BRANCH   3   4
ATOM      4  C   UNL     1       9.315  76.876  -2.706  1.00  0.00     0.301 C 
BRANCH   4   5
ATOM      5  C   UNL     1       8.211  76.385  -1.806  1.00  0.00     0.011 A 
ATOM      6  Cl  UNL     1       5.110  74.779   1.134  1.00  0.00    -0.084 Cl
ATOM      7  C   UNL     1       6.298  75.397   0.003  1.00  0.00     0.042 A 
ATOM      8  C   UNL     1       6.424  74.822  -1.264  1.00  0.00     0.041 A 
ATOM      9  C   UNL     1       7.127  76.459   0.371  1.00  0.00     0.021 A 
ATOM     10  C   UNL     1       7.378  75.302  -2.170  1.00  0.00     0.049 A 
ATOM     11  C   UNL     1       8.080  76.947  -0.526  1.00  0.00     0.010 A 
ATOM     12  Cl  UNL     1       7.503  74.513  -3.739  1.00  0.00    -0.084 Cl
ENDBRANCH   4   5
ENDBRANCH   3   4
ENDBRANCH   1   3
BRANCH   2  13
ATOM     13  C   UNL     1      10.604  80.336  -2.440  1.00  0.00     0.183 C 
BRANCH  13  14
ATOM     14  N   UNL     1      10.695  80.637  -1.013  1.00  0.00    -0.331 N 
ATOM     15  C   UNL     1      11.755  81.137  -0.357  1.00  0.00     0.107 A 
ATOM     16  C   UNL     1       9.743  80.448  -0.079  1.00  0.00     0.199 A 
ATOM     17  C   UNL     1      11.418  81.238   0.974  1.00  0.00     0.130 A 
ATOM     18  N   UNL     1      10.152  80.808   1.155  1.00  0.00    -0.245 NA
ENDBRANCH  13  14
ENDBRANCH   2  13
BRANCH   2  19
ATOM     19  C   UNL     1      12.935  79.689  -3.358  1.00  0.00     0.020 A 
ATOM     20  C   UNL     1      12.983  80.366  -4.589  1.00  0.00     0.013 A 
ATOM     21  C   UNL     1      14.138  79.417  -2.672  1.00  0.00     0.051 A 
ATOM     22  C   UNL     1      14.209  80.747  -5.140  1.00  0.00     0.021 A 
ATOM     23  C   UNL     1      15.362  79.804  -3.233  1.00  0.00     0.041 A 
ATOM     24  Cl  UNL     1      14.150  78.660  -1.082  1.00  0.00    -0.084 Cl
ATOM     25  C   UNL     1      15.399  80.463  -4.465  1.00  0.00     0.042 A 
ATOM     26  Cl  UNL     1      16.937  80.944  -5.158  1.00  0.00    -0.084 Cl
ENDBRANCH   2  19
TORSDOF 6
ENDMDL
MODEL 3
REMARK VINA RESULT:    -8.980      1.737      6.741
REMARK INTER + INTRA:         -12.872
REMARK INTER:                 -11.878
REMARK INTRA:                  -0.994
REMARK UNBOUND:                -0.742
REMARK SMILES Clc1ccc(CO/N=C(\Cn2ccnc2)c2ccc(Cl)cc2Cl)c(Cl)c1
REMARK SMILES IDX 8 1 9 2 7 3 6 4 5 5 1 6 2 7 26 8 3 9 24 10 4 11 25 12 10 13
REMARK SMILES IDX 11 14 12 15 15 16 13 17 14 18 16 19 17 20 22 21 18 22 21 23
REMARK SMILES IDX 23 24 19 25 20 26
REMARK H PARENT
REMARK Flexibility Score: inf
ROOT
ATOM      1  N   UNL     1      10.591  77.075  -2.593  1.00  0.00    -0.089 NA
ATOM      2  C   UNL     1       9.502  76.374  -2.511  1.00  0.00     0.108 C 
ENDROOT
BRANCH   1   3
ATOM      3  O   UNL     1      10.571  78.453  -2.629  1.00  0.00    -0.391 OA
BRANCH   3   4
ATOM      4  C   UNL     1      11.407  79.208  -1.766  1.00  0.00     0.301 C 
BRANCH   4   5
ATOM      5  C   UNL     1      12.678  79.564  -2.493  1.00  0.00     0.011 A 
ATOM      6  Cl  UNL     1      16.452  80.394  -4.923  1.00  0.00    -0.084 Cl
ATOM      7  C   UNL     1      15.003  80.078  -3.988  1.00  0.00     0.042 A 
ATOM      8  C   UNL     1      15.104  79.554  -2.696  1.00  0.00     0.041 A 
ATOM      9  C   UNL     1      13.746  80.342  -4.535  1.00  0.00     0.021 A 
ATOM     10  C   UNL     1      13.952  79.287  -1.946  1.00  0.00     0.049 A 
ATOM     11  C   UNL     1      12.591  80.082  -3.795  1.00  0.00     0.010 A 
ATOM     12  Cl  UNL     1      14.150  78.600  -0.338  1.00  0.00    -0.084 Cl
ENDBRANCH   4   5
ENDBRANCH   3   4
ENDBRANCH   1   3
BRANCH   2  13
ATOM     13  C   UNL     1       8.151  77.041  -2.596  1.00  0.00     0.183 C 
BRANCH  13  14
ATOM     14  N   UNL     1       7.633  77.302  -1.254  1.00  0.00    -0.331 N 
ATOM     15  C   UNL     1       7.112  76.405  -0.400  1.00  0.00     0.107 A 
ATOM     16  C   UNL     1       7.555  78.492  -0.629  1.00  0.00     0.199 A 
ATOM     17  C   UNL     1       6.725  77.081   0.735  1.00  0.00     0.130 A 
ATOM     18  N   UNL     1       7.002  78.394   0.598  1.00  0.00    -0.245 NA
ENDBRANCH  13  14
ENDBRANCH   2  13
BRANCH   2  19
ATOM     19  C   UNL     1       9.605  74.902  -2.542  1.00  0.00     0.020 A 
ATOM     20  C   UNL     1       9.302  74.224  -3.735  1.00  0.00     0.013 A 
ATOM     21  C   UNL     1      10.004  74.162  -1.408  1.00  0.00     0.051 A 
ATOM     22  C   UNL     1       9.374  72.830  -3.795  1.00  0.00     0.021 A 
ATOM     23  C   UNL     1      10.074  72.765  -1.479  1.00  0.00     0.041 A 
ATOM     24  Cl  UNL     1      10.491  74.948   0.090  1.00  0.00    -0.084 Cl
ATOM     25  C   UNL     1       9.756  72.099  -2.667  1.00  0.00     0.042 A 
ATOM     26  Cl  UNL     1       9.847  70.349  -2.744  1.00  0.00    -0.084 Cl
ENDBRANCH   2  19
TORSDOF 6
ENDMDL
MODEL 4
REMARK VINA RESULT:    -8.960      3.670      7.507
REMARK INTER + INTRA:         -12.844
REMARK INTER:                 -12.429
REMARK INTRA:                  -0.415
REMARK UNBOUND:                -0.742
REMARK SMILES Clc1ccc(CO/N=C(\Cn2ccnc2)c2ccc(Cl)cc2Cl)c(Cl)c1
REMARK SMILES IDX 8 1 9 2 7 3 6 4 5 5 1 6 2 7 26 8 3 9 24 10 4 11 25 12 10 13
REMARK SMILES IDX 11 14 12 15 15 16 13 17 14 18 16 19 17 20 22 21 18 22 21 23
REMARK SMILES IDX 23 24 19 25 20 26
REMARK H PARENT
REMARK Flexibility Score: inf
ROOT
ATOM      1  N   UNL     1      11.720  79.712  -3.067  1.00  0.00    -0.089 NA
ATOM      2  C   UNL     1      11.532  79.808  -1.787  1.00  0.00     0.108 C 
ENDROOT
BRANCH   1   3
ATOM      3  O   UNL     1      12.946  79.959  -3.645  1.00  0.00    -0.391 OA
BRANCH   3   4
ATOM      4  C   UNL     1      13.031  80.607  -4.905  1.00  0.00     0.301 C 
BRANCH   4   5
ATOM      5  C   UNL     1      14.421  80.433  -5.461  1.00  0.00     0.011 A 
ATOM      6  Cl  UNL     1      18.521  80.059  -7.432  1.00  0.00    -0.084 Cl
ATOM      7  C   UNL     1      16.948  80.201  -6.672  1.00  0.00     0.042 A 
ATOM      8  C   UNL     1      16.196  79.055  -6.399  1.00  0.00     0.041 A 
ATOM      9  C   UNL     1      16.440  81.460  -6.347  1.00  0.00     0.021 A 
ATOM     10  C   UNL     1      14.933  79.160  -5.802  1.00  0.00     0.049 A 
ATOM     11  C   UNL     1      15.183  81.576  -5.750  1.00  0.00     0.010 A 
ATOM     12  Cl  UNL     1      14.026  77.679  -5.513  1.00  0.00    -0.084 Cl
ENDBRANCH   4   5
ENDBRANCH   3   4
ENDBRANCH   1   3
BRANCH   2  13
ATOM     13  C   UNL     1      12.623  80.336  -0.888  1.00  0.00     0.183 C 
BRANCH  13  14
ATOM     14  N   UNL     1      13.285  79.231  -0.197  1.00  0.00    -0.331 N 
ATOM     15  C   UNL     1      12.846  77.966  -0.088  1.00  0.00     0.107 A 
ATOM     16  C   UNL     1      14.447  79.275   0.482  1.00  0.00     0.199 A 
ATOM     17  C   UNL     1      13.761  77.266   0.665  1.00  0.00     0.130 A 
ATOM     18  N   UNL     1      14.772  78.083   1.026  1.00  0.00    -0.245 NA
ENDBRANCH  13  14
ENDBRANCH   2  13
BRANCH   2  19
ATOM     19  C   UNL     1      10.174  79.589  -1.254  1.00  0.00     0.020 A 
ATOM     20  C   UNL     1       9.573  80.602  -0.486  1.00  0.00     0.013 A 
ATOM     21  C   UNL     1       9.462  78.395  -1.499  1.00  0.00     0.051 A 
ATOM     22  C   UNL     1       8.294  80.422   0.048  1.00  0.00     0.021 A 
ATOM     23  C   UNL     1       8.180  78.225  -0.961  1.00  0.00     0.041 A 
ATOM     24  Cl  UNL     1      10.110  77.124  -2.531  1.00  0.00    -0.084 Cl
ATOM     25  C   UNL     1       7.599  79.233  -0.186  1.00  0.00     0.042 A 
ATOM     26  Cl  UNL     1       5.992  79.010   0.483  1.00  0.00    -0.084 Cl
ENDBRANCH   2  19
TORSDOF 6
ENDMDL
MODEL 5
REMARK VINA RESULT:    -8.905      1.887      3.224
REMARK INTER + INTRA:         -12.770
REMARK INTER:                 -12.381
REMARK INTRA:                  -0.389
REMARK UNBOUND:                -0.742
REMARK SMILES Clc1ccc(CO/N=C(\Cn2ccnc2)c2ccc(Cl)cc2Cl)c(Cl)c1
REMARK SMILES IDX 8 1 9 2 7 3 6 4 5 5 1 6 2 7 26 8 3 9 24 10 4 11 25 12 10 13
REMARK SMILES IDX 11 14 12 15 15 16 13 17 14 18 16 19 17 20 22 21 18 22 21 23
REMARK SMILES IDX 23 24 19 25 20 26
REMARK H PARENT
REMARK Flexibility Score: inf
ROOT
ATOM      1  N   UNL     1      10.756  77.520  -1.968  1.00  0.00    -0.089 NA
ATOM      2  C   UNL     1      11.723  78.335  -1.678  1.00  0.00     0.108 C 
ENDROOT
BRANCH   1   3
ATOM      3  O   UNL     1       9.840  77.109  -1.024  1.00  0.00    -0.391 OA
BRANCH   3   4
ATOM      4  C   UNL     1       8.602  76.540  -1.422  1.00  0.00     0.301 C 
BRANCH   4   5
ATOM      5  C   UNL     1       8.844  75.157  -1.967  1.00  0.00     0.011 A 
ATOM      6  Cl  UNL     1       9.900  71.065  -3.696  1.00  0.00    -0.084 Cl
ATOM      7  C   UNL     1       9.491  72.635  -3.031  1.00  0.00     0.042 A 
ATOM      8  C   UNL     1       8.553  73.446  -3.676  1.00  0.00     0.041 A 
ATOM      9  C   UNL     1      10.109  73.081  -1.861  1.00  0.00     0.021 A 
ATOM     10  C   UNL     1       8.229  74.707  -3.158  1.00  0.00     0.049 A 
ATOM     11  C   UNL     1       9.792  74.335  -1.335  1.00  0.00     0.010 A 
ATOM     12  Cl  UNL     1       7.061  75.689  -4.036  1.00  0.00    -0.084 Cl
ENDBRANCH   4   5
ENDBRANCH   3   4
ENDBRANCH   1   3
BRANCH   2  13
ATOM     13  C   UNL     1      11.970  78.757  -0.251  1.00  0.00     0.183 C 
BRANCH  13  14
ATOM     14  N   UNL     1      12.957  77.875   0.371  1.00  0.00    -0.331 N 
ATOM     15  C   UNL     1      12.786  76.589   0.720  1.00  0.00     0.107 A 
ATOM     16  C   UNL     1      14.214  78.190   0.736  1.00  0.00     0.199 A 
ATOM     17  C   UNL     1      13.957  76.150   1.297  1.00  0.00     0.130 A 
ATOM     18  N   UNL     1      14.860  77.152   1.308  1.00  0.00    -0.245 NA
ENDBRANCH  13  14
ENDBRANCH   2  13
BRANCH   2  19
ATOM     19  C   UNL     1      12.699  78.676  -2.731  1.00  0.00     0.020 A 
ATOM     20  C   UNL     1      12.880  77.787  -3.805  1.00  0.00     0.013 A 
ATOM     21  C   UNL     1      13.449  79.871  -2.690  1.00  0.00     0.051 A 
ATOM     22  C   UNL     1      13.807  78.071  -4.811  1.00  0.00     0.021 A 
ATOM     23  C   UNL     1      14.375  80.147  -3.704  1.00  0.00     0.041 A 
ATOM     24  Cl  UNL     1      13.207  81.076  -1.429  1.00  0.00    -0.084 Cl
ATOM     25  C   UNL     1      14.557  79.249  -4.760  1.00  0.00     0.042 A 
ATOM     26  Cl  UNL     1      15.720  79.604  -6.025  1.00  0.00    -0.084 Cl
ENDBRANCH   2  19
TORSDOF 6
ENDMDL
MODEL 6
REMARK VINA RESULT:    -8.831      2.264      6.903
REMARK INTER + INTRA:         -12.670
REMARK INTER:                 -11.995
REMARK INTRA:                  -0.675
REMARK UNBOUND:                -0.742
REMARK SMILES Clc1ccc(CO/N=C(\Cn2ccnc2)c2ccc(Cl)cc2Cl)c(Cl)c1
REMARK SMILES IDX 8 1 9 2 7 3 6 4 5 5 1 6 2 7 26 8 3 9 24 10 4 11 25 12 10 13
REMARK SMILES IDX 11 14 12 15 15 16 13 17 14 18 16 19 17 20 22 21 18 22 21 23
REMARK SMILES IDX 23 24 19 25 20 26
REMARK H PARENT
REMARK Flexibility Score: inf
ROOT
ATOM      1  N   UNL     1       9.010  77.004  -2.330  1.00  0.00    -0.089 NA
ATOM      2  C   UNL     1       9.075  75.815  -1.817  1.00  0.00     0.108 C 
ENDROOT
BRANCH   1   3
ATOM      3  O   UNL     1       8.862  78.130  -1.550  1.00  0.00    -0.391 OA
BRANCH   3   4
ATOM      4  C   UNL     1       9.174  79.413  -2.070  1.00  0.00     0.301 C 
BRANCH   4   5
ATOM      5  C   UNL     1      10.604  79.750  -1.735  1.00  0.00     0.011 A 
ATOM      6  Cl  UNL     1      14.996  80.428  -0.691  1.00  0.00    -0.084 Cl
ATOM      7  C   UNL     1      13.309  80.171  -1.092  1.00  0.00     0.042 A 
ATOM      8  C   UNL     1      12.308  80.580  -0.207  1.00  0.00     0.041 A 
ATOM      9  C   UNL     1      12.963  79.549  -2.294  1.00  0.00     0.021 A 
ATOM     10  C   UNL     1      10.958  80.368  -0.514  1.00  0.00     0.049 A 
ATOM     11  C   UNL     1      11.620  79.335  -2.611  1.00  0.00     0.010 A 
ATOM     12  Cl  UNL     1       9.750  80.882   0.659  1.00  0.00    -0.084 Cl
ENDBRANCH   4   5
ENDBRANCH   3   4
ENDBRANCH   1   3
BRANCH   2  13
ATOM     13  C   UNL     1       8.848  75.602  -0.340  1.00  0.00     0.183 C 
BRANCH  13  14
ATOM     14  N   UNL     1       7.418  75.652  -0.038  1.00  0.00    -0.331 N 
ATOM     15  C   UNL     1       6.485  74.755  -0.398  1.00  0.00     0.107 A 
ATOM     16  C   UNL     1       6.761  76.616   0.634  1.00  0.00     0.199 A 
ATOM     17  C   UNL     1       5.269  75.203   0.068  1.00  0.00     0.130 A 
ATOM     18  N   UNL     1       5.436  76.373   0.719  1.00  0.00    -0.245 NA
ENDBRANCH  13  14
ENDBRANCH   2  13
BRANCH   2  19
ATOM     19  C   UNL     1       9.169  74.656  -2.726  1.00  0.00     0.020 A 
ATOM     20  C   UNL     1      10.216  73.734  -2.547  1.00  0.00     0.013 A 
ATOM     21  C   UNL     1       8.235  74.447  -3.763  1.00  0.00     0.051 A 
ATOM     22  C   UNL     1      10.344  72.635  -3.399  1.00  0.00     0.021 A 
ATOM     23  C   UNL     1       8.372  73.341  -4.611  1.00  0.00     0.041 A 
ATOM     24  Cl  UNL     1       6.844  75.504  -3.986  1.00  0.00    -0.084 Cl
ATOM     25  C   UNL     1       9.425  72.440  -4.434  1.00  0.00     0.042 A 
ATOM     26  Cl  UNL     1       9.587  71.057  -5.502  1.00  0.00    -0.084 Cl
ENDBRANCH   2  19
TORSDOF 6
ENDMDL
MODEL 7
REMARK VINA RESULT:    -8.727      1.757      2.658
REMARK INTER + INTRA:         -12.530
REMARK INTER:                 -11.737
REMARK INTRA:                  -0.793
REMARK UNBOUND:                -0.742
REMARK SMILES Clc1ccc(CO/N=C(\Cn2ccnc2)c2ccc(Cl)cc2Cl)c(Cl)c1
REMARK SMILES IDX 8 1 9 2 7 3 6 4 5 5 1 6 2 7 26 8 3 9 24 10 4 11 25 12 10 13
REMARK SMILES IDX 11 14 12 15 15 16 13 17 14 18 16 19 17 20 22 21 18 22 21 23
REMARK SMILES IDX 23 24 19 25 20 26
REMARK H PARENT
REMARK Flexibility Score: inf
ROOT
ATOM      1  N   UNL     1      11.691  77.726  -2.802  1.00  0.00    -0.089 NA
ATOM      2  C   UNL     1      12.072  78.930  -2.502  1.00  0.00     0.108 C 
ENDROOT
BRANCH   1   3
ATOM      3  O   UNL     1      10.763  77.043  -2.046  1.00  0.00    -0.391 OA
BRANCH   3   4
ATOM      4  C   UNL     1      10.017  75.976  -2.612  1.00  0.00     0.301 C 
BRANCH   4   5
ATOM      5  C   UNL     1       8.746  75.788  -1.826  1.00  0.00     0.011 A 
ATOM      6  Cl  UNL     1       5.072  75.009   0.770  1.00  0.00    -0.084 Cl
ATOM      7  C   UNL     1       6.481  75.311  -0.229  1.00  0.00     0.042 A 
ATOM      8  C   UNL     1       6.521  74.841  -1.545  1.00  0.00     0.041 A 
ATOM      9  C   UNL     1       7.570  76.013   0.292  1.00  0.00     0.021 A 
ATOM     10  C   UNL     1       7.647  75.067  -2.346  1.00  0.00     0.049 A 
ATOM     11  C   UNL     1       8.697  76.246  -0.499  1.00  0.00     0.010 A 
ATOM     12  Cl  UNL     1       7.643  74.423  -3.984  1.00  0.00    -0.084 Cl
ENDBRANCH   4   5
ENDBRANCH   3   4
ENDBRANCH   1   3
BRANCH   2  13
ATOM     13  C   UNL     1      11.613  79.583  -1.221  1.00  0.00     0.183 C 
BRANCH  13  14
ATOM     14  N   UNL     1      10.205  79.964  -1.327  1.00  0.00    -0.331 N 
ATOM     15  C   UNL     1       9.268  79.869  -0.369  1.00  0.00     0.107 A 
ATOM     16  C   UNL     1       9.575  80.458  -2.409  1.00  0.00     0.199 A 
ATOM     17  C   UNL     1       8.077  80.311  -0.901  1.00  0.00     0.130 A 
ATOM     18  N   UNL     1       8.264  80.684  -2.184  1.00  0.00    -0.245 NA
ENDBRANCH  13  14
ENDBRANCH   2  13
BRANCH   2  19
ATOM     19  C   UNL     1      13.117  79.567  -3.326  1.00  0.00     0.020 A 
ATOM     20  C   UNL     1      12.741  80.245  -4.498  1.00  0.00     0.013 A 
ATOM     21  C   UNL     1      14.481  79.518  -2.964  1.00  0.00     0.051 A 
ATOM     22  C   UNL     1      13.706  80.846  -5.309  1.00  0.00     0.021 A 
ATOM     23  C   UNL     1      15.441  80.124  -3.784  1.00  0.00     0.041 A 
ATOM     24  Cl  UNL     1      15.017  78.771  -1.462  1.00  0.00    -0.084 Cl
ATOM     25  C   UNL     1      15.056  80.783  -4.956  1.00  0.00     0.042 A 
ATOM     26  Cl  UNL     1      16.267  81.540  -5.975  1.00  0.00    -0.084 Cl
ENDBRANCH   2  19
TORSDOF 6
ENDMDL
MODEL 8
REMARK VINA RESULT:    -8.725      3.178      7.290
REMARK INTER + INTRA:         -12.527
REMARK INTER:                 -11.852
REMARK INTRA:                  -0.674
REMARK UNBOUND:                -0.742
REMARK SMILES Clc1ccc(CO/N=C(\Cn2ccnc2)c2ccc(Cl)cc2Cl)c(Cl)c1
REMARK SMILES IDX 8 1 9 2 7 3 6 4 5 5 1 6 2 7 26 8 3 9 24 10 4 11 25 12 10 13
REMARK SMILES IDX 11 14 12 15 15 16 13 17 14 18 16 19 17 20 22 21 18 22 21 23
REMARK SMILES IDX 23 24 19 25 20 26
REMARK H PARENT
REMARK Flexibility Score: inf
ROOT
ATOM      1  N   UNL     1      11.835  79.164  -3.015  1.00  0.00    -0.089 NA
ATOM      2  C   UNL     1      11.049  79.407  -2.011  1.00  0.00     0.108 C 
ENDROOT
BRANCH   1   3
ATOM      3  O   UNL     1      12.793  80.065  -3.427  1.00  0.00    -0.391 OA
BRANCH   3   4
ATOM      4  C   UNL     1      12.778  80.576  -4.751  1.00  0.00     0.301 C 
BRANCH   4   5
ATOM      5  C   UNL     1      14.161  80.466  -5.340  1.00  0.00     0.011 A 
ATOM      6  Cl  UNL     1      18.225  80.280  -7.412  1.00  0.00    -0.084 Cl
ATOM      7  C   UNL     1      16.666  80.350  -6.613  1.00  0.00     0.042 A 
ATOM      8  C   UNL     1      15.976  79.171  -6.318  1.00  0.00     0.041 A 
ATOM      9  C   UNL     1      16.106  81.585  -6.279  1.00  0.00     0.021 A 
ATOM     10  C   UNL     1      14.725  79.218  -5.691  1.00  0.00     0.049 A 
ATOM     11  C   UNL     1      14.861  81.643  -5.651  1.00  0.00     0.010 A 
ATOM     12  Cl  UNL     1      13.898  77.696  -5.375  1.00  0.00    -0.084 Cl
ENDBRANCH   4   5
ENDBRANCH   3   4
ENDBRANCH   1   3
BRANCH   2  13
ATOM     13  C   UNL     1      11.059  80.758  -1.337  1.00  0.00     0.183 C 
BRANCH  13  14
ATOM     14  N   UNL     1      11.515  80.627   0.046  1.00  0.00    -0.331 N 
ATOM     15  C   UNL     1      10.982  81.210   1.132  1.00  0.00     0.107 A 
ATOM     16  C   UNL     1      12.570  79.919   0.491  1.00  0.00     0.199 A 
ATOM     17  C   UNL     1      11.736  80.839   2.222  1.00  0.00     0.130 A 
ATOM     18  N   UNL     1      12.736  80.025   1.826  1.00  0.00    -0.245 NA
ENDBRANCH  13  14
ENDBRANCH   2  13
BRANCH   2  19
ATOM     19  C   UNL     1      10.007  78.418  -1.673  1.00  0.00     0.020 A 
ATOM     20  C   UNL     1      10.396  77.164  -1.172  1.00  0.00     0.013 A 
ATOM     21  C   UNL     1       8.634  78.701  -1.834  1.00  0.00     0.051 A 
ATOM     22  C   UNL     1       9.437  76.198  -0.857  1.00  0.00     0.021 A 
ATOM     23  C   UNL     1       7.680  77.727  -1.515  1.00  0.00     0.041 A 
ATOM     24  Cl  UNL     1       8.068  80.282  -2.364  1.00  0.00    -0.084 Cl
ATOM     25  C   UNL     1       8.079  76.477  -1.032  1.00  0.00     0.042 A 
ATOM     26  Cl  UNL     1       6.876  75.264  -0.634  1.00  0.00    -0.084 Cl
ENDBRANCH   2  19
TORSDOF 6
ENDMDL
MODEL 9
REMARK VINA RESULT:    -8.713      1.819      2.099
REMARK INTER + INTRA:         -12.510
REMARK INTER:                 -12.210
REMARK INTRA:                  -0.301
REMARK UNBOUND:                -0.742
REMARK SMILES Clc1ccc(CO/N=C(\Cn2ccnc2)c2ccc(Cl)cc2Cl)c(Cl)c1
REMARK SMILES IDX 8 1 9 2 7 3 6 4 5 5 1 6 2 7 26 8 3 9 24 10 4 11 25 12 10 13
REMARK SMILES IDX 11 14 12 15 15 16 13 17 14 18 16 19 17 20 22 21 18 22 21 23
REMARK SMILES IDX 23 24 19 25 20 26
REMARK H PARENT
REMARK Flexibility Score: inf
ROOT
ATOM      1  N   UNL     1      11.521  77.474  -1.670  1.00  0.00    -0.089 NA
ATOM      2  C   UNL     1      12.372  78.390  -1.324  1.00  0.00     0.108 C 
ENDROOT
BRANCH   1   3
ATOM      3  O   UNL     1      10.824  76.735  -0.739  1.00  0.00    -0.391 OA
BRANCH   3   4
ATOM      4  C   UNL     1       9.468  76.383  -0.967  1.00  0.00     0.301 C 
BRANCH   4   5
ATOM      5  C   UNL     1       9.413  75.065  -1.695  1.00  0.00     0.011 A 
ATOM      6  Cl  UNL     1       9.576  71.126  -3.996  1.00  0.00    -0.084 Cl
ATOM      7  C   UNL     1       9.510  72.638  -3.111  1.00  0.00     0.042 A 
ATOM      8  C   UNL     1       8.686  73.675  -3.558  1.00  0.00     0.041 A 
ATOM      9  C   UNL     1      10.288  72.811  -1.965  1.00  0.00     0.021 A 
ATOM     10  C   UNL     1       8.636  74.890  -2.863  1.00  0.00     0.049 A 
ATOM     11  C   UNL     1      10.243  74.018  -1.264  1.00  0.00     0.010 A 
ATOM     12  Cl  UNL     1       7.600  76.165  -3.496  1.00  0.00    -0.084 Cl
ENDBRANCH   4   5
ENDBRANCH   3   4
ENDBRANCH   1   3
BRANCH   2  13
ATOM     13  C   UNL     1      12.741  78.586   0.126  1.00  0.00     0.183 C 
BRANCH  13  14
ATOM     14  N   UNL     1      12.102  79.793   0.649  1.00  0.00    -0.331 N 
ATOM     15  C   UNL     1      11.103  80.489   0.081  1.00  0.00     0.107 A 
ATOM     16  C   UNL     1      12.408  80.450   1.784  1.00  0.00     0.199 A 
ATOM     17  C   UNL     1      10.826  81.566   0.893  1.00  0.00     0.130 A 
ATOM     18  N   UNL     1      11.642  81.546   1.967  1.00  0.00    -0.245 NA
ENDBRANCH  13  14
ENDBRANCH   2  13
BRANCH   2  19
ATOM     19  C   UNL     1      13.125  79.091  -2.381  1.00  0.00     0.020 A 
ATOM     20  C   UNL     1      12.424  79.612  -3.484  1.00  0.00     0.013 A 
ATOM     21  C   UNL     1      14.525  79.258  -2.312  1.00  0.00     0.051 A 
ATOM     22  C   UNL     1      13.106  80.268  -4.511  1.00  0.00     0.021 A 
ATOM     23  C   UNL     1      15.199  79.919  -3.346  1.00  0.00     0.041 A 
ATOM     24  Cl  UNL     1      15.456  78.720  -0.918  1.00  0.00    -0.084 Cl
ATOM     25  C   UNL     1      14.494  80.419  -4.445  1.00  0.00     0.042 A 
ATOM     26  Cl  UNL     1      15.349  81.245  -5.735  1.00  0.00    -0.084 Cl
ENDBRANCH   2  19
TORSDOF 6
ENDMDL
MODEL 10
REMARK VINA RESULT:    -8.607      3.567      7.660
REMARK INTER + INTRA:         -12.368
REMARK INTER:                 -11.977
REMARK INTRA:                  -0.390
REMARK UNBOUND:                -0.742
REMARK SMILES Clc1ccc(CO/N=C(\Cn2ccnc2)c2ccc(Cl)cc2Cl)c(Cl)c1
REMARK SMILES IDX 8 1 9 2 7 3 6 4 5 5 1 6 2 7 26 8 3 9 24 10 4 11 25 12 10 13
REMARK SMILES IDX 11 14 12 15 15 16 13 17 14 18 16 19 17 20 22 21 18 22 21 23
REMARK SMILES IDX 23 24 19 25 20 26
REMARK H PARENT
REMARK Flexibility Score: inf
ROOT
ATOM      1  N   UNL     1      12.728  78.409  -3.874  1.00  0.00    -0.089 NA
ATOM      2  C   UNL     1      12.516  78.948  -2.713  1.00  0.00     0.108 C 
ENDROOT
BRANCH   1   3
ATOM      3  O   UNL     1      13.993  78.299  -4.408  1.00  0.00    -0.391 OA
BRANCH   3   4
ATOM      4  C   UNL     1      14.188  78.336  -5.814  1.00  0.00     0.301 C 
BRANCH   4   5
ATOM      5  C   UNL     1      15.347  79.244  -6.131  1.00  0.00     0.011 A 
ATOM      6  Cl  UNL     1      19.034  81.844  -6.832  1.00  0.00    -0.084 Cl
ATOM      7  C   UNL     1      17.616  80.847  -6.566  1.00  0.00     0.042 A 
ATOM      8  C   UNL     1      16.434  81.423  -6.095  1.00  0.00     0.041 A 
ATOM      9  C   UNL     1      17.671  79.474  -6.814  1.00  0.00     0.021 A 
ATOM     10  C   UNL     1      15.300  80.633  -5.868  1.00  0.00     0.049 A 
ATOM     11  C   UNL     1      16.546  78.677  -6.594  1.00  0.00     0.010 A 
ATOM     12  Cl  UNL     1      13.852  81.418  -5.248  1.00  0.00    -0.084 Cl
ENDBRANCH   4   5
ENDBRANCH   3   4
ENDBRANCH   1   3
BRANCH   2  13
ATOM     13  C   UNL     1      13.642  79.610  -1.957  1.00  0.00     0.183 C 
BRANCH  13  14
ATOM     14  N   UNL     1      13.930  78.866  -0.732  1.00  0.00    -0.331 N 
ATOM     15  C   UNL     1      13.228  77.840  -0.224  1.00  0.00     0.107 A 
ATOM     16  C   UNL     1      14.939  79.083   0.134  1.00  0.00     0.199 A 
ATOM     17  C   UNL     1      13.832  77.456   0.952  1.00  0.00     0.130 A 
ATOM     18  N   UNL     1      14.910  78.233   1.182  1.00  0.00    -0.245 NA
ENDBRANCH  13  14
ENDBRANCH   2  13
BRANCH   2  19
ATOM     19  C   UNL     1      11.125  79.086  -2.241  1.00  0.00     0.020 A 
ATOM     20  C   UNL     1      10.673  80.346  -1.812  1.00  0.00     0.013 A 
ATOM     21  C   UNL     1      10.237  77.989  -2.215  1.00  0.00     0.051 A 
ATOM     22  C   UNL     1       9.368  80.509  -1.344  1.00  0.00     0.021 A 
ATOM     23  C   UNL     1       8.929  78.163  -1.745  1.00  0.00     0.041 A 
ATOM     24  Cl  UNL     1      10.700  76.405  -2.827  1.00  0.00    -0.084 Cl
ATOM     25  C   UNL     1       8.496  79.418  -1.306  1.00  0.00     0.042 A 
ATOM     26  Cl  UNL     1       6.855  79.625  -0.720  1.00  0.00    -0.084 Cl
ENDBRANCH   2  19
TORSDOF 6
ENDMDL
MODEL 11
REMARK VINA RESULT:    -8.509      3.294      4.935
REMARK INTER + INTRA:         -12.235
REMARK INTER:                 -12.054
REMARK INTRA:                  -0.182
REMARK UNBOUND:                -0.742
REMARK SMILES Clc1ccc(CO/N=C(\Cn2ccnc2)c2ccc(Cl)cc2Cl)c(Cl)c1
REMARK SMILES IDX 8 1 9 2 7 3 6 4 5 5 1 6 2 7 26 8 3 9 24 10 4 11 25 12 10 13
REMARK SMILES IDX 11 14 12 15 15 16 13 17 14 18 16 19 17 20 22 21 18 22 21 23
REMARK SMILES IDX 23 24 19 25 20 26
REMARK H PARENT
REMARK Flexibility Score: inf
ROOT
ATOM      1  N   UNL     1      11.981  78.178  -3.233  1.00  0.00    -0.089 NA
ATOM      2  C   UNL     1      12.694  79.257  -3.128  1.00  0.00     0.108 C 
ENDROOT
BRANCH   1   3
ATOM      3  O   UNL     1      11.073  77.806  -2.266  1.00  0.00    -0.391 OA
BRANCH   3   4
ATOM      4  C   UNL     1       9.776  77.356  -2.631  1.00  0.00     0.301 C 
BRANCH   4   5
ATOM      5  C   UNL     1       8.791  77.772  -1.569  1.00  0.00     0.011 A 
ATOM      6  Cl  UNL     1       5.559  78.873   1.462  1.00  0.00    -0.084 Cl
ATOM      7  C   UNL     1       6.803  78.451   0.300  1.00  0.00     0.042 A 
ATOM      8  C   UNL     1       7.429  79.451  -0.449  1.00  0.00     0.041 A 
ATOM      9  C   UNL     1       7.163  77.115   0.116  1.00  0.00     0.021 A 
ATOM     10  C   UNL     1       8.415  79.123  -1.388  1.00  0.00     0.049 A 
ATOM     11  C   UNL     1       8.147  76.776  -0.816  1.00  0.00     0.010 A 
ATOM     12  Cl  UNL     1       9.143  80.428  -2.318  1.00  0.00    -0.084 Cl
ENDBRANCH   4   5
ENDBRANCH   3   4
ENDBRANCH   1   3
BRANCH   2  13
ATOM     13  C   UNL     1      12.658  80.081  -1.864  1.00  0.00     0.183 C 
BRANCH  13  14
ATOM     14  N   UNL     1      13.382  79.395  -0.795  1.00  0.00    -0.331 N 
ATOM     15  C   UNL     1      12.901  79.036   0.406  1.00  0.00     0.107 A 
ATOM     16  C   UNL     1      14.674  79.016  -0.801  1.00  0.00     0.199 A 
ATOM     17  C   UNL     1      13.925  78.442   1.109  1.00  0.00     0.130 A 
ATOM     18  N   UNL     1      15.043  78.425   0.355  1.00  0.00    -0.245 NA
ENDBRANCH  13  14
ENDBRANCH   2  13
BRANCH   2  19
ATOM     19  C   UNL     1      13.690  79.551  -4.176  1.00  0.00     0.020 A 
ATOM     20  C   UNL     1      14.186  80.861  -4.295  1.00  0.00     0.013 A 
ATOM     21  C   UNL     1      14.161  78.552  -5.055  1.00  0.00     0.051 A 
ATOM     22  C   UNL     1      15.118  81.178  -5.286  1.00  0.00     0.021 A 
ATOM     23  C   UNL     1      15.096  78.880  -6.045  1.00  0.00     0.041 A 
ATOM     24  Cl  UNL     1      13.659  76.872  -4.905  1.00  0.00    -0.084 Cl
ATOM     25  C   UNL     1      15.571  80.190  -6.163  1.00  0.00     0.042 A 
ATOM     26  Cl  UNL     1      16.743  80.590  -7.406  1.00  0.00    -0.084 Cl
ENDBRANCH   2  19
TORSDOF 6
ENDMDL
MODEL 12
REMARK VINA RESULT:    -8.439      1.343      6.714
REMARK INTER + INTRA:         -12.140
REMARK INTER:                 -12.059
REMARK INTRA:                  -0.081
REMARK UNBOUND:                -0.742
REMARK SMILES Clc1ccc(CO/N=C(\Cn2ccnc2)c2ccc(Cl)cc2Cl)c(Cl)c1
REMARK SMILES IDX 8 1 9 2 7 3 6 4 5 5 1 6 2 7 26 8 3 9 24 10 4 11 25 12 10 13
REMARK SMILES IDX 11 14 12 15 15 16 13 17 14 18 16 19 17 20 22 21 18 22 21 23
REMARK SMILES IDX 23 24 19 25 20 26
REMARK H PARENT
REMARK Flexibility Score: inf
ROOT
ATOM      1  N   UNL     1      10.599  77.234  -1.215  1.00  0.00    -0.089 NA
ATOM      2  C   UNL     1       9.494  76.693  -1.628  1.00  0.00     0.108 C 
ENDROOT
BRANCH   1   3
ATOM      3  O   UNL     1      10.676  78.567  -0.873  1.00  0.00    -0.391 OA
BRANCH   3   4
ATOM      4  C   UNL     1      11.905  79.128  -0.436  1.00  0.00     0.301 C 
BRANCH   4   5
ATOM      5  C   UNL     1      12.758  79.449  -1.636  1.00  0.00     0.011 A 
ATOM      6  Cl  UNL     1      15.212  80.138  -5.424  1.00  0.00    -0.084 Cl
ATOM      7  C   UNL     1      14.270  79.876  -3.967  1.00  0.00     0.042 A 
ATOM      8  C   UNL     1      14.911  79.552  -2.769  1.00  0.00     0.041 A 
ATOM      9  C   UNL     1      12.879  79.983  -4.007  1.00  0.00     0.021 A 
ATOM     10  C   UNL     1      14.166  79.330  -1.604  1.00  0.00     0.049 A 
ATOM     11  C   UNL     1      12.127  79.766  -2.850  1.00  0.00     0.010 A 
ATOM     12  Cl  UNL     1      15.033  78.896  -0.134  1.00  0.00    -0.084 Cl
ENDBRANCH   4   5
ENDBRANCH   3   4
ENDBRANCH   1   3
BRANCH   2  13
ATOM     13  C   UNL     1       8.273  77.542  -1.886  1.00  0.00     0.183 C 
BRANCH  13  14
ATOM     14  N   UNL     1       7.481  77.670  -0.664  1.00  0.00    -0.331 N 
ATOM     15  C   UNL     1       6.929  76.674   0.050  1.00  0.00     0.107 A 
ATOM     16  C   UNL     1       7.133  78.808  -0.035  1.00  0.00     0.199 A 
ATOM     17  C   UNL     1       6.249  77.240   1.105  1.00  0.00     0.130 A 
ATOM     18  N   UNL     1       6.375  78.582   1.059  1.00  0.00    -0.245 NA
ENDBRANCH  13  14
ENDBRANCH   2  13
BRANCH   2  19
ATOM     19  C   UNL     1       9.510  75.275  -2.036  1.00  0.00     0.020 A 
ATOM     20  C   UNL     1      10.381  74.388  -1.379  1.00  0.00     0.013 A 
ATOM     21  C   UNL     1       8.671  74.787  -3.061  1.00  0.00     0.051 A 
ATOM     22  C   UNL     1      10.434  73.043  -1.751  1.00  0.00     0.021 A 
ATOM     23  C   UNL     1       8.731  73.436  -3.425  1.00  0.00     0.041 A 
ATOM     24  Cl  UNL     1       7.487  75.816  -3.860  1.00  0.00    -0.084 Cl
ATOM     25  C   UNL     1       9.612  72.567  -2.776  1.00  0.00     0.042 A 
ATOM     26  Cl  UNL     1       9.678  70.876  -3.239  1.00  0.00    -0.084 Cl
ENDBRANCH   2  19
TORSDOF 6
ENDMDL
MODEL 13
REMARK VINA RESULT:    -8.420      2.296      7.068
REMARK INTER + INTRA:         -12.116
REMARK INTER:                 -12.100
REMARK INTRA:                  -0.015
REMARK UNBOUND:                -0.742
REMARK SMILES Clc1ccc(CO/N=C(\Cn2ccnc2)c2ccc(Cl)cc2Cl)c(Cl)c1
REMARK SMILES IDX 8 1 9 2 7 3 6 4 5 5 1 6 2 7 26 8 3 9 24 10 4 11 25 12 10 13
REMARK SMILES IDX 11 14 12 15 15 16 13 17 14 18 16 19 17 20 22 21 18 22 21 23
REMARK SMILES IDX 23 24 19 25 20 26
REMARK H PARENT
REMARK Flexibility Score: inf
ROOT
ATOM      1  N   UNL     1      10.633  77.449  -2.435  1.00  0.00    -0.089 NA
ATOM      2  C   UNL     1       9.676  78.057  -1.803  1.00  0.00     0.108 C 
ENDROOT
BRANCH   1   3
ATOM      3  O   UNL     1      11.638  78.140  -3.076  1.00  0.00    -0.391 OA
BRANCH   3   4
ATOM      4  C   UNL     1      13.000  77.828  -2.825  1.00  0.00     0.301 C 
BRANCH   4   5
ATOM      5  C   UNL     1      13.869  78.583  -3.798  1.00  0.00     0.011 A 
ATOM      6  Cl  UNL     1      16.681  80.578  -6.789  1.00  0.00    -0.084 Cl
ATOM      7  C   UNL     1      15.599  79.815  -5.640  1.00  0.00     0.042 A 
ATOM      8  C   UNL     1      15.615  80.204  -4.298  1.00  0.00     0.041 A 
ATOM      9  C   UNL     1      14.727  78.810  -6.063  1.00  0.00     0.021 A 
ATOM     10  C   UNL     1      14.762  79.592  -3.371  1.00  0.00     0.049 A 
ATOM     11  C   UNL     1      13.871  78.195  -5.147  1.00  0.00     0.010 A 
ATOM     12  Cl  UNL     1      14.854  80.110  -1.691  1.00  0.00    -0.084 Cl
ENDBRANCH   4   5
ENDBRANCH   3   4
ENDBRANCH   1   3
BRANCH   2  13
ATOM     13  C   UNL     1       9.547  79.560  -1.867  1.00  0.00     0.183 C 
BRANCH  13  14
ATOM     14  N   UNL     1      10.217  80.171  -0.720  1.00  0.00    -0.331 N 
ATOM     15  C   UNL     1      11.529  80.130  -0.434  1.00  0.00     0.107 A 
ATOM     16  C   UNL     1       9.646  80.868   0.280  1.00  0.00     0.199 A 
ATOM     17  C   UNL     1      11.724  80.809   0.747  1.00  0.00     0.130 A 
ATOM     18  N   UNL     1      10.543  81.278   1.201  1.00  0.00    -0.245 NA
ENDBRANCH  13  14
ENDBRANCH   2  13
BRANCH   2  19
ATOM     19  C   UNL     1       8.603  77.246  -1.197  1.00  0.00     0.020 A 
ATOM     20  C   UNL     1       7.746  77.845  -0.256  1.00  0.00     0.013 A 
ATOM     21  C   UNL     1       8.411  75.891  -1.541  1.00  0.00     0.051 A 
ATOM     22  C   UNL     1       6.730  77.103   0.349  1.00  0.00     0.021 A 
ATOM     23  C   UNL     1       7.388  75.155  -0.929  1.00  0.00     0.041 A 
ATOM     24  Cl  UNL     1       9.381  75.101  -2.780  1.00  0.00    -0.084 Cl
ATOM     25  C   UNL     1       6.552  75.757   0.017  1.00  0.00     0.042 A 
ATOM     26  Cl  UNL     1       5.273  74.827   0.777  1.00  0.00    -0.084 Cl
ENDBRANCH   2  19
TORSDOF 6
ENDMDL
MODEL 14
REMARK VINA RESULT:    -8.370      2.659      4.118
REMARK INTER + INTRA:         -12.048
REMARK INTER:                 -11.829
REMARK INTRA:                  -0.219
REMARK UNBOUND:                -0.742
REMARK SMILES Clc1ccc(CO/N=C(\Cn2ccnc2)c2ccc(Cl)cc2Cl)c(Cl)c1
REMARK SMILES IDX 8 1 9 2 7 3 6 4 5 5 1 6 2 7 26 8 3 9 24 10 4 11 25 12 10 13
REMARK SMILES IDX 11 14 12 15 15 16 13 17 14 18 16 19 17 20 22 21 18 22 21 23
REMARK SMILES IDX 23 24 19 25 20 26
REMARK H PARENT
REMARK Flexibility Score: inf
ROOT
ATOM      1  N   UNL     1      11.768  77.832  -3.380  1.00  0.00    -0.089 NA
ATOM      2  C   UNL     1      12.423  78.923  -3.127  1.00  0.00     0.108 C 
ENDROOT
BRANCH   1   3
ATOM      3  O   UNL     1      10.856  77.305  -2.491  1.00  0.00    -0.391 OA
BRANCH   3   4
ATOM      4  C   UNL     1      10.400  75.968  -2.635  1.00  0.00     0.301 C 
BRANCH   4   5
ATOM      5  C   UNL     1       9.081  75.815  -1.923  1.00  0.00     0.011 A 
ATOM      6  Cl  UNL     1       5.262  75.256   0.515  1.00  0.00    -0.084 Cl
ATOM      7  C   UNL     1       6.727  75.472  -0.425  1.00  0.00     0.042 A 
ATOM      8  C   UNL     1       7.002  74.621  -1.498  1.00  0.00     0.041 A 
ATOM      9  C   UNL     1       7.625  76.489  -0.095  1.00  0.00     0.021 A 
ATOM     10  C   UNL     1       8.175  74.779  -2.246  1.00  0.00     0.049 A 
ATOM     11  C   UNL     1       8.796  76.657  -0.836  1.00  0.00     0.010 A 
ATOM     12  Cl  UNL     1       8.474  73.654  -3.567  1.00  0.00    -0.084 Cl
ENDBRANCH   4   5
ENDBRANCH   3   4
ENDBRANCH   1   3
BRANCH   2  13
ATOM     13  C   UNL     1      12.315  79.588  -1.776  1.00  0.00     0.183 C 
BRANCH  13  14
ATOM     14  N   UNL     1      13.244  78.966  -0.834  1.00  0.00    -0.331 N 
ATOM     15  C   UNL     1      12.948  78.064   0.117  1.00  0.00     0.107 A 
ATOM     16  C   UNL     1      14.566  79.196  -0.723  1.00  0.00     0.199 A 
ATOM     17  C   UNL     1      14.111  77.767   0.792  1.00  0.00     0.130 A 
ATOM     18  N   UNL     1      15.133  78.475   0.267  1.00  0.00    -0.245 NA
ENDBRANCH  13  14
ENDBRANCH   2  13
BRANCH   2  19
ATOM     19  C   UNL     1      13.428  79.386  -4.103  1.00  0.00     0.020 A 
ATOM     20  C   UNL     1      13.768  80.750  -4.134  1.00  0.00     0.013 A 
ATOM     21  C   UNL     1      14.059  78.497  -4.998  1.00  0.00     0.051 A 
ATOM     22  C   UNL     1      14.703  81.226  -5.055  1.00  0.00     0.021 A 
ATOM     23  C   UNL     1      14.997  78.984  -5.918  1.00  0.00     0.041 A 
ATOM     24  Cl  UNL     1      13.757  76.763  -4.952  1.00  0.00    -0.084 Cl
ATOM     25  C   UNL     1      15.316  80.345  -5.950  1.00  0.00     0.042 A 
ATOM     26  Cl  UNL     1      16.493  80.944  -7.105  1.00  0.00    -0.084 Cl
ENDBRANCH   2  19
TORSDOF 6
ENDMDL
MODEL 15
REMARK VINA RESULT:    -8.345      2.034      2.885
REMARK INTER + INTRA:         -12.014
REMARK INTER:                 -11.025
REMARK INTRA:                  -0.988
REMARK UNBOUND:                -0.742
REMARK SMILES Clc1ccc(CO/N=C(\Cn2ccnc2)c2ccc(Cl)cc2Cl)c(Cl)c1
REMARK SMILES IDX 8 1 9 2 7 3 6 4 5 5 1 6 2 7 26 8 3 9 24 10 4 11 25 12 10 13
REMARK SMILES IDX 11 14 12 15 15 16 13 17 14 18 16 19 17 20 22 21 18 22 21 23
REMARK SMILES IDX 23 24 19 25 20 26
REMARK H PARENT
REMARK Flexibility Score: inf
ROOT
ATOM      1  N   UNL     1      10.612  75.998  -0.951  1.00  0.00    -0.089 NA
ATOM      2  C   UNL     1      10.670  77.113  -1.613  1.00  0.00     0.108 C 
ENDROOT
BRANCH   1   3
ATOM      3  O   UNL     1       9.629  75.061  -1.183  1.00  0.00    -0.391 OA
BRANCH   3   4
ATOM      4  C   UNL     1       9.903  73.677  -1.030  1.00  0.00     0.301 C 
BRANCH   4   5
ATOM      5  C   UNL     1       9.787  72.997  -2.370  1.00  0.00     0.011 A 
ATOM      6  Cl  UNL     1       9.092  70.920  -6.375  1.00  0.00    -0.084 Cl
ATOM      7  C   UNL     1       9.363  71.718  -4.838  1.00  0.00     0.042 A 
ATOM      8  C   UNL     1      10.066  71.064  -3.823  1.00  0.00     0.041 A 
ATOM      9  C   UNL     1       8.866  73.006  -4.622  1.00  0.00     0.021 A 
ATOM     10  C   UNL     1      10.277  71.689  -2.588  1.00  0.00     0.049 A 
ATOM     11  C   UNL     1       9.073  73.639  -3.395  1.00  0.00     0.010 A 
ATOM     12  Cl  UNL     1      11.146  70.798  -1.344  1.00  0.00    -0.084 Cl
ENDBRANCH   4   5
ENDBRANCH   3   4
ENDBRANCH   1   3
BRANCH   2  13
ATOM     13  C   UNL     1       9.570  77.493  -2.574  1.00  0.00     0.183 C 
BRANCH  13  14
ATOM     14  N   UNL     1       8.628  78.403  -1.926  1.00  0.00    -0.331 N 
ATOM     15  C   UNL     1       8.448  79.707  -2.193  1.00  0.00     0.107 A 
ATOM     16  C   UNL     1       7.779  78.115  -0.920  1.00  0.00     0.199 A 
ATOM     17  C   UNL     1       7.486  80.185  -1.333  1.00  0.00     0.130 A 
ATOM     18  N   UNL     1       7.060  79.188  -0.530  1.00  0.00    -0.245 NA
ENDBRANCH  13  14
ENDBRANCH   2  13
BRANCH   2  19
ATOM     19  C   UNL     1      11.716  78.091  -1.260  1.00  0.00     0.020 A 
ATOM     20  C   UNL     1      11.713  78.656   0.028  1.00  0.00     0.013 A 
ATOM     21  C   UNL     1      12.720  78.470  -2.177  1.00  0.00     0.051 A 
ATOM     22  C   UNL     1      12.679  79.597   0.391  1.00  0.00     0.021 A 
ATOM     23  C   UNL     1      13.685  79.413  -1.803  1.00  0.00     0.041 A 
ATOM     24  Cl  UNL     1      12.845  77.734  -3.772  1.00  0.00    -0.084 Cl
ATOM     25  C   UNL     1      13.663  79.980  -0.525  1.00  0.00     0.042 A 
ATOM     26  Cl  UNL     1      14.877  81.161  -0.067  1.00  0.00    -0.084 Cl
ENDBRANCH   2  19
TORSDOF 6
ENDMDL
