MODEL 1
REMARK VINA RESULT:    -7.089      0.000      0.000
REMARK INTER + INTRA:          -8.278
REMARK INTER:                  -7.918
REMARK INTRA:                  -0.360
REMARK UNBOUND:                -0.360
REMARK SMILES CCC1(c2ccccc2)NC(=O)N(C)C1=O
REMARK SMILES IDX 3 1 10 2 11 3 12 4 13 5 14 6 15 7 16 8 2 10 1 11 4 12 5 13
REMARK SMILES IDX 9 14 6 15 8 16 7 17
REMARK H PARENT 10 9
REMARK Flexibility Score: inf
ROOT
ATOM      1  C   UNL     1       8.959  76.864  -1.383  1.00  0.00     0.146 C 
ATOM      2  N   UNL     1       9.738  75.834  -0.683  1.00  0.00    -0.319 N 
ATOM      3  C   UNL     1       9.562  74.597  -1.355  1.00  0.00     0.325 C 
ATOM      4  O   UNL     1      10.153  73.538  -1.018  1.00  0.00    -0.248 OA
ATOM      5  N   UNL     1       8.681  74.685  -2.459  1.00  0.00    -0.265 N 
ATOM      6  C   UNL     1       8.619  73.748  -3.573  1.00  0.00     0.158 C 
ATOM      7  C   UNL     1       8.353  76.069  -2.519  1.00  0.00     0.260 C 
ATOM      8  O   UNL     1       7.662  76.567  -3.449  1.00  0.00    -0.271 OA
ATOM      9  H   UNL     1      10.363  75.981   0.141  1.00  0.00     0.166 HD
ENDROOT
BRANCH   1  10
ATOM     10  C   UNL     1       9.915  77.949  -1.940  1.00  0.00     0.040 C 
ATOM     11  C   UNL     1      11.070  77.375  -2.765  1.00  0.00     0.007 C 
ENDBRANCH   1  10
BRANCH   1  12
ATOM     12  C   UNL     1       7.847  77.443  -0.503  1.00  0.00    -0.013 A 
ATOM     13  C   UNL     1       7.046  76.623   0.325  1.00  0.00     0.007 A 
ATOM     14  C   UNL     1       7.586  78.830  -0.520  1.00  0.00     0.007 A 
ATOM     15  C   UNL     1       6.036  77.179   1.115  1.00  0.00     0.000 A 
ATOM     16  C   UNL     1       6.575  79.378   0.272  1.00  0.00     0.000 A 
ATOM     17  C   UNL     1       5.802  78.554   1.091  1.00  0.00     0.000 A 
ENDBRANCH   1  12
TORSDOF 2
ENDMDL
MODEL 2
REMARK VINA RESULT:    -7.027      2.204      5.522
REMARK INTER + INTRA:          -8.208
REMARK INTER:                  -8.293
REMARK INTRA:                   0.085
REMARK UNBOUND:                -0.360
REMARK SMILES CCC1(c2ccccc2)NC(=O)N(C)C1=O
REMARK SMILES IDX 3 1 10 2 11 3 12 4 13 5 14 6 15 7 16 8 2 10 1 11 4 12 5 13
REMARK SMILES IDX 9 14 6 15 8 16 7 17
REMARK H PARENT 10 9
REMARK Flexibility Score: inf
ROOT
ATOM      1  C   UNL     1       8.604  74.337  -2.126  1.00  0.00     0.146 C 
ATOM      2  N   UNL     1       9.622  74.438  -1.071  1.00  0.00    -0.319 N 
ATOM      3  C   UNL     1      10.188  75.738  -1.109  1.00  0.00     0.325 C 
ATOM      4  O   UNL     1      11.051  76.140  -0.285  1.00  0.00    -0.248 OA
ATOM      5  N   UNL     1       9.660  76.543  -2.146  1.00  0.00    -0.265 N 
ATOM      6  C   UNL     1       9.703  77.999  -2.197  1.00  0.00     0.158 C 
ATOM      7  C   UNL     1       8.657  75.721  -2.734  1.00  0.00     0.260 C 
ATOM      8  O   UNL     1       7.880  76.134  -3.638  1.00  0.00    -0.271 OA
ATOM      9  H   UNL     1       9.862  73.703  -0.368  1.00  0.00     0.166 HD
ENDROOT
BRANCH   1  10
ATOM     10  C   UNL     1       7.215  74.088  -1.486  1.00  0.00     0.040 C 
ATOM     11  C   UNL     1       6.786  75.192  -0.515  1.00  0.00     0.007 C 
ENDBRANCH   1  10
BRANCH   1  12
ATOM     12  C   UNL     1       8.972  73.291  -3.183  1.00  0.00    -0.013 A 
ATOM     13  C   UNL     1       8.698  73.488  -4.555  1.00  0.00     0.007 A 
ATOM     14  C   UNL     1       9.585  72.082  -2.792  1.00  0.00     0.007 A 
ATOM     15  C   UNL     1       9.041  72.514  -5.497  1.00  0.00     0.000 A 
ATOM     16  C   UNL     1       9.926  71.113  -3.739  1.00  0.00     0.000 A 
ATOM     17  C   UNL     1       9.656  71.329  -5.091  1.00  0.00     0.000 A 
ENDBRANCH   1  12
TORSDOF 2
ENDMDL
MODEL 3
REMARK VINA RESULT:    -6.925      3.585      6.248
REMARK INTER + INTRA:          -8.095
REMARK INTER:                  -7.636
REMARK INTRA:                  -0.459
REMARK UNBOUND:                -0.360
REMARK SMILES CCC1(c2ccccc2)NC(=O)N(C)C1=O
REMARK SMILES IDX 3 1 10 2 11 3 12 4 13 5 14 6 15 7 16 8 2 10 1 11 4 12 5 13
REMARK SMILES IDX 9 14 6 15 8 16 7 17
REMARK H PARENT 10 9
REMARK Flexibility Score: inf
ROOT
ATOM      1  C   UNL     1      11.067  79.921  -1.131  1.00  0.00     0.146 C 
ATOM      2  N   UNL     1      10.115  80.875  -1.716  1.00  0.00    -0.319 N 
ATOM      3  C   UNL     1       8.975  80.160  -2.165  1.00  0.00     0.325 C 
ATOM      4  O   UNL     1       7.961  80.719  -2.663  1.00  0.00    -0.248 OA
ATOM      5  N   UNL     1       9.081  78.763  -1.967  1.00  0.00    -0.265 N 
ATOM      6  C   UNL     1       7.968  77.825  -1.919  1.00  0.00     0.158 C 
ATOM      7  C   UNL     1      10.323  78.612  -1.288  1.00  0.00     0.260 C 
ATOM      8  O   UNL     1      10.726  77.505  -0.840  1.00  0.00    -0.271 OA
ATOM      9  H   UNL     1      10.221  81.913  -1.754  1.00  0.00     0.166 HD
ENDROOT
BRANCH   1  10
ATOM     10  C   UNL     1      11.269  80.243   0.371  1.00  0.00     0.040 C 
ATOM     11  C   UNL     1      10.892  81.681   0.740  1.00  0.00     0.007 C 
ENDBRANCH   1  10
BRANCH   1  12
ATOM     12  C   UNL     1      12.383  79.867  -1.913  1.00  0.00    -0.013 A 
ATOM     13  C   UNL     1      12.411  79.759  -3.322  1.00  0.00     0.007 A 
ATOM     14  C   UNL     1      13.613  79.907  -1.223  1.00  0.00     0.007 A 
ATOM     15  C   UNL     1      13.627  79.709  -4.009  1.00  0.00     0.000 A 
ATOM     16  C   UNL     1      14.825  79.857  -1.916  1.00  0.00     0.000 A 
ATOM     17  C   UNL     1      14.833  79.760  -3.308  1.00  0.00     0.000 A 
ENDBRANCH   1  12
TORSDOF 2
ENDMDL
MODEL 4
REMARK VINA RESULT:    -6.906      1.434      1.773
REMARK INTER + INTRA:          -8.074
REMARK INTER:                  -7.744
REMARK INTRA:                  -0.330
REMARK UNBOUND:                -0.360
REMARK SMILES CCC1(c2ccccc2)NC(=O)N(C)C1=O
REMARK SMILES IDX 3 1 10 2 11 3 12 4 13 5 14 6 15 7 16 8 2 10 1 11 4 12 5 13
REMARK SMILES IDX 9 14 6 15 8 16 7 17
REMARK H PARENT 10 9
REMARK Flexibility Score: inf
ROOT
ATOM      1  C   UNL     1       8.618  75.687  -2.167  1.00  0.00     0.146 C 
ATOM      2  N   UNL     1       9.739  74.851  -1.717  1.00  0.00    -0.319 N 
ATOM      3  C   UNL     1       9.820  73.710  -2.557  1.00  0.00     0.325 C 
ATOM      4  O   UNL     1      10.721  72.836  -2.450  1.00  0.00    -0.248 OA
ATOM      5  N   UNL     1       8.806  73.674  -3.543  1.00  0.00    -0.265 N 
ATOM      6  C   UNL     1       8.851  72.905  -4.780  1.00  0.00     0.158 C 
ATOM      7  C   UNL     1       8.105  74.897  -3.352  1.00  0.00     0.260 C 
ATOM      8  O   UNL     1       7.182  75.283  -4.120  1.00  0.00    -0.271 OA
ATOM      9  H   UNL     1      10.407  75.071  -0.945  1.00  0.00     0.166 HD
ENDROOT
BRANCH   1  10
ATOM     10  C   UNL     1       9.153  77.064  -2.635  1.00  0.00     0.040 C 
ATOM     11  C   UNL     1      10.681  77.161  -2.619  1.00  0.00     0.007 C 
ENDBRANCH   1  10
BRANCH   1  12
ATOM     12  C   UNL     1       7.522  75.801  -1.105  1.00  0.00    -0.013 A 
ATOM     13  C   UNL     1       6.573  74.774  -0.896  1.00  0.00     0.007 A 
ATOM     14  C   UNL     1       7.427  76.966  -0.313  1.00  0.00     0.007 A 
ATOM     15  C   UNL     1       5.581  74.907   0.079  1.00  0.00     0.000 A 
ATOM     16  C   UNL     1       6.433  77.092   0.660  1.00  0.00     0.000 A 
ATOM     17  C   UNL     1       5.512  76.063   0.858  1.00  0.00     0.000 A 
ENDBRANCH   1  12
TORSDOF 2
ENDMDL
MODEL 5
REMARK VINA RESULT:    -6.898      2.065      4.243
REMARK INTER + INTRA:          -8.064
REMARK INTER:                  -7.699
REMARK INTRA:                  -0.365
REMARK UNBOUND:                -0.360
REMARK SMILES CCC1(c2ccccc2)NC(=O)N(C)C1=O
REMARK SMILES IDX 3 1 10 2 11 3 12 4 13 5 14 6 15 7 16 8 2 10 1 11 4 12 5 13
REMARK SMILES IDX 9 14 6 15 8 16 7 17
REMARK H PARENT 10 9
REMARK Flexibility Score: inf
ROOT
ATOM      1  C   UNL     1       8.371  77.963  -1.733  1.00  0.00     0.146 C 
ATOM      2  N   UNL     1       7.891  77.598  -3.074  1.00  0.00    -0.319 N 
ATOM      3  C   UNL     1       7.364  76.282  -3.023  1.00  0.00     0.325 C 
ATOM      4  O   UNL     1       6.826  75.716  -4.011  1.00  0.00    -0.248 OA
ATOM      5  N   UNL     1       7.476  75.687  -1.745  1.00  0.00    -0.265 N 
ATOM      6  C   UNL     1       6.686  74.564  -1.258  1.00  0.00     0.158 C 
ATOM      7  C   UNL     1       8.035  76.720  -0.940  1.00  0.00     0.260 C 
ATOM      8  O   UNL     1       8.190  76.605   0.307  1.00  0.00    -0.271 OA
ATOM      9  H   UNL     1       7.883  78.212  -3.918  1.00  0.00     0.166 HD
ENDROOT
BRANCH   1  10
ATOM     10  C   UNL     1       7.559  79.171  -1.202  1.00  0.00     0.040 C 
ATOM     11  C   UNL     1       7.560  80.371  -2.154  1.00  0.00     0.007 C 
ENDBRANCH   1  10
BRANCH   1  12
ATOM     12  C   UNL     1       9.883  78.203  -1.708  1.00  0.00    -0.013 A 
ATOM     13  C   UNL     1      10.490  79.052  -0.755  1.00  0.00     0.007 A 
ATOM     14  C   UNL     1      10.710  77.581  -2.669  1.00  0.00     0.007 A 
ATOM     15  C   UNL     1      11.872  79.254  -0.758  1.00  0.00     0.000 A 
ATOM     16  C   UNL     1      12.091  77.789  -2.666  1.00  0.00     0.000 A 
ATOM     17  C   UNL     1      12.673  78.622  -1.711  1.00  0.00     0.000 A 
ENDBRANCH   1  12
TORSDOF 2
ENDMDL
MODEL 6
REMARK VINA RESULT:    -6.861      4.491      7.061
REMARK INTER + INTRA:          -8.024
REMARK INTER:                  -7.577
REMARK INTRA:                  -0.447
REMARK UNBOUND:                -0.360
REMARK SMILES CCC1(c2ccccc2)NC(=O)N(C)C1=O
REMARK SMILES IDX 3 1 10 2 11 3 12 4 13 5 14 6 15 7 16 8 2 10 1 11 4 12 5 13
REMARK SMILES IDX 9 14 6 15 8 16 7 17
REMARK H PARENT 10 9
REMARK Flexibility Score: inf
ROOT
ATOM      1  C   UNL     1      12.329  79.133  -1.715  1.00  0.00     0.146 C 
ATOM      2  N   UNL     1      12.912  78.034  -0.933  1.00  0.00    -0.319 N 
ATOM      3  C   UNL     1      13.079  78.470   0.407  1.00  0.00     0.325 C 
ATOM      4  O   UNL     1      13.507  77.725   1.327  1.00  0.00    -0.248 OA
ATOM      5  N   UNL     1      12.686  79.814   0.607  1.00  0.00    -0.265 N 
ATOM      6  C   UNL     1      12.336  80.416   1.887  1.00  0.00     0.158 C 
ATOM      7  C   UNL     1      12.176  80.209  -0.663  1.00  0.00     0.260 C 
ATOM      8  O   UNL     1      11.624  81.326  -0.860  1.00  0.00    -0.271 OA
ATOM      9  H   UNL     1      13.124  77.071  -1.278  1.00  0.00     0.166 HD
ENDROOT
BRANCH   1  10
ATOM     10  C   UNL     1      10.938  78.708  -2.251  1.00  0.00     0.040 C 
ATOM     11  C   UNL     1      10.876  77.240  -2.683  1.00  0.00     0.007 C 
ENDBRANCH   1  10
BRANCH   1  12
ATOM     12  C   UNL     1      13.272  79.617  -2.820  1.00  0.00    -0.013 A 
ATOM     13  C   UNL     1      14.677  79.593  -2.667  1.00  0.00     0.007 A 
ATOM     14  C   UNL     1      12.742  80.123  -4.026  1.00  0.00     0.007 A 
ATOM     15  C   UNL     1      15.514  80.045  -3.691  1.00  0.00     0.000 A 
ATOM     16  C   UNL     1      13.584  80.573  -5.045  1.00  0.00     0.000 A 
ATOM     17  C   UNL     1      14.969  80.532  -4.880  1.00  0.00     0.000 A 
ENDBRANCH   1  12
TORSDOF 2
ENDMDL
MODEL 7
REMARK VINA RESULT:    -6.859      3.986      6.849
REMARK INTER + INTRA:          -8.021
REMARK INTER:                  -7.582
REMARK INTRA:                  -0.439
REMARK UNBOUND:                -0.360
REMARK SMILES CCC1(c2ccccc2)NC(=O)N(C)C1=O
REMARK SMILES IDX 3 1 10 2 11 3 12 4 13 5 14 6 15 7 16 8 2 10 1 11 4 12 5 13
REMARK SMILES IDX 9 14 6 15 8 16 7 17
REMARK H PARENT 10 9
REMARK Flexibility Score: inf
ROOT
ATOM      1  C   UNL     1      12.309  79.064  -1.670  1.00  0.00     0.146 C 
ATOM      2  N   UNL     1      12.574  80.317  -0.950  1.00  0.00    -0.319 N 
ATOM      3  C   UNL     1      11.337  80.964  -0.696  1.00  0.00     0.325 C 
ATOM      4  O   UNL     1      11.240  82.036  -0.043  1.00  0.00    -0.248 OA
ATOM      5  N   UNL     1      10.226  80.264  -1.222  1.00  0.00    -0.265 N 
ATOM      6  C   UNL     1       8.843  80.416  -0.790  1.00  0.00     0.158 C 
ATOM      7  C   UNL     1      10.800  79.080  -1.767  1.00  0.00     0.260 C 
ATOM      8  O   UNL     1      10.105  78.140  -2.240  1.00  0.00    -0.271 OA
ATOM      9  H   UNL     1      13.505  80.662  -0.625  1.00  0.00     0.166 HD
ENDROOT
BRANCH   1  10
ATOM     10  C   UNL     1      12.775  77.862  -0.809  1.00  0.00     0.040 C 
ATOM     11  C   UNL     1      13.850  78.230   0.218  1.00  0.00     0.007 C 
ENDBRANCH   1  10
BRANCH   1  12
ATOM     12  C   UNL     1      12.920  79.066  -3.073  1.00  0.00    -0.013 A 
ATOM     13  C   UNL     1      13.112  80.261  -3.803  1.00  0.00     0.007 A 
ATOM     14  C   UNL     1      13.292  77.847  -3.681  1.00  0.00     0.007 A 
ATOM     15  C   UNL     1      13.669  80.232  -5.085  1.00  0.00     0.000 A 
ATOM     16  C   UNL     1      13.848  77.826  -4.962  1.00  0.00     0.000 A 
ATOM     17  C   UNL     1      14.039  79.017  -5.663  1.00  0.00     0.000 A 
ENDBRANCH   1  12
TORSDOF 2
ENDMDL
MODEL 8
REMARK VINA RESULT:    -6.815      2.536      5.567
REMARK INTER + INTRA:          -7.972
REMARK INTER:                  -7.658
REMARK INTRA:                  -0.315
REMARK UNBOUND:                -0.360
REMARK SMILES CCC1(c2ccccc2)NC(=O)N(C)C1=O
REMARK SMILES IDX 3 1 10 2 11 3 12 4 13 5 14 6 15 7 16 8 2 10 1 11 4 12 5 13
REMARK SMILES IDX 9 14 6 15 8 16 7 17
REMARK H PARENT 10 9
REMARK Flexibility Score: inf
ROOT
ATOM      1  C   UNL     1       9.604  74.269  -2.208  1.00  0.00     0.146 C 
ATOM      2  N   UNL     1      10.685  75.223  -2.493  1.00  0.00    -0.319 N 
ATOM      3  C   UNL     1      10.111  76.491  -2.769  1.00  0.00     0.325 C 
ATOM      4  O   UNL     1      10.794  77.524  -2.995  1.00  0.00    -0.248 OA
ATOM      5  N   UNL     1       8.697  76.479  -2.733  1.00  0.00    -0.265 N 
ATOM      6  C   UNL     1       7.842  77.645  -2.552  1.00  0.00     0.158 C 
ATOM      7  C   UNL     1       8.380  75.149  -2.337  1.00  0.00     0.260 C 
ATOM      8  O   UNL     1       7.202  74.772  -2.089  1.00  0.00    -0.271 OA
ATOM      9  H   UNL     1      11.711  75.030  -2.450  1.00  0.00     0.166 HD
ENDROOT
BRANCH   1  10
ATOM     10  C   UNL     1       9.739  73.752  -0.753  1.00  0.00     0.040 C 
ATOM     11  C   UNL     1      10.019  74.863   0.264  1.00  0.00     0.007 C 
ENDBRANCH   1  10
BRANCH   1  12
ATOM     12  C   UNL     1       9.545  73.141  -3.240  1.00  0.00    -0.013 A 
ATOM     13  C   UNL     1       9.880  71.808  -2.910  1.00  0.00     0.007 A 
ATOM     14  C   UNL     1       9.165  73.423  -4.570  1.00  0.00     0.007 A 
ATOM     15  C   UNL     1       9.820  70.798  -3.875  1.00  0.00     0.000 A 
ATOM     16  C   UNL     1       9.108  72.408  -5.529  1.00  0.00     0.000 A 
ATOM     17  C   UNL     1       9.432  71.097  -5.182  1.00  0.00     0.000 A 
ENDBRANCH   1  12
TORSDOF 2
ENDMDL
MODEL 9
REMARK VINA RESULT:    -6.807      2.852      4.227
REMARK INTER + INTRA:          -7.963
REMARK INTER:                  -7.704
REMARK INTRA:                  -0.260
REMARK UNBOUND:                -0.360
REMARK SMILES CCC1(c2ccccc2)NC(=O)N(C)C1=O
REMARK SMILES IDX 3 1 10 2 11 3 12 4 13 5 14 6 15 7 16 8 2 10 1 11 4 12 5 13
REMARK SMILES IDX 9 14 6 15 8 16 7 17
REMARK H PARENT 10 9
REMARK Flexibility Score: inf
ROOT
ATOM      1  C   UNL     1       8.720  79.168  -1.300  1.00  0.00     0.146 C 
ATOM      2  N   UNL     1       9.153  78.155  -2.273  1.00  0.00    -0.319 N 
ATOM      3  C   UNL     1       8.604  76.902  -1.899  1.00  0.00     0.325 C 
ATOM      4  O   UNL     1       8.755  75.851  -2.576  1.00  0.00    -0.248 OA
ATOM      5  N   UNL     1       7.845  76.963  -0.706  1.00  0.00    -0.265 N 
ATOM      6  C   UNL     1       6.834  75.998  -0.293  1.00  0.00     0.158 C 
ATOM      7  C   UNL     1       7.862  78.345  -0.365  1.00  0.00     0.260 C 
ATOM      8  O   UNL     1       7.195  78.819   0.595  1.00  0.00    -0.271 OA
ATOM      9  H   UNL     1       9.725  78.324  -3.131  1.00  0.00     0.166 HD
ENDROOT
BRANCH   1  10
ATOM     10  C   UNL     1       7.857  80.238  -2.014  1.00  0.00     0.040 C 
ATOM     11  C   UNL     1       8.677  81.215  -2.863  1.00  0.00     0.007 C 
ENDBRANCH   1  10
BRANCH   1  12
ATOM     12  C   UNL     1       9.899  79.768  -0.530  1.00  0.00    -0.013 A 
ATOM     13  C   UNL     1       9.730  80.830   0.388  1.00  0.00     0.007 A 
ATOM     14  C   UNL     1      11.204  79.272  -0.743  1.00  0.00     0.007 A 
ATOM     15  C   UNL     1      10.826  81.360   1.074  1.00  0.00     0.000 A 
ATOM     16  C   UNL     1      12.294  79.808  -0.053  1.00  0.00     0.000 A 
ATOM     17  C   UNL     1      12.106  80.849   0.856  1.00  0.00     0.000 A 
ENDBRANCH   1  12
TORSDOF 2
ENDMDL
MODEL 10
REMARK VINA RESULT:    -6.756      2.159      3.853
REMARK INTER + INTRA:          -7.906
REMARK INTER:                  -7.560
REMARK INTRA:                  -0.345
REMARK UNBOUND:                -0.360
REMARK SMILES CCC1(c2ccccc2)NC(=O)N(C)C1=O
REMARK SMILES IDX 3 1 10 2 11 3 12 4 13 5 14 6 15 7 16 8 2 10 1 11 4 12 5 13
REMARK SMILES IDX 9 14 6 15 8 16 7 17
REMARK H PARENT 10 9
REMARK Flexibility Score: inf
ROOT
ATOM      1  C   UNL     1       8.684  75.515  -1.966  1.00  0.00     0.146 C 
ATOM      2  N   UNL     1       8.343  74.951  -3.279  1.00  0.00    -0.319 N 
ATOM      3  C   UNL     1       9.022  73.715  -3.431  1.00  0.00     0.325 C 
ATOM      4  O   UNL     1       8.881  72.969  -4.437  1.00  0.00    -0.248 OA
ATOM      5  N   UNL     1       9.844  73.393  -2.326  1.00  0.00    -0.265 N 
ATOM      6  C   UNL     1      10.321  72.060  -1.981  1.00  0.00     0.158 C 
ATOM      7  C   UNL     1       9.603  74.452  -1.406  1.00  0.00     0.260 C 
ATOM      8  O   UNL     1      10.083  74.465  -0.240  1.00  0.00    -0.271 OA
ATOM      9  H   UNL     1       7.674  75.354  -3.973  1.00  0.00     0.166 HD
ENDROOT
BRANCH   1  10
ATOM     10  C   UNL     1       7.403  75.624  -1.099  1.00  0.00     0.040 C 
ATOM     11  C   UNL     1       6.320  74.613  -1.487  1.00  0.00     0.007 C 
ENDBRANCH   1  10
BRANCH   1  12
ATOM     12  C   UNL     1       9.437  76.842  -2.086  1.00  0.00    -0.013 A 
ATOM     13  C   UNL     1      10.742  76.915  -2.626  1.00  0.00     0.007 A 
ATOM     14  C   UNL     1       8.836  78.037  -1.634  1.00  0.00     0.007 A 
ATOM     15  C   UNL     1      11.407  78.140  -2.721  1.00  0.00     0.000 A 
ATOM     16  C   UNL     1       9.508  79.258  -1.732  1.00  0.00     0.000 A 
ATOM     17  C   UNL     1      10.791  79.311  -2.277  1.00  0.00     0.000 A 
ENDBRANCH   1  12
TORSDOF 2
ENDMDL
MODEL 11
REMARK VINA RESULT:    -6.692      4.300      6.791
REMARK INTER + INTRA:          -7.835
REMARK INTER:                  -7.395
REMARK INTRA:                  -0.440
REMARK UNBOUND:                -0.360
REMARK SMILES CCC1(c2ccccc2)NC(=O)N(C)C1=O
REMARK SMILES IDX 3 1 10 2 11 3 12 4 13 5 14 6 15 7 16 8 2 10 1 11 4 12 5 13
REMARK SMILES IDX 9 14 6 15 8 16 7 17
REMARK H PARENT 10 9
REMARK Flexibility Score: inf
ROOT
ATOM      1  C   UNL     1      12.372  79.138  -1.786  1.00  0.00     0.146 C 
ATOM      2  N   UNL     1      11.536  77.962  -1.508  1.00  0.00    -0.319 N 
ATOM      3  C   UNL     1      12.102  77.250  -0.419  1.00  0.00     0.325 C 
ATOM      4  O   UNL     1      11.573  76.224   0.085  1.00  0.00    -0.248 OA
ATOM      5  N   UNL     1      13.300  77.830   0.061  1.00  0.00    -0.265 N 
ATOM      6  C   UNL     1      13.880  77.613   1.380  1.00  0.00     0.158 C 
ATOM      7  C   UNL     1      13.443  79.008  -0.725  1.00  0.00     0.260 C 
ATOM      8  O   UNL     1      14.350  79.860  -0.520  1.00  0.00    -0.271 OA
ATOM      9  H   UNL     1      10.643  77.708  -1.988  1.00  0.00     0.166 HD
ENDROOT
BRANCH   1  10
ATOM     10  C   UNL     1      11.546  80.429  -1.556  1.00  0.00     0.040 C 
ATOM     11  C   UNL     1      10.090  80.309  -2.015  1.00  0.00     0.007 C 
ENDBRANCH   1  10
BRANCH   1  12
ATOM     12  C   UNL     1      13.009  79.076  -3.177  1.00  0.00    -0.013 A 
ATOM     13  C   UNL     1      13.352  80.245  -3.894  1.00  0.00     0.007 A 
ATOM     14  C   UNL     1      13.250  77.826  -3.786  1.00  0.00     0.007 A 
ATOM     15  C   UNL     1      13.929  80.158  -5.164  1.00  0.00     0.000 A 
ATOM     16  C   UNL     1      13.827  77.747  -5.055  1.00  0.00     0.000 A 
ATOM     17  C   UNL     1      14.169  78.911  -5.744  1.00  0.00     0.000 A 
ENDBRANCH   1  12
TORSDOF 2
ENDMDL
MODEL 12
REMARK VINA RESULT:    -6.687      3.561      5.070
REMARK INTER + INTRA:          -7.829
REMARK INTER:                  -7.376
REMARK INTRA:                  -0.453
REMARK UNBOUND:                -0.360
REMARK SMILES CCC1(c2ccccc2)NC(=O)N(C)C1=O
REMARK SMILES IDX 3 1 10 2 11 3 12 4 13 5 14 6 15 7 16 8 2 10 1 11 4 12 5 13
REMARK SMILES IDX 9 14 6 15 8 16 7 17
REMARK H PARENT 10 9
REMARK Flexibility Score: inf
ROOT
ATOM      1  C   UNL     1      11.362  79.506  -1.279  1.00  0.00     0.146 C 
ATOM      2  N   UNL     1      12.067  78.938  -0.121  1.00  0.00    -0.319 N 
ATOM      3  C   UNL     1      13.420  78.709  -0.482  1.00  0.00     0.325 C 
ATOM      4  O   UNL     1      14.286  78.278   0.325  1.00  0.00    -0.248 OA
ATOM      5  N   UNL     1      13.701  79.045  -1.827  1.00  0.00    -0.265 N 
ATOM      6  C   UNL     1      15.021  79.328  -2.375  1.00  0.00     0.158 C 
ATOM      7  C   UNL     1      12.472  79.583  -2.304  1.00  0.00     0.260 C 
ATOM      8  O   UNL     1      12.351  80.099  -3.449  1.00  0.00    -0.271 OA
ATOM      9  H   UNL     1      11.668  78.774   0.830  1.00  0.00     0.166 HD
ENDROOT
BRANCH   1  10
ATOM     10  C   UNL     1      10.857  80.929  -0.931  1.00  0.00     0.040 C 
ATOM     11  C   UNL     1      10.770  81.193   0.575  1.00  0.00     0.007 C 
ENDBRANCH   1  10
BRANCH   1  12
ATOM     12  C   UNL     1      10.250  78.584  -1.785  1.00  0.00    -0.013 A 
ATOM     13  C   UNL     1      10.518  77.277  -2.255  1.00  0.00     0.007 A 
ATOM     14  C   UNL     1       8.915  79.040  -1.809  1.00  0.00     0.007 A 
ATOM     15  C   UNL     1       9.483  76.459  -2.714  1.00  0.00     0.000 A 
ATOM     16  C   UNL     1       7.885  78.215  -2.270  1.00  0.00     0.000 A 
ATOM     17  C   UNL     1       8.168  76.926  -2.720  1.00  0.00     0.000 A 
ENDBRANCH   1  12
TORSDOF 2
ENDMDL
MODEL 13
REMARK VINA RESULT:    -6.677      1.991      3.775
REMARK INTER + INTRA:          -7.818
REMARK INTER:                  -7.503
REMARK INTRA:                  -0.315
REMARK UNBOUND:                -0.360
REMARK SMILES CCC1(c2ccccc2)NC(=O)N(C)C1=O
REMARK SMILES IDX 3 1 10 2 11 3 12 4 13 5 14 6 15 7 16 8 2 10 1 11 4 12 5 13
REMARK SMILES IDX 9 14 6 15 8 16 7 17
REMARK H PARENT 10 9
REMARK Flexibility Score: inf
ROOT
ATOM      1  C   UNL     1       8.498  75.840  -1.892  1.00  0.00     0.146 C 
ATOM      2  N   UNL     1       8.162  75.275  -3.206  1.00  0.00    -0.319 N 
ATOM      3  C   UNL     1       8.839  74.038  -3.355  1.00  0.00     0.325 C 
ATOM      4  O   UNL     1       8.701  73.292  -4.360  1.00  0.00    -0.248 OA
ATOM      5  N   UNL     1       9.658  73.716  -2.247  1.00  0.00    -0.265 N 
ATOM      6  C   UNL     1      10.131  72.382  -1.899  1.00  0.00     0.158 C 
ATOM      7  C   UNL     1       9.414  74.776  -1.328  1.00  0.00     0.260 C 
ATOM      8  O   UNL     1       9.890  74.790  -0.160  1.00  0.00    -0.271 OA
ATOM      9  H   UNL     1       7.496  75.678  -3.902  1.00  0.00     0.166 HD
ENDROOT
BRANCH   1  10
ATOM     10  C   UNL     1       7.215  75.950  -1.030  1.00  0.00     0.040 C 
ATOM     11  C   UNL     1       6.385  74.664  -1.009  1.00  0.00     0.007 C 
ENDBRANCH   1  10
BRANCH   1  12
ATOM     12  C   UNL     1       9.254  77.166  -2.011  1.00  0.00    -0.013 A 
ATOM     13  C   UNL     1       8.663  78.398  -1.650  1.00  0.00     0.007 A 
ATOM     14  C   UNL     1      10.573  77.181  -2.512  1.00  0.00     0.007 A 
ATOM     15  C   UNL     1       9.376  79.594  -1.772  1.00  0.00     0.000 A 
ATOM     16  C   UNL     1      11.280  78.381  -2.632  1.00  0.00     0.000 A 
ATOM     17  C   UNL     1      10.683  79.586  -2.261  1.00  0.00     0.000 A 
ENDBRANCH   1  12
TORSDOF 2
ENDMDL
MODEL 14
REMARK VINA RESULT:    -6.639      3.582      4.953
REMARK INTER + INTRA:          -7.775
REMARK INTER:                  -7.369
REMARK INTRA:                  -0.406
REMARK UNBOUND:                -0.360
REMARK SMILES CCC1(c2ccccc2)NC(=O)N(C)C1=O
REMARK SMILES IDX 3 1 10 2 11 3 12 4 13 5 14 6 15 7 16 8 2 10 1 11 4 12 5 13
REMARK SMILES IDX 9 14 6 15 8 16 7 17
REMARK H PARENT 10 9
REMARK Flexibility Score: inf
ROOT
ATOM      1  C   UNL     1      11.759  78.807  -1.538  1.00  0.00     0.146 C 
ATOM      2  N   UNL     1      12.652  79.941  -1.261  1.00  0.00    -0.319 N 
ATOM      3  C   UNL     1      13.413  79.647  -0.101  1.00  0.00     0.325 C 
ATOM      4  O   UNL     1      14.307  80.410   0.351  1.00  0.00    -0.248 OA
ATOM      5  N   UNL     1      13.087  78.396   0.475  1.00  0.00    -0.265 N 
ATOM      6  C   UNL     1      13.936  77.629   1.377  1.00  0.00     0.158 C 
ATOM      7  C   UNL     1      12.124  77.853  -0.422  1.00  0.00     0.260 C 
ATOM      8  O   UNL     1      11.664  76.684  -0.304  1.00  0.00    -0.271 OA
ATOM      9  H   UNL     1      12.758  80.803  -1.841  1.00  0.00     0.166 HD
ENDROOT
BRANCH   1  10
ATOM     10  C   UNL     1      12.120  78.186  -2.911  1.00  0.00     0.040 C 
ATOM     11  C   UNL     1      13.098  79.038  -3.725  1.00  0.00     0.007 C 
ENDBRANCH   1  10
BRANCH   1  12
ATOM     12  C   UNL     1      10.283  79.196  -1.427  1.00  0.00    -0.013 A 
ATOM     13  C   UNL     1       9.852  80.277  -0.624  1.00  0.00     0.007 A 
ATOM     14  C   UNL     1       9.306  78.454  -2.126  1.00  0.00     0.007 A 
ATOM     15  C   UNL     1       8.497  80.606  -0.540  1.00  0.00     0.000 A 
ATOM     16  C   UNL     1       7.953  78.790  -2.036  1.00  0.00     0.000 A 
ATOM     17  C   UNL     1       7.548  79.866  -1.246  1.00  0.00     0.000 A 
ENDBRANCH   1  12
TORSDOF 2
ENDMDL
MODEL 15
REMARK VINA RESULT:    -6.623      4.719      6.037
REMARK INTER + INTRA:          -7.758
REMARK INTER:                  -7.351
REMARK INTRA:                  -0.407
REMARK UNBOUND:                -0.360
REMARK SMILES CCC1(c2ccccc2)NC(=O)N(C)C1=O
REMARK SMILES IDX 3 1 10 2 11 3 12 4 13 5 14 6 15 7 16 8 2 10 1 11 4 12 5 13
REMARK SMILES IDX 9 14 6 15 8 16 7 17
REMARK H PARENT 10 9
REMARK Flexibility Score: inf
ROOT
ATOM      1  C   UNL     1      13.352  78.833  -0.714  1.00  0.00     0.146 C 
ATOM      2  N   UNL     1      12.791  78.001  -1.788  1.00  0.00    -0.319 N 
ATOM      3  C   UNL     1      13.399  78.374  -3.015  1.00  0.00     0.325 C 
ATOM      4  O   UNL     1      13.160  77.796  -4.108  1.00  0.00    -0.248 OA
ATOM      5  N   UNL     1      14.322  79.437  -2.876  1.00  0.00    -0.265 N 
ATOM      6  C   UNL     1      15.390  79.763  -3.813  1.00  0.00     0.158 C 
ATOM      7  C   UNL     1      14.343  79.686  -1.475  1.00  0.00     0.260 C 
ATOM      8  O   UNL     1      15.137  80.506  -0.939  1.00  0.00    -0.271 OA
ATOM      9  H   UNL     1      12.101  77.226  -1.676  1.00  0.00     0.166 HD
ENDROOT
BRANCH   1  10
ATOM     10  C   UNL     1      14.095  77.933   0.306  1.00  0.00     0.040 C 
ATOM     11  C   UNL     1      13.251  76.756   0.806  1.00  0.00     0.007 C 
ENDBRANCH   1  10
BRANCH   1  12
ATOM     12  C   UNL     1      12.291  79.724  -0.063  1.00  0.00    -0.013 A 
ATOM     13  C   UNL     1      12.490  80.317   1.205  1.00  0.00     0.007 A 
ATOM     14  C   UNL     1      11.066  79.958  -0.724  1.00  0.00     0.007 A 
ATOM     15  C   UNL     1      11.502  81.124   1.777  1.00  0.00     0.000 A 
ATOM     16  C   UNL     1      10.084  80.765  -0.146  1.00  0.00     0.000 A 
ATOM     17  C   UNL     1      10.301  81.350   1.102  1.00  0.00     0.000 A 
ENDBRANCH   1  12
TORSDOF 2
ENDMDL
