MODEL 1
REMARK VINA RESULT:    -6.430      0.000      0.000
REMARK INTER + INTRA:          -8.784
REMARK INTER:                  -8.310
REMARK INTRA:                  -0.474
REMARK UNBOUND:                -0.474
REMARK SMILES CCN(CC)CC(=O)Nc1c(C)cccc1C
REMARK SMILES IDX 6 1 3 2 2 3 1 4 4 5 5 6 7 7 8 8 9 9 10 11 11 12 16 13 12 14
REMARK SMILES IDX 13 15 15 16 17 17 14 18
REMARK H PARENT 9 10
REMARK Flexibility Score: inf
ROOT
ATOM      1  C   UNL     1      15.811  32.098   8.473  1.00  0.00     0.185 C 
ENDROOT
BRANCH   1   2
ATOM      2  N   UNL     1      16.651  30.918   8.173  1.00  0.00    -0.295 NA
BRANCH   2   3
ATOM      3  C   UNL     1      18.002  31.274   7.658  1.00  0.00     0.081 C 
ATOM      4  C   UNL     1      18.440  30.508   6.403  1.00  0.00     0.021 C 
ENDBRANCH   2   3
BRANCH   2   5
ATOM      5  C   UNL     1      15.914  29.955   7.322  1.00  0.00     0.081 C 
ATOM      6  C   UNL     1      14.400  30.147   7.411  1.00  0.00     0.021 C 
ENDBRANCH   2   5
ENDBRANCH   1   2
BRANCH   1   7
ATOM      7  C   UNL     1      16.341  32.859   9.654  1.00  0.00     0.238 C 
ATOM      8  O   UNL     1      16.627  34.080   9.526  1.00  0.00    -0.273 OA
ATOM      9  N   UNL     1      16.485  32.210  10.924  1.00  0.00    -0.324 N 
ATOM     10  H   UNL     1      16.061  31.265  11.061  1.00  0.00     0.169 HD
BRANCH   9  11
ATOM     11  C   UNL     1      17.062  32.873  12.061  1.00  0.00     0.047 A 
ATOM     12  C   UNL     1      18.466  32.908  12.214  1.00  0.00    -0.027 A 
ATOM     13  C   UNL     1      16.236  33.517  13.012  1.00  0.00    -0.027 A 
ATOM     14  C   UNL     1      19.368  32.225  11.222  1.00  0.00     0.046 C 
ATOM     15  C   UNL     1      19.025  33.534  13.339  1.00  0.00     0.005 A 
ATOM     16  C   UNL     1      16.819  34.127  14.133  1.00  0.00     0.005 A 
ATOM     17  C   UNL     1      14.738  33.542  12.864  1.00  0.00     0.046 C 
ATOM     18  C   UNL     1      18.204  34.137  14.292  1.00  0.00     0.001 A 
ENDBRANCH   9  11
ENDBRANCH   1   7
TORSDOF 5
ENDMDL
MODEL 2
REMARK VINA RESULT:    -6.427      0.144      2.110
REMARK INTER + INTRA:          -8.780
REMARK INTER:                  -8.303
REMARK INTRA:                  -0.477
REMARK UNBOUND:                -0.474
REMARK SMILES CCN(CC)CC(=O)Nc1c(C)cccc1C
REMARK SMILES IDX 6 1 3 2 2 3 1 4 4 5 5 6 7 7 8 8 9 9 10 11 11 12 16 13 12 14
REMARK SMILES IDX 13 15 15 16 17 17 14 18
REMARK H PARENT 9 10
REMARK Flexibility Score: inf
ROOT
ATOM      1  C   UNL     1      15.795  32.074   8.449  1.00  0.00     0.185 C 
ENDROOT
BRANCH   1   2
ATOM      2  N   UNL     1      16.655  30.904   8.163  1.00  0.00    -0.295 NA
BRANCH   2   3
ATOM      3  C   UNL     1      17.996  31.276   7.635  1.00  0.00     0.081 C 
ATOM      4  C   UNL     1      18.434  30.508   6.380  1.00  0.00     0.021 C 
ENDBRANCH   2   3
BRANCH   2   5
ATOM      5  C   UNL     1      15.930  29.914   7.334  1.00  0.00     0.081 C 
ATOM      6  C   UNL     1      14.417  30.131   7.365  1.00  0.00     0.021 C 
ENDBRANCH   2   5
ENDBRANCH   1   2
BRANCH   1   7
ATOM      7  C   UNL     1      16.335  32.880   9.596  1.00  0.00     0.238 C 
ATOM      8  O   UNL     1      16.612  34.097   9.419  1.00  0.00    -0.273 OA
ATOM      9  N   UNL     1      16.497  32.279  10.887  1.00  0.00    -0.324 N 
ATOM     10  H   UNL     1      16.081  31.337  11.063  1.00  0.00     0.169 HD
BRANCH   9  11
ATOM     11  C   UNL     1      17.084  32.986  11.991  1.00  0.00     0.047 A 
ATOM     12  C   UNL     1      16.251  33.578  12.968  1.00  0.00    -0.027 A 
ATOM     13  C   UNL     1      18.491  33.068  12.125  1.00  0.00    -0.027 A 
ATOM     14  C   UNL     1      14.753  33.513  12.846  1.00  0.00     0.046 C 
ATOM     15  C   UNL     1      16.829  34.289  14.031  1.00  0.00     0.005 A 
ATOM     16  C   UNL     1      19.041  33.793  13.192  1.00  0.00     0.005 A 
ATOM     17  C   UNL     1      19.414  32.414  11.132  1.00  0.00     0.046 C 
ATOM     18  C   UNL     1      18.215  34.397  14.139  1.00  0.00     0.001 A 
ENDBRANCH   9  11
ENDBRANCH   1   7
TORSDOF 5
ENDMDL
MODEL 3
REMARK VINA RESULT:    -6.371      1.502      2.728
REMARK INTER + INTRA:          -8.707
REMARK INTER:                  -8.235
REMARK INTRA:                  -0.472
REMARK UNBOUND:                -0.474
REMARK SMILES CCN(CC)CC(=O)Nc1c(C)cccc1C
REMARK SMILES IDX 6 1 3 2 2 3 1 4 4 5 5 6 7 7 8 8 9 9 10 11 11 12 16 13 12 14
REMARK SMILES IDX 13 15 15 16 17 17 14 18
REMARK H PARENT 9 10
REMARK Flexibility Score: inf
ROOT
ATOM      1  C   UNL     1      18.014  32.291   8.657  1.00  0.00     0.185 C 
ENDROOT
BRANCH   1   2
ATOM      2  N   UNL     1      16.979  31.296   8.297  1.00  0.00    -0.295 NA
BRANCH   2   3
ATOM      3  C   UNL     1      17.391  30.398   7.184  1.00  0.00     0.081 C 
ATOM      4  C   UNL     1      18.675  30.817   6.454  1.00  0.00     0.021 C 
ENDBRANCH   2   3
BRANCH   2   5
ATOM      5  C   UNL     1      15.670  31.958   8.089  1.00  0.00     0.081 C 
ATOM      6  C   UNL     1      15.822  33.410   7.636  1.00  0.00     0.021 C 
ENDBRANCH   2   5
ENDBRANCH   1   2
BRANCH   1   7
ATOM      7  C   UNL     1      18.195  32.375  10.146  1.00  0.00     0.238 C 
ATOM      8  O   UNL     1      18.512  31.339  10.790  1.00  0.00    -0.273 OA
ATOM      9  N   UNL     1      18.044  33.631  10.820  1.00  0.00    -0.324 N 
ATOM     10  H   UNL     1      17.979  34.505  10.253  1.00  0.00     0.169 HD
BRANCH   9  11
ATOM     11  C   UNL     1      18.127  33.746  12.250  1.00  0.00     0.047 A 
ATOM     12  C   UNL     1      16.950  33.689  13.028  1.00  0.00    -0.027 A 
ATOM     13  C   UNL     1      19.384  33.885  12.887  1.00  0.00    -0.027 A 
ATOM     14  C   UNL     1      15.600  33.549  12.377  1.00  0.00     0.046 C 
ATOM     15  C   UNL     1      17.033  33.827  14.423  1.00  0.00     0.005 A 
ATOM     16  C   UNL     1      19.438  34.030  14.281  1.00  0.00     0.005 A 
ATOM     17  C   UNL     1      20.667  33.905  12.099  1.00  0.00     0.046 C 
ATOM     18  C   UNL     1      18.270  34.000  15.043  1.00  0.00     0.001 A 
ENDBRANCH   9  11
ENDBRANCH   1   7
TORSDOF 5
ENDMDL
MODEL 4
REMARK VINA RESULT:    -6.338      1.507      1.869
REMARK INTER + INTRA:          -8.664
REMARK INTER:                  -8.156
REMARK INTRA:                  -0.508
REMARK UNBOUND:                -0.474
REMARK SMILES CCN(CC)CC(=O)Nc1c(C)cccc1C
REMARK SMILES IDX 6 1 3 2 2 3 1 4 4 5 5 6 7 7 8 8 9 9 10 11 11 12 16 13 12 14
REMARK SMILES IDX 13 15 15 16 17 17 14 18
REMARK H PARENT 9 10
REMARK Flexibility Score: inf
ROOT
ATOM      1  C   UNL     1      18.017  32.295   8.732  1.00  0.00     0.185 C 
ENDROOT
BRANCH   1   2
ATOM      2  N   UNL     1      16.990  31.292   8.372  1.00  0.00    -0.295 NA
BRANCH   2   3
ATOM      3  C   UNL     1      17.393  30.422   7.234  1.00  0.00     0.081 C 
ATOM      4  C   UNL     1      18.668  30.863   6.500  1.00  0.00     0.021 C 
ENDBRANCH   2   3
BRANCH   2   5
ATOM      5  C   UNL     1      15.668  31.937   8.203  1.00  0.00     0.081 C 
ATOM      6  C   UNL     1      15.784  33.358   7.652  1.00  0.00     0.021 C 
ENDBRANCH   2   5
ENDBRANCH   1   2
BRANCH   1   7
ATOM      7  C   UNL     1      18.200  32.378  10.220  1.00  0.00     0.238 C 
ATOM      8  O   UNL     1      18.503  31.338  10.866  1.00  0.00    -0.273 OA
ATOM      9  N   UNL     1      18.068  33.637  10.893  1.00  0.00    -0.324 N 
ATOM     10  H   UNL     1      18.015  34.512  10.325  1.00  0.00     0.169 HD
BRANCH   9  11
ATOM     11  C   UNL     1      18.154  33.753  12.323  1.00  0.00     0.047 A 
ATOM     12  C   UNL     1      19.411  33.948  12.937  1.00  0.00    -0.027 A 
ATOM     13  C   UNL     1      16.984  33.703  13.118  1.00  0.00    -0.027 A 
ATOM     14  C   UNL     1      20.671  33.997  12.116  1.00  0.00     0.046 C 
ATOM     15  C   UNL     1      19.493  34.035  14.335  1.00  0.00     0.005 A 
ATOM     16  C   UNL     1      17.095  33.783  14.514  1.00  0.00     0.005 A 
ATOM     17  C   UNL     1      15.620  33.541  12.502  1.00  0.00     0.046 C 
ATOM     18  C   UNL     1      18.341  33.950  15.117  1.00  0.00     0.001 A 
ENDBRANCH   9  11
ENDBRANCH   1   7
TORSDOF 5
ENDMDL
MODEL 5
REMARK VINA RESULT:    -6.289      2.199      6.437
REMARK INTER + INTRA:          -8.601
REMARK INTER:                  -8.082
REMARK INTRA:                  -0.520
REMARK UNBOUND:                -0.474
REMARK SMILES CCN(CC)CC(=O)Nc1c(C)cccc1C
REMARK SMILES IDX 6 1 3 2 2 3 1 4 4 5 5 6 7 7 8 8 9 9 10 11 11 12 16 13 12 14
REMARK SMILES IDX 13 15 15 16 17 17 14 18
REMARK H PARENT 9 10
REMARK Flexibility Score: inf
ROOT
ATOM      1  C   UNL     1      16.489  34.840  13.748  1.00  0.00     0.185 C 
ENDROOT
BRANCH   1   2
ATOM      2  N   UNL     1      16.791  33.911  14.860  1.00  0.00    -0.295 NA
BRANCH   2   3
ATOM      3  C   UNL     1      16.077  34.252  16.120  1.00  0.00     0.081 C 
ATOM      4  C   UNL     1      14.545  34.223  16.025  1.00  0.00     0.021 C 
ENDBRANCH   2   3
BRANCH   2   5
ATOM      5  C   UNL     1      18.254  33.746  15.019  1.00  0.00     0.081 C 
ATOM      6  C   UNL     1      19.008  35.063  14.832  1.00  0.00     0.021 C 
ENDBRANCH   2   5
ENDBRANCH   1   2
BRANCH   1   7
ATOM      7  C   UNL     1      16.367  34.107  12.443  1.00  0.00     0.238 C 
ATOM      8  O   UNL     1      15.439  33.268  12.289  1.00  0.00    -0.273 OA
ATOM      9  N   UNL     1      17.275  34.388  11.370  1.00  0.00    -0.324 N 
ATOM     10  H   UNL     1      17.905  35.218  11.445  1.00  0.00     0.169 HD
BRANCH   9  11
ATOM     11  C   UNL     1      17.249  33.657  10.134  1.00  0.00     0.047 A 
ATOM     12  C   UNL     1      16.449  34.116   9.064  1.00  0.00    -0.027 A 
ATOM     13  C   UNL     1      18.042  32.495   9.970  1.00  0.00    -0.027 A 
ATOM     14  C   UNL     1      15.591  35.343   9.213  1.00  0.00     0.046 C 
ATOM     15  C   UNL     1      16.407  33.384   7.867  1.00  0.00     0.005 A 
ATOM     16  C   UNL     1      17.973  31.777   8.767  1.00  0.00     0.005 A 
ATOM     17  C   UNL     1      18.941  31.996  11.069  1.00  0.00     0.046 C 
ATOM     18  C   UNL     1      17.162  32.221   7.722  1.00  0.00     0.001 A 
ENDBRANCH   9  11
ENDBRANCH   1   7
TORSDOF 5
ENDMDL
MODEL 6
REMARK VINA RESULT:    -6.251      3.476      5.466
REMARK INTER + INTRA:          -8.552
REMARK INTER:                  -8.149
REMARK INTRA:                  -0.403
REMARK UNBOUND:                -0.474
REMARK SMILES CCN(CC)CC(=O)Nc1c(C)cccc1C
REMARK SMILES IDX 6 1 3 2 2 3 1 4 4 5 5 6 7 7 8 8 9 9 10 11 11 12 16 13 12 14
REMARK SMILES IDX 13 15 15 16 17 17 14 18
REMARK H PARENT 9 10
REMARK Flexibility Score: inf
ROOT
ATOM      1  C   UNL     1      17.267  33.190  12.610  1.00  0.00     0.185 C 
ENDROOT
BRANCH   1   2
ATOM      2  N   UNL     1      18.103  34.056  11.749  1.00  0.00    -0.295 NA
BRANCH   2   3
ATOM      3  C   UNL     1      17.547  34.232  10.379  1.00  0.00     0.081 C 
ATOM      4  C   UNL     1      16.255  35.057  10.305  1.00  0.00     0.021 C 
ENDBRANCH   2   3
BRANCH   2   5
ATOM      5  C   UNL     1      19.516  33.612  11.777  1.00  0.00     0.081 C 
ATOM      6  C   UNL     1      19.647  32.093  11.666  1.00  0.00     0.021 C 
ENDBRANCH   2   5
ENDBRANCH   1   2
BRANCH   1   7
ATOM      7  C   UNL     1      17.298  33.650  14.040  1.00  0.00     0.238 C 
ATOM      8  O   UNL     1      17.956  32.990  14.888  1.00  0.00    -0.273 OA
ATOM      9  N   UNL     1      16.615  34.850  14.425  1.00  0.00    -0.324 N 
ATOM     10  H   UNL     1      16.246  35.484  13.682  1.00  0.00     0.169 HD
BRANCH   9  11
ATOM     11  C   UNL     1      16.548  35.286  15.793  1.00  0.00     0.047 A 
ATOM     12  C   UNL     1      15.411  34.978  16.573  1.00  0.00    -0.027 A 
ATOM     13  C   UNL     1      17.626  35.996  16.373  1.00  0.00    -0.027 A 
ATOM     14  C   UNL     1      14.247  34.231  15.979  1.00  0.00     0.046 C 
ATOM     15  C   UNL     1      15.339  35.428  17.900  1.00  0.00     0.005 A 
ATOM     16  C   UNL     1      17.524  36.442  17.699  1.00  0.00     0.005 A 
ATOM     17  C   UNL     1      18.875  36.306  15.591  1.00  0.00     0.046 C 
ATOM     18  C   UNL     1      16.389  36.157  18.457  1.00  0.00     0.001 A 
ENDBRANCH   9  11
ENDBRANCH   1   7
TORSDOF 5
ENDMDL
MODEL 7
REMARK VINA RESULT:    -6.193      3.491      5.162
REMARK INTER + INTRA:          -8.478
REMARK INTER:                  -8.070
REMARK INTRA:                  -0.408
REMARK UNBOUND:                -0.474
REMARK SMILES CCN(CC)CC(=O)Nc1c(C)cccc1C
REMARK SMILES IDX 6 1 3 2 2 3 1 4 4 5 5 6 7 7 8 8 9 9 10 11 11 12 16 13 12 14
REMARK SMILES IDX 13 15 15 16 17 17 14 18
REMARK H PARENT 9 10
REMARK Flexibility Score: inf
ROOT
ATOM      1  C   UNL     1      17.428  33.053  12.669  1.00  0.00     0.185 C 
ENDROOT
BRANCH   1   2
ATOM      2  N   UNL     1      18.240  33.942  11.808  1.00  0.00    -0.295 NA
BRANCH   2   3
ATOM      3  C   UNL     1      17.680  34.103  10.438  1.00  0.00     0.081 C 
ATOM      4  C   UNL     1      16.375  34.907  10.361  1.00  0.00     0.021 C 
ENDBRANCH   2   3
BRANCH   2   5
ATOM      5  C   UNL     1      19.664  33.539  11.837  1.00  0.00     0.081 C 
ATOM      6  C   UNL     1      19.835  32.019  11.838  1.00  0.00     0.021 C 
ENDBRANCH   2   5
ENDBRANCH   1   2
BRANCH   1   7
ATOM      7  C   UNL     1      17.394  33.548  14.086  1.00  0.00     0.238 C 
ATOM      8  O   UNL     1      18.020  32.914  14.978  1.00  0.00    -0.273 OA
ATOM      9  N   UNL     1      16.688  34.752  14.413  1.00  0.00    -0.324 N 
ATOM     10  H   UNL     1      16.347  35.364  13.639  1.00  0.00     0.169 HD
BRANCH   9  11
ATOM     11  C   UNL     1      16.559  35.220  15.765  1.00  0.00     0.047 A 
ATOM     12  C   UNL     1      17.599  35.980  16.347  1.00  0.00    -0.027 A 
ATOM     13  C   UNL     1      15.385  34.952  16.509  1.00  0.00    -0.027 A 
ATOM     14  C   UNL     1      18.861  36.273  15.581  1.00  0.00     0.046 C 
ATOM     15  C   UNL     1      17.480  36.413  17.676  1.00  0.00     0.005 A 
ATOM     16  C   UNL     1      15.296  35.389  17.839  1.00  0.00     0.005 A 
ATOM     17  C   UNL     1      14.235  34.184  15.914  1.00  0.00     0.046 C 
ATOM     18  C   UNL     1      16.337  36.116  18.417  1.00  0.00     0.001 A 
ENDBRANCH   9  11
ENDBRANCH   1   7
TORSDOF 5
ENDMDL
MODEL 8
REMARK VINA RESULT:    -6.166      2.216      6.108
REMARK INTER + INTRA:          -8.442
REMARK INTER:                  -7.901
REMARK INTRA:                  -0.541
REMARK UNBOUND:                -0.474
REMARK SMILES CCN(CC)CC(=O)Nc1c(C)cccc1C
REMARK SMILES IDX 6 1 3 2 2 3 1 4 4 5 5 6 7 7 8 8 9 9 10 11 11 12 16 13 12 14
REMARK SMILES IDX 13 15 15 16 17 17 14 18
REMARK H PARENT 9 10
REMARK Flexibility Score: inf
ROOT
ATOM      1  C   UNL     1      16.761  34.834  13.790  1.00  0.00     0.185 C 
ENDROOT
BRANCH   1   2
ATOM      2  N   UNL     1      16.931  33.886  14.913  1.00  0.00    -0.295 NA
BRANCH   2   3
ATOM      3  C   UNL     1      15.951  34.098  16.014  1.00  0.00     0.081 C 
ATOM      4  C   UNL     1      14.483  34.165  15.571  1.00  0.00     0.021 C 
ENDBRANCH   2   3
BRANCH   2   5
ATOM      5  C   UNL     1      18.343  33.850  15.358  1.00  0.00     0.081 C 
ATOM      6  C   UNL     1      19.135  32.733  14.679  1.00  0.00     0.021 C 
ENDBRANCH   2   5
ENDBRANCH   1   2
BRANCH   1   7
ATOM      7  C   UNL     1      16.568  34.111  12.489  1.00  0.00     0.238 C 
ATOM      8  O   UNL     1      15.622  33.284  12.376  1.00  0.00    -0.273 OA
ATOM      9  N   UNL     1      17.428  34.386  11.376  1.00  0.00    -0.324 N 
ATOM     10  H   UNL     1      18.071  35.207  11.424  1.00  0.00     0.169 HD
BRANCH   9  11
ATOM     11  C   UNL     1      17.333  33.662  10.139  1.00  0.00     0.047 A 
ATOM     12  C   UNL     1      18.079  32.475   9.962  1.00  0.00    -0.027 A 
ATOM     13  C   UNL     1      16.475  34.112   9.107  1.00  0.00    -0.027 A 
ATOM     14  C   UNL     1      19.005  31.977  11.039  1.00  0.00     0.046 C 
ATOM     15  C   UNL     1      18.003  31.785   8.742  1.00  0.00     0.005 A 
ATOM     16  C   UNL     1      16.425  33.409   7.895  1.00  0.00     0.005 A 
ATOM     17  C   UNL     1      15.630  35.347   9.271  1.00  0.00     0.046 C 
ATOM     18  C   UNL     1      17.183  32.252   7.715  1.00  0.00     0.001 A 
ENDBRANCH   9  11
ENDBRANCH   1   7
TORSDOF 5
ENDMDL
MODEL 9
REMARK VINA RESULT:    -6.109      2.511      4.376
REMARK INTER + INTRA:          -8.368
REMARK INTER:                  -7.959
REMARK INTRA:                  -0.409
REMARK UNBOUND:                -0.474
REMARK SMILES CCN(CC)CC(=O)Nc1c(C)cccc1C
REMARK SMILES IDX 6 1 3 2 2 3 1 4 4 5 5 6 7 7 8 8 9 9 10 11 11 12 16 13 12 14
REMARK SMILES IDX 13 15 15 16 17 17 14 18
REMARK H PARENT 9 10
REMARK Flexibility Score: inf
ROOT
ATOM      1  C   UNL     1      17.680  33.798  11.477  1.00  0.00     0.185 C 
ENDROOT
BRANCH   1   2
ATOM      2  N   UNL     1      16.520  33.613  10.578  1.00  0.00    -0.295 NA
BRANCH   2   3
ATOM      3  C   UNL     1      16.680  32.469   9.640  1.00  0.00     0.081 C 
ATOM      4  C   UNL     1      18.128  32.006   9.424  1.00  0.00     0.021 C 
ENDBRANCH   2   3
BRANCH   2   5
ATOM      5  C   UNL     1      16.161  34.890   9.919  1.00  0.00     0.081 C 
ATOM      6  C   UNL     1      15.779  34.697   8.452  1.00  0.00     0.021 C 
ENDBRANCH   2   5
ENDBRANCH   1   2
BRANCH   1   7
ATOM      7  C   UNL     1      17.262  33.776  12.919  1.00  0.00     0.238 C 
ATOM      8  O   UNL     1      17.627  32.819  13.654  1.00  0.00    -0.273 OA
ATOM      9  N   UNL     1      16.487  34.853  13.462  1.00  0.00    -0.324 N 
ATOM     10  H   UNL     1      16.365  35.723  12.897  1.00  0.00     0.169 HD
BRANCH   9  11
ATOM     11  C   UNL     1      15.996  34.837  14.812  1.00  0.00     0.047 A 
ATOM     12  C   UNL     1      14.726  34.284  15.090  1.00  0.00    -0.027 A 
ATOM     13  C   UNL     1      16.789  35.344  15.870  1.00  0.00    -0.027 A 
ATOM     14  C   UNL     1      13.860  33.745  13.984  1.00  0.00     0.046 C 
ATOM     15  C   UNL     1      14.240  34.294  16.407  1.00  0.00     0.005 A 
ATOM     16  C   UNL     1      16.274  35.351  17.175  1.00  0.00     0.005 A 
ATOM     17  C   UNL     1      18.165  35.902  15.623  1.00  0.00     0.046 C 
ATOM     18  C   UNL     1      15.009  34.827  17.440  1.00  0.00     0.001 A 
ENDBRANCH   9  11
ENDBRANCH   1   7
TORSDOF 5
ENDMDL
MODEL 10
REMARK VINA RESULT:    -6.035      3.542      5.921
REMARK INTER + INTRA:          -8.274
REMARK INTER:                  -7.872
REMARK INTRA:                  -0.402
REMARK UNBOUND:                -0.474
REMARK SMILES CCN(CC)CC(=O)Nc1c(C)cccc1C
REMARK SMILES IDX 6 1 3 2 2 3 1 4 4 5 5 6 7 7 8 8 9 9 10 11 11 12 16 13 12 14
REMARK SMILES IDX 13 15 15 16 17 17 14 18
REMARK H PARENT 9 10
REMARK Flexibility Score: inf
ROOT
ATOM      1  C   UNL     1      18.117  33.382  13.761  1.00  0.00     0.185 C 
ENDROOT
BRANCH   1   2
ATOM      2  N   UNL     1      18.092  33.953  12.397  1.00  0.00    -0.295 NA
BRANCH   2   3
ATOM      3  C   UNL     1      16.788  33.762  11.704  1.00  0.00     0.081 C 
ATOM      4  C   UNL     1      16.540  34.704  10.517  1.00  0.00     0.021 C 
ENDBRANCH   2   3
BRANCH   2   5
ATOM      5  C   UNL     1      19.265  33.494  11.618  1.00  0.00     0.081 C 
ATOM      6  C   UNL     1      19.101  32.058  11.118  1.00  0.00     0.021 C 
ENDBRANCH   2   5
ENDBRANCH   1   2
BRANCH   1   7
ATOM      7  C   UNL     1      17.529  34.334  14.763  1.00  0.00     0.238 C 
ATOM      8  O   UNL     1      17.660  35.576  14.585  1.00  0.00    -0.273 OA
ATOM      9  N   UNL     1      16.795  33.836  15.888  1.00  0.00    -0.324 N 
ATOM     10  H   UNL     1      16.529  32.826  15.912  1.00  0.00     0.169 HD
BRANCH   9  11
ATOM     11  C   UNL     1      16.285  34.703  16.914  1.00  0.00     0.047 A 
ATOM     12  C   UNL     1      14.923  35.077  16.903  1.00  0.00    -0.027 A 
ATOM     13  C   UNL     1      17.131  35.161  17.952  1.00  0.00    -0.027 A 
ATOM     14  C   UNL     1      14.004  34.611  15.807  1.00  0.00     0.046 C 
ATOM     15  C   UNL     1      14.435  35.945  17.892  1.00  0.00     0.005 A 
ATOM     16  C   UNL     1      16.620  36.036  18.923  1.00  0.00     0.005 A 
ATOM     17  C   UNL     1      18.578  34.751  18.027  1.00  0.00     0.046 C 
ATOM     18  C   UNL     1      15.281  36.422  18.893  1.00  0.00     0.001 A 
ENDBRANCH   9  11
ENDBRANCH   1   7
TORSDOF 5
ENDMDL
MODEL 11
REMARK VINA RESULT:    -5.972      4.512      6.177
REMARK INTER + INTRA:          -8.192
REMARK INTER:                  -7.641
REMARK INTRA:                  -0.550
REMARK UNBOUND:                -0.474
REMARK SMILES CCN(CC)CC(=O)Nc1c(C)cccc1C
REMARK SMILES IDX 6 1 3 2 2 3 1 4 4 5 5 6 7 7 8 8 9 9 10 11 11 12 16 13 12 14
REMARK SMILES IDX 13 15 15 16 17 17 14 18
REMARK H PARENT 9 10
REMARK Flexibility Score: inf
ROOT
ATOM      1  C   UNL     1      20.617  34.922  14.559  1.00  0.00     0.185 C 
ENDROOT
BRANCH   1   2
ATOM      2  N   UNL     1      21.100  33.927  13.574  1.00  0.00    -0.295 NA
BRANCH   2   3
ATOM      3  C   UNL     1      22.531  34.111  13.209  1.00  0.00     0.081 C 
ATOM      4  C   UNL     1      22.812  35.285  12.260  1.00  0.00     0.021 C 
ENDBRANCH   2   3
BRANCH   2   5
ATOM      5  C   UNL     1      20.183  33.855  12.414  1.00  0.00     0.081 C 
ATOM      6  C   UNL     1      19.841  32.413  12.037  1.00  0.00     0.021 C 
ENDBRANCH   2   5
ENDBRANCH   1   2
BRANCH   1   7
ATOM      7  C   UNL     1      19.257  34.557  15.080  1.00  0.00     0.238 C 
ATOM      8  O   UNL     1      19.080  33.426  15.608  1.00  0.00    -0.273 OA
ATOM      9  N   UNL     1      18.181  35.502  15.010  1.00  0.00    -0.324 N 
ATOM     10  H   UNL     1      18.393  36.492  14.755  1.00  0.00     0.169 HD
BRANCH   9  11
ATOM     11  C   UNL     1      16.845  35.171  15.421  1.00  0.00     0.047 A 
ATOM     12  C   UNL     1      15.960  34.559  14.505  1.00  0.00    -0.027 A 
ATOM     13  C   UNL     1      16.417  35.427  16.746  1.00  0.00    -0.027 A 
ATOM     14  C   UNL     1      16.386  34.283  13.088  1.00  0.00     0.046 C 
ATOM     15  C   UNL     1      14.648  34.261  14.903  1.00  0.00     0.005 A 
ATOM     16  C   UNL     1      15.097  35.128  17.115  1.00  0.00     0.005 A 
ATOM     17  C   UNL     1      17.341  36.037  17.766  1.00  0.00     0.046 C 
ATOM     18  C   UNL     1      14.220  34.547  16.199  1.00  0.00     0.001 A 
ENDBRANCH   9  11
ENDBRANCH   1   7
TORSDOF 5
ENDMDL
MODEL 12
REMARK VINA RESULT:    -5.944      4.398      6.142
REMARK INTER + INTRA:          -8.156
REMARK INTER:                  -7.602
REMARK INTRA:                  -0.555
REMARK UNBOUND:                -0.474
REMARK SMILES CCN(CC)CC(=O)Nc1c(C)cccc1C
REMARK SMILES IDX 6 1 3 2 2 3 1 4 4 5 5 6 7 7 8 8 9 9 10 11 11 12 16 13 12 14
REMARK SMILES IDX 13 15 15 16 17 17 14 18
REMARK H PARENT 9 10
REMARK Flexibility Score: inf
ROOT
ATOM      1  C   UNL     1      20.702  34.763  14.415  1.00  0.00     0.185 C 
ENDROOT
BRANCH   1   2
ATOM      2  N   UNL     1      21.124  33.792  13.380  1.00  0.00    -0.295 NA
BRANCH   2   3
ATOM      3  C   UNL     1      22.538  33.969  12.952  1.00  0.00     0.081 C 
ATOM      4  C   UNL     1      22.876  35.354  12.383  1.00  0.00     0.021 C 
ENDBRANCH   2   3
BRANCH   2   5
ATOM      5  C   UNL     1      20.152  33.766  12.263  1.00  0.00     0.081 C 
ATOM      6  C   UNL     1      19.788  32.341  11.846  1.00  0.00     0.021 C 
ENDBRANCH   2   5
ENDBRANCH   1   2
BRANCH   1   7
ATOM      7  C   UNL     1      19.337  34.433  14.948  1.00  0.00     0.238 C 
ATOM      8  O   UNL     1      19.138  33.311  15.486  1.00  0.00    -0.273 OA
ATOM      9  N   UNL     1      18.282  35.401  14.876  1.00  0.00    -0.324 N 
ATOM     10  H   UNL     1      18.514  36.384  14.611  1.00  0.00     0.169 HD
BRANCH   9  11
ATOM     11  C   UNL     1      16.942  35.104  15.298  1.00  0.00     0.047 A 
ATOM     12  C   UNL     1      16.534  35.416  16.615  1.00  0.00    -0.027 A 
ATOM     13  C   UNL     1      16.016  34.527  14.395  1.00  0.00    -0.027 A 
ATOM     14  C   UNL     1      17.499  36.023  17.597  1.00  0.00     0.046 C 
ATOM     15  C   UNL     1      15.231  35.101  17.030  1.00  0.00     0.005 A 
ATOM     16  C   UNL     1      14.723  34.213  14.840  1.00  0.00     0.005 A 
ATOM     17  C   UNL     1      16.395  34.218  12.972  1.00  0.00     0.046 C 
ATOM     18  C   UNL     1      14.334  34.500  16.147  1.00  0.00     0.001 A 
ENDBRANCH   9  11
ENDBRANCH   1   7
TORSDOF 5
ENDMDL
MODEL 13
REMARK VINA RESULT:    -5.933      5.197      7.309
REMARK INTER + INTRA:          -8.142
REMARK INTER:                  -7.560
REMARK INTRA:                  -0.582
REMARK UNBOUND:                -0.474
REMARK SMILES CCN(CC)CC(=O)Nc1c(C)cccc1C
REMARK SMILES IDX 6 1 3 2 2 3 1 4 4 5 5 6 7 7 8 8 9 9 10 11 11 12 16 13 12 14
REMARK SMILES IDX 13 15 15 16 17 17 14 18
REMARK H PARENT 9 10
REMARK Flexibility Score: inf
ROOT
ATOM      1  C   UNL     1      20.838  34.593  15.827  1.00  0.00     0.185 C 
ENDROOT
BRANCH   1   2
ATOM      2  N   UNL     1      21.021  35.330  14.557  1.00  0.00    -0.295 NA
BRANCH   2   3
ATOM      3  C   UNL     1      21.589  34.489  13.467  1.00  0.00     0.081 C 
ATOM      4  C   UNL     1      20.550  33.803  12.569  1.00  0.00     0.021 C 
ENDBRANCH   2   3
BRANCH   2   5
ATOM      5  C   UNL     1      21.754  36.596  14.789  1.00  0.00     0.081 C 
ATOM      6  C   UNL     1      22.774  36.884  13.687  1.00  0.00     0.021 C 
ENDBRANCH   2   5
ENDBRANCH   1   2
BRANCH   1   7
ATOM      7  C   UNL     1      19.384  34.359  16.117  1.00  0.00     0.238 C 
ATOM      8  O   UNL     1      19.033  33.297  16.700  1.00  0.00    -0.273 OA
ATOM      9  N   UNL     1      18.410  35.350  15.767  1.00  0.00    -0.324 N 
ATOM     10  H   UNL     1      18.735  36.297  15.470  1.00  0.00     0.169 HD
BRANCH   9  11
ATOM     11  C   UNL     1      17.001  35.137  15.950  1.00  0.00     0.047 A 
ATOM     12  C   UNL     1      16.382  35.535  17.156  1.00  0.00    -0.027 A 
ATOM     13  C   UNL     1      16.223  34.557  14.919  1.00  0.00    -0.027 A 
ATOM     14  C   UNL     1      17.186  36.147  18.271  1.00  0.00     0.046 C 
ATOM     15  C   UNL     1      15.010  35.301  17.341  1.00  0.00     0.005 A 
ATOM     16  C   UNL     1      14.856  34.326  15.134  1.00  0.00     0.005 A 
ATOM     17  C   UNL     1      16.834  34.158  13.603  1.00  0.00     0.046 C 
ATOM     18  C   UNL     1      14.254  34.698  16.336  1.00  0.00     0.001 A 
ENDBRANCH   9  11
ENDBRANCH   1   7
TORSDOF 5
ENDMDL
MODEL 14
REMARK VINA RESULT:    -5.927      5.255      7.241
REMARK INTER + INTRA:          -8.133
REMARK INTER:                  -7.564
REMARK INTRA:                  -0.569
REMARK UNBOUND:                -0.474
REMARK SMILES CCN(CC)CC(=O)Nc1c(C)cccc1C
REMARK SMILES IDX 6 1 3 2 2 3 1 4 4 5 5 6 7 7 8 8 9 9 10 11 11 12 16 13 12 14
REMARK SMILES IDX 13 15 15 16 17 17 14 18
REMARK H PARENT 9 10
REMARK Flexibility Score: inf
ROOT
ATOM      1  C   UNL     1      20.812  34.880  15.919  1.00  0.00     0.185 C 
ENDROOT
BRANCH   1   2
ATOM      2  N   UNL     1      21.000  35.429  14.557  1.00  0.00    -0.295 NA
BRANCH   2   3
ATOM      3  C   UNL     1      21.575  34.444  13.602  1.00  0.00     0.081 C 
ATOM      4  C   UNL     1      20.570  33.839  12.611  1.00  0.00     0.021 C 
ENDBRANCH   2   3
BRANCH   2   5
ATOM      5  C   UNL     1      21.729  36.717  14.611  1.00  0.00     0.081 C 
ATOM      6  C   UNL     1      22.857  36.787  13.582  1.00  0.00     0.021 C 
ENDBRANCH   2   5
ENDBRANCH   1   2
BRANCH   1   7
ATOM      7  C   UNL     1      19.367  34.571  16.187  1.00  0.00     0.238 C 
ATOM      8  O   UNL     1      19.063  33.490  16.762  1.00  0.00    -0.273 OA
ATOM      9  N   UNL     1      18.349  35.513  15.827  1.00  0.00    -0.324 N 
ATOM     10  H   UNL     1      18.630  36.476  15.537  1.00  0.00     0.169 HD
BRANCH   9  11
ATOM     11  C   UNL     1      16.950  35.227  15.990  1.00  0.00     0.047 A 
ATOM     12  C   UNL     1      16.238  34.591  14.948  1.00  0.00    -0.027 A 
ATOM     13  C   UNL     1      16.287  35.551  17.198  1.00  0.00    -0.027 A 
ATOM     14  C   UNL     1      16.916  34.242  13.651  1.00  0.00     0.046 C 
ATOM     15  C   UNL     1      14.866  34.337  15.102  1.00  0.00     0.005 A 
ATOM     16  C   UNL     1      14.914  35.294  17.321  1.00  0.00     0.005 A 
ATOM     17  C   UNL     1      17.018  36.189  18.349  1.00  0.00     0.046 C 
ATOM     18  C   UNL     1      14.210  34.689  16.281  1.00  0.00     0.001 A 
ENDBRANCH   9  11
ENDBRANCH   1   7
TORSDOF 5
ENDMDL
MODEL 15
REMARK VINA RESULT:    -5.919      1.337      3.136
REMARK INTER + INTRA:          -8.124
REMARK INTER:                  -7.699
REMARK INTRA:                  -0.425
REMARK UNBOUND:                -0.474
REMARK SMILES CCN(CC)CC(=O)Nc1c(C)cccc1C
REMARK SMILES IDX 6 1 3 2 2 3 1 4 4 5 5 6 7 7 8 8 9 9 10 11 11 12 16 13 12 14
REMARK SMILES IDX 13 15 15 16 17 17 14 18
REMARK H PARENT 9 10
REMARK Flexibility Score: inf
ROOT
ATOM      1  C   UNL     1      16.043  32.392  10.197  1.00  0.00     0.185 C 
ENDROOT
BRANCH   1   2
ATOM      2  N   UNL     1      16.600  32.659   8.853  1.00  0.00    -0.295 NA
BRANCH   2   3
ATOM      3  C   UNL     1      15.698  32.234   7.748  1.00  0.00     0.081 C 
ATOM      4  C   UNL     1      14.961  30.909   7.987  1.00  0.00     0.021 C 
ENDBRANCH   2   3
BRANCH   2   5
ATOM      5  C   UNL     1      17.980  32.132   8.745  1.00  0.00     0.081 C 
ATOM      6  C   UNL     1      18.383  31.857   7.296  1.00  0.00     0.021 C 
ENDBRANCH   2   5
ENDBRANCH   1   2
BRANCH   1   7
ATOM      7  C   UNL     1      16.537  33.392  11.202  1.00  0.00     0.238 C 
ATOM      8  O   UNL     1      16.588  34.612  10.886  1.00  0.00    -0.273 OA
ATOM      9  N   UNL     1      16.912  32.967  12.519  1.00  0.00    -0.324 N 
ATOM     10  H   UNL     1      16.677  31.996  12.823  1.00  0.00     0.169 HD
BRANCH   9  11
ATOM     11  C   UNL     1      17.466  33.873  13.486  1.00  0.00     0.047 A 
ATOM     12  C   UNL     1      16.619  34.496  14.430  1.00  0.00    -0.027 A 
ATOM     13  C   UNL     1      18.859  34.124  13.520  1.00  0.00    -0.027 A 
ATOM     14  C   UNL     1      15.134  34.254  14.412  1.00  0.00     0.046 C 
ATOM     15  C   UNL     1      17.161  35.400  15.357  1.00  0.00     0.005 A 
ATOM     16  C   UNL     1      19.373  35.039  14.450  1.00  0.00     0.005 A 
ATOM     17  C   UNL     1      19.802  33.448  12.561  1.00  0.00     0.046 C 
ATOM     18  C   UNL     1      18.529  35.671  15.363  1.00  0.00     0.001 A 
ENDBRANCH   9  11
ENDBRANCH   1   7
TORSDOF 5
ENDMDL
