MODEL 1
REMARK VINA RESULT:    -8.667      0.000      0.000
REMARK INTER + INTRA:         -14.007
REMARK INTER:                 -12.720
REMARK INTRA:                  -1.288
REMARK UNBOUND:                -1.288
REMARK SMILES COc1cc2ncnc(Nc3ccc(F)c(Cl)c3)c2cc1OCCCN1CCOCC1
REMARK SMILES IDX 23 1 22 2 21 3 3 4 4 5 20 6 5 7 19 8 6 9 9 10 7 11 8 12 2 13
REMARK SMILES IDX 1 14 10 15 11 17 18 18 12 19 16 20 13 21 17 22 14 23 15 24
REMARK SMILES IDX 24 25 25 26 26 27 27 28 31 29 28 30 30 31 29 32
REMARK H PARENT 10 16
REMARK Flexibility Score: inf
ROOT
ATOM      1  C   UNL     1      20.974  32.276  12.476  1.00  0.00     0.231 C 
ENDROOT
BRANCH   1   2
ATOM      2  O   UNL     1      19.573  32.239  12.742  1.00  0.00    -0.490 OA
BRANCH   2   3
ATOM      3  C   UNL     1      18.599  32.932  12.007  1.00  0.00     0.162 A 
ATOM      4  C   UNL     1      17.741  33.799  12.699  1.00  0.00     0.162 A 
ATOM      5  C   UNL     1      16.747  34.504  11.996  1.00  0.00     0.079 A 
ATOM      6  C   UNL     1      18.465  32.778  10.613  1.00  0.00     0.064 A 
ATOM      7  C   UNL     1      16.613  34.351  10.614  1.00  0.00     0.080 A 
ATOM      8  C   UNL     1      17.483  33.496   9.905  1.00  0.00     0.047 A 
ATOM      9  N   UNL     1      15.635  35.025   9.954  1.00  0.00    -0.236 NA
ATOM     10  C   UNL     1      17.303  33.379   8.509  1.00  0.00     0.141 A 
ATOM     11  C   UNL     1      15.477  34.892   8.614  1.00  0.00     0.224 A 
ATOM     12  N   UNL     1      16.306  34.085   7.908  1.00  0.00    -0.219 NA
BRANCH   4  13
ATOM     13  O   UNL     1      17.908  33.932  14.086  1.00  0.00    -0.493 OA
ATOM     14  C   UNL     1      18.705  34.931  14.713  1.00  0.00     0.278 C 
ENDBRANCH   4  13
BRANCH  10  15
ATOM     15  N   UNL     1      18.186  32.583   7.699  1.00  0.00    -0.340 N 
ATOM     16  H   UNL     1      19.053  33.030   7.325  1.00  0.00     0.168 HD
BRANCH  15  17
ATOM     17  C   UNL     1      17.854  31.265   7.229  1.00  0.00     0.041 A 
ATOM     18  C   UNL     1      16.617  30.698   7.579  1.00  0.00     0.049 A 
ATOM     19  C   UNL     1      18.720  30.550   6.382  1.00  0.00     0.029 A 
ATOM     20  C   UNL     1      16.265  29.424   7.116  1.00  0.00     0.078 A 
ATOM     21  C   UNL     1      18.366  29.279   5.921  1.00  0.00     0.043 A 
ATOM     22  Cl  UNL     1      14.720  28.729   7.576  1.00  0.00    -0.081 Cl
ATOM     23  C   UNL     1      17.142  28.713   6.289  1.00  0.00     0.141 A 
ATOM     24  F   UNL     1      16.809  27.479   5.834  1.00  0.00    -0.205 F 
ENDBRANCH  15  17
ENDBRANCH  10  15
ENDBRANCH   2   3
ENDBRANCH   1   2
BRANCH   1  25
ATOM     25  C   UNL     1      21.487  33.713  12.580  1.00  0.00     0.057 C 
BRANCH  25  26
ATOM     26  C   UNL     1      22.499  33.876  13.727  1.00  0.00     0.088 C 
BRANCH  26  27
ATOM     27  N   UNL     1      23.533  34.881  13.395  1.00  0.00    -0.299 NA
ATOM     28  C   UNL     1      23.481  36.039  14.321  1.00  0.00     0.113 C 
ATOM     29  C   UNL     1      23.460  35.295  11.972  1.00  0.00     0.113 C 
ATOM     30  C   UNL     1      22.746  37.240  13.697  1.00  0.00     0.175 C 
ATOM     31  C   UNL     1      24.036  36.707  11.769  1.00  0.00     0.175 C 
ATOM     32  O   UNL     1      23.341  37.711  12.494  1.00  0.00    -0.379 OA
ENDBRANCH  26  27
ENDBRANCH  25  26
ENDBRANCH   1  25
TORSDOF 8
ENDMDL
MODEL 2
REMARK VINA RESULT:    -8.486      4.422      8.937
REMARK INTER + INTRA:         -13.743
REMARK INTER:                 -12.970
REMARK INTRA:                  -0.773
REMARK UNBOUND:                -1.288
REMARK SMILES COc1cc2ncnc(Nc3ccc(F)c(Cl)c3)c2cc1OCCCN1CCOCC1
REMARK SMILES IDX 23 1 22 2 21 3 3 4 4 5 20 6 5 7 19 8 6 9 9 10 7 11 8 12 2 13
REMARK SMILES IDX 1 14 10 15 11 17 18 18 12 19 16 20 13 21 17 22 14 23 15 24
REMARK SMILES IDX 24 25 25 26 26 27 27 28 31 29 28 30 30 31 29 32
REMARK H PARENT 10 16
REMARK Flexibility Score: inf
ROOT
ATOM      1  C   UNL     1      17.798  31.966   9.159  1.00  0.00     0.231 C 
ENDROOT
BRANCH   1   2
ATOM      2  O   UNL     1      18.555  32.873   9.958  1.00  0.00    -0.490 OA
BRANCH   2   3
ATOM      3  C   UNL     1      18.310  33.144  11.313  1.00  0.00     0.162 A 
ATOM      4  C   UNL     1      17.109  33.784  11.653  1.00  0.00     0.162 A 
ATOM      5  C   UNL     1      16.834  34.080  13.001  1.00  0.00     0.079 A 
ATOM      6  C   UNL     1      19.229  32.795  12.323  1.00  0.00     0.064 A 
ATOM      7  C   UNL     1      17.745  33.735  14.003  1.00  0.00     0.080 A 
ATOM      8  C   UNL     1      18.947  33.073  13.673  1.00  0.00     0.047 A 
ATOM      9  N   UNL     1      17.471  34.044  15.296  1.00  0.00    -0.236 NA
ATOM     10  C   UNL     1      19.831  32.747  14.725  1.00  0.00     0.141 A 
ATOM     11  C   UNL     1      18.338  33.727  16.289  1.00  0.00     0.224 A 
ATOM     12  N   UNL     1      19.496  33.083  16.001  1.00  0.00    -0.219 NA
BRANCH   4  13
ATOM     13  O   UNL     1      16.216  34.113  10.621  1.00  0.00    -0.493 OA
ATOM     14  C   UNL     1      16.153  35.383   9.980  1.00  0.00     0.278 C 
ENDBRANCH   4  13
BRANCH  10  15
ATOM     15  N   UNL     1      21.046  32.014  14.489  1.00  0.00    -0.340 N 
ATOM     16  H   UNL     1      20.995  30.972  14.443  1.00  0.00     0.168 HD
BRANCH  15  17
ATOM     17  C   UNL     1      22.349  32.622  14.492  1.00  0.00     0.041 A 
ATOM     18  C   UNL     1      22.838  33.215  13.315  1.00  0.00     0.049 A 
ATOM     19  C   UNL     1      23.127  32.681  15.662  1.00  0.00     0.029 A 
ATOM     20  C   UNL     1      24.096  33.830  13.300  1.00  0.00     0.078 A 
ATOM     21  C   UNL     1      24.383  33.295  15.645  1.00  0.00     0.043 A 
ATOM     22  Cl  UNL     1      24.692  34.553  11.817  1.00  0.00    -0.081 Cl
ATOM     23  C   UNL     1      24.870  33.866  14.466  1.00  0.00     0.141 A 
ATOM     24  F   UNL     1      26.089  34.461  14.462  1.00  0.00    -0.205 F 
ENDBRANCH  15  17
ENDBRANCH  10  15
ENDBRANCH   2   3
ENDBRANCH   1   2
BRANCH   1  25
ATOM     25  C   UNL     1      17.820  32.413   7.697  1.00  0.00     0.057 C 
BRANCH  25  26
ATOM     26  C   UNL     1      16.928  31.524   6.814  1.00  0.00     0.088 C 
BRANCH  26  27
ATOM     27  N   UNL     1      16.261  30.470   7.609  1.00  0.00    -0.299 NA
ATOM     28  C   UNL     1      16.514  29.122   7.044  1.00  0.00     0.113 C 
ATOM     29  C   UNL     1      14.813  30.745   7.781  1.00  0.00     0.113 C 
ATOM     30  C   UNL     1      15.325  28.619   6.203  1.00  0.00     0.175 C 
ATOM     31  C   UNL     1      14.020  29.447   8.012  1.00  0.00     0.175 C 
ATOM     32  O   UNL     1      14.108  28.529   6.932  1.00  0.00    -0.379 OA
ENDBRANCH  26  27
ENDBRANCH  25  26
ENDBRANCH   1  25
TORSDOF 8
ENDMDL
MODEL 3
REMARK VINA RESULT:    -8.383      3.966      5.780
REMARK INTER + INTRA:         -13.591
REMARK INTER:                 -12.619
REMARK INTRA:                  -0.972
REMARK UNBOUND:                -1.288
REMARK SMILES COc1cc2ncnc(Nc3ccc(F)c(Cl)c3)c2cc1OCCCN1CCOCC1
REMARK SMILES IDX 23 1 22 2 21 3 3 4 4 5 20 6 5 7 19 8 6 9 9 10 7 11 8 12 2 13
REMARK SMILES IDX 1 14 10 15 11 17 18 18 12 19 16 20 13 21 17 22 14 23 15 24
REMARK SMILES IDX 24 25 25 26 26 27 27 28 31 29 28 30 30 31 29 32
REMARK H PARENT 10 16
REMARK Flexibility Score: inf
ROOT
ATOM      1  C   UNL     1      23.758  33.028  12.310  1.00  0.00     0.231 C 
ENDROOT
BRANCH   1   2
ATOM      2  O   UNL     1      22.821  34.079  12.087  1.00  0.00    -0.490 OA
BRANCH   2   3
ATOM      3  C   UNL     1      21.802  34.447  12.979  1.00  0.00     0.162 A 
ATOM      4  C   UNL     1      22.101  35.391  13.972  1.00  0.00     0.162 A 
ATOM      5  C   UNL     1      21.107  35.776  14.890  1.00  0.00     0.079 A 
ATOM      6  C   UNL     1      20.507  33.897  12.902  1.00  0.00     0.064 A 
ATOM      7  C   UNL     1      19.823  35.231  14.814  1.00  0.00     0.080 A 
ATOM      8  C   UNL     1      19.506  34.294  13.807  1.00  0.00     0.047 A 
ATOM      9  N   UNL     1      18.881  35.600  15.720  1.00  0.00    -0.236 NA
ATOM     10  C   UNL     1      18.193  33.775  13.777  1.00  0.00     0.141 A 
ATOM     11  C   UNL     1      17.628  35.084  15.676  1.00  0.00     0.224 A 
ATOM     12  N   UNL     1      17.294  34.190  14.712  1.00  0.00    -0.219 NA
BRANCH   4  13
ATOM     13  O   UNL     1      23.400  35.921  14.015  1.00  0.00    -0.493 OA
ATOM     14  C   UNL     1      23.770  37.196  13.500  1.00  0.00     0.278 C 
ENDBRANCH   4  13
BRANCH  10  15
ATOM     15  N   UNL     1      17.765  32.868  12.746  1.00  0.00    -0.340 N 
ATOM     16  H   UNL     1      17.860  31.842  12.919  1.00  0.00     0.168 HD
BRANCH  15  17
ATOM     17  C   UNL     1      17.383  33.293  11.427  1.00  0.00     0.041 A 
ATOM     18  C   UNL     1      17.816  32.558  10.311  1.00  0.00     0.049 A 
ATOM     19  C   UNL     1      16.540  34.403  11.230  1.00  0.00     0.029 A 
ATOM     20  C   UNL     1      17.441  32.943   9.018  1.00  0.00     0.078 A 
ATOM     21  C   UNL     1      16.166  34.785   9.939  1.00  0.00     0.043 A 
ATOM     22  Cl  UNL     1      18.004  32.017   7.638  1.00  0.00    -0.081 Cl
ATOM     23  C   UNL     1      16.617  34.059   8.833  1.00  0.00     0.141 A 
ATOM     24  F   UNL     1      16.246  34.439   7.584  1.00  0.00    -0.205 F 
ENDBRANCH  15  17
ENDBRANCH  10  15
ENDBRANCH   2   3
ENDBRANCH   1   2
BRANCH   1  25
ATOM     25  C   UNL     1      25.142  33.445  11.810  1.00  0.00     0.057 C 
BRANCH  25  26
ATOM     26  C   UNL     1      25.966  32.237  11.333  1.00  0.00     0.088 C 
BRANCH  26  27
ATOM     27  N   UNL     1      27.378  32.345  11.760  1.00  0.00    -0.299 NA
ATOM     28  C   UNL     1      28.229  31.339  11.078  1.00  0.00     0.113 C 
ATOM     29  C   UNL     1      27.511  32.286  13.237  1.00  0.00     0.113 C 
ATOM     30  C   UNL     1      28.513  30.122  11.978  1.00  0.00     0.175 C 
ATOM     31  C   UNL     1      28.898  31.767  13.654  1.00  0.00     0.175 C 
ATOM     32  O   UNL     1      29.173  30.452  13.194  1.00  0.00    -0.379 OA
ENDBRANCH  26  27
ENDBRANCH  25  26
ENDBRANCH   1  25
TORSDOF 8
ENDMDL
MODEL 4
REMARK VINA RESULT:    -8.367      4.071      8.300
REMARK INTER + INTRA:         -13.567
REMARK INTER:                 -12.477
REMARK INTRA:                  -1.090
REMARK UNBOUND:                -1.288
REMARK SMILES COc1cc2ncnc(Nc3ccc(F)c(Cl)c3)c2cc1OCCCN1CCOCC1
REMARK SMILES IDX 23 1 22 2 21 3 3 4 4 5 20 6 5 7 19 8 6 9 9 10 7 11 8 12 2 13
REMARK SMILES IDX 1 14 10 15 11 17 18 18 12 19 16 20 13 21 17 22 14 23 15 24
REMARK SMILES IDX 24 25 25 26 26 27 27 28 31 29 28 30 30 31 29 32
REMARK H PARENT 10 16
REMARK Flexibility Score: inf
ROOT
ATOM      1  C   UNL     1      16.471  34.264  11.466  1.00  0.00     0.231 C 
ENDROOT
BRANCH   1   2
ATOM      2  O   UNL     1      16.478  33.360  12.569  1.00  0.00    -0.490 OA
BRANCH   2   3
ATOM      3  C   UNL     1      17.098  33.607  13.804  1.00  0.00     0.162 A 
ATOM      4  C   UNL     1      16.312  34.111  14.850  1.00  0.00     0.162 A 
ATOM      5  C   UNL     1      16.902  34.380  16.099  1.00  0.00     0.079 A 
ATOM      6  C   UNL     1      18.471  33.365  14.012  1.00  0.00     0.064 A 
ATOM      7  C   UNL     1      18.263  34.141  16.306  1.00  0.00     0.080 A 
ATOM      8  C   UNL     1      19.059  33.616  15.266  1.00  0.00     0.047 A 
ATOM      9  N   UNL     1      18.819  34.423  17.512  1.00  0.00    -0.236 NA
ATOM     10  C   UNL     1      20.428  33.393  15.530  1.00  0.00     0.141 A 
ATOM     11  C   UNL     1      20.138  34.208  17.741  1.00  0.00     0.224 A 
ATOM     12  N   UNL     1      20.923  33.694  16.762  1.00  0.00    -0.219 NA
BRANCH   4  13
ATOM     13  O   UNL     1      14.947  34.335  14.607  1.00  0.00    -0.493 OA
ATOM     14  C   UNL     1      13.976  34.579  15.620  1.00  0.00     0.278 C 
ENDBRANCH   4  13
BRANCH  10  15
ATOM     15  N   UNL     1      21.298  32.798  14.551  1.00  0.00    -0.340 N 
ATOM     16  H   UNL     1      21.390  31.757  14.537  1.00  0.00     0.168 HD
BRANCH  15  17
ATOM     17  C   UNL     1      22.181  33.561  13.711  1.00  0.00     0.041 A 
ATOM     18  C   UNL     1      23.174  32.898  12.970  1.00  0.00     0.049 A 
ATOM     19  C   UNL     1      22.042  34.954  13.576  1.00  0.00     0.029 A 
ATOM     20  C   UNL     1      24.033  33.618  12.131  1.00  0.00     0.078 A 
ATOM     21  C   UNL     1      22.901  35.671  12.738  1.00  0.00     0.043 A 
ATOM     22  Cl  UNL     1      25.274  32.771  11.224  1.00  0.00    -0.081 Cl
ATOM     23  C   UNL     1      23.898  35.007  12.018  1.00  0.00     0.141 A 
ATOM     24  F   UNL     1      24.724  35.713  11.206  1.00  0.00    -0.205 F 
ENDBRANCH  15  17
ENDBRANCH  10  15
ENDBRANCH   2   3
ENDBRANCH   1   2
BRANCH   1  25
ATOM     25  C   UNL     1      17.385  33.742  10.357  1.00  0.00     0.057 C 
BRANCH  25  26
ATOM     26  C   UNL     1      16.591  33.356   9.098  1.00  0.00     0.088 C 
BRANCH  26  27
ATOM     27  N   UNL     1      16.536  31.888   8.924  1.00  0.00    -0.299 NA
ATOM     28  C   UNL     1      17.829  31.350   8.435  1.00  0.00     0.113 C 
ATOM     29  C   UNL     1      15.396  31.479   8.066  1.00  0.00     0.113 C 
ATOM     30  C   UNL     1      17.804  31.084   6.919  1.00  0.00     0.175 C 
ATOM     31  C   UNL     1      15.671  30.132   7.374  1.00  0.00     0.175 C 
ATOM     32  O   UNL     1      16.804  30.156   6.517  1.00  0.00    -0.379 OA
ENDBRANCH  26  27
ENDBRANCH  25  26
ENDBRANCH   1  25
TORSDOF 8
ENDMDL
MODEL 5
REMARK VINA RESULT:    -8.291      4.271      8.549
REMARK INTER + INTRA:         -13.456
REMARK INTER:                 -12.200
REMARK INTRA:                  -1.256
REMARK UNBOUND:                -1.288
REMARK SMILES COc1cc2ncnc(Nc3ccc(F)c(Cl)c3)c2cc1OCCCN1CCOCC1
REMARK SMILES IDX 23 1 22 2 21 3 3 4 4 5 20 6 5 7 19 8 6 9 9 10 7 11 8 12 2 13
REMARK SMILES IDX 1 14 10 15 11 17 18 18 12 19 16 20 13 21 17 22 14 23 15 24
REMARK SMILES IDX 24 25 25 26 26 27 27 28 31 29 28 30 30 31 29 32
REMARK H PARENT 10 16
REMARK Flexibility Score: inf
ROOT
ATOM      1  C   UNL     1      20.046  31.995  12.025  1.00  0.00     0.231 C 
ENDROOT
BRANCH   1   2
ATOM      2  O   UNL     1      21.269  32.701  12.225  1.00  0.00    -0.490 OA
BRANCH   2   3
ATOM      3  C   UNL     1      21.500  33.626  13.255  1.00  0.00     0.162 A 
ATOM      4  C   UNL     1      22.536  34.557  13.087  1.00  0.00     0.162 A 
ATOM      5  C   UNL     1      22.803  35.493  14.103  1.00  0.00     0.079 A 
ATOM      6  C   UNL     1      20.730  33.639  14.435  1.00  0.00     0.064 A 
ATOM      7  C   UNL     1      22.040  35.506  15.273  1.00  0.00     0.080 A 
ATOM      8  C   UNL     1      20.984  34.586  15.444  1.00  0.00     0.047 A 
ATOM      9  N   UNL     1      22.324  36.404  16.251  1.00  0.00    -0.236 NA
ATOM     10  C   UNL     1      20.245  34.643  16.647  1.00  0.00     0.141 A 
ATOM     11  C   UNL     1      21.606  36.437  17.400  1.00  0.00     0.224 A 
ATOM     12  N   UNL     1      20.579  35.570  17.586  1.00  0.00    -0.219 NA
BRANCH   4  13
ATOM     13  O   UNL     1      23.278  34.518  11.896  1.00  0.00    -0.493 OA
ATOM     14  C   UNL     1      24.683  34.294  11.827  1.00  0.00     0.278 C 
ENDBRANCH   4  13
BRANCH  10  15
ATOM     15  N   UNL     1      19.111  33.789  16.876  1.00  0.00    -0.340 N 
ATOM     16  H   UNL     1      19.287  32.808  17.191  1.00  0.00     0.168 HD
BRANCH  15  17
ATOM     17  C   UNL     1      17.765  34.150  16.524  1.00  0.00     0.041 A 
ATOM     18  C   UNL     1      16.957  34.806  17.468  1.00  0.00     0.049 A 
ATOM     19  C   UNL     1      17.253  33.906  15.237  1.00  0.00     0.029 A 
ATOM     20  C   UNL     1      15.649  35.185  17.141  1.00  0.00     0.078 A 
ATOM     21  C   UNL     1      15.948  34.284  14.913  1.00  0.00     0.043 A 
ATOM     22  Cl  UNL     1      14.653  35.992  18.339  1.00  0.00    -0.081 Cl
ATOM     23  C   UNL     1      15.143  34.920  15.863  1.00  0.00     0.141 A 
ATOM     24  F   UNL     1      13.878  35.284  15.536  1.00  0.00    -0.205 F 
ENDBRANCH  15  17
ENDBRANCH  10  15
ENDBRANCH   2   3
ENDBRANCH   1   2
BRANCH   1  25
ATOM     25  C   UNL     1      19.024  32.902  11.340  1.00  0.00     0.057 C 
BRANCH  25  26
ATOM     26  C   UNL     1      18.186  32.138  10.301  1.00  0.00     0.088 C 
BRANCH  26  27
ATOM     27  N   UNL     1      16.862  32.768  10.106  1.00  0.00    -0.299 NA
ATOM     28  C   UNL     1      16.250  32.357   8.818  1.00  0.00     0.113 C 
ATOM     29  C   UNL     1      16.929  34.243  10.252  1.00  0.00     0.113 C 
ATOM     30  C   UNL     1      16.427  33.432   7.730  1.00  0.00     0.175 C 
ATOM     31  C   UNL     1      15.802  34.935   9.466  1.00  0.00     0.175 C 
ATOM     32  O   UNL     1      15.852  34.688   8.068  1.00  0.00    -0.379 OA
ENDBRANCH  26  27
ENDBRANCH  25  26
ENDBRANCH   1  25
TORSDOF 8
ENDMDL
MODEL 6
REMARK VINA RESULT:    -8.283      1.745      2.045
REMARK INTER + INTRA:         -13.444
REMARK INTER:                 -12.390
REMARK INTRA:                  -1.054
REMARK UNBOUND:                -1.288
REMARK SMILES COc1cc2ncnc(Nc3ccc(F)c(Cl)c3)c2cc1OCCCN1CCOCC1
REMARK SMILES IDX 23 1 22 2 21 3 3 4 4 5 20 6 5 7 19 8 6 9 9 10 7 11 8 12 2 13
REMARK SMILES IDX 1 14 10 15 11 17 18 18 12 19 16 20 13 21 17 22 14 23 15 24
REMARK SMILES IDX 24 25 25 26 26 27 27 28 31 29 28 30 30 31 29 32
REMARK H PARENT 10 16
REMARK Flexibility Score: inf
ROOT
ATOM      1  C   UNL     1      20.851  32.407  12.651  1.00  0.00     0.231 C 
ENDROOT
BRANCH   1   2
ATOM      2  O   UNL     1      19.443  32.388  12.873  1.00  0.00    -0.490 OA
BRANCH   2   3
ATOM      3  C   UNL     1      18.496  33.045  12.071  1.00  0.00     0.162 A 
ATOM      4  C   UNL     1      17.611  33.939  12.691  1.00  0.00     0.162 A 
ATOM      5  C   UNL     1      16.643  34.609  11.921  1.00  0.00     0.079 A 
ATOM      6  C   UNL     1      18.415  32.829  10.681  1.00  0.00     0.064 A 
ATOM      7  C   UNL     1      16.562  34.395  10.543  1.00  0.00     0.080 A 
ATOM      8  C   UNL     1      17.460  33.512   9.906  1.00  0.00     0.047 A 
ATOM      9  N   UNL     1      15.609  35.035   9.817  1.00  0.00    -0.236 NA
ATOM     10  C   UNL     1      17.333  33.333   8.510  1.00  0.00     0.141 A 
ATOM     11  C   UNL     1      15.502  34.843   8.480  1.00  0.00     0.224 A 
ATOM     12  N   UNL     1      16.359  34.008   7.841  1.00  0.00    -0.219 NA
BRANCH   4  13
ATOM     13  O   UNL     1      17.724  34.132  14.077  1.00  0.00    -0.493 OA
ATOM     14  C   UNL     1      16.886  34.991  14.844  1.00  0.00     0.278 C 
ENDBRANCH   4  13
BRANCH  10  15
ATOM     15  N   UNL     1      18.247  32.505   7.771  1.00  0.00    -0.340 N 
ATOM     16  H   UNL     1      19.161  32.917   7.475  1.00  0.00     0.168 HD
BRANCH  15  17
ATOM     17  C   UNL     1      17.902  31.205   7.262  1.00  0.00     0.041 A 
ATOM     18  C   UNL     1      16.687  30.614   7.645  1.00  0.00     0.049 A 
ATOM     19  C   UNL     1      18.733  30.532   6.348  1.00  0.00     0.029 A 
ATOM     20  C   UNL     1      16.321  29.357   7.147  1.00  0.00     0.078 A 
ATOM     21  C   UNL     1      18.366  29.278   5.852  1.00  0.00     0.043 A 
ATOM     22  Cl  UNL     1      14.804  28.631   7.648  1.00  0.00    -0.081 Cl
ATOM     23  C   UNL     1      17.164  28.687   6.252  1.00  0.00     0.141 A 
ATOM     24  F   UNL     1      16.818  27.471   5.763  1.00  0.00    -0.205 F 
ENDBRANCH  15  17
ENDBRANCH  10  15
ENDBRANCH   2   3
ENDBRANCH   1   2
BRANCH   1  25
ATOM     25  C   UNL     1      21.457  33.678  13.248  1.00  0.00     0.057 C 
BRANCH  25  26
ATOM     26  C   UNL     1      22.850  33.974  12.668  1.00  0.00     0.088 C 
BRANCH  26  27
ATOM     27  N   UNL     1      23.640  32.734  12.503  1.00  0.00    -0.299 NA
ATOM     28  C   UNL     1      24.334  32.361  13.760  1.00  0.00     0.113 C 
ATOM     29  C   UNL     1      24.573  32.827  11.352  1.00  0.00     0.113 C 
ATOM     30  C   UNL     1      25.816  32.780  13.744  1.00  0.00     0.175 C 
ATOM     31  C   UNL     1      25.783  31.895  11.535  1.00  0.00     0.175 C 
ATOM     32  O   UNL     1      26.563  32.198  12.682  1.00  0.00    -0.379 OA
ENDBRANCH  26  27
ENDBRANCH  25  26
ENDBRANCH   1  25
TORSDOF 8
ENDMDL
MODEL 7
REMARK VINA RESULT:    -8.283      3.134      4.888
REMARK INTER + INTRA:         -13.444
REMARK INTER:                 -12.194
REMARK INTRA:                  -1.250
REMARK UNBOUND:                -1.288
REMARK SMILES COc1cc2ncnc(Nc3ccc(F)c(Cl)c3)c2cc1OCCCN1CCOCC1
REMARK SMILES IDX 23 1 22 2 21 3 3 4 4 5 20 6 5 7 19 8 6 9 9 10 7 11 8 12 2 13
REMARK SMILES IDX 1 14 10 15 11 17 18 18 12 19 16 20 13 21 17 22 14 23 15 24
REMARK SMILES IDX 24 25 25 26 26 27 27 28 31 29 28 30 30 31 29 32
REMARK H PARENT 10 16
REMARK Flexibility Score: inf
ROOT
ATOM      1  C   UNL     1      21.172  33.600  16.624  1.00  0.00     0.231 C 
ENDROOT
BRANCH   1   2
ATOM      2  O   UNL     1      20.155  34.522  17.011  1.00  0.00    -0.490 OA
BRANCH   2   3
ATOM      3  C   UNL     1      18.802  34.420  16.651  1.00  0.00     0.162 A 
ATOM      4  C   UNL     1      17.843  34.427  17.674  1.00  0.00     0.162 A 
ATOM      5  C   UNL     1      16.478  34.318  17.351  1.00  0.00     0.079 A 
ATOM      6  C   UNL     1      18.393  34.311  15.307  1.00  0.00     0.064 A 
ATOM      7  C   UNL     1      16.071  34.209  16.019  1.00  0.00     0.080 A 
ATOM      8  C   UNL     1      17.027  34.219  14.980  1.00  0.00     0.047 A 
ATOM      9  N   UNL     1      14.751  34.085  15.726  1.00  0.00    -0.236 NA
ATOM     10  C   UNL     1      16.561  34.107  13.652  1.00  0.00     0.141 A 
ATOM     11  C   UNL     1      14.327  33.972  14.444  1.00  0.00     0.224 A 
ATOM     12  N   UNL     1      15.223  33.990  13.426  1.00  0.00    -0.219 NA
BRANCH   4  13
ATOM     13  O   UNL     1      18.287  34.542  19.001  1.00  0.00    -0.493 OA
ATOM     14  C   UNL     1      18.216  35.735  19.776  1.00  0.00     0.278 C 
ENDBRANCH   4  13
BRANCH  10  15
ATOM     15  N   UNL     1      17.458  34.176  12.530  1.00  0.00    -0.340 N 
ATOM     16  H   UNL     1      18.458  34.420  12.710  1.00  0.00     0.168 HD
BRANCH  15  17
ATOM     17  C   UNL     1      17.021  34.106  11.162  1.00  0.00     0.041 A 
ATOM     18  C   UNL     1      17.218  32.921  10.434  1.00  0.00     0.049 A 
ATOM     19  C   UNL     1      16.354  35.183  10.550  1.00  0.00     0.029 A 
ATOM     20  C   UNL     1      16.783  32.823   9.106  1.00  0.00     0.078 A 
ATOM     21  C   UNL     1      15.920  35.083   9.225  1.00  0.00     0.043 A 
ATOM     22  Cl  UNL     1      17.050  31.337   8.211  1.00  0.00    -0.081 Cl
ATOM     23  C   UNL     1      16.137  33.907   8.501  1.00  0.00     0.141 A 
ATOM     24  F   UNL     1      15.710  33.822   7.216  1.00  0.00    -0.205 F 
ENDBRANCH  15  17
ENDBRANCH  10  15
ENDBRANCH   2   3
ENDBRANCH   1   2
BRANCH   1  25
ATOM     25  C   UNL     1      22.328  34.348  15.960  1.00  0.00     0.057 C 
BRANCH  25  26
ATOM     26  C   UNL     1      21.830  35.360  14.914  1.00  0.00     0.088 C 
BRANCH  26  27
ATOM     27  N   UNL     1      22.317  35.020  13.559  1.00  0.00    -0.299 NA
ATOM     28  C   UNL     1      21.272  34.329  12.764  1.00  0.00     0.113 C 
ATOM     29  C   UNL     1      23.586  34.252  13.608  1.00  0.00     0.113 C 
ATOM     30  C   UNL     1      21.484  32.804  12.740  1.00  0.00     0.175 C 
ATOM     31  C   UNL     1      23.761  33.379  12.354  1.00  0.00     0.175 C 
ATOM     32  O   UNL     1      22.735  32.410  12.191  1.00  0.00    -0.379 OA
ENDBRANCH  26  27
ENDBRANCH  25  26
ENDBRANCH   1  25
TORSDOF 8
ENDMDL
MODEL 8
REMARK VINA RESULT:    -8.259      3.915      8.819
REMARK INTER + INTRA:         -13.410
REMARK INTER:                 -12.424
REMARK INTRA:                  -0.986
REMARK UNBOUND:                -1.288
REMARK SMILES COc1cc2ncnc(Nc3ccc(F)c(Cl)c3)c2cc1OCCCN1CCOCC1
REMARK SMILES IDX 23 1 22 2 21 3 3 4 4 5 20 6 5 7 19 8 6 9 9 10 7 11 8 12 2 13
REMARK SMILES IDX 1 14 10 15 11 17 18 18 12 19 16 20 13 21 17 22 14 23 15 24
REMARK SMILES IDX 24 25 25 26 26 27 27 28 31 29 28 30 30 31 29 32
REMARK H PARENT 10 16
REMARK Flexibility Score: inf
ROOT
ATOM      1  C   UNL     1      18.876  33.423  11.216  1.00  0.00     0.231 C 
ENDROOT
BRANCH   1   2
ATOM      2  O   UNL     1      20.230  33.182  11.593  1.00  0.00    -0.490 OA
BRANCH   2   3
ATOM      3  C   UNL     1      20.873  33.773  12.692  1.00  0.00     0.162 A 
ATOM      4  C   UNL     1      22.245  33.535  12.860  1.00  0.00     0.162 A 
ATOM      5  C   UNL     1      22.921  34.104  13.955  1.00  0.00     0.079 A 
ATOM      6  C   UNL     1      20.183  34.584  13.613  1.00  0.00     0.064 A 
ATOM      7  C   UNL     1      22.238  34.908  14.871  1.00  0.00     0.080 A 
ATOM      8  C   UNL     1      20.861  35.169  14.699  1.00  0.00     0.047 A 
ATOM      9  N   UNL     1      22.902  35.434  15.932  1.00  0.00    -0.236 NA
ATOM     10  C   UNL     1      20.220  35.989  15.654  1.00  0.00     0.141 A 
ATOM     11  C   UNL     1      22.265  36.213  16.840  1.00  0.00     0.224 A 
ATOM     12  N   UNL     1      20.945  36.488  16.693  1.00  0.00    -0.219 NA
BRANCH   4  13
ATOM     13  O   UNL     1      22.901  32.726  11.919  1.00  0.00    -0.493 OA
ATOM     14  C   UNL     1      24.313  32.560  11.840  1.00  0.00     0.278 C 
ENDBRANCH   4  13
BRANCH  10  15
ATOM     15  N   UNL     1      18.837  36.361  15.520  1.00  0.00    -0.340 N 
ATOM     16  H   UNL     1      18.614  37.313  15.150  1.00  0.00     0.168 HD
BRANCH  15  17
ATOM     17  C   UNL     1      17.753  35.569  16.033  1.00  0.00     0.041 A 
ATOM     18  C   UNL     1      16.690  35.220  15.184  1.00  0.00     0.049 A 
ATOM     19  C   UNL     1      17.756  35.092  17.357  1.00  0.00     0.029 A 
ATOM     20  C   UNL     1      15.632  34.433  15.657  1.00  0.00     0.078 A 
ATOM     21  C   UNL     1      16.700  34.306  17.827  1.00  0.00     0.043 A 
ATOM     22  Cl  UNL     1      14.308  34.020  14.582  1.00  0.00    -0.081 Cl
ATOM     23  C   UNL     1      15.636  33.979  16.981  1.00  0.00     0.141 A 
ATOM     24  F   UNL     1      14.618  33.215  17.448  1.00  0.00    -0.205 F 
ENDBRANCH  15  17
ENDBRANCH  10  15
ENDBRANCH   2   3
ENDBRANCH   1   2
BRANCH   1  25
ATOM     25  C   UNL     1      18.391  32.321  10.273  1.00  0.00     0.057 C 
BRANCH  25  26
ATOM     26  C   UNL     1      17.013  32.647   9.674  1.00  0.00     0.088 C 
BRANCH  26  27
ATOM     27  N   UNL     1      16.972  32.357   8.224  1.00  0.00    -0.299 NA
ATOM     28  C   UNL     1      15.577  32.276   7.725  1.00  0.00     0.113 C 
ATOM     29  C   UNL     1      17.763  31.149   7.883  1.00  0.00     0.113 C 
ATOM     30  C   UNL     1      15.105  30.817   7.578  1.00  0.00     0.175 C 
ATOM     31  C   UNL     1      17.246  30.487   6.594  1.00  0.00     0.175 C 
ATOM     32  O   UNL     1      15.899  30.047   6.684  1.00  0.00    -0.379 OA
ENDBRANCH  26  27
ENDBRANCH  25  26
ENDBRANCH   1  25
TORSDOF 8
ENDMDL
MODEL 9
REMARK VINA RESULT:    -8.243      4.221      5.899
REMARK INTER + INTRA:         -13.386
REMARK INTER:                 -12.445
REMARK INTRA:                  -0.941
REMARK UNBOUND:                -1.288
REMARK SMILES COc1cc2ncnc(Nc3ccc(F)c(Cl)c3)c2cc1OCCCN1CCOCC1
REMARK SMILES IDX 23 1 22 2 21 3 3 4 4 5 20 6 5 7 19 8 6 9 9 10 7 11 8 12 2 13
REMARK SMILES IDX 1 14 10 15 11 17 18 18 12 19 16 20 13 21 17 22 14 23 15 24
REMARK SMILES IDX 24 25 25 26 26 27 27 28 31 29 28 30 30 31 29 32
REMARK H PARENT 10 16
REMARK Flexibility Score: inf
ROOT
ATOM      1  C   UNL     1      23.932  32.707  12.264  1.00  0.00     0.231 C 
ENDROOT
BRANCH   1   2
ATOM      2  O   UNL     1      23.084  33.818  11.983  1.00  0.00    -0.490 OA
BRANCH   2   3
ATOM      3  C   UNL     1      22.085  34.302  12.843  1.00  0.00     0.162 A 
ATOM      4  C   UNL     1      22.395  35.391  13.670  1.00  0.00     0.162 A 
ATOM      5  C   UNL     1      21.422  35.897  14.551  1.00  0.00     0.079 A 
ATOM      6  C   UNL     1      20.800  33.726  12.894  1.00  0.00     0.064 A 
ATOM      7  C   UNL     1      20.148  35.326  14.603  1.00  0.00     0.080 A 
ATOM      8  C   UNL     1      19.820  34.241  13.762  1.00  0.00     0.047 A 
ATOM      9  N   UNL     1      19.227  35.814  15.473  1.00  0.00    -0.236 NA
ATOM     10  C   UNL     1      18.517  33.703  13.855  1.00  0.00     0.141 A 
ATOM     11  C   UNL     1      17.985  35.277  15.551  1.00  0.00     0.224 A 
ATOM     12  N   UNL     1      17.640  34.241  14.746  1.00  0.00    -0.219 NA
BRANCH   4  13
ATOM     13  O   UNL     1      23.684  35.942  13.588  1.00  0.00    -0.493 OA
ATOM     14  C   UNL     1      24.382  36.531  14.681  1.00  0.00     0.278 C 
ENDBRANCH   4  13
BRANCH  10  15
ATOM     15  N   UNL     1      18.076  32.642  12.990  1.00  0.00    -0.340 N 
ATOM     16  H   UNL     1      18.093  31.664  13.358  1.00  0.00     0.168 HD
BRANCH  15  17
ATOM     17  C   UNL     1      17.787  32.829  11.594  1.00  0.00     0.041 A 
ATOM     18  C   UNL     1      16.947  33.883  11.198  1.00  0.00     0.049 A 
ATOM     19  C   UNL     1      18.367  32.009  10.609  1.00  0.00     0.029 A 
ATOM     20  C   UNL     1      16.666  34.096   9.842  1.00  0.00     0.078 A 
ATOM     21  C   UNL     1      18.086  32.224   9.257  1.00  0.00     0.043 A 
ATOM     22  Cl  UNL     1      15.604  35.411   9.371  1.00  0.00    -0.081 Cl
ATOM     23  C   UNL     1      17.234  33.263   8.872  1.00  0.00     0.141 A 
ATOM     24  F   UNL     1      16.970  33.462   7.556  1.00  0.00    -0.205 F 
ENDBRANCH  15  17
ENDBRANCH  10  15
ENDBRANCH   2   3
ENDBRANCH   1   2
BRANCH   1  25
ATOM     25  C   UNL     1      25.212  32.804  11.434  1.00  0.00     0.057 C 
BRANCH  25  26
ATOM     26  C   UNL     1      26.038  31.508  11.503  1.00  0.00     0.088 C 
BRANCH  26  27
ATOM     27  N   UNL     1      27.474  31.794  11.715  1.00  0.00    -0.299 NA
ATOM     28  C   UNL     1      28.332  30.897  10.902  1.00  0.00     0.113 C 
ATOM     29  C   UNL     1      27.833  31.762  13.155  1.00  0.00     0.113 C 
ATOM     30  C   UNL     1      28.896  29.731  11.735  1.00  0.00     0.175 C 
ATOM     31  C   UNL     1      29.321  31.424  13.353  1.00  0.00     0.175 C 
ATOM     32  O   UNL     1      29.685  30.150  12.842  1.00  0.00    -0.379 OA
ENDBRANCH  26  27
ENDBRANCH  25  26
ENDBRANCH   1  25
TORSDOF 8
ENDMDL
MODEL 10
REMARK VINA RESULT:    -8.238      4.213      8.249
REMARK INTER + INTRA:         -13.379
REMARK INTER:                 -12.294
REMARK INTRA:                  -1.085
REMARK UNBOUND:                -1.288
REMARK SMILES COc1cc2ncnc(Nc3ccc(F)c(Cl)c3)c2cc1OCCCN1CCOCC1
REMARK SMILES IDX 23 1 22 2 21 3 3 4 4 5 20 6 5 7 19 8 6 9 9 10 7 11 8 12 2 13
REMARK SMILES IDX 1 14 10 15 11 17 18 18 12 19 16 20 13 21 17 22 14 23 15 24
REMARK SMILES IDX 24 25 25 26 26 27 27 28 31 29 28 30 30 31 29 32
REMARK H PARENT 10 16
REMARK Flexibility Score: inf
ROOT
ATOM      1  C   UNL     1      16.347  32.733  11.825  1.00  0.00     0.231 C 
ENDROOT
BRANCH   1   2
ATOM      2  O   UNL     1      16.211  33.836  12.719  1.00  0.00    -0.490 OA
BRANCH   2   3
ATOM      3  C   UNL     1      16.927  33.990  13.916  1.00  0.00     0.162 A 
ATOM      4  C   UNL     1      16.234  34.449  15.046  1.00  0.00     0.162 A 
ATOM      5  C   UNL     1      16.921  34.624  16.261  1.00  0.00     0.079 A 
ATOM      6  C   UNL     1      18.302  33.701  14.007  1.00  0.00     0.064 A 
ATOM      7  C   UNL     1      18.285  34.338  16.352  1.00  0.00     0.080 A 
ATOM      8  C   UNL     1      18.988  33.858  15.226  1.00  0.00     0.047 A 
ATOM      9  N   UNL     1      18.936  34.531  17.528  1.00  0.00    -0.236 NA
ATOM     10  C   UNL     1      20.365  33.584  15.374  1.00  0.00     0.141 A 
ATOM     11  C   UNL     1      20.261  34.268  17.645  1.00  0.00     0.224 A 
ATOM     12  N   UNL     1      20.958  33.796  16.581  1.00  0.00    -0.219 NA
BRANCH   4  13
ATOM     13  O   UNL     1      14.863  34.722  14.920  1.00  0.00    -0.493 OA
ATOM     14  C   UNL     1      13.906  34.555  15.961  1.00  0.00     0.278 C 
ENDBRANCH   4  13
BRANCH  10  15
ATOM     15  N   UNL     1      21.143  33.030  14.299  1.00  0.00    -0.340 N 
ATOM     16  H   UNL     1      21.125  31.995  14.157  1.00  0.00     0.168 HD
BRANCH  15  17
ATOM     17  C   UNL     1      22.080  33.797  13.523  1.00  0.00     0.041 A 
ATOM     18  C   UNL     1      22.019  35.200  13.556  1.00  0.00     0.049 A 
ATOM     19  C   UNL     1      23.092  33.173  12.771  1.00  0.00     0.029 A 
ATOM     20  C   UNL     1      22.934  35.967  12.824  1.00  0.00     0.078 A 
ATOM     21  C   UNL     1      24.005  33.940  12.042  1.00  0.00     0.043 A 
ATOM     22  Cl  UNL     1      22.832  37.718  12.869  1.00  0.00    -0.081 Cl
ATOM     23  C   UNL     1      23.926  35.335  12.064  1.00  0.00     0.141 A 
ATOM     24  F   UNL     1      24.818  36.070  11.353  1.00  0.00    -0.205 F 
ENDBRANCH  15  17
ENDBRANCH  10  15
ENDBRANCH   2   3
ENDBRANCH   1   2
BRANCH   1  25
ATOM     25  C   UNL     1      17.414  33.041  10.774  1.00  0.00     0.057 C 
BRANCH  25  26
ATOM     26  C   UNL     1      16.843  33.859   9.603  1.00  0.00     0.088 C 
BRANCH  26  27
ATOM     27  N   UNL     1      17.031  33.159   8.313  1.00  0.00    -0.299 NA
ATOM     28  C   UNL     1      15.730  32.802   7.695  1.00  0.00     0.113 C 
ATOM     29  C   UNL     1      17.929  31.986   8.451  1.00  0.00     0.113 C 
ATOM     30  C   UNL     1      15.367  31.326   7.936  1.00  0.00     0.175 C 
ATOM     31  C   UNL     1      17.644  30.932   7.367  1.00  0.00     0.175 C 
ATOM     32  O   UNL     1      16.324  30.409   7.419  1.00  0.00    -0.379 OA
ENDBRANCH  26  27
ENDBRANCH  25  26
ENDBRANCH   1  25
TORSDOF 8
ENDMDL
MODEL 11
REMARK VINA RESULT:    -8.217      3.151      4.939
REMARK INTER + INTRA:         -13.348
REMARK INTER:                 -12.035
REMARK INTRA:                  -1.313
REMARK UNBOUND:                -1.288
REMARK SMILES COc1cc2ncnc(Nc3ccc(F)c(Cl)c3)c2cc1OCCCN1CCOCC1
REMARK SMILES IDX 23 1 22 2 21 3 3 4 4 5 20 6 5 7 19 8 6 9 9 10 7 11 8 12 2 13
REMARK SMILES IDX 1 14 10 15 11 17 18 18 12 19 16 20 13 21 17 22 14 23 15 24
REMARK SMILES IDX 24 25 25 26 26 27 27 28 31 29 28 30 30 31 29 32
REMARK H PARENT 10 16
REMARK Flexibility Score: inf
ROOT
ATOM      1  C   UNL     1      20.153  34.959  16.985  1.00  0.00     0.231 C 
ENDROOT
BRANCH   1   2
ATOM      2  O   UNL     1      19.101  35.850  16.621  1.00  0.00    -0.490 OA
BRANCH   2   3
ATOM      3  C   UNL     1      17.807  35.453  16.250  1.00  0.00     0.162 A 
ATOM      4  C   UNL     1      16.764  35.663  17.164  1.00  0.00     0.162 A 
ATOM      5  C   UNL     1      15.455  35.269  16.830  1.00  0.00     0.079 A 
ATOM      6  C   UNL     1      17.537  34.858  15.002  1.00  0.00     0.064 A 
ATOM      7  C   UNL     1      15.186  34.678  15.594  1.00  0.00     0.080 A 
ATOM      8  C   UNL     1      16.225  34.479  14.659  1.00  0.00     0.047 A 
ATOM      9  N   UNL     1      13.920  34.287  15.296  1.00  0.00    -0.236 NA
ATOM     10  C   UNL     1      15.897  33.878  13.424  1.00  0.00     0.141 A 
ATOM     11  C   UNL     1      13.630  33.705  14.106  1.00  0.00     0.224 A 
ATOM     12  N   UNL     1      14.608  33.512  13.186  1.00  0.00    -0.219 NA
BRANCH   4  13
ATOM     13  O   UNL     1      17.070  36.264  18.396  1.00  0.00    -0.493 OA
ATOM     14  C   UNL     1      17.593  35.571  19.525  1.00  0.00     0.278 C 
ENDBRANCH   4  13
BRANCH  10  15
ATOM     15  N   UNL     1      16.879  33.700  12.389  1.00  0.00    -0.340 N 
ATOM     16  H   UNL     1      17.886  33.648  12.665  1.00  0.00     0.168 HD
BRANCH  15  17
ATOM     17  C   UNL     1      16.571  33.768  10.986  1.00  0.00     0.041 A 
ATOM     18  C   UNL     1      16.624  32.599  10.209  1.00  0.00     0.049 A 
ATOM     19  C   UNL     1      16.168  34.973  10.383  1.00  0.00     0.029 A 
ATOM     20  C   UNL     1      16.309  32.638   8.845  1.00  0.00     0.078 A 
ATOM     21  C   UNL     1      15.854  35.010   9.021  1.00  0.00     0.043 A 
ATOM     22  Cl  UNL     1      16.394  31.168   7.891  1.00  0.00    -0.081 Cl
ATOM     23  C   UNL     1      15.927  33.846   8.251  1.00  0.00     0.141 A 
ATOM     24  F   UNL     1      15.619  33.895   6.931  1.00  0.00    -0.205 F 
ENDBRANCH  15  17
ENDBRANCH  10  15
ENDBRANCH   2   3
ENDBRANCH   1   2
BRANCH   1  25
ATOM     25  C   UNL     1      21.488  35.479  16.450  1.00  0.00     0.057 C 
BRANCH  25  26
ATOM     26  C   UNL     1      21.594  35.318  14.924  1.00  0.00     0.088 C 
BRANCH  26  27
ATOM     27  N   UNL     1      21.319  33.925  14.508  1.00  0.00    -0.299 NA
ATOM     28  C   UNL     1      22.566  33.125  14.434  1.00  0.00     0.113 C 
ATOM     29  C   UNL     1      20.541  33.873  13.246  1.00  0.00     0.113 C 
ATOM     30  C   UNL     1      23.074  32.987  12.987  1.00  0.00     0.175 C 
ATOM     31  C   UNL     1      20.787  32.556  12.490  1.00  0.00     0.175 C 
ATOM     32  O   UNL     1      22.143  32.365  12.111  1.00  0.00    -0.379 OA
ENDBRANCH  26  27
ENDBRANCH  25  26
ENDBRANCH   1  25
TORSDOF 8
ENDMDL
MODEL 12
REMARK VINA RESULT:    -8.194      1.711      2.341
REMARK INTER + INTRA:         -13.314
REMARK INTER:                 -12.203
REMARK INTRA:                  -1.111
REMARK UNBOUND:                -1.288
REMARK SMILES COc1cc2ncnc(Nc3ccc(F)c(Cl)c3)c2cc1OCCCN1CCOCC1
REMARK SMILES IDX 23 1 22 2 21 3 3 4 4 5 20 6 5 7 19 8 6 9 9 10 7 11 8 12 2 13
REMARK SMILES IDX 1 14 10 15 11 17 18 18 12 19 16 20 13 21 17 22 14 23 15 24
REMARK SMILES IDX 24 25 25 26 26 27 27 28 31 29 28 30 30 31 29 32
REMARK H PARENT 10 16
REMARK Flexibility Score: inf
ROOT
ATOM      1  C   UNL     1      22.645  32.753  12.531  1.00  0.00     0.231 C 
ENDROOT
BRANCH   1   2
ATOM      2  O   UNL     1      21.758  33.847  12.308  1.00  0.00    -0.490 OA
BRANCH   2   3
ATOM      3  C   UNL     1      20.385  33.839  12.604  1.00  0.00     0.162 A 
ATOM      4  C   UNL     1      19.999  33.906  13.950  1.00  0.00     0.162 A 
ATOM      5  C   UNL     1      18.633  33.891  14.285  1.00  0.00     0.079 A 
ATOM      6  C   UNL     1      19.404  33.766  11.595  1.00  0.00     0.064 A 
ATOM      7  C   UNL     1      17.659  33.817  13.286  1.00  0.00     0.080 A 
ATOM      8  C   UNL     1      18.036  33.769  11.927  1.00  0.00     0.047 A 
ATOM      9  N   UNL     1      16.345  33.785  13.628  1.00  0.00    -0.236 NA
ATOM     10  C   UNL     1      17.011  33.696  10.958  1.00  0.00     0.141 A 
ATOM     11  C   UNL     1      15.378  33.708  12.681  1.00  0.00     0.224 A 
ATOM     12  N   UNL     1      15.713  33.670  11.367  1.00  0.00    -0.219 NA
BRANCH   4  13
ATOM     13  O   UNL     1      21.004  33.983  14.927  1.00  0.00    -0.493 OA
ATOM     14  C   UNL     1      20.904  33.428  16.235  1.00  0.00     0.278 C 
ENDBRANCH   4  13
BRANCH  10  15
ATOM     15  N   UNL     1      17.303  33.710   9.550  1.00  0.00    -0.340 N 
ATOM     16  H   UNL     1      17.512  34.628   9.097  1.00  0.00     0.168 HD
BRANCH  15  17
ATOM     17  C   UNL     1      17.146  32.562   8.698  1.00  0.00     0.041 A 
ATOM     18  C   UNL     1      15.876  31.981   8.548  1.00  0.00     0.049 A 
ATOM     19  C   UNL     1      18.230  32.037   7.970  1.00  0.00     0.029 A 
ATOM     20  C   UNL     1      15.697  30.875   7.709  1.00  0.00     0.078 A 
ATOM     21  C   UNL     1      18.048  30.933   7.133  1.00  0.00     0.043 A 
ATOM     22  Cl  UNL     1      14.104  30.157   7.546  1.00  0.00    -0.081 Cl
ATOM     23  C   UNL     1      16.785  30.348   7.003  1.00  0.00     0.141 A 
ATOM     24  F   UNL     1      16.621  29.278   6.186  1.00  0.00    -0.205 F 
ENDBRANCH  15  17
ENDBRANCH  10  15
ENDBRANCH   2   3
ENDBRANCH   1   2
BRANCH   1  25
ATOM     25  C   UNL     1      24.086  33.256  12.609  1.00  0.00     0.057 C 
BRANCH  25  26
ATOM     26  C   UNL     1      24.425  33.803  14.006  1.00  0.00     0.088 C 
BRANCH  26  27
ATOM     27  N   UNL     1      24.794  35.235  13.950  1.00  0.00    -0.299 NA
ATOM     28  C   UNL     1      23.899  36.059  14.800  1.00  0.00     0.113 C 
ATOM     29  C   UNL     1      24.857  35.731  12.553  1.00  0.00     0.113 C 
ATOM     30  C   UNL     1      22.809  36.764  13.971  1.00  0.00     0.175 C 
ATOM     31  C   UNL     1      24.605  37.248  12.485  1.00  0.00     0.175 C 
ATOM     32  O   UNL     1      23.325  37.631  12.968  1.00  0.00    -0.379 OA
ENDBRANCH  26  27
ENDBRANCH  25  26
ENDBRANCH   1  25
TORSDOF 8
ENDMDL
MODEL 13
REMARK VINA RESULT:    -8.165      3.164      3.891
REMARK INTER + INTRA:         -13.271
REMARK INTER:                 -12.470
REMARK INTRA:                  -0.802
REMARK UNBOUND:                -1.288
REMARK SMILES COc1cc2ncnc(Nc3ccc(F)c(Cl)c3)c2cc1OCCCN1CCOCC1
REMARK SMILES IDX 23 1 22 2 21 3 3 4 4 5 20 6 5 7 19 8 6 9 9 10 7 11 8 12 2 13
REMARK SMILES IDX 1 14 10 15 11 17 18 18 12 19 16 20 13 21 17 22 14 23 15 24
REMARK SMILES IDX 24 25 25 26 26 27 27 28 31 29 28 30 30 31 29 32
REMARK H PARENT 10 16
REMARK Flexibility Score: inf
ROOT
ATOM      1  C   UNL     1      23.017  33.117  12.223  1.00  0.00     0.231 C 
ENDROOT
BRANCH   1   2
ATOM      2  O   UNL     1      21.864  32.312  11.982  1.00  0.00    -0.490 OA
BRANCH   2   3
ATOM      3  C   UNL     1      20.562  32.631  12.399  1.00  0.00     0.162 A 
ATOM      4  C   UNL     1      20.295  32.650  13.775  1.00  0.00     0.162 A 
ATOM      5  C   UNL     1      18.999  32.957  14.230  1.00  0.00     0.079 A 
ATOM      6  C   UNL     1      19.535  32.927  11.481  1.00  0.00     0.064 A 
ATOM      7  C   UNL     1      17.980  33.249  13.320  1.00  0.00     0.080 A 
ATOM      8  C   UNL     1      18.243  33.251  11.934  1.00  0.00     0.047 A 
ATOM      9  N   UNL     1      16.731  33.524  13.775  1.00  0.00    -0.236 NA
ATOM     10  C   UNL     1      17.176  33.554  11.059  1.00  0.00     0.141 A 
ATOM     11  C   UNL     1      15.720  33.806  12.917  1.00  0.00     0.224 A 
ATOM     12  N   UNL     1      15.948  33.825  11.580  1.00  0.00    -0.219 NA
BRANCH   4  13
ATOM     13  O   UNL     1      21.344  32.355  14.660  1.00  0.00    -0.493 OA
ATOM     14  C   UNL     1      21.641  33.099  15.838  1.00  0.00     0.278 C 
ENDBRANCH   4  13
BRANCH  10  15
ATOM     15  N   UNL     1      17.370  33.645   9.637  1.00  0.00    -0.340 N 
ATOM     16  H   UNL     1      17.529  34.589   9.218  1.00  0.00     0.168 HD
BRANCH  15  17
ATOM     17  C   UNL     1      17.180  32.537   8.741  1.00  0.00     0.041 A 
ATOM     18  C   UNL     1      15.896  31.990   8.580  1.00  0.00     0.049 A 
ATOM     19  C   UNL     1      18.244  32.018   7.980  1.00  0.00     0.029 A 
ATOM     20  C   UNL     1      15.683  30.923   7.698  1.00  0.00     0.078 A 
ATOM     21  C   UNL     1      18.030  30.954   7.101  1.00  0.00     0.043 A 
ATOM     22  Cl  UNL     1      14.073  30.248   7.523  1.00  0.00    -0.081 Cl
ATOM     23  C   UNL     1      16.753  30.403   6.961  1.00  0.00     0.141 A 
ATOM     24  F   UNL     1      16.557  29.371   6.102  1.00  0.00    -0.205 F 
ENDBRANCH  15  17
ENDBRANCH  10  15
ENDBRANCH   2   3
ENDBRANCH   1   2
BRANCH   1  25
ATOM     25  C   UNL     1      24.227  32.226  12.502  1.00  0.00     0.057 C 
BRANCH  25  26
ATOM     26  C   UNL     1      25.212  32.213  11.320  1.00  0.00     0.088 C 
BRANCH  26  27
ATOM     27  N   UNL     1      26.580  32.570  11.754  1.00  0.00    -0.299 NA
ATOM     28  C   UNL     1      27.594  31.670  11.151  1.00  0.00     0.113 C 
ATOM     29  C   UNL     1      26.690  32.630  13.233  1.00  0.00     0.113 C 
ATOM     30  C   UNL     1      28.046  30.575  12.134  1.00  0.00     0.175 C 
ATOM     31  C   UNL     1      28.132  32.366  13.698  1.00  0.00     0.175 C 
ATOM     32  O   UNL     1      28.621  31.084  13.331  1.00  0.00    -0.379 OA
ENDBRANCH  26  27
ENDBRANCH  25  26
ENDBRANCH   1  25
TORSDOF 8
ENDMDL
MODEL 14
REMARK VINA RESULT:    -8.126      3.856      5.647
REMARK INTER + INTRA:         -13.214
REMARK INTER:                 -12.259
REMARK INTRA:                  -0.954
REMARK UNBOUND:                -1.288
REMARK SMILES COc1cc2ncnc(Nc3ccc(F)c(Cl)c3)c2cc1OCCCN1CCOCC1
REMARK SMILES IDX 23 1 22 2 21 3 3 4 4 5 20 6 5 7 19 8 6 9 9 10 7 11 8 12 2 13
REMARK SMILES IDX 1 14 10 15 11 17 18 18 12 19 16 20 13 21 17 22 14 23 15 24
REMARK SMILES IDX 24 25 25 26 26 27 27 28 31 29 28 30 30 31 29 32
REMARK H PARENT 10 16
REMARK Flexibility Score: inf
ROOT
ATOM      1  C   UNL     1      23.599  32.692  12.394  1.00  0.00     0.231 C 
ENDROOT
BRANCH   1   2
ATOM      2  O   UNL     1      22.821  33.864  12.158  1.00  0.00    -0.490 OA
BRANCH   2   3
ATOM      3  C   UNL     1      21.816  34.344  13.013  1.00  0.00     0.162 A 
ATOM      4  C   UNL     1      22.157  35.340  13.939  1.00  0.00     0.162 A 
ATOM      5  C   UNL     1      21.179  35.839  14.818  1.00  0.00     0.079 A 
ATOM      6  C   UNL     1      20.496  33.854  12.964  1.00  0.00     0.064 A 
ATOM      7  C   UNL     1      19.870  35.354  14.771  1.00  0.00     0.080 A 
ATOM      8  C   UNL     1      19.512  34.364  13.831  1.00  0.00     0.047 A 
ATOM      9  N   UNL     1      18.943  35.833  15.640  1.00  0.00    -0.236 NA
ATOM     10  C   UNL     1      18.174  33.910  13.826  1.00  0.00     0.141 A 
ATOM     11  C   UNL     1      17.666  35.377  15.622  1.00  0.00     0.224 A 
ATOM     12  N   UNL     1      17.293  34.434  14.721  1.00  0.00    -0.219 NA
BRANCH   4  13
ATOM     13  O   UNL     1      23.481  35.808  13.956  1.00  0.00    -0.493 OA
ATOM     14  C   UNL     1      23.955  36.864  14.786  1.00  0.00     0.278 C 
ENDBRANCH   4  13
BRANCH  10  15
ATOM     15  N   UNL     1      17.707  32.954  12.859  1.00  0.00    -0.340 N 
ATOM     16  H   UNL     1      17.755  31.939  13.103  1.00  0.00     0.168 HD
BRANCH  15  17
ATOM     17  C   UNL     1      17.346  33.303  11.512  1.00  0.00     0.041 A 
ATOM     18  C   UNL     1      17.762  32.482  10.450  1.00  0.00     0.049 A 
ATOM     19  C   UNL     1      16.541  34.424  11.236  1.00  0.00     0.029 A 
ATOM     20  C   UNL     1      17.406  32.793   9.131  1.00  0.00     0.078 A 
ATOM     21  C   UNL     1      16.187  34.731   9.919  1.00  0.00     0.043 A 
ATOM     22  Cl  UNL     1      17.947  31.761   7.819  1.00  0.00    -0.081 Cl
ATOM     23  C   UNL     1      16.620  33.921   8.867  1.00  0.00     0.141 A 
ATOM     24  F   UNL     1      16.268  34.229   7.593  1.00  0.00    -0.205 F 
ENDBRANCH  15  17
ENDBRANCH  10  15
ENDBRANCH   2   3
ENDBRANCH   1   2
BRANCH   1  25
ATOM     25  C   UNL     1      24.818  32.680  11.472  1.00  0.00     0.057 C 
BRANCH  25  26
ATOM     26  C   UNL     1      26.087  33.161  12.196  1.00  0.00     0.088 C 
BRANCH  26  27
ATOM     27  N   UNL     1      27.088  32.078  12.309  1.00  0.00    -0.299 NA
ATOM     28  C   UNL     1      28.381  32.585  12.832  1.00  0.00     0.113 C 
ATOM     29  C   UNL     1      27.248  31.342  11.030  1.00  0.00     0.113 C 
ATOM     30  C   UNL     1      29.406  32.810  11.705  1.00  0.00     0.175 C 
ATOM     31  C   UNL     1      28.640  30.696  10.926  1.00  0.00     0.175 C 
ATOM     32  O   UNL     1      29.705  31.636  10.961  1.00  0.00    -0.379 OA
ENDBRANCH  26  27
ENDBRANCH  25  26
ENDBRANCH   1  25
TORSDOF 8
ENDMDL
MODEL 15
REMARK VINA RESULT:    -8.083      3.113      4.911
REMARK INTER + INTRA:         -13.151
REMARK INTER:                 -11.731
REMARK INTRA:                  -1.420
REMARK UNBOUND:                -1.288
REMARK SMILES COc1cc2ncnc(Nc3ccc(F)c(Cl)c3)c2cc1OCCCN1CCOCC1
REMARK SMILES IDX 23 1 22 2 21 3 3 4 4 5 20 6 5 7 19 8 6 9 9 10 7 11 8 12 2 13
REMARK SMILES IDX 1 14 10 15 11 17 18 18 12 19 16 20 13 21 17 22 14 23 15 24
REMARK SMILES IDX 24 25 25 26 26 27 27 28 31 29 28 30 30 31 29 32
REMARK H PARENT 10 16
REMARK Flexibility Score: inf
ROOT
ATOM      1  C   UNL     1      21.473  35.580  17.352  1.00  0.00     0.231 C 
ENDROOT
BRANCH   1   2
ATOM      2  O   UNL     1      20.634  34.428  17.403  1.00  0.00    -0.490 OA
BRANCH   2   3
ATOM      3  C   UNL     1      19.301  34.388  16.966  1.00  0.00     0.162 A 
ATOM      4  C   UNL     1      18.287  34.431  17.934  1.00  0.00     0.162 A 
ATOM      5  C   UNL     1      16.939  34.384  17.534  1.00  0.00     0.079 A 
ATOM      6  C   UNL     1      18.964  34.304  15.601  1.00  0.00     0.064 A 
ATOM      7  C   UNL     1      16.604  34.300  16.180  1.00  0.00     0.080 A 
ATOM      8  C   UNL     1      17.616  34.274  15.197  1.00  0.00     0.047 A 
ATOM      9  N   UNL     1      15.298  34.236  15.813  1.00  0.00    -0.236 NA
ATOM     10  C   UNL     1      17.221  34.190  13.844  1.00  0.00     0.141 A 
ATOM     11  C   UNL     1      14.942  34.148  14.508  1.00  0.00     0.224 A 
ATOM     12  N   UNL     1      15.894  34.133  13.543  1.00  0.00    -0.219 NA
BRANCH   4  13
ATOM     13  O   UNL     1      18.660  34.519  19.284  1.00  0.00    -0.493 OA
ATOM     14  C   UNL     1      18.586  35.707  20.068  1.00  0.00     0.278 C 
ENDBRANCH   4  13
BRANCH  10  15
ATOM     15  N   UNL     1      18.182  34.226  12.775  1.00  0.00    -0.340 N 
ATOM     16  H   UNL     1      19.057  34.780  12.914  1.00  0.00     0.168 HD
BRANCH  15  17
ATOM     17  C   UNL     1      17.927  33.694  11.464  1.00  0.00     0.041 A 
ATOM     18  C   UNL     1      17.058  34.377  10.597  1.00  0.00     0.049 A 
ATOM     19  C   UNL     1      18.570  32.527  11.009  1.00  0.00     0.029 A 
ATOM     20  C   UNL     1      16.810  33.887   9.309  1.00  0.00     0.078 A 
ATOM     21  C   UNL     1      18.321  32.041   9.723  1.00  0.00     0.043 A 
ATOM     22  Cl  UNL     1      15.710  34.750   8.248  1.00  0.00    -0.081 Cl
ATOM     23  C   UNL     1      17.440  32.716   8.873  1.00  0.00     0.141 A 
ATOM     24  F   UNL     1      17.208  32.234   7.627  1.00  0.00    -0.205 F 
ENDBRANCH  15  17
ENDBRANCH  10  15
ENDBRANCH   2   3
ENDBRANCH   1   2
BRANCH   1  25
ATOM     25  C   UNL     1      22.698  35.297  16.482  1.00  0.00     0.057 C 
BRANCH  25  26
ATOM     26  C   UNL     1      22.863  33.794  16.198  1.00  0.00     0.088 C 
BRANCH  26  27
ATOM     27  N   UNL     1      23.108  33.540  14.762  1.00  0.00    -0.299 NA
ATOM     28  C   UNL     1      23.141  34.803  13.985  1.00  0.00     0.113 C 
ATOM     29  C   UNL     1      22.142  32.561  14.204  1.00  0.00     0.113 C 
ATOM     30  C   UNL     1      21.809  35.063  13.255  1.00  0.00     0.175 C 
ATOM     31  C   UNL     1      21.959  32.756  12.689  1.00  0.00     0.175 C 
ATOM     32  O   UNL     1      21.449  34.035  12.340  1.00  0.00    -0.379 OA
ENDBRANCH  26  27
ENDBRANCH  25  26
ENDBRANCH   1  25
TORSDOF 8
ENDMDL
