MODEL 1
REMARK VINA RESULT:    -6.186      0.000      0.000
REMARK INTER + INTRA:          -7.966
REMARK INTER:                  -7.452
REMARK INTRA:                  -0.514
REMARK UNBOUND:                -0.514
REMARK SMILES CC(=O)Oc1ccccc1C(=O)O
REMARK SMILES IDX 5 1 6 2 7 3 8 4 9 5 10 6 4 7 2 8 1 9 3 10 11 11 12 12 13 13
REMARK H PARENT 13 14
REMARK Flexibility Score: inf
ROOT
ATOM      1  C   UNL     1      13.596   8.839  18.148  1.00  0.00     0.145 A 
ATOM      2  C   UNL     1      14.602   9.826  18.148  1.00  0.00     0.048 A 
ATOM      3  C   UNL     1      14.574  10.868  17.220  1.00  0.00     0.004 A 
ATOM      4  C   UNL     1      13.541  10.946  16.290  1.00  0.00     0.001 A 
ATOM      5  C   UNL     1      12.526   9.989  16.288  1.00  0.00     0.019 A 
ATOM      6  C   UNL     1      12.532   8.929  17.214  1.00  0.00     0.102 A 
ENDROOT
BRANCH   1   7
ATOM      7  O   UNL     1      13.612   7.796  19.089  1.00  0.00    -0.426 OA
BRANCH   7   8
ATOM      8  C   UNL     1      13.463   7.951  20.473  1.00  0.00     0.308 C 
ATOM      9  C   UNL     1      14.472   7.341  21.386  1.00  0.00     0.139 C 
ATOM     10  O   UNL     1      12.550   8.676  20.953  1.00  0.00    -0.252 OA
ENDBRANCH   7   8
ENDBRANCH   1   7
BRANCH   6  11
ATOM     11  C   UNL     1      11.431   7.932  17.178  1.00  0.00     0.339 C 
ATOM     12  O   UNL     1      10.227   8.289  17.293  1.00  0.00    -0.246 OA
BRANCH  11  13
ATOM     13  O   UNL     1      11.720   6.579  17.017  1.00  0.00    -0.478 OA
ATOM     14  H   UNL     1      12.170   6.051  17.755  1.00  0.00     0.297 HD
ENDBRANCH  11  13
ENDBRANCH   6  11
TORSDOF 4
ENDMDL
MODEL 2
REMARK VINA RESULT:    -6.109      1.479      3.711
REMARK INTER + INTRA:          -7.873
REMARK INTER:                  -7.277
REMARK INTRA:                  -0.596
REMARK UNBOUND:                -0.514
REMARK SMILES CC(=O)Oc1ccccc1C(=O)O
REMARK SMILES IDX 5 1 6 2 7 3 8 4 9 5 10 6 4 7 2 8 1 9 3 10 11 11 12 12 13 13
REMARK H PARENT 13 14
REMARK Flexibility Score: inf
ROOT
ATOM      1  C   UNL     1      14.252   9.686  17.617  1.00  0.00     0.145 A 
ATOM      2  C   UNL     1      14.779  10.954  17.301  1.00  0.00     0.048 A 
ATOM      3  C   UNL     1      15.151  11.841  18.311  1.00  0.00     0.004 A 
ATOM      4  C   UNL     1      15.014  11.474  19.648  1.00  0.00     0.001 A 
ATOM      5  C   UNL     1      14.512  10.215  19.980  1.00  0.00     0.019 A 
ATOM      6  C   UNL     1      14.130   9.303  18.977  1.00  0.00     0.102 A 
ENDROOT
BRANCH   1   7
ATOM      7  O   UNL     1      13.889   8.785  16.603  1.00  0.00    -0.426 OA
BRANCH   7   8
ATOM      8  C   UNL     1      12.609   8.659  16.050  1.00  0.00     0.308 C 
ATOM      9  C   UNL     1      12.138   9.676  15.066  1.00  0.00     0.139 C 
ATOM     10  O   UNL     1      11.889   7.653  16.295  1.00  0.00    -0.252 OA
ENDBRANCH   7   8
ENDBRANCH   1   7
BRANCH   6  11
ATOM     11  C   UNL     1      13.603   7.973  19.375  1.00  0.00     0.339 C 
ATOM     12  O   UNL     1      12.923   7.831  20.427  1.00  0.00    -0.246 OA
BRANCH  11  13
ATOM     13  O   UNL     1      13.858   6.856  18.583  1.00  0.00    -0.478 OA
ATOM     14  H   UNL     1      14.216   6.956  17.640  1.00  0.00     0.297 HD
ENDBRANCH  11  13
ENDBRANCH   6  11
TORSDOF 4
ENDMDL
MODEL 3
REMARK VINA RESULT:    -6.023      1.546      1.956
REMARK INTER + INTRA:          -7.769
REMARK INTER:                  -7.053
REMARK INTRA:                  -0.716
REMARK UNBOUND:                -0.514
REMARK SMILES CC(=O)Oc1ccccc1C(=O)O
REMARK SMILES IDX 5 1 6 2 7 3 8 4 9 5 10 6 4 7 2 8 1 9 3 10 11 11 12 12 13 13
REMARK H PARENT 13 14
REMARK Flexibility Score: inf
ROOT
ATOM      1  C   UNL     1      12.358   8.425  17.690  1.00  0.00     0.145 A 
ATOM      2  C   UNL     1      13.518   8.338  16.894  1.00  0.00     0.048 A 
ATOM      3  C   UNL     1      13.599   9.024  15.682  1.00  0.00     0.004 A 
ATOM      4  C   UNL     1      12.534   9.812  15.252  1.00  0.00     0.001 A 
ATOM      5  C   UNL     1      11.386   9.925  16.037  1.00  0.00     0.019 A 
ATOM      6  C   UNL     1      11.281   9.242  17.264  1.00  0.00     0.102 A 
ENDROOT
BRANCH   1   7
ATOM      7  O   UNL     1      12.277   7.747  18.918  1.00  0.00    -0.426 OA
BRANCH   7   8
ATOM      8  C   UNL     1      12.945   8.116  20.093  1.00  0.00     0.308 C 
ATOM      9  C   UNL     1      14.289   7.538  20.377  1.00  0.00     0.139 C 
ATOM     10  O   UNL     1      12.473   8.998  20.860  1.00  0.00    -0.252 OA
ENDBRANCH   7   8
ENDBRANCH   1   7
BRANCH   6  11
ATOM     11  C   UNL     1      10.041   9.392  18.068  1.00  0.00     0.339 C 
ATOM     12  O   UNL     1       8.915   9.093  17.588  1.00  0.00    -0.246 OA
BRANCH  11  13
ATOM     13  O   UNL     1      10.111   9.871  19.375  1.00  0.00    -0.478 OA
ATOM     14  H   UNL     1       9.996   9.248  20.165  1.00  0.00     0.297 HD
ENDBRANCH  11  13
ENDBRANCH   6  11
TORSDOF 4
ENDMDL
MODEL 4
REMARK VINA RESULT:    -5.971      2.000      2.825
REMARK INTER + INTRA:          -7.706
REMARK INTER:                  -7.184
REMARK INTRA:                  -0.523
REMARK UNBOUND:                -0.514
REMARK SMILES CC(=O)Oc1ccccc1C(=O)O
REMARK SMILES IDX 5 1 6 2 7 3 8 4 9 5 10 6 4 7 2 8 1 9 3 10 11 11 12 12 13 13
REMARK H PARENT 13 14
REMARK Flexibility Score: inf
ROOT
ATOM      1  C   UNL     1      13.858   9.753  16.791  1.00  0.00     0.145 A 
ATOM      2  C   UNL     1      14.835  10.175  17.715  1.00  0.00     0.048 A 
ATOM      3  C   UNL     1      15.082  11.534  17.915  1.00  0.00     0.004 A 
ATOM      4  C   UNL     1      14.355  12.488  17.207  1.00  0.00     0.001 A 
ATOM      5  C   UNL     1      13.371  12.088  16.303  1.00  0.00     0.019 A 
ATOM      6  C   UNL     1      13.103  10.723  16.085  1.00  0.00     0.102 A 
ENDROOT
BRANCH   1   7
ATOM      7  O   UNL     1      13.596   8.387  16.597  1.00  0.00    -0.426 OA
BRANCH   7   8
ATOM      8  C   UNL     1      12.661   7.631  17.314  1.00  0.00     0.308 C 
ATOM      9  C   UNL     1      12.835   7.464  18.785  1.00  0.00     0.139 C 
ATOM     10  O   UNL     1      11.627   7.174  16.756  1.00  0.00    -0.252 OA
ENDBRANCH   7   8
ENDBRANCH   1   7
BRANCH   6  11
ATOM     11  C   UNL     1      12.045  10.342  15.113  1.00  0.00     0.339 C 
ATOM     12  O   UNL     1      11.072  11.107  14.878  1.00  0.00    -0.246 OA
BRANCH  11  13
ATOM     13  O   UNL     1      12.117   9.120  14.447  1.00  0.00    -0.478 OA
ATOM     14  H   UNL     1      13.002   8.641  14.333  1.00  0.00     0.297 HD
ENDBRANCH  11  13
ENDBRANCH   6  11
TORSDOF 4
ENDMDL
MODEL 5
REMARK VINA RESULT:    -5.910      1.908      2.868
REMARK INTER + INTRA:          -7.633
REMARK INTER:                  -7.091
REMARK INTRA:                  -0.542
REMARK UNBOUND:                -0.514
REMARK SMILES CC(=O)Oc1ccccc1C(=O)O
REMARK SMILES IDX 5 1 6 2 7 3 8 4 9 5 10 6 4 7 2 8 1 9 3 10 11 11 12 12 13 13
REMARK H PARENT 13 14
REMARK Flexibility Score: inf
ROOT
ATOM      1  C   UNL     1      12.391   9.352  18.410  1.00  0.00     0.145 A 
ATOM      2  C   UNL     1      13.092  10.211  19.279  1.00  0.00     0.048 A 
ATOM      3  C   UNL     1      14.269  10.834  18.865  1.00  0.00     0.004 A 
ATOM      4  C   UNL     1      14.759  10.618  17.580  1.00  0.00     0.001 A 
ATOM      5  C   UNL     1      14.068   9.786  16.698  1.00  0.00     0.019 A 
ATOM      6  C   UNL     1      12.877   9.147  17.094  1.00  0.00     0.102 A 
ENDROOT
BRANCH   1   7
ATOM      7  O   UNL     1      11.197   8.734  18.817  1.00  0.00    -0.426 OA
BRANCH   7   8
ATOM      8  C   UNL     1       9.920   9.300  18.726  1.00  0.00     0.308 C 
ATOM      9  C   UNL     1       9.423  10.159  19.838  1.00  0.00     0.139 C 
ATOM     10  O   UNL     1       9.225   9.175  17.681  1.00  0.00    -0.252 OA
ENDBRANCH   7   8
ENDBRANCH   1   7
BRANCH   6  11
ATOM     11  C   UNL     1      12.173   8.270  16.123  1.00  0.00     0.339 C 
ATOM     12  O   UNL     1      11.886   8.680  14.966  1.00  0.00    -0.246 OA
BRANCH  11  13
ATOM     13  O   UNL     1      11.817   6.973  16.485  1.00  0.00    -0.478 OA
ATOM     14  H   UNL     1      11.474   6.767  17.416  1.00  0.00     0.297 HD
ENDBRANCH  11  13
ENDBRANCH   6  11
TORSDOF 4
ENDMDL
MODEL 6
REMARK VINA RESULT:    -5.875     14.780     16.492
REMARK INTER + INTRA:          -7.592
REMARK INTER:                  -7.046
REMARK INTRA:                  -0.546
REMARK UNBOUND:                -0.514
REMARK SMILES CC(=O)Oc1ccccc1C(=O)O
REMARK SMILES IDX 5 1 6 2 7 3 8 4 9 5 10 6 4 7 2 8 1 9 3 10 11 11 12 12 13 13
REMARK H PARENT 13 14
REMARK Flexibility Score: inf
ROOT
ATOM      1  C   UNL     1      15.792  11.827   2.512  1.00  0.00     0.145 A 
ATOM      2  C   UNL     1      14.713  11.282   1.788  1.00  0.00     0.048 A 
ATOM      3  C   UNL     1      14.401  11.760   0.514  1.00  0.00     0.004 A 
ATOM      4  C   UNL     1      15.162  12.776  -0.057  1.00  0.00     0.001 A 
ATOM      5  C   UNL     1      16.246  13.314   0.639  1.00  0.00     0.019 A 
ATOM      6  C   UNL     1      16.580  12.848   1.924  1.00  0.00     0.102 A 
ENDROOT
BRANCH   1   7
ATOM      7  O   UNL     1      16.119  11.339   3.789  1.00  0.00    -0.426 OA
BRANCH   7   8
ATOM      8  C   UNL     1      15.538  11.761   4.991  1.00  0.00     0.308 C 
ATOM      9  C   UNL     1      14.898  13.107   5.057  1.00  0.00     0.139 C 
ATOM     10  O   UNL     1      15.460  10.988   5.984  1.00  0.00    -0.252 OA
ENDBRANCH   7   8
ENDBRANCH   1   7
BRANCH   6  11
ATOM     11  C   UNL     1      17.743  13.447   2.629  1.00  0.00     0.339 C 
ATOM     12  O   UNL     1      17.925  14.694   2.638  1.00  0.00    -0.246 OA
BRANCH  11  13
ATOM     13  O   UNL     1      18.655  12.629   3.292  1.00  0.00    -0.478 OA
ATOM     14  H   UNL     1      19.101  11.854   2.817  1.00  0.00     0.297 HD
ENDBRANCH  11  13
ENDBRANCH   6  11
TORSDOF 4
ENDMDL
MODEL 7
REMARK VINA RESULT:    -5.845      1.411      3.400
REMARK INTER + INTRA:          -7.554
REMARK INTER:                  -7.170
REMARK INTRA:                  -0.384
REMARK UNBOUND:                -0.514
REMARK SMILES CC(=O)Oc1ccccc1C(=O)O
REMARK SMILES IDX 5 1 6 2 7 3 8 4 9 5 10 6 4 7 2 8 1 9 3 10 11 11 12 12 13 13
REMARK H PARENT 13 14
REMARK Flexibility Score: inf
ROOT
ATOM      1  C   UNL     1      12.378   9.396  17.848  1.00  0.00     0.145 A 
ATOM      2  C   UNL     1      12.418  10.297  16.765  1.00  0.00     0.048 A 
ATOM      3  C   UNL     1      13.566  11.046  16.508  1.00  0.00     0.004 A 
ATOM      4  C   UNL     1      14.690  10.902  17.317  1.00  0.00     0.001 A 
ATOM      5  C   UNL     1      14.675  10.001  18.382  1.00  0.00     0.019 A 
ATOM      6  C   UNL     1      13.528   9.233  18.661  1.00  0.00     0.102 A 
ENDROOT
BRANCH   1   7
ATOM      7  O   UNL     1      11.229   8.629  18.102  1.00  0.00    -0.426 OA
BRANCH   7   8
ATOM      8  C   UNL     1       9.973   9.141  18.449  1.00  0.00     0.308 C 
ATOM      9  C   UNL     1       9.817   9.876  19.737  1.00  0.00     0.139 C 
ATOM     10  O   UNL     1       9.000   9.076  17.650  1.00  0.00    -0.252 OA
ENDBRANCH   7   8
ENDBRANCH   1   7
BRANCH   6  11
ATOM     11  C   UNL     1      13.556   8.284  19.804  1.00  0.00     0.339 C 
ATOM     12  O   UNL     1      12.853   8.483  20.831  1.00  0.00    -0.246 OA
BRANCH  11  13
ATOM     13  O   UNL     1      14.368   7.153  19.752  1.00  0.00    -0.478 OA
ATOM     14  H   UNL     1      15.354   7.230  19.529  1.00  0.00     0.297 HD
ENDBRANCH  11  13
ENDBRANCH   6  11
TORSDOF 4
ENDMDL
MODEL 8
REMARK VINA RESULT:    -5.828      1.559      3.298
REMARK INTER + INTRA:          -7.534
REMARK INTER:                  -6.949
REMARK INTRA:                  -0.585
REMARK UNBOUND:                -0.514
REMARK SMILES CC(=O)Oc1ccccc1C(=O)O
REMARK SMILES IDX 5 1 6 2 7 3 8 4 9 5 10 6 4 7 2 8 1 9 3 10 11 11 12 12 13 13
REMARK H PARENT 13 14
REMARK Flexibility Score: inf
ROOT
ATOM      1  C   UNL     1      11.848   9.709  17.069  1.00  0.00     0.145 A 
ATOM      2  C   UNL     1      12.019  10.974  16.473  1.00  0.00     0.048 A 
ATOM      3  C   UNL     1      13.280  11.570  16.422  1.00  0.00     0.004 A 
ATOM      4  C   UNL     1      14.385  10.911  16.955  1.00  0.00     0.001 A 
ATOM      5  C   UNL     1      14.238   9.649  17.532  1.00  0.00     0.019 A 
ATOM      6  C   UNL     1      12.976   9.028  17.593  1.00  0.00     0.102 A 
ENDROOT
BRANCH   1   7
ATOM      7  O   UNL     1      10.583   9.099  17.109  1.00  0.00    -0.426 OA
BRANCH   7   8
ATOM      8  C   UNL     1       9.564   9.405  18.019  1.00  0.00     0.308 C 
ATOM      9  C   UNL     1       9.926   9.795  19.412  1.00  0.00     0.139 C 
ATOM     10  O   UNL     1       8.358   9.450  17.655  1.00  0.00    -0.252 OA
ENDBRANCH   7   8
ENDBRANCH   1   7
BRANCH   6  11
ATOM     11  C   UNL     1      12.864   7.683  18.215  1.00  0.00     0.339 C 
ATOM     12  O   UNL     1      13.473   7.408  19.284  1.00  0.00    -0.246 OA
BRANCH  11  13
ATOM     13  O   UNL     1      12.077   6.701  17.617  1.00  0.00    -0.478 OA
ATOM     14  H   UNL     1      11.635   5.978  18.172  1.00  0.00     0.297 HD
ENDBRANCH  11  13
ENDBRANCH   6  11
TORSDOF 4
ENDMDL
MODEL 9
REMARK VINA RESULT:    -5.785      1.944      3.671
REMARK INTER + INTRA:          -7.483
REMARK INTER:                  -6.964
REMARK INTRA:                  -0.519
REMARK UNBOUND:                -0.514
REMARK SMILES CC(=O)Oc1ccccc1C(=O)O
REMARK SMILES IDX 5 1 6 2 7 3 8 4 9 5 10 6 4 7 2 8 1 9 3 10 11 11 12 12 13 13
REMARK H PARENT 13 14
REMARK Flexibility Score: inf
ROOT
ATOM      1  C   UNL     1      12.545   9.876  15.922  1.00  0.00     0.145 A 
ATOM      2  C   UNL     1      11.679  10.210  14.861  1.00  0.00     0.048 A 
ATOM      3  C   UNL     1      11.585  11.526  14.410  1.00  0.00     0.004 A 
ATOM      4  C   UNL     1      12.356  12.524  15.001  1.00  0.00     0.001 A 
ATOM      5  C   UNL     1      13.233  12.209  16.039  1.00  0.00     0.019 A 
ATOM      6  C   UNL     1      13.345  10.887  16.511  1.00  0.00     0.102 A 
ENDROOT
BRANCH   1   7
ATOM      7  O   UNL     1      12.653   8.549  16.370  1.00  0.00    -0.426 OA
BRANCH   7   8
ATOM      8  C   UNL     1      11.848   7.956  17.351  1.00  0.00     0.308 C 
ATOM      9  C   UNL     1      12.468   7.519  18.634  1.00  0.00     0.139 C 
ATOM     10  O   UNL     1      10.598   7.875  17.205  1.00  0.00    -0.252 OA
ENDBRANCH   7   8
ENDBRANCH   1   7
BRANCH   6  11
ATOM     11  C   UNL     1      14.292  10.595  17.618  1.00  0.00     0.339 C 
ATOM     12  O   UNL     1      14.346  11.332  18.639  1.00  0.00    -0.246 OA
BRANCH  11  13
ATOM     13  O   UNL     1      15.141   9.492  17.538  1.00  0.00    -0.478 OA
ATOM     14  H   UNL     1      15.023   8.796  16.812  1.00  0.00     0.297 HD
ENDBRANCH  11  13
ENDBRANCH   6  11
TORSDOF 4
ENDMDL
MODEL 10
REMARK VINA RESULT:    -5.751     15.210     16.974
REMARK INTER + INTRA:          -7.442
REMARK INTER:                  -6.735
REMARK INTRA:                  -0.707
REMARK UNBOUND:                -0.514
REMARK SMILES CC(=O)Oc1ccccc1C(=O)O
REMARK SMILES IDX 5 1 6 2 7 3 8 4 9 5 10 6 4 7 2 8 1 9 3 10 11 11 12 12 13 13
REMARK H PARENT 13 14
REMARK Flexibility Score: inf
ROOT
ATOM      1  C   UNL     1      16.243  13.122   1.856  1.00  0.00     0.145 A 
ATOM      2  C   UNL     1      16.164  13.279   0.459  1.00  0.00     0.048 A 
ATOM      3  C   UNL     1      15.316  12.472  -0.300  1.00  0.00     0.004 A 
ATOM      4  C   UNL     1      14.530  11.506   0.324  1.00  0.00     0.001 A 
ATOM      5  C   UNL     1      14.581  11.349   1.709  1.00  0.00     0.019 A 
ATOM      6  C   UNL     1      15.429  12.153   2.495  1.00  0.00     0.102 A 
ENDROOT
BRANCH   1   7
ATOM      7  O   UNL     1      17.085  13.943   2.625  1.00  0.00    -0.426 OA
BRANCH   7   8
ATOM      8  C   UNL     1      18.469  13.779   2.767  1.00  0.00     0.308 C 
ATOM      9  C   UNL     1      19.383  14.837   2.250  1.00  0.00     0.139 C 
ATOM     10  O   UNL     1      18.947  12.803   3.407  1.00  0.00    -0.252 OA
ENDBRANCH   7   8
ENDBRANCH   1   7
BRANCH   6  11
ATOM     11  C   UNL     1      15.451  11.953   3.967  1.00  0.00     0.339 C 
ATOM     12  O   UNL     1      14.436  12.200   4.672  1.00  0.00    -0.246 OA
BRANCH  11  13
ATOM     13  O   UNL     1      16.607  11.488   4.591  1.00  0.00    -0.478 OA
ATOM     14  H   UNL     1      17.524  11.713   4.223  1.00  0.00     0.297 HD
ENDBRANCH  11  13
ENDBRANCH   6  11
TORSDOF 4
ENDMDL
MODEL 11
REMARK VINA RESULT:    -5.732      1.881      2.657
REMARK INTER + INTRA:          -7.419
REMARK INTER:                  -6.848
REMARK INTRA:                  -0.571
REMARK UNBOUND:                -0.514
REMARK SMILES CC(=O)Oc1ccccc1C(=O)O
REMARK SMILES IDX 5 1 6 2 7 3 8 4 9 5 10 6 4 7 2 8 1 9 3 10 11 11 12 12 13 13
REMARK H PARENT 13 14
REMARK Flexibility Score: inf
ROOT
ATOM      1  C   UNL     1      13.622  10.543  16.497  1.00  0.00     0.145 A 
ATOM      2  C   UNL     1      13.504  11.887  16.093  1.00  0.00     0.048 A 
ATOM      3  C   UNL     1      12.516  12.272  15.186  1.00  0.00     0.004 A 
ATOM      4  C   UNL     1      11.629  11.327  14.677  1.00  0.00     0.001 A 
ATOM      5  C   UNL     1      11.719   9.994  15.081  1.00  0.00     0.019 A 
ATOM      6  C   UNL     1      12.707   9.583  15.996  1.00  0.00     0.102 A 
ENDROOT
BRANCH   1   7
ATOM      7  O   UNL     1      14.606  10.153  17.421  1.00  0.00    -0.426 OA
BRANCH   7   8
ATOM      8  C   UNL     1      14.491  10.246  18.814  1.00  0.00     0.308 C 
ATOM      9  C   UNL     1      15.099  11.412  19.517  1.00  0.00     0.139 C 
ATOM     10  O   UNL     1      13.803   9.416  19.467  1.00  0.00    -0.252 OA
ENDBRANCH   7   8
ENDBRANCH   1   7
BRANCH   6  11
ATOM     11  C   UNL     1      12.765   8.154  16.399  1.00  0.00     0.339 C 
ATOM     12  O   UNL     1      11.740   7.422  16.352  1.00  0.00    -0.246 OA
BRANCH  11  13
ATOM     13  O   UNL     1      13.966   7.603  16.841  1.00  0.00    -0.478 OA
ATOM     14  H   UNL     1      14.377   6.804  16.371  1.00  0.00     0.297 HD
ENDBRANCH  11  13
ENDBRANCH   6  11
TORSDOF 4
ENDMDL
MODEL 12
REMARK VINA RESULT:    -5.694      1.893      4.248
REMARK INTER + INTRA:          -7.374
REMARK INTER:                  -6.672
REMARK INTRA:                  -0.701
REMARK UNBOUND:                -0.514
REMARK SMILES CC(=O)Oc1ccccc1C(=O)O
REMARK SMILES IDX 5 1 6 2 7 3 8 4 9 5 10 6 4 7 2 8 1 9 3 10 11 11 12 12 13 13
REMARK H PARENT 13 14
REMARK Flexibility Score: inf
ROOT
ATOM      1  C   UNL     1      12.632  10.048  16.487  1.00  0.00     0.145 A 
ATOM      2  C   UNL     1      13.861  10.733  16.551  1.00  0.00     0.048 A 
ATOM      3  C   UNL     1      14.753  10.494  17.596  1.00  0.00     0.004 A 
ATOM      4  C   UNL     1      14.439   9.564  18.584  1.00  0.00     0.001 A 
ATOM      5  C   UNL     1      13.235   8.861  18.526  1.00  0.00     0.019 A 
ATOM      6  C   UNL     1      12.319   9.086  17.481  1.00  0.00     0.102 A 
ENDROOT
BRANCH   1   7
ATOM      7  O   UNL     1      11.736  10.276  15.429  1.00  0.00    -0.426 OA
BRANCH   7   8
ATOM      8  C   UNL     1      10.984  11.442  15.240  1.00  0.00     0.308 C 
ATOM      9  C   UNL     1      11.049  12.145  13.927  1.00  0.00     0.139 C 
ATOM     10  O   UNL     1      10.182  11.849  16.124  1.00  0.00    -0.252 OA
ENDBRANCH   7   8
ENDBRANCH   1   7
BRANCH   6  11
ATOM     11  C   UNL     1      11.049   8.315  17.457  1.00  0.00     0.339 C 
ATOM     12  O   UNL     1      11.053   7.054  17.471  1.00  0.00    -0.246 OA
BRANCH  11  13
ATOM     13  O   UNL     1       9.827   8.984  17.416  1.00  0.00    -0.478 OA
ATOM     14  H   UNL     1       9.401   9.341  18.263  1.00  0.00     0.297 HD
ENDBRANCH  11  13
ENDBRANCH   6  11
TORSDOF 4
ENDMDL
MODEL 13
REMARK VINA RESULT:    -5.627      2.220      3.476
REMARK INTER + INTRA:          -7.293
REMARK INTER:                  -6.721
REMARK INTRA:                  -0.572
REMARK UNBOUND:                -0.514
REMARK SMILES CC(=O)Oc1ccccc1C(=O)O
REMARK SMILES IDX 5 1 6 2 7 3 8 4 9 5 10 6 4 7 2 8 1 9 3 10 11 11 12 12 13 13
REMARK H PARENT 13 14
REMARK Flexibility Score: inf
ROOT
ATOM      1  C   UNL     1      13.749   9.488  17.245  1.00  0.00     0.145 A 
ATOM      2  C   UNL     1      12.916   8.618  16.514  1.00  0.00     0.048 A 
ATOM      3  C   UNL     1      12.194   9.084  15.415  1.00  0.00     0.004 A 
ATOM      4  C   UNL     1      12.299  10.417  15.025  1.00  0.00     0.001 A 
ATOM      5  C   UNL     1      13.133  11.288  15.725  1.00  0.00     0.019 A 
ATOM      6  C   UNL     1      13.872  10.840  16.837  1.00  0.00     0.102 A 
ENDROOT
BRANCH   1   7
ATOM      7  O   UNL     1      14.489   9.020  18.344  1.00  0.00    -0.426 OA
BRANCH   7   8
ATOM      8  C   UNL     1      13.946   8.490  19.520  1.00  0.00     0.308 C 
ATOM      9  C   UNL     1      13.054   9.341  20.359  1.00  0.00     0.139 C 
ATOM     10  O   UNL     1      14.118   7.279  19.829  1.00  0.00    -0.252 OA
ENDBRANCH   7   8
ENDBRANCH   1   7
BRANCH   6  11
ATOM     11  C   UNL     1      14.750  11.802  17.554  1.00  0.00     0.339 C 
ATOM     12  O   UNL     1      14.461  13.027  17.612  1.00  0.00    -0.246 OA
BRANCH  11  13
ATOM     13  O   UNL     1      15.915  11.354  18.173  1.00  0.00    -0.478 OA
ATOM     14  H   UNL     1      16.046  11.458  19.172  1.00  0.00     0.297 HD
ENDBRANCH  11  13
ENDBRANCH   6  11
TORSDOF 4
ENDMDL
MODEL 14
REMARK VINA RESULT:    -5.613      2.268      2.801
REMARK INTER + INTRA:          -7.276
REMARK INTER:                  -6.838
REMARK INTRA:                  -0.438
REMARK UNBOUND:                -0.514
REMARK SMILES CC(=O)Oc1ccccc1C(=O)O
REMARK SMILES IDX 5 1 6 2 7 3 8 4 9 5 10 6 4 7 2 8 1 9 3 10 11 11 12 12 13 13
REMARK H PARENT 13 14
REMARK Flexibility Score: inf
ROOT
ATOM      1  C   UNL     1      10.898   9.660  17.548  1.00  0.00     0.145 A 
ATOM      2  C   UNL     1      10.578  10.904  16.970  1.00  0.00     0.048 A 
ATOM      3  C   UNL     1      11.022  11.226  15.688  1.00  0.00     0.004 A 
ATOM      4  C   UNL     1      11.781  10.312  14.961  1.00  0.00     0.001 A 
ATOM      5  C   UNL     1      12.091   9.068  15.510  1.00  0.00     0.019 A 
ATOM      6  C   UNL     1      11.654   8.720  16.803  1.00  0.00     0.102 A 
ENDROOT
BRANCH   1   7
ATOM      7  O   UNL     1      10.441   9.326  18.834  1.00  0.00    -0.426 OA
BRANCH   7   8
ATOM      8  C   UNL     1      10.961   9.825  20.034  1.00  0.00     0.308 C 
ATOM      9  C   UNL     1      12.431  10.047  20.154  1.00  0.00     0.139 C 
ATOM     10  O   UNL     1      10.201  10.180  20.976  1.00  0.00    -0.252 OA
ENDBRANCH   7   8
ENDBRANCH   1   7
BRANCH   6  11
ATOM     11  C   UNL     1      12.006   7.384  17.348  1.00  0.00     0.339 C 
ATOM     12  O   UNL     1      11.208   6.412  17.256  1.00  0.00    -0.246 OA
BRANCH  11  13
ATOM     13  O   UNL     1      13.234   7.188  17.976  1.00  0.00    -0.478 OA
ATOM     14  H   UNL     1      13.721   6.303  17.904  1.00  0.00     0.297 HD
ENDBRANCH  11  13
ENDBRANCH   6  11
TORSDOF 4
ENDMDL
MODEL 15
REMARK VINA RESULT:    -5.550      2.460      3.851
REMARK INTER + INTRA:          -7.200
REMARK INTER:                  -6.714
REMARK INTRA:                  -0.486
REMARK UNBOUND:                -0.514
REMARK SMILES CC(=O)Oc1ccccc1C(=O)O
REMARK SMILES IDX 5 1 6 2 7 3 8 4 9 5 10 6 4 7 2 8 1 9 3 10 11 11 12 12 13 13
REMARK H PARENT 13 14
REMARK Flexibility Score: inf
ROOT
ATOM      1  C   UNL     1      11.609   9.273  19.108  1.00  0.00     0.145 A 
ATOM      2  C   UNL     1      12.207   9.678  20.318  1.00  0.00     0.048 A 
ATOM      3  C   UNL     1      13.293   8.977  20.842  1.00  0.00     0.004 A 
ATOM      4  C   UNL     1      13.803   7.872  20.166  1.00  0.00     0.001 A 
ATOM      5  C   UNL     1      13.236   7.468  18.957  1.00  0.00     0.019 A 
ATOM      6  C   UNL     1      12.140   8.160  18.408  1.00  0.00     0.102 A 
ENDROOT
BRANCH   1   7
ATOM      7  O   UNL     1      10.524   9.984  18.569  1.00  0.00    -0.426 OA
BRANCH   7   8
ATOM      8  C   UNL     1       9.177   9.626  18.695  1.00  0.00     0.308 C 
ATOM      9  C   UNL     1       8.534   9.675  20.039  1.00  0.00     0.139 C 
ATOM     10  O   UNL     1       8.476   9.358  17.681  1.00  0.00    -0.252 OA
ENDBRANCH   7   8
ENDBRANCH   1   7
BRANCH   6  11
ATOM     11  C   UNL     1      11.567   7.697  17.117  1.00  0.00     0.339 C 
ATOM     12  O   UNL     1      11.111   6.529  16.990  1.00  0.00    -0.246 OA
BRANCH  11  13
ATOM     13  O   UNL     1      11.530   8.557  16.022  1.00  0.00    -0.478 OA
ATOM     14  H   UNL     1      10.915   8.375  15.238  1.00  0.00     0.297 HD
ENDBRANCH  11  13
ENDBRANCH   6  11
TORSDOF 4
ENDMDL
