MODEL 1
REMARK VINA RESULT:    -8.591      0.000      0.000
REMARK INTER + INTRA:         -13.023
REMARK INTER:                 -11.856
REMARK INTRA:                  -1.167
REMARK UNBOUND:                -1.167
REMARK SMILES CC(C)[N+]1(C)[C@@H]2CC[C@H]1C[C@@H](OC(=O)C(CO)c1ccccc1)C2
REMARK SMILES IDX 13 1 14 2 12 3 11 4 9 5 8 6 10 7 4 8 7 9 6 10 5 11 24 12
REMARK SMILES IDX 2 13 1 14 3 15 15 16 16 17 17 18 18 20 19 21 23 22 20 23
REMARK SMILES IDX 22 24 21 25
REMARK H PARENT 17 19
REMARK Flexibility Score: inf
ROOT
ATOM      1  C   UNL     1       9.768  75.550  -2.690  1.00  0.00     0.316 C 
ATOM      2  O   UNL     1       8.545  75.479  -2.995  1.00  0.00    -0.251 OA
ENDROOT
BRANCH   1   3
ATOM      3  O   UNL     1      10.419  76.787  -2.641  1.00  0.00    -0.461 OA
BRANCH   3   4
ATOM      4  C   UNL     1      10.385  77.663  -1.513  1.00  0.00     0.188 C 
ATOM      5  C   UNL     1      11.465  79.929  -2.199  1.00  0.00     0.189 C 
ATOM      6  C   UNL     1      12.269  79.227  -3.317  1.00  0.00     0.071 C 
ATOM      7  C   UNL     1      10.143  79.130  -1.987  1.00  0.00     0.110 C 
ATOM      8  N   UNL     1      12.331  79.892  -0.982  1.00  0.00    -0.319 N 
ATOM      9  C   UNL     1      13.177  78.257  -2.565  1.00  0.00     0.071 C 
ATOM     10  C   UNL     1      12.815  78.482  -1.079  1.00  0.00     0.189 C 
ATOM     11  C   UNL     1      13.484  80.836  -1.152  1.00  0.00     0.335 C 
ATOM     12  C   UNL     1      11.697  77.465  -0.696  1.00  0.00     0.110 C 
BRANCH   8  13
ATOM     13  C   UNL     1      11.611  80.227   0.317  1.00  0.00     0.179 C 
ATOM     14  C   UNL     1      12.524  80.180   1.565  1.00  0.00     0.075 C 
ATOM     15  C   UNL     1      10.872  81.586   0.289  1.00  0.00     0.075 C 
ENDBRANCH   8  13
ENDBRANCH   3   4
ENDBRANCH   1   3
BRANCH   1  16
ATOM     16  C   UNL     1      10.522  74.297  -2.339  1.00  0.00     0.155 C 
BRANCH  16  17
ATOM     17  C   UNL     1       9.988  73.684  -1.030  1.00  0.00     0.176 C 
BRANCH  17  18
ATOM     18  O   UNL     1       9.351  74.661  -0.250  1.00  0.00    -0.395 OA
ATOM     19  H   UNL     1       8.532  74.930  -0.744  1.00  0.00     0.210 HD
ENDBRANCH  17  18
ENDBRANCH  16  17
BRANCH  16  20
ATOM     20  C   UNL     1      10.467  73.309  -3.489  1.00  0.00    -0.032 A 
ATOM     21  C   UNL     1       9.500  72.287  -3.490  1.00  0.00     0.005 A 
ATOM     22  C   UNL     1      11.374  73.389  -4.565  1.00  0.00     0.005 A 
ATOM     23  C   UNL     1       9.440  71.369  -4.542  1.00  0.00     0.000 A 
ATOM     24  C   UNL     1      11.310  72.468  -5.614  1.00  0.00     0.000 A 
ATOM     25  C   UNL     1      10.344  71.459  -5.604  1.00  0.00     0.000 A 
ENDBRANCH  16  20
ENDBRANCH   1  16
TORSDOF 7
ENDMDL
MODEL 2
REMARK VINA RESULT:    -8.248      5.147      8.351
REMARK INTER + INTRA:         -12.550
REMARK INTER:                 -11.623
REMARK INTRA:                  -0.927
REMARK UNBOUND:                -1.167
REMARK SMILES CC(C)[N+]1(C)[C@@H]2CC[C@H]1C[C@@H](OC(=O)C(CO)c1ccccc1)C2
REMARK SMILES IDX 13 1 14 2 12 3 11 4 9 5 8 6 10 7 4 8 7 9 6 10 5 11 24 12
REMARK SMILES IDX 2 13 1 14 3 15 15 16 16 17 17 18 18 20 19 21 23 22 20 23
REMARK SMILES IDX 22 24 21 25
REMARK H PARENT 17 19
REMARK Flexibility Score: inf
ROOT
ATOM      1  C   UNL     1      16.081  80.258  -5.395  1.00  0.00     0.316 C 
ATOM      2  O   UNL     1      15.578  81.218  -6.039  1.00  0.00    -0.251 OA
ENDROOT
BRANCH   1   3
ATOM      3  O   UNL     1      15.421  79.721  -4.284  1.00  0.00    -0.461 OA
BRANCH   3   4
ATOM      4  C   UNL     1      14.003  79.567  -4.197  1.00  0.00     0.188 C 
ATOM      5  C   UNL     1      13.220  80.470  -1.885  1.00  0.00     0.189 C 
ATOM      6  C   UNL     1      14.627  80.223  -1.292  1.00  0.00     0.071 C 
ATOM      7  C   UNL     1      13.387  80.764  -3.407  1.00  0.00     0.110 C 
ATOM      8  N   UNL     1      12.448  79.214  -1.648  1.00  0.00    -0.319 N 
ATOM      9  C   UNL     1      14.808  78.710  -1.390  1.00  0.00     0.071 C 
ATOM     10  C   UNL     1      13.491  78.217  -2.032  1.00  0.00     0.189 C 
ATOM     11  C   UNL     1      12.132  79.079  -0.188  1.00  0.00     0.335 C 
ATOM     12  C   UNL     1      13.697  78.170  -3.577  1.00  0.00     0.110 C 
BRANCH   8  13
ATOM     13  C   UNL     1      11.151  79.110  -2.441  1.00  0.00     0.179 C 
ATOM     14  C   UNL     1      10.465  77.727  -2.335  1.00  0.00     0.075 C 
ATOM     15  C   UNL     1      10.118  80.208  -2.094  1.00  0.00     0.075 C 
ENDBRANCH   8  13
ENDBRANCH   3   4
ENDBRANCH   1   3
BRANCH   1  16
ATOM     16  C   UNL     1      17.385  79.659  -5.846  1.00  0.00     0.155 C 
BRANCH  16  17
ATOM     17  C   UNL     1      17.165  78.692  -7.025  1.00  0.00     0.176 C 
BRANCH  17  18
ATOM     18  O   UNL     1      16.249  77.688  -6.677  1.00  0.00    -0.395 OA
ATOM     19  H   UNL     1      15.966  77.872  -5.743  1.00  0.00     0.210 HD
ENDBRANCH  17  18
ENDBRANCH  16  17
BRANCH  16  20
ATOM     20  C   UNL     1      18.376  80.754  -6.193  1.00  0.00    -0.032 A 
ATOM     21  C   UNL     1      18.544  81.151  -7.532  1.00  0.00     0.005 A 
ATOM     22  C   UNL     1      19.143  81.387  -5.194  1.00  0.00     0.005 A 
ATOM     23  C   UNL     1      19.455  82.157  -7.864  1.00  0.00     0.000 A 
ATOM     24  C   UNL     1      20.053  82.392  -5.532  1.00  0.00     0.000 A 
ATOM     25  C   UNL     1      20.210  82.778  -6.865  1.00  0.00     0.000 A 
ENDBRANCH  16  20
ENDBRANCH   1  16
TORSDOF 7
ENDMDL
MODEL 3
REMARK VINA RESULT:    -8.189      2.255      3.833
REMARK INTER + INTRA:         -12.467
REMARK INTER:                 -11.007
REMARK INTRA:                  -1.461
REMARK UNBOUND:                -1.167
REMARK SMILES CC(C)[N+]1(C)[C@@H]2CC[C@H]1C[C@@H](OC(=O)C(CO)c1ccccc1)C2
REMARK SMILES IDX 13 1 14 2 12 3 11 4 9 5 8 6 10 7 4 8 7 9 6 10 5 11 24 12
REMARK SMILES IDX 2 13 1 14 3 15 15 16 16 17 17 18 18 20 19 21 23 22 20 23
REMARK SMILES IDX 22 24 21 25
REMARK H PARENT 17 19
REMARK Flexibility Score: inf
ROOT
ATOM      1  C   UNL     1       8.185  78.142  -0.746  1.00  0.00     0.316 C 
ATOM      2  O   UNL     1       7.196  78.873  -1.028  1.00  0.00    -0.251 OA
ENDROOT
BRANCH   1   3
ATOM      3  O   UNL     1       9.490  78.633  -0.863  1.00  0.00    -0.461 OA
BRANCH   3   4
ATOM      4  C   UNL     1      10.201  78.723  -2.099  1.00  0.00     0.188 C 
ATOM      5  C   UNL     1      12.667  78.002  -1.683  1.00  0.00     0.189 C 
ATOM      6  C   UNL     1      12.542  78.373  -0.187  1.00  0.00     0.071 C 
ATOM      7  C   UNL     1      11.255  77.575  -2.189  1.00  0.00     0.110 C 
ATOM      8  N   UNL     1      13.151  79.233  -2.375  1.00  0.00    -0.319 N 
ATOM      9  C   UNL     1      12.281  79.878  -0.203  1.00  0.00     0.071 C 
ATOM     10  C   UNL     1      12.276  80.241  -1.705  1.00  0.00     0.189 C 
ATOM     11  C   UNL     1      14.585  79.488  -2.014  1.00  0.00     0.335 C 
ATOM     12  C   UNL     1      10.806  80.154  -2.217  1.00  0.00     0.110 C 
BRANCH   8  13
ATOM     13  C   UNL     1      13.027  79.195  -3.892  1.00  0.00     0.179 C 
ATOM     14  C   UNL     1      13.532  80.481  -4.590  1.00  0.00     0.075 C 
ATOM     15  C   UNL     1      13.712  77.971  -4.545  1.00  0.00     0.075 C 
ENDBRANCH   8  13
ENDBRANCH   3   4
ENDBRANCH   1   3
BRANCH   1  16
ATOM     16  C   UNL     1       7.959  76.744  -0.242  1.00  0.00     0.155 C 
BRANCH  16  17
ATOM     17  C   UNL     1       6.556  76.605   0.380  1.00  0.00     0.176 C 
BRANCH  17  18
ATOM     18  O   UNL     1       6.386  77.523   1.427  1.00  0.00    -0.395 OA
ATOM     19  H   UNL     1       6.681  78.406   1.082  1.00  0.00     0.210 HD
ENDBRANCH  17  18
ENDBRANCH  16  17
BRANCH  16  20
ATOM     20  C   UNL     1       8.185  75.739  -1.356  1.00  0.00    -0.032 A 
ATOM     21  C   UNL     1       9.170  74.745  -1.215  1.00  0.00     0.005 A 
ATOM     22  C   UNL     1       7.425  75.781  -2.543  1.00  0.00     0.005 A 
ATOM     23  C   UNL     1       9.389  73.815  -2.235  1.00  0.00     0.000 A 
ATOM     24  C   UNL     1       7.650  74.849  -3.559  1.00  0.00     0.000 A 
ATOM     25  C   UNL     1       8.629  73.866  -3.407  1.00  0.00     0.000 A 
ENDBRANCH  16  20
ENDBRANCH   1  16
TORSDOF 7
ENDMDL
MODEL 4
REMARK VINA RESULT:    -8.033      1.450      2.772
REMARK INTER + INTRA:         -12.252
REMARK INTER:                 -11.259
REMARK INTRA:                  -0.993
REMARK UNBOUND:                -1.167
REMARK SMILES CC(C)[N+]1(C)[C@@H]2CC[C@H]1C[C@@H](OC(=O)C(CO)c1ccccc1)C2
REMARK SMILES IDX 13 1 14 2 12 3 11 4 9 5 8 6 10 7 4 8 7 9 6 10 5 11 24 12
REMARK SMILES IDX 2 13 1 14 3 15 15 16 16 17 17 18 18 20 19 21 23 22 20 23
REMARK SMILES IDX 22 24 21 25
REMARK H PARENT 17 19
REMARK Flexibility Score: inf
ROOT
ATOM      1  C   UNL     1       8.650  75.892  -1.785  1.00  0.00     0.316 C 
ATOM      2  O   UNL     1       8.423  76.078  -0.558  1.00  0.00    -0.251 OA
ENDROOT
BRANCH   1   3
ATOM      3  O   UNL     1       9.561  76.701  -2.472  1.00  0.00    -0.461 OA
BRANCH   3   4
ATOM      4  C   UNL     1      10.955  76.771  -2.165  1.00  0.00     0.188 C 
ATOM      5  C   UNL     1      11.314  78.650  -0.400  1.00  0.00     0.189 C 
ATOM      6  C   UNL     1      10.012  79.350  -0.854  1.00  0.00     0.071 C 
ATOM      7  C   UNL     1      11.149  77.121  -0.656  1.00  0.00     0.110 C 
ATOM      8  N   UNL     1      12.407  79.233  -1.233  1.00  0.00    -0.319 N 
ATOM      9  C   UNL     1      10.289  79.737  -2.305  1.00  0.00     0.071 C 
ATOM     10  C   UNL     1      11.725  79.224  -2.561  1.00  0.00     0.189 C 
ATOM     11  C   UNL     1      12.670  80.647  -0.808  1.00  0.00     0.335 C 
ATOM     12  C   UNL     1      11.624  77.781  -3.144  1.00  0.00     0.110 C 
BRANCH   8  13
ATOM     13  C   UNL     1      13.717  78.457  -1.189  1.00  0.00     0.179 C 
ATOM     14  C   UNL     1      14.803  79.014  -2.141  1.00  0.00     0.075 C 
ATOM     15  C   UNL     1      14.318  78.325   0.231  1.00  0.00     0.075 C 
ENDBRANCH   8  13
ENDBRANCH   3   4
ENDBRANCH   1   3
BRANCH   1  16
ATOM     16  C   UNL     1       7.963  74.765  -2.507  1.00  0.00     0.155 C 
BRANCH  16  17
ATOM     17  C   UNL     1       7.221  75.284  -3.753  1.00  0.00     0.176 C 
BRANCH  17  18
ATOM     18  O   UNL     1       7.191  76.687  -3.763  1.00  0.00    -0.395 OA
ATOM     19  H   UNL     1       7.274  76.979  -2.817  1.00  0.00     0.210 HD
ENDBRANCH  17  18
ENDBRANCH  16  17
BRANCH  16  20
ATOM     20  C   UNL     1       8.962  73.678  -2.857  1.00  0.00    -0.032 A 
ATOM     21  C   UNL     1       8.980  73.133  -4.154  1.00  0.00     0.005 A 
ATOM     22  C   UNL     1       9.877  73.193  -1.902  1.00  0.00     0.005 A 
ATOM     23  C   UNL     1       9.894  72.129  -4.488  1.00  0.00     0.000 A 
ATOM     24  C   UNL     1      10.788  72.188  -2.241  1.00  0.00     0.000 A 
ATOM     25  C   UNL     1      10.798  71.657  -3.532  1.00  0.00     0.000 A 
ENDBRANCH  16  20
ENDBRANCH   1  16
TORSDOF 7
ENDMDL
MODEL 5
REMARK VINA RESULT:    -8.028      2.790      6.576
REMARK INTER + INTRA:         -12.245
REMARK INTER:                 -10.198
REMARK INTRA:                  -2.047
REMARK UNBOUND:                -1.167
REMARK SMILES CC(C)[N+]1(C)[C@@H]2CC[C@H]1C[C@@H](OC(=O)C(CO)c1ccccc1)C2
REMARK SMILES IDX 13 1 14 2 12 3 11 4 9 5 8 6 10 7 4 8 7 9 6 10 5 11 24 12
REMARK SMILES IDX 2 13 1 14 3 15 15 16 16 17 17 18 18 20 19 21 23 22 20 23
REMARK SMILES IDX 22 24 21 25
REMARK H PARENT 17 19
REMARK Flexibility Score: inf
ROOT
ATOM      1  C   UNL     1       9.360  80.271  -0.469  1.00  0.00     0.316 C 
ATOM      2  O   UNL     1       8.300  80.953  -0.425  1.00  0.00    -0.251 OA
ENDROOT
BRANCH   1   3
ATOM      3  O   UNL     1       9.308  78.873  -0.460  1.00  0.00    -0.461 OA
BRANCH   3   4
ATOM      4  C   UNL     1       8.228  78.111  -1.002  1.00  0.00     0.188 C 
ATOM      5  C   UNL     1       8.744  75.585  -0.643  1.00  0.00     0.189 C 
ATOM      6  C   UNL     1      10.259  75.887  -0.572  1.00  0.00     0.071 C 
ATOM      7  C   UNL     1       7.982  76.843  -0.126  1.00  0.00     0.110 C 
ATOM      8  N   UNL     1       8.445  75.313  -2.081  1.00  0.00    -0.319 N 
ATOM      9  C   UNL     1      10.589  76.444  -1.955  1.00  0.00     0.071 C 
ATOM     10  C   UNL     1       9.235  76.418  -2.701  1.00  0.00     0.189 C 
ATOM     11  C   UNL     1       9.027  73.989  -2.478  1.00  0.00     0.335 C 
ATOM     12  C   UNL     1       8.545  77.801  -2.496  1.00  0.00     0.110 C 
BRANCH   8  13
ATOM     13  C   UNL     1       6.963  75.321  -2.431  1.00  0.00     0.179 C 
ATOM     14  C   UNL     1       6.671  74.981  -3.912  1.00  0.00     0.075 C 
ATOM     15  C   UNL     1       6.103  74.404  -1.529  1.00  0.00     0.075 C 
ENDBRANCH   8  13
ENDBRANCH   3   4
ENDBRANCH   1   3
BRANCH   1  16
ATOM     16  C   UNL     1      10.690  80.966  -0.572  1.00  0.00     0.155 C 
BRANCH  16  17
ATOM     17  C   UNL     1      11.204  81.376   0.821  1.00  0.00     0.176 C 
BRANCH  17  18
ATOM     18  O   UNL     1      10.426  80.786   1.829  1.00  0.00    -0.395 OA
ATOM     19  H   UNL     1      10.589  81.309   2.657  1.00  0.00     0.210 HD
ENDBRANCH  17  18
ENDBRANCH  16  17
BRANCH  16  20
ATOM     20  C   UNL     1      11.687  80.090  -1.306  1.00  0.00    -0.032 A 
ATOM     21  C   UNL     1      12.677  79.398  -0.585  1.00  0.00     0.005 A 
ATOM     22  C   UNL     1      11.647  79.955  -2.709  1.00  0.00     0.005 A 
ATOM     23  C   UNL     1      13.603  78.589  -1.250  1.00  0.00     0.000 A 
ATOM     24  C   UNL     1      12.576  79.145  -3.368  1.00  0.00     0.000 A 
ATOM     25  C   UNL     1      13.552  78.462  -2.641  1.00  0.00     0.000 A 
ENDBRANCH  16  20
ENDBRANCH   1  16
TORSDOF 7
ENDMDL
MODEL 6
REMARK VINA RESULT:    -7.904      2.458      7.353
REMARK INTER + INTRA:         -12.075
REMARK INTER:                 -10.956
REMARK INTRA:                  -1.119
REMARK UNBOUND:                -1.167
REMARK SMILES CC(C)[N+]1(C)[C@@H]2CC[C@H]1C[C@@H](OC(=O)C(CO)c1ccccc1)C2
REMARK SMILES IDX 13 1 14 2 12 3 11 4 9 5 8 6 10 7 4 8 7 9 6 10 5 11 24 12
REMARK SMILES IDX 2 13 1 14 3 15 15 16 16 17 17 18 18 20 19 21 23 22 20 23
REMARK SMILES IDX 22 24 21 25
REMARK H PARENT 17 19
REMARK Flexibility Score: inf
ROOT
ATOM      1  C   UNL     1       8.340  78.276  -1.290  1.00  0.00     0.316 C 
ATOM      2  O   UNL     1       8.205  78.151  -0.042  1.00  0.00    -0.251 OA
ENDROOT
BRANCH   1   3
ATOM      3  O   UNL     1       7.701  77.393  -2.167  1.00  0.00    -0.461 OA
BRANCH   3   4
ATOM      4  C   UNL     1       8.387  76.581  -3.122  1.00  0.00     0.188 C 
ATOM      5  C   UNL     1       7.741  74.095  -2.703  1.00  0.00     0.189 C 
ATOM      6  C   UNL     1       7.393  74.415  -1.231  1.00  0.00     0.071 C 
ATOM      7  C   UNL     1       7.483  75.382  -3.546  1.00  0.00     0.110 C 
ATOM      8  N   UNL     1       9.184  73.712  -2.712  1.00  0.00    -0.319 N 
ATOM      9  C   UNL     1       8.721  74.869  -0.629  1.00  0.00     0.071 C 
ATOM     10  C   UNL     1       9.717  74.773  -1.808  1.00  0.00     0.189 C 
ATOM     11  C   UNL     1       9.355  72.367  -2.071  1.00  0.00     0.335 C 
ATOM     12  C   UNL     1       9.760  76.162  -2.516  1.00  0.00     0.110 C 
BRANCH   8  13
ATOM     13  C   UNL     1       9.821  73.679  -4.095  1.00  0.00     0.179 C 
ATOM     14  C   UNL     1      11.317  73.285  -4.083  1.00  0.00     0.075 C 
ATOM     15  C   UNL     1       9.074  72.776  -5.105  1.00  0.00     0.075 C 
ENDBRANCH   8  13
ENDBRANCH   3   4
ENDBRANCH   1   3
BRANCH   1  16
ATOM     16  C   UNL     1       9.163  79.407  -1.841  1.00  0.00     0.155 C 
BRANCH  16  17
ATOM     17  C   UNL     1       8.259  80.550  -2.341  1.00  0.00     0.176 C 
BRANCH  17  18
ATOM     18  O   UNL     1       6.919  80.137  -2.388  1.00  0.00    -0.395 OA
ATOM     19  H   UNL     1       6.884  79.356  -3.000  1.00  0.00     0.210 HD
ENDBRANCH  17  18
ENDBRANCH  16  17
BRANCH  16  20
ATOM     20  C   UNL     1      10.160  79.888  -0.803  1.00  0.00    -0.032 A 
ATOM     21  C   UNL     1       9.845  80.989   0.014  1.00  0.00     0.005 A 
ATOM     22  C   UNL     1      11.408  79.254  -0.640  1.00  0.00     0.005 A 
ATOM     23  C   UNL     1      10.755  81.443   0.973  1.00  0.00     0.000 A 
ATOM     24  C   UNL     1      12.314  79.713   0.319  1.00  0.00     0.000 A 
ATOM     25  C   UNL     1      11.990  80.806   1.125  1.00  0.00     0.000 A 
ENDBRANCH  16  20
ENDBRANCH   1  16
TORSDOF 7
ENDMDL
MODEL 7
REMARK VINA RESULT:    -7.896      2.254      3.886
REMARK INTER + INTRA:         -12.064
REMARK INTER:                 -11.067
REMARK INTRA:                  -0.997
REMARK UNBOUND:                -1.167
REMARK SMILES CC(C)[N+]1(C)[C@@H]2CC[C@H]1C[C@@H](OC(=O)C(CO)c1ccccc1)C2
REMARK SMILES IDX 13 1 14 2 12 3 11 4 9 5 8 6 10 7 4 8 7 9 6 10 5 11 24 12
REMARK SMILES IDX 2 13 1 14 3 15 15 16 16 17 17 18 18 20 19 21 23 22 20 23
REMARK SMILES IDX 22 24 21 25
REMARK H PARENT 17 19
REMARK Flexibility Score: inf
ROOT
ATOM      1  C   UNL     1       9.568  75.620  -2.258  1.00  0.00     0.316 C 
ATOM      2  O   UNL     1       9.821  74.387  -2.170  1.00  0.00    -0.251 OA
ENDROOT
BRANCH   1   3
ATOM      3  O   UNL     1      10.584  76.568  -2.102  1.00  0.00    -0.461 OA
BRANCH   3   4
ATOM      4  C   UNL     1      10.605  77.552  -1.066  1.00  0.00     0.188 C 
ATOM      5  C   UNL     1      11.480  79.787  -2.072  1.00  0.00     0.189 C 
ATOM      6  C   UNL     1      12.215  79.016  -3.193  1.00  0.00     0.071 C 
ATOM      7  C   UNL     1      10.233  78.950  -1.653  1.00  0.00     0.110 C 
ATOM      8  N   UNL     1      12.457  79.917  -0.951  1.00  0.00    -0.319 N 
ATOM      9  C   UNL     1      13.245  78.173  -2.445  1.00  0.00     0.071 C 
ATOM     10  C   UNL     1      13.012  78.531  -0.959  1.00  0.00     0.189 C 
ATOM     11  C   UNL     1      13.532  80.895  -1.326  1.00  0.00     0.335 C 
ATOM     12  C   UNL     1      11.997  77.504  -0.369  1.00  0.00     0.110 C 
BRANCH   8  13
ATOM     13  C   UNL     1      11.845  80.347   0.375  1.00  0.00     0.179 C 
ATOM     14  C   UNL     1      12.838  80.310   1.561  1.00  0.00     0.075 C 
ATOM     15  C   UNL     1      11.172  81.739   0.330  1.00  0.00     0.075 C 
ENDBRANCH   8  13
ENDBRANCH   3   4
ENDBRANCH   1   3
BRANCH   1  16
ATOM     16  C   UNL     1       8.168  76.073  -2.573  1.00  0.00     0.155 C 
BRANCH  16  17
ATOM     17  C   UNL     1       7.576  75.256  -3.737  1.00  0.00     0.176 C 
BRANCH  17  18
ATOM     18  O   UNL     1       6.730  76.054  -4.522  1.00  0.00    -0.395 OA
ATOM     19  H   UNL     1       7.317  76.587  -5.120  1.00  0.00     0.210 HD
ENDBRANCH  17  18
ENDBRANCH  16  17
BRANCH  16  20
ATOM     20  C   UNL     1       7.299  76.000  -1.332  1.00  0.00    -0.032 A 
ATOM     21  C   UNL     1       6.503  74.863  -1.100  1.00  0.00     0.005 A 
ATOM     22  C   UNL     1       7.267  77.056  -0.399  1.00  0.00     0.005 A 
ATOM     23  C   UNL     1       5.696  74.784   0.039  1.00  0.00     0.000 A 
ATOM     24  C   UNL     1       6.458  76.971   0.737  1.00  0.00     0.000 A 
ATOM     25  C   UNL     1       5.674  75.838   0.958  1.00  0.00     0.000 A 
ENDBRANCH  16  20
ENDBRANCH   1  16
TORSDOF 7
ENDMDL
MODEL 8
REMARK VINA RESULT:    -7.889      4.686      8.006
REMARK INTER + INTRA:         -12.054
REMARK INTER:                 -11.487
REMARK INTRA:                  -0.567
REMARK UNBOUND:                -1.167
REMARK SMILES CC(C)[N+]1(C)[C@@H]2CC[C@H]1C[C@@H](OC(=O)C(CO)c1ccccc1)C2
REMARK SMILES IDX 13 1 14 2 12 3 11 4 9 5 8 6 10 7 4 8 7 9 6 10 5 11 24 12
REMARK SMILES IDX 2 13 1 14 3 15 15 16 16 17 17 18 18 20 19 21 23 22 20 23
REMARK SMILES IDX 22 24 21 25
REMARK H PARENT 17 19
REMARK Flexibility Score: inf
ROOT
ATOM      1  C   UNL     1      15.347  79.568  -5.770  1.00  0.00     0.316 C 
ATOM      2  O   UNL     1      15.729  78.543  -6.398  1.00  0.00    -0.251 OA
ENDROOT
BRANCH   1   3
ATOM      3  O   UNL     1      14.788  79.454  -4.493  1.00  0.00    -0.461 OA
BRANCH   3   4
ATOM      4  C   UNL     1      13.416  79.142  -4.247  1.00  0.00     0.188 C 
ATOM      5  C   UNL     1      12.662  80.391  -2.092  1.00  0.00     0.189 C 
ATOM      6  C   UNL     1      14.125  80.452  -1.594  1.00  0.00     0.071 C 
ATOM      7  C   UNL     1      12.687  80.387  -3.651  1.00  0.00     0.110 C 
ATOM      8  N   UNL     1      12.094  79.122  -1.547  1.00  0.00    -0.319 N 
ATOM      9  C   UNL     1      14.514  78.987  -1.414  1.00  0.00     0.071 C 
ATOM     10  C   UNL     1      13.242  78.210  -1.825  1.00  0.00     0.189 C 
ATOM     11  C   UNL     1      11.895  79.250  -0.066  1.00  0.00     0.335 C 
ATOM     12  C   UNL     1      13.353  77.874  -3.344  1.00  0.00     0.110 C 
BRANCH   8  13
ATOM     13  C   UNL     1      10.777  78.696  -2.182  1.00  0.00     0.179 C 
ATOM     14  C   UNL     1      10.302  77.289  -1.746  1.00  0.00     0.075 C 
ATOM     15  C   UNL     1       9.623  79.703  -1.963  1.00  0.00     0.075 C 
ENDBRANCH   8  13
ENDBRANCH   3   4
ENDBRANCH   1   3
BRANCH   1  16
ATOM     16  C   UNL     1      15.531  80.930  -6.383  1.00  0.00     0.155 C 
BRANCH  16  17
ATOM     17  C   UNL     1      14.640  81.972  -5.680  1.00  0.00     0.176 C 
BRANCH  17  18
ATOM     18  O   UNL     1      14.624  83.176  -6.400  1.00  0.00    -0.395 OA
ATOM     19  H   UNL     1      13.724  83.574  -6.267  1.00  0.00     0.210 HD
ENDBRANCH  17  18
ENDBRANCH  16  17
BRANCH  16  20
ATOM     20  C   UNL     1      16.995  81.327  -6.354  1.00  0.00    -0.032 A 
ATOM     21  C   UNL     1      17.703  81.307  -5.139  1.00  0.00     0.005 A 
ATOM     22  C   UNL     1      17.667  81.724  -7.528  1.00  0.00     0.005 A 
ATOM     23  C   UNL     1      19.052  81.673  -5.099  1.00  0.00     0.000 A 
ATOM     24  C   UNL     1      19.015  82.090  -7.482  1.00  0.00     0.000 A 
ATOM     25  C   UNL     1      19.708  82.064  -6.270  1.00  0.00     0.000 A 
ENDBRANCH  16  20
ENDBRANCH   1  16
TORSDOF 7
ENDMDL
MODEL 9
REMARK VINA RESULT:    -7.839      4.660      7.783
REMARK INTER + INTRA:         -11.985
REMARK INTER:                 -11.098
REMARK INTRA:                  -0.886
REMARK UNBOUND:                -1.167
REMARK SMILES CC(C)[N+]1(C)[C@@H]2CC[C@H]1C[C@@H](OC(=O)C(CO)c1ccccc1)C2
REMARK SMILES IDX 13 1 14 2 12 3 11 4 9 5 8 6 10 7 4 8 7 9 6 10 5 11 24 12
REMARK SMILES IDX 2 13 1 14 3 15 15 16 16 17 17 18 18 20 19 21 23 22 20 23
REMARK SMILES IDX 22 24 21 25
REMARK H PARENT 17 19
REMARK Flexibility Score: inf
ROOT
ATOM      1  C   UNL     1      15.281  80.399  -4.583  1.00  0.00     0.316 C 
ATOM      2  O   UNL     1      14.486  81.226  -5.108  1.00  0.00    -0.251 OA
ENDROOT
BRANCH   1   3
ATOM      3  O   UNL     1      15.256  80.163  -3.205  1.00  0.00    -0.461 OA
BRANCH   3   4
ATOM      4  C   UNL     1      14.660  79.013  -2.602  1.00  0.00     0.188 C 
ATOM      5  C   UNL     1      12.649  79.796  -1.147  1.00  0.00     0.189 C 
ATOM      6  C   UNL     1      13.278  81.201  -1.003  1.00  0.00     0.071 C 
ATOM      7  C   UNL     1      13.113  79.202  -2.512  1.00  0.00     0.110 C 
ATOM      8  N   UNL     1      13.162  78.995   0.004  1.00  0.00    -0.319 N 
ATOM      9  C   UNL     1      14.584  80.945  -0.253  1.00  0.00     0.071 C 
ATOM     10  C   UNL     1      14.594  79.415  -0.033  1.00  0.00     0.189 C 
ATOM     11  C   UNL     1      12.527  79.472   1.277  1.00  0.00     0.335 C 
ATOM     12  C   UNL     1      15.352  78.762  -1.229  1.00  0.00     0.110 C 
BRANCH   8  13
ATOM     13  C   UNL     1      12.939  77.493  -0.121  1.00  0.00     0.179 C 
ATOM     14  C   UNL     1      13.448  76.684   1.095  1.00  0.00     0.075 C 
ATOM     15  C   UNL     1      11.468  77.102  -0.402  1.00  0.00     0.075 C 
ENDBRANCH   8  13
ENDBRANCH   3   4
ENDBRANCH   1   3
BRANCH   1  16
ATOM     16  C   UNL     1      16.238  79.630  -5.452  1.00  0.00     0.155 C 
BRANCH  16  17
ATOM     17  C   UNL     1      15.476  78.745  -6.457  1.00  0.00     0.176 C 
BRANCH  17  18
ATOM     18  O   UNL     1      16.199  77.575  -6.733  1.00  0.00    -0.395 OA
ATOM     19  H   UNL     1      17.153  77.840  -6.801  1.00  0.00     0.210 HD
ENDBRANCH  17  18
ENDBRANCH  16  17
BRANCH  16  20
ATOM     20  C   UNL     1      17.196  80.579  -6.148  1.00  0.00    -0.032 A 
ATOM     21  C   UNL     1      16.970  80.945  -7.488  1.00  0.00     0.005 A 
ATOM     22  C   UNL     1      18.319  81.104  -5.479  1.00  0.00     0.005 A 
ATOM     23  C   UNL     1      17.846  81.817  -8.141  1.00  0.00     0.000 A 
ATOM     24  C   UNL     1      19.192  81.975  -6.137  1.00  0.00     0.000 A 
ATOM     25  C   UNL     1      18.957  82.332  -7.466  1.00  0.00     0.000 A 
ENDBRANCH  16  20
ENDBRANCH   1  16
TORSDOF 7
ENDMDL
MODEL 10
REMARK VINA RESULT:    -7.778      3.140      4.960
REMARK INTER + INTRA:         -11.900
REMARK INTER:                 -10.693
REMARK INTRA:                  -1.208
REMARK UNBOUND:                -1.167
REMARK SMILES CC(C)[N+]1(C)[C@@H]2CC[C@H]1C[C@@H](OC(=O)C(CO)c1ccccc1)C2
REMARK SMILES IDX 13 1 14 2 12 3 11 4 9 5 8 6 10 7 4 8 7 9 6 10 5 11 24 12
REMARK SMILES IDX 2 13 1 14 3 15 15 16 16 17 17 18 18 20 19 21 23 22 20 23
REMARK SMILES IDX 22 24 21 25
REMARK H PARENT 17 19
REMARK Flexibility Score: inf
ROOT
ATOM      1  C   UNL     1       9.408  79.569  -0.675  1.00  0.00     0.316 C 
ATOM      2  O   UNL     1       9.675  80.573   0.039  1.00  0.00    -0.251 OA
ENDROOT
BRANCH   1   3
ATOM      3  O   UNL     1      10.433  78.790  -1.223  1.00  0.00    -0.461 OA
BRANCH   3   4
ATOM      4  C   UNL     1      10.977  78.991  -2.529  1.00  0.00     0.188 C 
ATOM      5  C   UNL     1      13.448  78.175  -2.524  1.00  0.00     0.189 C 
ATOM      6  C   UNL     1      13.536  78.394  -0.996  1.00  0.00     0.071 C 
ATOM      7  C   UNL     1      11.967  77.835  -2.875  1.00  0.00     0.110 C 
ATOM      8  N   UNL     1      13.880  79.461  -3.150  1.00  0.00    -0.319 N 
ATOM      9  C   UNL     1      13.330  79.897  -0.826  1.00  0.00     0.071 C 
ATOM     10  C   UNL     1      13.139  80.413  -2.271  1.00  0.00     0.189 C 
ATOM     11  C   UNL     1      15.358  79.644  -2.964  1.00  0.00     0.335 C 
ATOM     12  C   UNL     1      11.612  80.412  -2.585  1.00  0.00     0.110 C 
BRANCH   8  13
ATOM     13  C   UNL     1      13.555  79.582  -4.633  1.00  0.00     0.179 C 
ATOM     14  C   UNL     1      13.894  80.968  -5.233  1.00  0.00     0.075 C 
ATOM     15  C   UNL     1      14.208  78.486  -5.508  1.00  0.00     0.075 C 
ENDBRANCH   8  13
ENDBRANCH   3   4
ENDBRANCH   1   3
BRANCH   1  16
ATOM     16  C   UNL     1       7.973  79.181  -0.909  1.00  0.00     0.155 C 
BRANCH  16  17
ATOM     17  C   UNL     1       7.330  80.081  -1.982  1.00  0.00     0.176 C 
BRANCH  17  18
ATOM     18  O   UNL     1       8.312  80.808  -2.672  1.00  0.00    -0.395 OA
ATOM     19  H   UNL     1       8.203  80.589  -3.634  1.00  0.00     0.210 HD
ENDBRANCH  17  18
ENDBRANCH  16  17
BRANCH  16  20
ATOM     20  C   UNL     1       7.877  77.711  -1.274  1.00  0.00    -0.032 A 
ATOM     21  C   UNL     1       7.864  77.323  -2.626  1.00  0.00     0.005 A 
ATOM     22  C   UNL     1       7.796  76.716  -0.279  1.00  0.00     0.005 A 
ATOM     23  C   UNL     1       7.774  75.973  -2.975  1.00  0.00     0.000 A 
ATOM     24  C   UNL     1       7.705  75.367  -0.634  1.00  0.00     0.000 A 
ATOM     25  C   UNL     1       7.695  74.995  -1.979  1.00  0.00     0.000 A 
ENDBRANCH  16  20
ENDBRANCH   1  16
TORSDOF 7
ENDMDL
MODEL 11
REMARK VINA RESULT:    -7.753      2.532      6.316
REMARK INTER + INTRA:         -11.866
REMARK INTER:                 -10.595
REMARK INTRA:                  -1.272
REMARK UNBOUND:                -1.167
REMARK SMILES CC(C)[N+]1(C)[C@@H]2CC[C@H]1C[C@@H](OC(=O)C(CO)c1ccccc1)C2
REMARK SMILES IDX 13 1 14 2 12 3 11 4 9 5 8 6 10 7 4 8 7 9 6 10 5 11 24 12
REMARK SMILES IDX 2 13 1 14 3 15 15 16 16 17 17 18 18 20 19 21 23 22 20 23
REMARK SMILES IDX 22 24 21 25
REMARK H PARENT 17 19
REMARK Flexibility Score: inf
ROOT
ATOM      1  C   UNL     1      11.277  79.262  -1.531  1.00  0.00     0.316 C 
ATOM      2  O   UNL     1      10.419  80.048  -2.017  1.00  0.00    -0.251 OA
ENDROOT
BRANCH   1   3
ATOM      3  O   UNL     1      10.881  78.080  -0.895  1.00  0.00    -0.461 OA
BRANCH   3   4
ATOM      4  C   UNL     1      10.845  76.803  -1.535  1.00  0.00     0.188 C 
ATOM      5  C   UNL     1       8.533  76.533  -2.700  1.00  0.00     0.189 C 
ATOM      6  C   UNL     1       7.902  77.553  -1.725  1.00  0.00     0.071 C 
ATOM      7  C   UNL     1      10.039  76.900  -2.869  1.00  0.00     0.110 C 
ATOM      8  N   UNL     1       8.362  75.193  -2.063  1.00  0.00    -0.319 N 
ATOM      9  C   UNL     1       8.041  76.889  -0.357  1.00  0.00     0.071 C 
ATOM     10  C   UNL     1       8.741  75.546  -0.663  1.00  0.00     0.189 C 
ATOM     11  C   UNL     1       6.917  74.790  -2.110  1.00  0.00     0.335 C 
ATOM     12  C   UNL     1      10.279  75.762  -0.524  1.00  0.00     0.110 C 
BRANCH   8  13
ATOM     13  C   UNL     1       9.199  74.084  -2.687  1.00  0.00     0.179 C 
ATOM     14  C   UNL     1       9.306  72.815  -1.808  1.00  0.00     0.075 C 
ATOM     15  C   UNL     1       8.736  73.673  -4.105  1.00  0.00     0.075 C 
ENDBRANCH   8  13
ENDBRANCH   3   4
ENDBRANCH   1   3
BRANCH   1  16
ATOM     16  C   UNL     1      12.741  79.577  -1.670  1.00  0.00     0.155 C 
BRANCH  16  17
ATOM     17  C   UNL     1      13.572  78.783  -0.645  1.00  0.00     0.176 C 
BRANCH  17  18
ATOM     18  O   UNL     1      13.154  79.072   0.663  1.00  0.00    -0.395 OA
ATOM     19  H   UNL     1      13.464  79.994   0.863  1.00  0.00     0.210 HD
ENDBRANCH  17  18
ENDBRANCH  16  17
BRANCH  16  20
ATOM     20  C   UNL     1      13.203  79.320  -3.092  1.00  0.00    -0.032 A 
ATOM     21  C   UNL     1      13.398  80.400  -3.972  1.00  0.00     0.005 A 
ATOM     22  C   UNL     1      13.438  78.011  -3.558  1.00  0.00     0.005 A 
ATOM     23  C   UNL     1      13.822  80.177  -5.285  1.00  0.00     0.000 A 
ATOM     24  C   UNL     1      13.861  77.794  -4.872  1.00  0.00     0.000 A 
ATOM     25  C   UNL     1      14.053  78.874  -5.735  1.00  0.00     0.000 A 
ENDBRANCH  16  20
ENDBRANCH   1  16
TORSDOF 7
ENDMDL
MODEL 12
REMARK VINA RESULT:    -7.743      4.459      7.684
REMARK INTER + INTRA:         -11.853
REMARK INTER:                 -10.854
REMARK INTRA:                  -0.999
REMARK UNBOUND:                -1.167
REMARK SMILES CC(C)[N+]1(C)[C@@H]2CC[C@H]1C[C@@H](OC(=O)C(CO)c1ccccc1)C2
REMARK SMILES IDX 13 1 14 2 12 3 11 4 9 5 8 6 10 7 4 8 7 9 6 10 5 11 24 12
REMARK SMILES IDX 2 13 1 14 3 15 15 16 16 17 17 18 18 20 19 21 23 22 20 23
REMARK SMILES IDX 22 24 21 25
REMARK H PARENT 17 19
REMARK Flexibility Score: inf
ROOT
ATOM      1  C   UNL     1      14.742  80.893  -5.040  1.00  0.00     0.316 C 
ATOM      2  O   UNL     1      14.623  82.003  -5.627  1.00  0.00    -0.251 OA
ENDROOT
BRANCH   1   3
ATOM      3  O   UNL     1      13.819  80.500  -4.065  1.00  0.00    -0.461 OA
BRANCH   3   4
ATOM      4  C   UNL     1      14.164  80.215  -2.708  1.00  0.00     0.188 C 
ATOM      5  C   UNL     1      13.070  77.950  -2.041  1.00  0.00     0.189 C 
ATOM      6  C   UNL     1      11.989  78.130  -3.132  1.00  0.00     0.071 C 
ATOM      7  C   UNL     1      14.362  78.678  -2.522  1.00  0.00     0.110 C 
ATOM      8  N   UNL     1      12.515  78.575  -0.803  1.00  0.00    -0.319 N 
ATOM      9  C   UNL     1      11.237  79.386  -2.700  1.00  0.00     0.071 C 
ATOM     10  C   UNL     1      11.951  79.822  -1.400  1.00  0.00     0.189 C 
ATOM     11  C   UNL     1      11.405  77.725  -0.260  1.00  0.00     0.335 C 
ATOM     12  C   UNL     1      13.074  80.833  -1.783  1.00  0.00     0.110 C 
BRANCH   8  13
ATOM     13  C   UNL     1      13.538  78.808   0.301  1.00  0.00     0.179 C 
ATOM     14  C   UNL     1      13.016  79.694   1.457  1.00  0.00     0.075 C 
ATOM     15  C   UNL     1      14.123  77.505   0.895  1.00  0.00     0.075 C 
ENDBRANCH   8  13
ENDBRANCH   3   4
ENDBRANCH   1   3
BRANCH   1  16
ATOM     16  C   UNL     1      15.865  79.967  -5.419  1.00  0.00     0.155 C 
BRANCH  16  17
ATOM     17  C   UNL     1      15.361  78.845  -6.347  1.00  0.00     0.176 C 
BRANCH  17  18
ATOM     18  O   UNL     1      14.021  78.537  -6.068  1.00  0.00    -0.395 OA
ATOM     19  H   UNL     1      13.973  78.328  -5.098  1.00  0.00     0.210 HD
ENDBRANCH  17  18
ENDBRANCH  16  17
BRANCH  16  20
ATOM     20  C   UNL     1      17.004  80.749  -6.046  1.00  0.00    -0.032 A 
ATOM     21  C   UNL     1      18.045  81.242  -5.238  1.00  0.00     0.005 A 
ATOM     22  C   UNL     1      17.042  80.999  -7.433  1.00  0.00     0.005 A 
ATOM     23  C   UNL     1      19.099  81.965  -5.803  1.00  0.00     0.000 A 
ATOM     24  C   UNL     1      18.098  81.723  -7.992  1.00  0.00     0.000 A 
ATOM     25  C   UNL     1      19.126  82.206  -7.180  1.00  0.00     0.000 A 
ENDBRANCH  16  20
ENDBRANCH   1  16
TORSDOF 7
ENDMDL
MODEL 13
REMARK VINA RESULT:    -7.697      2.189      3.079
REMARK INTER + INTRA:         -11.789
REMARK INTER:                 -10.491
REMARK INTRA:                  -1.298
REMARK UNBOUND:                -1.167
REMARK SMILES CC(C)[N+]1(C)[C@@H]2CC[C@H]1C[C@@H](OC(=O)C(CO)c1ccccc1)C2
REMARK SMILES IDX 13 1 14 2 12 3 11 4 9 5 8 6 10 7 4 8 7 9 6 10 5 11 24 12
REMARK SMILES IDX 2 13 1 14 3 15 15 16 16 17 17 18 18 20 19 21 23 22 20 23
REMARK SMILES IDX 22 24 21 25
REMARK H PARENT 17 19
REMARK Flexibility Score: inf
ROOT
ATOM      1  C   UNL     1       8.272  78.263  -1.254  1.00  0.00     0.316 C 
ATOM      2  O   UNL     1       7.242  78.952  -1.492  1.00  0.00    -0.251 OA
ENDROOT
BRANCH   1   3
ATOM      3  O   UNL     1       9.543  78.742  -1.590  1.00  0.00    -0.461 OA
BRANCH   3   4
ATOM      4  C   UNL     1      10.578  78.994  -0.638  1.00  0.00     0.188 C 
ATOM      5  C   UNL     1      12.482  80.312  -1.825  1.00  0.00     0.189 C 
ATOM      6  C   UNL     1      12.041  79.751  -3.196  1.00  0.00     0.071 C 
ATOM      7  C   UNL     1      11.221  80.390  -0.911  1.00  0.00     0.110 C 
ATOM      8  N   UNL     1      13.491  79.349  -1.290  1.00  0.00    -0.319 N 
ATOM      9  C   UNL     1      12.255  78.244  -3.063  1.00  0.00     0.071 C 
ATOM     10  C   UNL     1      12.799  78.070  -1.627  1.00  0.00     0.189 C 
ATOM     11  C   UNL     1      14.764  79.458  -2.076  1.00  0.00     0.335 C 
ATOM     12  C   UNL     1      11.587  77.808  -0.681  1.00  0.00     0.110 C 
BRANCH   8  13
ATOM     13  C   UNL     1      13.812  79.525   0.188  1.00  0.00     0.179 C 
ATOM     14  C   UNL     1      14.559  78.322   0.811  1.00  0.00     0.075 C 
ATOM     15  C   UNL     1      14.598  80.820   0.506  1.00  0.00     0.075 C 
ENDBRANCH   8  13
ENDBRANCH   3   4
ENDBRANCH   1   3
BRANCH   1  16
ATOM     16  C   UNL     1       8.136  76.931  -0.569  1.00  0.00     0.155 C 
BRANCH  16  17
ATOM     17  C   UNL     1       6.769  76.813   0.133  1.00  0.00     0.176 C 
BRANCH  17  18
ATOM     18  O   UNL     1       6.648  77.775   1.147  1.00  0.00    -0.395 OA
ATOM     19  H   UNL     1       5.683  77.997   1.214  1.00  0.00     0.210 HD
ENDBRANCH  17  18
ENDBRANCH  16  17
BRANCH  16  20
ATOM     20  C   UNL     1       8.361  75.804  -1.558  1.00  0.00    -0.032 A 
ATOM     21  C   UNL     1       9.404  74.884  -1.347  1.00  0.00     0.005 A 
ATOM     22  C   UNL     1       7.545  75.658  -2.698  1.00  0.00     0.005 A 
ATOM     23  C   UNL     1       9.624  73.841  -2.253  1.00  0.00     0.000 A 
ATOM     24  C   UNL     1       7.770  74.614  -3.600  1.00  0.00     0.000 A 
ATOM     25  C   UNL     1       8.807  73.707  -3.379  1.00  0.00     0.000 A 
ENDBRANCH  16  20
ENDBRANCH   1  16
TORSDOF 7
ENDMDL
MODEL 14
REMARK VINA RESULT:    -7.689      2.659      4.827
REMARK INTER + INTRA:         -11.778
REMARK INTER:                 -10.418
REMARK INTRA:                  -1.360
REMARK UNBOUND:                -1.167
REMARK SMILES CC(C)[N+]1(C)[C@@H]2CC[C@H]1C[C@@H](OC(=O)C(CO)c1ccccc1)C2
REMARK SMILES IDX 13 1 14 2 12 3 11 4 9 5 8 6 10 7 4 8 7 9 6 10 5 11 24 12
REMARK SMILES IDX 2 13 1 14 3 15 15 16 16 17 17 18 18 20 19 21 23 22 20 23
REMARK SMILES IDX 22 24 21 25
REMARK H PARENT 17 19
REMARK Flexibility Score: inf
ROOT
ATOM      1  C   UNL     1       9.559  76.153  -2.274  1.00  0.00     0.316 C 
ATOM      2  O   UNL     1       9.954  75.114  -2.870  1.00  0.00    -0.251 OA
ENDROOT
BRANCH   1   3
ATOM      3  O   UNL     1      10.373  76.784  -1.328  1.00  0.00    -0.461 OA
BRANCH   3   4
ATOM      4  C   UNL     1      11.760  77.062  -1.527  1.00  0.00     0.188 C 
ATOM      5  C   UNL     1      12.362  79.225  -0.211  1.00  0.00     0.189 C 
ATOM      6  C   UNL     1      10.888  79.689  -0.266  1.00  0.00     0.071 C 
ATOM      7  C   UNL     1      12.373  77.666  -0.224  1.00  0.00     0.110 C 
ATOM      8  N   UNL     1      13.018  79.791  -1.427  1.00  0.00    -0.319 N 
ATOM      9  C   UNL     1      10.614  79.871  -1.757  1.00  0.00     0.071 C 
ATOM     10  C   UNL     1      11.953  79.493  -2.431  1.00  0.00     0.189 C 
ATOM     11  C   UNL     1      13.172  81.275  -1.277  1.00  0.00     0.335 C 
ATOM     12  C   UNL     1      11.904  77.974  -2.781  1.00  0.00     0.110 C 
BRANCH   8  13
ATOM     13  C   UNL     1      14.379  79.188  -1.750  1.00  0.00     0.179 C 
ATOM     14  C   UNL     1      15.034  79.775  -3.023  1.00  0.00     0.075 C 
ATOM     15  C   UNL     1      15.391  79.271  -0.583  1.00  0.00     0.075 C 
ENDBRANCH   8  13
ENDBRANCH   3   4
ENDBRANCH   1   3
BRANCH   1  16
ATOM     16  C   UNL     1       8.216  76.742  -2.612  1.00  0.00     0.155 C 
BRANCH  16  17
ATOM     17  C   UNL     1       7.342  75.719  -3.362  1.00  0.00     0.176 C 
BRANCH  17  18
ATOM     18  O   UNL     1       6.794  76.291  -4.519  1.00  0.00    -0.395 OA
ATOM     19  H   UNL     1       7.498  76.250  -5.218  1.00  0.00     0.210 HD
ENDBRANCH  17  18
ENDBRANCH  16  17
BRANCH  16  20
ATOM     20  C   UNL     1       7.535  77.254  -1.357  1.00  0.00    -0.032 A 
ATOM     21  C   UNL     1       6.983  76.343  -0.437  1.00  0.00     0.005 A 
ATOM     22  C   UNL     1       7.438  78.634  -1.090  1.00  0.00     0.005 A 
ATOM     23  C   UNL     1       6.351  76.803   0.722  1.00  0.00     0.000 A 
ATOM     24  C   UNL     1       6.804  79.088   0.070  1.00  0.00     0.000 A 
ATOM     25  C   UNL     1       6.261  78.174   0.976  1.00  0.00     0.000 A 
ENDBRANCH  16  20
ENDBRANCH   1  16
TORSDOF 7
ENDMDL
MODEL 15
REMARK VINA RESULT:    -7.603      2.661      6.992
REMARK INTER + INTRA:         -11.660
REMARK INTER:                  -9.970
REMARK INTRA:                  -1.690
REMARK UNBOUND:                -1.167
REMARK SMILES CC(C)[N+]1(C)[C@@H]2CC[C@H]1C[C@@H](OC(=O)C(CO)c1ccccc1)C2
REMARK SMILES IDX 13 1 14 2 12 3 11 4 9 5 8 6 10 7 4 8 7 9 6 10 5 11 24 12
REMARK SMILES IDX 2 13 1 14 3 15 15 16 16 17 17 18 18 20 19 21 23 22 20 23
REMARK SMILES IDX 22 24 21 25
REMARK H PARENT 17 19
REMARK Flexibility Score: inf
ROOT
ATOM      1  C   UNL     1      12.029  78.419  -0.453  1.00  0.00     0.316 C 
ATOM      2  O   UNL     1      13.211  77.978  -0.435  1.00  0.00    -0.251 OA
ENDROOT
BRANCH   1   3
ATOM      3  O   UNL     1      10.941  77.541  -0.495  1.00  0.00    -0.461 OA
BRANCH   3   4
ATOM      4  C   UNL     1      10.894  76.368  -1.311  1.00  0.00     0.188 C 
ATOM      5  C   UNL     1       8.628  76.351  -2.592  1.00  0.00     0.189 C 
ATOM      6  C   UNL     1       7.987  77.246  -1.507  1.00  0.00     0.071 C 
ATOM      7  C   UNL     1      10.151  76.682  -2.648  1.00  0.00     0.110 C 
ATOM      8  N   UNL     1       8.387  74.942  -2.159  1.00  0.00    -0.319 N 
ATOM      9  C   UNL     1       8.045  76.392  -0.243  1.00  0.00     0.071 C 
ATOM     10  C   UNL     1       8.716  75.080  -0.709  1.00  0.00     0.189 C 
ATOM     11  C   UNL     1       6.934  74.603  -2.319  1.00  0.00     0.335 C 
ATOM     12  C   UNL     1      10.252  75.217  -0.481  1.00  0.00     0.110 C 
BRANCH   8  13
ATOM     13  C   UNL     1       9.216  73.902  -2.901  1.00  0.00     0.179 C 
ATOM     14  C   UNL     1       9.369  72.565  -2.135  1.00  0.00     0.075 C 
ATOM     15  C   UNL     1       8.709  73.603  -4.332  1.00  0.00     0.075 C 
ENDBRANCH   8  13
ENDBRANCH   3   4
ENDBRANCH   1   3
BRANCH   1  16
ATOM     16  C   UNL     1      11.786  79.902  -0.388  1.00  0.00     0.155 C 
BRANCH  16  17
ATOM     17  C   UNL     1      12.878  80.670  -1.156  1.00  0.00     0.176 C 
BRANCH  17  18
ATOM     18  O   UNL     1      14.054  80.753  -0.395  1.00  0.00    -0.395 OA
ATOM     19  H   UNL     1      13.861  80.312   0.474  1.00  0.00     0.210 HD
ENDBRANCH  17  18
ENDBRANCH  16  17
BRANCH  16  20
ATOM     20  C   UNL     1      10.397  80.231  -0.901  1.00  0.00    -0.032 A 
ATOM     21  C   UNL     1       9.324  80.343   0.002  1.00  0.00     0.005 A 
ATOM     22  C   UNL     1      10.154  80.425  -2.276  1.00  0.00     0.005 A 
ATOM     23  C   UNL     1       8.039  80.644  -0.459  1.00  0.00     0.000 A 
ATOM     24  C   UNL     1       8.867  80.725  -2.731  1.00  0.00     0.000 A 
ATOM     25  C   UNL     1       7.810  80.835  -1.825  1.00  0.00     0.000 A 
ENDBRANCH  16  20
ENDBRANCH   1  16
TORSDOF 7
ENDMDL
