MODEL 1
REMARK VINA RESULT:    -1.087      0.000      0.000
REMARK INTER + INTRA:          -1.087
REMARK INTER:                  -1.087
REMARK INTRA:                   0.000
REMARK UNBOUND:                 0.000
REMARK SMILES C[N+]1(C)C2CCC1CC(OC(=O)C(O)c1ccccc1)C2.[Br-]
REMARK SMILES IDX 22 1
REMARK H PARENT
REMARK Flexibility Score: inf
ROOT
ATOM      1  Br  UNL     1      15.202  11.512   2.793  1.00  0.00    -1.000 Br
ENDROOT
TORSDOF 0
ENDMDL
MODEL 2
REMARK VINA RESULT:    -1.073      2.105      2.105
REMARK INTER + INTRA:          -1.073
REMARK INTER:                  -1.073
REMARK INTRA:                   0.000
REMARK UNBOUND:                 0.000
REMARK SMILES C[N+]1(C)C2CCC1CC(OC(=O)C(O)c1ccccc1)C2.[Br-]
REMARK SMILES IDX 22 1
REMARK H PARENT
REMARK Flexibility Score: inf
ROOT
ATOM      1  Br  UNL     1      14.553  11.338   0.798  1.00  0.00    -1.000 Br
ENDROOT
TORSDOF 0
ENDMDL
MODEL 3
REMARK VINA RESULT:    -1.001     13.651     13.651
REMARK INTER + INTRA:          -1.001
REMARK INTER:                  -1.001
REMARK INTRA:                   0.000
REMARK UNBOUND:                 0.000
REMARK SMILES C[N+]1(C)C2CCC1CC(OC(=O)C(O)c1ccccc1)C2.[Br-]
REMARK SMILES IDX 22 1
REMARK H PARENT
REMARK Flexibility Score: inf
ROOT
ATOM      1  Br  UNL     1      13.753   8.839  16.101  1.00  0.00    -1.000 Br
ENDROOT
TORSDOF 0
ENDMDL
MODEL 4
REMARK VINA RESULT:    -0.919     21.819     21.819
REMARK INTER + INTRA:          -0.919
REMARK INTER:                  -0.919
REMARK INTRA:                   0.000
REMARK UNBOUND:                 0.000
REMARK SMILES C[N+]1(C)C2CCC1CC(OC(=O)C(O)c1ccccc1)C2.[Br-]
REMARK SMILES IDX 22 1
REMARK H PARENT
REMARK Flexibility Score: inf
ROOT
ATOM      1  Br  UNL     1      13.109   5.222  23.580  1.00  0.00    -1.000 Br
ENDROOT
TORSDOF 0
ENDMDL
MODEL 5
REMARK VINA RESULT:    -0.869     29.674     29.674
REMARK INTER + INTRA:          -0.869
REMARK INTER:                  -0.869
REMARK INTRA:                   0.000
REMARK UNBOUND:                 0.000
REMARK SMILES C[N+]1(C)C2CCC1CC(OC(=O)C(O)c1ccccc1)C2.[Br-]
REMARK SMILES IDX 22 1
REMARK H PARENT
REMARK Flexibility Score: inf
ROOT
ATOM      1  Br  UNL     1      -2.876   8.701  26.155  1.00  0.00    -1.000 Br
ENDROOT
TORSDOF 0
ENDMDL
MODEL 6
REMARK VINA RESULT:    -0.867      8.894      8.894
REMARK INTER + INTRA:          -0.867
REMARK INTER:                  -0.867
REMARK INTRA:                   0.000
REMARK UNBOUND:                 0.000
REMARK SMILES C[N+]1(C)C2CCC1CC(OC(=O)C(O)c1ccccc1)C2.[Br-]
REMARK SMILES IDX 22 1
REMARK H PARENT
REMARK Flexibility Score: inf
ROOT
ATOM      1  Br  UNL     1      13.236  13.184  11.304  1.00  0.00    -1.000 Br
ENDROOT
TORSDOF 0
ENDMDL
MODEL 7
REMARK VINA RESULT:    -0.857     14.157     14.157
REMARK INTER + INTRA:          -0.857
REMARK INTER:                  -0.857
REMARK INTRA:                   0.000
REMARK UNBOUND:                 0.000
REMARK SMILES C[N+]1(C)C2CCC1CC(OC(=O)C(O)c1ccccc1)C2.[Br-]
REMARK SMILES IDX 22 1
REMARK H PARENT
REMARK Flexibility Score: inf
ROOT
ATOM      1  Br  UNL     1      14.008  10.620  16.870  1.00  0.00    -1.000 Br
ENDROOT
TORSDOF 0
ENDMDL
MODEL 8
REMARK VINA RESULT:    -0.825     28.371     28.371
REMARK INTER + INTRA:          -0.825
REMARK INTER:                  -0.825
REMARK INTRA:                   0.000
REMARK UNBOUND:                 0.000
REMARK SMILES C[N+]1(C)C2CCC1CC(OC(=O)C(O)c1ccccc1)C2.[Br-]
REMARK SMILES IDX 22 1
REMARK H PARENT
REMARK Flexibility Score: inf
ROOT
ATOM      1  Br  UNL     1      -0.352  10.086  26.476  1.00  0.00    -1.000 Br
ENDROOT
TORSDOF 0
ENDMDL
MODEL 9
REMARK VINA RESULT:    -0.798     27.913     27.913
REMARK INTER + INTRA:          -0.798
REMARK INTER:                  -0.798
REMARK INTRA:                   0.000
REMARK UNBOUND:                 0.000
REMARK SMILES C[N+]1(C)C2CCC1CC(OC(=O)C(O)c1ccccc1)C2.[Br-]
REMARK SMILES IDX 22 1
REMARK H PARENT
REMARK Flexibility Score: inf
ROOT
ATOM      1  Br  UNL     1      -2.919  10.915  24.015  1.00  0.00    -1.000 Br
ENDROOT
TORSDOF 0
ENDMDL
MODEL 10
REMARK VINA RESULT:    -0.796      8.632      8.632
REMARK INTER + INTRA:          -0.796
REMARK INTER:                  -0.796
REMARK INTRA:                   0.000
REMARK UNBOUND:                 0.000
REMARK SMILES C[N+]1(C)C2CCC1CC(OC(=O)C(O)c1ccccc1)C2.[Br-]
REMARK SMILES IDX 22 1
REMARK H PARENT
REMARK Flexibility Score: inf
ROOT
ATOM      1  Br  UNL     1      22.444   8.995  -1.173  1.00  0.00    -1.000 Br
ENDROOT
TORSDOF 0
ENDMDL
MODEL 11
REMARK VINA RESULT:    -0.788      8.530      8.530
REMARK INTER + INTRA:          -0.788
REMARK INTER:                  -0.788
REMARK INTRA:                   0.000
REMARK UNBOUND:                 0.000
REMARK SMILES C[N+]1(C)C2CCC1CC(OC(=O)C(O)c1ccccc1)C2.[Br-]
REMARK SMILES IDX 22 1
REMARK H PARENT
REMARK Flexibility Score: inf
ROOT
ATOM      1  Br  UNL     1      22.864  12.438   6.427  1.00  0.00    -1.000 Br
ENDROOT
TORSDOF 0
ENDMDL
MODEL 12
REMARK VINA RESULT:    -0.784      2.787      2.787
REMARK INTER + INTRA:          -0.784
REMARK INTER:                  -0.784
REMARK INTRA:                   0.000
REMARK UNBOUND:                 0.000
REMARK SMILES C[N+]1(C)C2CCC1CC(OC(=O)C(O)c1ccccc1)C2.[Br-]
REMARK SMILES IDX 22 1
REMARK H PARENT
REMARK Flexibility Score: inf
ROOT
ATOM      1  Br  UNL     1      15.075  12.408   0.157  1.00  0.00    -1.000 Br
ENDROOT
TORSDOF 0
ENDMDL
MODEL 13
REMARK VINA RESULT:    -0.762     21.247     21.247
REMARK INTER + INTRA:          -0.762
REMARK INTER:                  -0.762
REMARK INTRA:                   0.000
REMARK UNBOUND:                 0.000
REMARK SMILES C[N+]1(C)C2CCC1CC(OC(=O)C(O)c1ccccc1)C2.[Br-]
REMARK SMILES IDX 22 1
REMARK H PARENT
REMARK Flexibility Score: inf
ROOT
ATOM      1  Br  UNL     1      18.413   6.421  23.169  1.00  0.00    -1.000 Br
ENDROOT
TORSDOF 0
ENDMDL
MODEL 14
REMARK VINA RESULT:    -0.744     12.664     12.664
REMARK INTER + INTRA:          -0.744
REMARK INTER:                  -0.744
REMARK INTRA:                   0.000
REMARK UNBOUND:                 0.000
REMARK SMILES C[N+]1(C)C2CCC1CC(OC(=O)C(O)c1ccccc1)C2.[Br-]
REMARK SMILES IDX 22 1
REMARK H PARENT
REMARK Flexibility Score: inf
ROOT
ATOM      1  Br  UNL     1      21.154   2.247   9.046  1.00  0.00    -1.000 Br
ENDROOT
TORSDOF 0
ENDMDL
