MODEL 1
REMARK VINA RESULT:    -7.069      0.000      0.000
REMARK INTER + INTRA:          -9.392
REMARK INTER:                  -9.136
REMARK INTRA:                  -0.256
REMARK UNBOUND:                -0.256
REMARK SMILES C=CCC1(C(C)CCC)C(=O)NC(=O)NC1=O
REMARK SMILES IDX 4 1 10 2 11 3 12 4 13 5 14 6 15 7 16 8 17 9 5 12 6 13 7 14
REMARK SMILES IDX 8 15 9 16 3 17 2 18 1 19
REMARK H PARENT 12 10 15 11
REMARK Flexibility Score: inf
ROOT
ATOM      1  C   UNL     1      23.104  38.333  -6.480  1.00  0.00     0.134 C 
ATOM      2  C   UNL     1      23.049  39.455  -7.521  1.00  0.00     0.244 C 
ATOM      3  O   UNL     1      23.833  40.437  -7.414  1.00  0.00    -0.273 OA
ATOM      4  N   UNL     1      22.179  39.400  -8.655  1.00  0.00    -0.277 N 
ATOM      5  C   UNL     1      21.231  38.352  -8.813  1.00  0.00     0.328 C 
ATOM      6  O   UNL     1      20.469  38.339  -9.816  1.00  0.00    -0.248 OA
ATOM      7  N   UNL     1      21.137  37.324  -7.835  1.00  0.00    -0.277 N 
ATOM      8  C   UNL     1      22.019  37.279  -6.710  1.00  0.00     0.244 C 
ATOM      9  O   UNL     1      21.918  36.308  -5.911  1.00  0.00    -0.273 OA
ATOM     10  H   UNL     1      22.224  40.161  -9.371  1.00  0.00     0.174 HD
ATOM     11  H   UNL     1      20.422  36.573  -7.953  1.00  0.00     0.174 HD
ENDROOT
BRANCH   1  12
ATOM     12  C   UNL     1      22.955  38.979  -5.033  1.00  0.00     0.011 C 
ATOM     13  C   UNL     1      23.993  38.468  -4.007  1.00  0.00     0.009 C 
BRANCH  12  14
ATOM     14  C   UNL     1      21.537  38.841  -4.401  1.00  0.00     0.005 C 
BRANCH  14  15
ATOM     15  C   UNL     1      20.506  39.850  -4.929  1.00  0.00    -0.003 C 
ATOM     16  C   UNL     1      19.301  39.950  -3.997  1.00  0.00     0.004 C 
ENDBRANCH  14  15
ENDBRANCH  12  14
ENDBRANCH   1  12
BRANCH   1  17
ATOM     17  C   UNL     1      24.492  37.636  -6.650  1.00  0.00     0.054 C 
BRANCH  17  18
ATOM     18  C   UNL     1      24.628  36.901  -7.965  1.00  0.00    -0.033 C 
ATOM     19  C   UNL     1      25.165  35.680  -8.041  1.00  0.00     0.004 C 
ENDBRANCH  17  18
ENDBRANCH   1  17
TORSDOF 5
ENDMDL
MODEL 2
REMARK VINA RESULT:    -6.870      1.354      4.252
REMARK INTER + INTRA:          -9.134
REMARK INTER:                  -8.835
REMARK INTRA:                  -0.299
REMARK UNBOUND:                -0.256
REMARK SMILES C=CCC1(C(C)CCC)C(=O)NC(=O)NC1=O
REMARK SMILES IDX 4 1 10 2 11 3 12 4 13 5 14 6 15 7 16 8 17 9 5 12 6 13 7 14
REMARK SMILES IDX 8 15 9 16 3 17 2 18 1 19
REMARK H PARENT 12 10 15 11
REMARK Flexibility Score: inf
ROOT
ATOM      1  C   UNL     1      23.008  38.263  -6.215  1.00  0.00     0.134 C 
ATOM      2  C   UNL     1      22.002  37.179  -6.613  1.00  0.00     0.244 C 
ATOM      3  O   UNL     1      21.877  36.155  -5.887  1.00  0.00    -0.273 OA
ATOM      4  N   UNL     1      21.144  37.316  -7.749  1.00  0.00    -0.277 N 
ATOM      5  C   UNL     1      21.265  38.417  -8.642  1.00  0.00     0.328 C 
ATOM      6  O   UNL     1      20.505  38.502  -9.642  1.00  0.00    -0.248 OA
ATOM      7  N   UNL     1      22.250  39.416  -8.409  1.00  0.00    -0.277 N 
ATOM      8  C   UNL     1      23.098  39.379  -7.258  1.00  0.00     0.244 C 
ATOM      9  O   UNL     1      23.911  40.327  -7.084  1.00  0.00    -0.273 OA
ATOM     10  H   UNL     1      20.430  36.578  -7.943  1.00  0.00     0.174 HD
ATOM     11  H   UNL     1      22.342  40.208  -9.085  1.00  0.00     0.174 HD
ENDROOT
BRANCH   1  12
ATOM     12  C   UNL     1      24.432  37.579  -6.009  1.00  0.00     0.011 C 
ATOM     13  C   UNL     1      24.756  36.478  -7.045  1.00  0.00     0.009 C 
BRANCH  12  14
ATOM     14  C   UNL     1      24.674  36.994  -4.584  1.00  0.00     0.005 C 
BRANCH  14  15
ATOM     15  C   UNL     1      26.068  36.384  -4.377  1.00  0.00    -0.003 C 
ATOM     16  C   UNL     1      25.988  35.065  -3.613  1.00  0.00     0.004 C 
ENDBRANCH  14  15
ENDBRANCH  12  14
ENDBRANCH   1  12
BRANCH   1  17
ATOM     17  C   UNL     1      22.484  38.892  -4.885  1.00  0.00     0.054 C 
BRANCH  17  18
ATOM     18  C   UNL     1      21.121  39.532  -5.030  1.00  0.00    -0.033 C 
ATOM     19  C   UNL     1      20.232  39.536  -4.032  1.00  0.00     0.004 C 
ENDBRANCH  17  18
ENDBRANCH   1  17
TORSDOF 5
ENDMDL
MODEL 3
REMARK VINA RESULT:    -6.776      2.018      3.811
REMARK INTER + INTRA:          -9.012
REMARK INTER:                  -8.673
REMARK INTRA:                  -0.340
REMARK UNBOUND:                -0.256
REMARK SMILES C=CCC1(C(C)CCC)C(=O)NC(=O)NC1=O
REMARK SMILES IDX 4 1 10 2 11 3 12 4 13 5 14 6 15 7 16 8 17 9 5 12 6 13 7 14
REMARK SMILES IDX 8 15 9 16 3 17 2 18 1 19
REMARK H PARENT 12 10 15 11
REMARK Flexibility Score: inf
ROOT
ATOM      1  C   UNL     1      23.200  37.566  -6.948  1.00  0.00     0.134 C 
ATOM      2  C   UNL     1      23.315  39.089  -7.063  1.00  0.00     0.244 C 
ATOM      3  O   UNL     1      24.246  39.588  -7.752  1.00  0.00    -0.273 OA
ATOM      4  N   UNL     1      22.361  39.972  -6.467  1.00  0.00    -0.277 N 
ATOM      5  C   UNL     1      21.318  39.484  -5.632  1.00  0.00     0.328 C 
ATOM      6  O   UNL     1      20.501  40.289  -5.110  1.00  0.00    -0.248 OA
ATOM      7  N   UNL     1      21.202  38.089  -5.381  1.00  0.00    -0.277 N 
ATOM      8  C   UNL     1      22.079  37.142  -5.996  1.00  0.00     0.244 C 
ATOM      9  O   UNL     1      21.884  35.916  -5.773  1.00  0.00    -0.273 OA
ATOM     10  H   UNL     1      22.448  41.002  -6.627  1.00  0.00     0.174 HD
ATOM     11  H   UNL     1      20.443  37.747  -4.749  1.00  0.00     0.174 HD
ENDROOT
BRANCH   1  12
ATOM     12  C   UNL     1      24.599  36.989  -6.451  1.00  0.00     0.011 C 
ATOM     13  C   UNL     1      24.997  35.649  -7.112  1.00  0.00     0.009 C 
BRANCH  12  14
ATOM     14  C   UNL     1      24.725  36.827  -4.906  1.00  0.00     0.005 C 
BRANCH  14  15
ATOM     15  C   UNL     1      26.105  36.351  -4.428  1.00  0.00    -0.003 C 
ATOM     16  C   UNL     1      25.992  35.088  -3.578  1.00  0.00     0.004 C 
ENDBRANCH  14  15
ENDBRANCH  12  14
ENDBRANCH   1  12
BRANCH   1  17
ATOM     17  C   UNL     1      22.842  37.037  -8.373  1.00  0.00     0.054 C 
BRANCH  17  18
ATOM     18  C   UNL     1      21.506  37.538  -8.872  1.00  0.00    -0.033 C 
ATOM     19  C   UNL     1      21.082  37.302 -10.118  1.00  0.00     0.004 C 
ENDBRANCH  17  18
ENDBRANCH   1  17
TORSDOF 5
ENDMDL
MODEL 4
REMARK VINA RESULT:    -6.691      1.743      4.729
REMARK INTER + INTRA:          -8.902
REMARK INTER:                  -8.599
REMARK INTRA:                  -0.303
REMARK UNBOUND:                -0.256
REMARK SMILES C=CCC1(C(C)CCC)C(=O)NC(=O)NC1=O
REMARK SMILES IDX 4 1 10 2 11 3 12 4 13 5 14 6 15 7 16 8 17 9 5 12 6 13 7 14
REMARK SMILES IDX 8 15 9 16 3 17 2 18 1 19
REMARK H PARENT 12 10 15 11
REMARK Flexibility Score: inf
ROOT
ATOM      1  C   UNL     1      23.189  38.230  -6.893  1.00  0.00     0.134 C 
ATOM      2  C   UNL     1      21.840  37.777  -6.328  1.00  0.00     0.244 C 
ATOM      3  O   UNL     1      21.664  36.559  -6.051  1.00  0.00    -0.273 OA
ATOM      4  N   UNL     1      20.787  38.700  -6.038  1.00  0.00    -0.277 N 
ATOM      5  C   UNL     1      20.894  40.078  -6.372  1.00  0.00     0.328 C 
ATOM      6  O   UNL     1      19.943  40.863  -6.117  1.00  0.00    -0.248 OA
ATOM      7  N   UNL     1      22.072  40.567  -7.003  1.00  0.00    -0.277 N 
ATOM      8  C   UNL     1      23.191  39.715  -7.263  1.00  0.00     0.244 C 
ATOM      9  O   UNL     1      24.225  40.227  -7.773  1.00  0.00    -0.273 OA
ATOM     10  H   UNL     1      19.908  38.349  -5.594  1.00  0.00     0.174 HD
ATOM     11  H   UNL     1      22.128  41.577  -7.262  1.00  0.00     0.174 HD
ENDROOT
BRANCH   1  12
ATOM     12  C   UNL     1      23.527  37.339  -8.169  1.00  0.00     0.011 C 
ATOM     13  C   UNL     1      22.323  37.108  -9.111  1.00  0.00     0.009 C 
BRANCH  12  14
ATOM     14  C   UNL     1      24.167  35.955  -7.846  1.00  0.00     0.005 C 
BRANCH  14  15
ATOM     15  C   UNL     1      25.535  35.719  -8.503  1.00  0.00    -0.003 C 
ATOM     16  C   UNL     1      25.426  34.750  -9.678  1.00  0.00     0.004 C 
ENDBRANCH  14  15
ENDBRANCH  12  14
ENDBRANCH   1  12
BRANCH   1  17
ATOM     17  C   UNL     1      24.242  38.019  -5.759  1.00  0.00     0.054 C 
BRANCH  17  18
ATOM     18  C   UNL     1      23.883  38.736  -4.477  1.00  0.00    -0.033 C 
ATOM     19  C   UNL     1      24.507  38.479  -3.323  1.00  0.00     0.004 C 
ENDBRANCH  17  18
ENDBRANCH   1  17
TORSDOF 5
ENDMDL
MODEL 5
REMARK VINA RESULT:    -6.397      1.851      4.501
REMARK INTER + INTRA:          -8.523
REMARK INTER:                  -8.407
REMARK INTRA:                  -0.116
REMARK UNBOUND:                -0.256
REMARK SMILES C=CCC1(C(C)CCC)C(=O)NC(=O)NC1=O
REMARK SMILES IDX 4 1 10 2 11 3 12 4 13 5 14 6 15 7 16 8 17 9 5 12 6 13 7 14
REMARK SMILES IDX 8 15 9 16 3 17 2 18 1 19
REMARK H PARENT 12 10 15 11
REMARK Flexibility Score: inf
ROOT
ATOM      1  C   UNL     1      23.189  37.490  -6.697  1.00  0.00     0.134 C 
ATOM      2  C   UNL     1      21.909  37.134  -5.936  1.00  0.00     0.244 C 
ATOM      3  O   UNL     1      21.672  35.928  -5.653  1.00  0.00    -0.273 OA
ATOM      4  N   UNL     1      20.995  38.133  -5.473  1.00  0.00    -0.277 N 
ATOM      5  C   UNL     1      21.168  39.506  -5.801  1.00  0.00     0.328 C 
ATOM      6  O   UNL     1      20.338  40.360  -5.390  1.00  0.00    -0.248 OA
ATOM      7  N   UNL     1      22.272  39.913  -6.599  1.00  0.00    -0.277 N 
ATOM      8  C   UNL     1      23.261  38.980  -7.041  1.00  0.00     0.244 C 
ATOM      9  O   UNL     1      24.244  39.418  -7.698  1.00  0.00    -0.273 OA
ATOM     10  H   UNL     1      20.168  37.844  -4.903  1.00  0.00     0.174 HD
ATOM     11  H   UNL     1      22.374  40.922  -6.849  1.00  0.00     0.174 HD
ENDROOT
BRANCH   1  12
ATOM     12  C   UNL     1      23.250  36.610  -8.023  1.00  0.00     0.011 C 
ATOM     13  C   UNL     1      24.677  36.418  -8.585  1.00  0.00     0.009 C 
BRANCH  12  14
ATOM     14  C   UNL     1      22.334  37.111  -9.180  1.00  0.00     0.005 C 
BRANCH  14  15
ATOM     15  C   UNL     1      22.424  36.279 -10.468  1.00  0.00    -0.003 C 
ATOM     16  C   UNL     1      21.206  36.503 -11.360  1.00  0.00     0.004 C 
ENDBRANCH  14  15
ENDBRANCH  12  14
ENDBRANCH   1  12
BRANCH   1  17
ATOM     17  C   UNL     1      24.381  37.161  -5.743  1.00  0.00     0.054 C 
BRANCH  17  18
ATOM     18  C   UNL     1      24.059  37.411  -4.287  1.00  0.00    -0.033 C 
ATOM     19  C   UNL     1      24.362  38.566  -3.684  1.00  0.00     0.004 C 
ENDBRANCH  17  18
ENDBRANCH   1  17
TORSDOF 5
ENDMDL
MODEL 6
REMARK VINA RESULT:    -6.255      2.162      4.371
REMARK INTER + INTRA:          -8.339
REMARK INTER:                  -8.371
REMARK INTRA:                   0.032
REMARK UNBOUND:                -0.256
REMARK SMILES C=CCC1(C(C)CCC)C(=O)NC(=O)NC1=O
REMARK SMILES IDX 4 1 10 2 11 3 12 4 13 5 14 6 15 7 16 8 17 9 5 12 6 13 7 14
REMARK SMILES IDX 8 15 9 16 3 17 2 18 1 19
REMARK H PARENT 12 10 15 11
REMARK Flexibility Score: inf
ROOT
ATOM      1  C   UNL     1      23.400  37.766  -5.837  1.00  0.00     0.134 C 
ATOM      2  C   UNL     1      23.491  38.563  -4.533  1.00  0.00     0.244 C 
ATOM      3  O   UNL     1      24.616  38.730  -3.987  1.00  0.00    -0.273 OA
ATOM      4  N   UNL     1      22.349  39.185  -3.938  1.00  0.00    -0.277 N 
ATOM      5  C   UNL     1      21.042  38.997  -4.467  1.00  0.00     0.328 C 
ATOM      6  O   UNL     1      20.054  39.547  -3.912  1.00  0.00    -0.248 OA
ATOM      7  N   UNL     1      20.850  38.180  -5.615  1.00  0.00    -0.277 N 
ATOM      8  C   UNL     1      21.953  37.580  -6.300  1.00  0.00     0.244 C 
ATOM      9  O   UNL     1      21.716  36.914  -7.345  1.00  0.00    -0.273 OA
ATOM     10  H   UNL     1      22.474  39.771  -3.082  1.00  0.00     0.174 HD
ATOM     11  H   UNL     1      19.882  38.033  -5.979  1.00  0.00     0.174 HD
ENDROOT
BRANCH   1  12
ATOM     12  C   UNL     1      24.100  36.353  -5.617  1.00  0.00     0.011 C 
ATOM     13  C   UNL     1      24.551  36.096  -4.160  1.00  0.00     0.009 C 
BRANCH  12  14
ATOM     14  C   UNL     1      25.309  36.071  -6.559  1.00  0.00     0.005 C 
BRANCH  14  15
ATOM     15  C   UNL     1      25.013  35.075  -7.690  1.00  0.00    -0.003 C 
ATOM     16  C   UNL     1      25.358  35.668  -9.054  1.00  0.00     0.004 C 
ENDBRANCH  14  15
ENDBRANCH  12  14
ENDBRANCH   1  12
BRANCH   1  17
ATOM     17  C   UNL     1      24.145  38.605  -6.924  1.00  0.00     0.054 C 
BRANCH  17  18
ATOM     18  C   UNL     1      23.586  40.001  -7.081  1.00  0.00    -0.033 C 
ATOM     19  C   UNL     1      22.957  40.390  -8.195  1.00  0.00     0.004 C 
ENDBRANCH  17  18
ENDBRANCH   1  17
TORSDOF 5
ENDMDL
MODEL 7
REMARK VINA RESULT:    -6.208      1.981      4.914
REMARK INTER + INTRA:          -8.279
REMARK INTER:                  -7.776
REMARK INTRA:                  -0.503
REMARK UNBOUND:                -0.256
REMARK SMILES C=CCC1(C(C)CCC)C(=O)NC(=O)NC1=O
REMARK SMILES IDX 4 1 10 2 11 3 12 4 13 5 14 6 15 7 16 8 17 9 5 12 6 13 7 14
REMARK SMILES IDX 8 15 9 16 3 17 2 18 1 19
REMARK H PARENT 12 10 15 11
REMARK Flexibility Score: inf
ROOT
ATOM      1  C   UNL     1      22.335  38.258  -6.547  1.00  0.00     0.134 C 
ATOM      2  C   UNL     1      23.493  39.165  -6.122  1.00  0.00     0.244 C 
ATOM      3  O   UNL     1      23.714  40.228  -6.764  1.00  0.00    -0.273 OA
ATOM      4  N   UNL     1      24.299  38.884  -4.974  1.00  0.00    -0.277 N 
ATOM      5  C   UNL     1      24.143  37.679  -4.235  1.00  0.00     0.328 C 
ATOM      6  O   UNL     1      24.879  37.454  -3.237  1.00  0.00    -0.248 OA
ATOM      7  N   UNL     1      23.164  36.726  -4.627  1.00  0.00    -0.277 N 
ATOM      8  C   UNL     1      22.278  36.969  -5.723  1.00  0.00     0.244 C 
ATOM      9  O   UNL     1      21.396  36.106  -5.981  1.00  0.00    -0.273 OA
ATOM     10  H   UNL     1      25.037  39.568  -4.688  1.00  0.00     0.174 HD
ATOM     11  H   UNL     1      23.076  35.836  -4.087  1.00  0.00     0.174 HD
ENDROOT
BRANCH   1  12
ATOM     12  C   UNL     1      22.500  37.921  -8.095  1.00  0.00     0.011 C 
ATOM     13  C   UNL     1      21.176  37.959  -8.891  1.00  0.00     0.009 C 
BRANCH  12  14
ATOM     14  C   UNL     1      23.210  36.566  -8.395  1.00  0.00     0.005 C 
BRANCH  14  15
ATOM     15  C   UNL     1      24.744  36.637  -8.387  1.00  0.00    -0.003 C 
ATOM     16  C   UNL     1      25.339  35.682  -7.355  1.00  0.00     0.004 C 
ENDBRANCH  14  15
ENDBRANCH  12  14
ENDBRANCH   1  12
BRANCH   1  17
ATOM     17  C   UNL     1      21.020  39.056  -6.278  1.00  0.00     0.054 C 
BRANCH  17  18
ATOM     18  C   UNL     1      20.776  39.315  -4.808  1.00  0.00    -0.033 C 
ATOM     19  C   UNL     1      19.647  39.880  -4.367  1.00  0.00     0.004 C 
ENDBRANCH  17  18
ENDBRANCH   1  17
TORSDOF 5
ENDMDL
MODEL 8
REMARK VINA RESULT:    -6.108      1.785      3.489
REMARK INTER + INTRA:          -8.149
REMARK INTER:                  -8.124
REMARK INTRA:                  -0.025
REMARK UNBOUND:                -0.256
REMARK SMILES C=CCC1(C(C)CCC)C(=O)NC(=O)NC1=O
REMARK SMILES IDX 4 1 10 2 11 3 12 4 13 5 14 6 15 7 16 8 17 9 5 12 6 13 7 14
REMARK SMILES IDX 8 15 9 16 3 17 2 18 1 19
REMARK H PARENT 12 10 15 11
REMARK Flexibility Score: inf
ROOT
ATOM      1  C   UNL     1      22.829  37.967  -6.491  1.00  0.00     0.134 C 
ATOM      2  C   UNL     1      22.829  36.494  -6.070  1.00  0.00     0.244 C 
ATOM      3  O   UNL     1      21.919  36.069  -5.307  1.00  0.00    -0.273 OA
ATOM      4  N   UNL     1      23.792  35.560  -6.566  1.00  0.00    -0.277 N 
ATOM      5  C   UNL     1      24.876  35.977  -7.386  1.00  0.00     0.328 C 
ATOM      6  O   UNL     1      25.717  35.133  -7.795  1.00  0.00    -0.248 OA
ATOM      7  N   UNL     1      25.017  37.349  -7.736  1.00  0.00    -0.277 N 
ATOM      8  C   UNL     1      24.056  38.327  -7.331  1.00  0.00     0.244 C 
ATOM      9  O   UNL     1      24.211  39.515  -7.724  1.00  0.00    -0.273 OA
ATOM     10  H   UNL     1      23.711  34.553  -6.298  1.00  0.00     0.174 HD
ATOM     11  H   UNL     1      25.830  37.644  -8.321  1.00  0.00     0.174 HD
ENDROOT
BRANCH   1  12
ATOM     12  C   UNL     1      22.770  38.867  -5.178  1.00  0.00     0.011 C 
ATOM     13  C   UNL     1      23.901  38.576  -4.166  1.00  0.00     0.009 C 
BRANCH  12  14
ATOM     14  C   UNL     1      21.410  38.821  -4.417  1.00  0.00     0.005 C 
BRANCH  14  15
ATOM     15  C   UNL     1      20.415  39.916  -4.828  1.00  0.00    -0.003 C 
ATOM     16  C   UNL     1      19.239  39.989  -3.857  1.00  0.00     0.004 C 
ENDBRANCH  14  15
ENDBRANCH  12  14
ENDBRANCH   1  12
BRANCH   1  17
ATOM     17  C   UNL     1      21.561  38.177  -7.379  1.00  0.00     0.054 C 
BRANCH  17  18
ATOM     18  C   UNL     1      21.583  37.350  -8.646  1.00  0.00    -0.033 C 
ATOM     19  C   UNL     1      20.936  37.731  -9.751  1.00  0.00     0.004 C 
ENDBRANCH  17  18
ENDBRANCH   1  17
TORSDOF 5
ENDMDL
MODEL 9
REMARK VINA RESULT:    -5.844      1.420      2.510
REMARK INTER + INTRA:          -7.808
REMARK INTER:                  -7.916
REMARK INTRA:                   0.108
REMARK UNBOUND:                -0.256
REMARK SMILES C=CCC1(C(C)CCC)C(=O)NC(=O)NC1=O
REMARK SMILES IDX 4 1 10 2 11 3 12 4 13 5 14 6 15 7 16 8 17 9 5 12 6 13 7 14
REMARK SMILES IDX 8 15 9 16 3 17 2 18 1 19
REMARK H PARENT 12 10 15 11
REMARK Flexibility Score: inf
ROOT
ATOM      1  C   UNL     1      22.867  38.597  -7.401  1.00  0.00     0.134 C 
ATOM      2  C   UNL     1      23.138  40.058  -7.772  1.00  0.00     0.244 C 
ATOM      3  O   UNL     1      24.023  40.702  -7.144  1.00  0.00    -0.273 OA
ATOM      4  N   UNL     1      22.467  40.706  -8.857  1.00  0.00    -0.277 N 
ATOM      5  C   UNL     1      21.422  40.061  -9.574  1.00  0.00     0.328 C 
ATOM      6  O   UNL     1      20.840  40.663 -10.515  1.00  0.00    -0.248 OA
ATOM      7  N   UNL     1      21.028  38.740  -9.223  1.00  0.00    -0.277 N 
ATOM      8  C   UNL     1      21.698  38.007  -8.194  1.00  0.00     0.244 C 
ATOM      9  O   UNL     1      21.335  36.820  -7.973  1.00  0.00    -0.273 OA
ATOM     10  H   UNL     1      22.733  41.685  -9.111  1.00  0.00     0.174 HD
ATOM     11  H   UNL     1      20.244  38.288  -9.745  1.00  0.00     0.174 HD
ENDROOT
BRANCH   1  12
ATOM     12  C   UNL     1      22.573  38.520  -5.838  1.00  0.00     0.011 C 
ATOM     13  C   UNL     1      21.412  39.427  -5.371  1.00  0.00     0.009 C 
BRANCH  12  14
ATOM     14  C   UNL     1      23.808  38.801  -4.928  1.00  0.00     0.005 C 
BRANCH  14  15
ATOM     15  C   UNL     1      24.081  37.717  -3.876  1.00  0.00    -0.003 C 
ATOM     16  C   UNL     1      25.331  36.912  -4.220  1.00  0.00     0.004 C 
ENDBRANCH  14  15
ENDBRANCH  12  14
ENDBRANCH   1  12
BRANCH   1  17
ATOM     17  C   UNL     1      24.153  37.795  -7.777  1.00  0.00     0.054 C 
BRANCH  17  18
ATOM     18  C   UNL     1      24.021  36.311  -7.522  1.00  0.00    -0.033 C 
ATOM     19  C   UNL     1      25.043  35.468  -7.703  1.00  0.00     0.004 C 
ENDBRANCH  17  18
ENDBRANCH   1  17
TORSDOF 5
ENDMDL
MODEL 10
REMARK VINA RESULT:    -5.803      1.682      2.939
REMARK INTER + INTRA:          -7.755
REMARK INTER:                  -7.629
REMARK INTRA:                  -0.126
REMARK UNBOUND:                -0.256
REMARK SMILES C=CCC1(C(C)CCC)C(=O)NC(=O)NC1=O
REMARK SMILES IDX 4 1 10 2 11 3 12 4 13 5 14 6 15 7 16 8 17 9 5 12 6 13 7 14
REMARK SMILES IDX 8 15 9 16 3 17 2 18 1 19
REMARK H PARENT 12 10 15 11
REMARK Flexibility Score: inf
ROOT
ATOM      1  C   UNL     1      22.468  38.439  -6.148  1.00  0.00     0.134 C 
ATOM      2  C   UNL     1      23.575  39.060  -7.005  1.00  0.00     0.244 C 
ATOM      3  O   UNL     1      23.696  40.315  -7.045  1.00  0.00    -0.273 OA
ATOM      4  N   UNL     1      24.526  38.262  -7.715  1.00  0.00    -0.277 N 
ATOM      5  C   UNL     1      24.420  36.845  -7.760  1.00  0.00     0.328 C 
ATOM      6  O   UNL     1      25.266  36.171  -8.407  1.00  0.00    -0.248 OA
ATOM      7  N   UNL     1      23.355  36.189  -7.083  1.00  0.00    -0.277 N 
ATOM      8  C   UNL     1      22.406  36.917  -6.298  1.00  0.00     0.244 C 
ATOM      9  O   UNL     1      21.521  36.267  -5.678  1.00  0.00    -0.273 OA
ATOM     10  H   UNL     1      25.302  38.733  -8.235  1.00  0.00     0.174 HD
ATOM     11  H   UNL     1      23.278  35.149  -7.142  1.00  0.00     0.174 HD
ENDROOT
BRANCH   1  12
ATOM     12  C   UNL     1      21.078  39.095  -6.566  1.00  0.00     0.011 C 
ATOM     13  C   UNL     1      20.925  39.328  -8.087  1.00  0.00     0.009 C 
BRANCH  12  14
ATOM     14  C   UNL     1      20.741  40.428  -5.833  1.00  0.00     0.005 C 
BRANCH  14  15
ATOM     15  C   UNL     1      19.588  40.323  -4.823  1.00  0.00    -0.003 C 
ATOM     16  C   UNL     1      18.928  41.680  -4.592  1.00  0.00     0.004 C 
ENDBRANCH  14  15
ENDBRANCH  12  14
ENDBRANCH   1  12
BRANCH   1  17
ATOM     17  C   UNL     1      22.822  38.759  -4.661  1.00  0.00     0.054 C 
BRANCH  17  18
ATOM     18  C   UNL     1      24.252  38.419  -4.307  1.00  0.00    -0.033 C 
ATOM     19  C   UNL     1      24.590  37.233  -3.791  1.00  0.00     0.004 C 
ENDBRANCH  17  18
ENDBRANCH   1  17
TORSDOF 5
ENDMDL
MODEL 11
REMARK VINA RESULT:    -5.730      2.172      4.299
REMARK INTER + INTRA:          -7.660
REMARK INTER:                  -8.273
REMARK INTRA:                   0.613
REMARK UNBOUND:                -0.256
REMARK SMILES C=CCC1(C(C)CCC)C(=O)NC(=O)NC1=O
REMARK SMILES IDX 4 1 10 2 11 3 12 4 13 5 14 6 15 7 16 8 17 9 5 12 6 13 7 14
REMARK SMILES IDX 8 15 9 16 3 17 2 18 1 19
REMARK H PARENT 12 10 15 11
REMARK Flexibility Score: inf
ROOT
ATOM      1  C   UNL     1      23.668  37.220  -6.438  1.00  0.00     0.134 C 
ATOM      2  C   UNL     1      22.156  37.222  -6.194  1.00  0.00     0.244 C 
ATOM      3  O   UNL     1      21.720  37.337  -5.016  1.00  0.00    -0.273 OA
ATOM      4  N   UNL     1      21.211  37.163  -7.266  1.00  0.00    -0.277 N 
ATOM      5  C   UNL     1      21.628  36.979  -8.613  1.00  0.00     0.328 C 
ATOM      6  O   UNL     1      20.770  36.918  -9.534  1.00  0.00    -0.248 OA
ATOM      7  N   UNL     1      23.011  36.856  -8.920  1.00  0.00    -0.277 N 
ATOM      8  C   UNL     1      24.015  36.971  -7.907  1.00  0.00     0.244 C 
ATOM      9  O   UNL     1      25.225  36.909  -8.257  1.00  0.00    -0.273 OA
ATOM     10  H   UNL     1      20.190  37.231  -7.052  1.00  0.00     0.174 HD
ATOM     11  H   UNL     1      23.301  36.700  -9.911  1.00  0.00     0.174 HD
ENDROOT
BRANCH   1  12
ATOM     12  C   UNL     1      24.327  36.103  -5.514  1.00  0.00     0.011 C 
ATOM     13  C   UNL     1      24.426  36.498  -4.023  1.00  0.00     0.009 C 
BRANCH  12  14
ATOM     14  C   UNL     1      25.732  35.615  -5.983  1.00  0.00     0.005 C 
BRANCH  14  15
ATOM     15  C   UNL     1      26.208  34.317  -5.316  1.00  0.00    -0.003 C 
ATOM     16  C   UNL     1      26.316  33.180  -6.329  1.00  0.00     0.004 C 
ENDBRANCH  14  15
ENDBRANCH  12  14
ENDBRANCH   1  12
BRANCH   1  17
ATOM     17  C   UNL     1      24.182  38.645  -6.059  1.00  0.00     0.054 C 
BRANCH  17  18
ATOM     18  C   UNL     1      23.342  39.754  -6.652  1.00  0.00    -0.033 C 
ATOM     19  C   UNL     1      23.678  40.363  -7.793  1.00  0.00     0.004 C 
ENDBRANCH  17  18
ENDBRANCH   1  17
TORSDOF 5
ENDMDL
MODEL 12
REMARK VINA RESULT:    -5.699      1.919      3.843
REMARK INTER + INTRA:          -7.620
REMARK INTER:                  -7.252
REMARK INTRA:                  -0.368
REMARK UNBOUND:                -0.256
REMARK SMILES C=CCC1(C(C)CCC)C(=O)NC(=O)NC1=O
REMARK SMILES IDX 4 1 10 2 11 3 12 4 13 5 14 6 15 7 16 8 17 9 5 12 6 13 7 14
REMARK SMILES IDX 8 15 9 16 3 17 2 18 1 19
REMARK H PARENT 12 10 15 11
REMARK Flexibility Score: inf
ROOT
ATOM      1  C   UNL     1      22.651  38.066  -6.991  1.00  0.00     0.134 C 
ATOM      2  C   UNL     1      22.347  37.119  -5.826  1.00  0.00     0.244 C 
ATOM      3  O   UNL     1      21.485  36.210  -5.977  1.00  0.00    -0.273 OA
ATOM      4  N   UNL     1      23.055  37.185  -4.585  1.00  0.00    -0.277 N 
ATOM      5  C   UNL     1      24.000  38.215  -4.324  1.00  0.00     0.328 C 
ATOM      6  O   UNL     1      24.597  38.254  -3.216  1.00  0.00    -0.248 OA
ATOM      7  N   UNL     1      24.265  39.205  -5.311  1.00  0.00    -0.277 N 
ATOM      8  C   UNL     1      23.643  39.163  -6.599  1.00  0.00     0.244 C 
ATOM      9  O   UNL     1      23.966  40.040  -7.446  1.00  0.00    -0.273 OA
ATOM     10  H   UNL     1      22.854  36.476  -3.844  1.00  0.00     0.174 HD
ATOM     11  H   UNL     1      24.946  39.967  -5.097  1.00  0.00     0.174 HD
ENDROOT
BRANCH   1  12
ATOM     12  C   UNL     1      21.282  38.708  -7.491  1.00  0.00     0.011 C 
ATOM     13  C   UNL     1      21.069  38.620  -9.020  1.00  0.00     0.009 C 
BRANCH  12  14
ATOM     14  C   UNL     1      21.056  40.186  -7.052  1.00  0.00     0.005 C 
BRANCH  14  15
ATOM     15  C   UNL     1      19.912  40.382  -6.047  1.00  0.00    -0.003 C 
ATOM     16  C   UNL     1      20.233  39.729  -4.705  1.00  0.00     0.004 C 
ENDBRANCH  14  15
ENDBRANCH  12  14
ENDBRANCH   1  12
BRANCH   1  17
ATOM     17  C   UNL     1      23.313  37.199  -8.109  1.00  0.00     0.054 C 
BRANCH  17  18
ATOM     18  C   UNL     1      24.630  36.589  -7.682  1.00  0.00    -0.033 C 
ATOM     19  C   UNL     1      25.409  35.919  -8.537  1.00  0.00     0.004 C 
ENDBRANCH  17  18
ENDBRANCH   1  17
TORSDOF 5
ENDMDL
MODEL 13
REMARK VINA RESULT:    -5.688      2.704      4.006
REMARK INTER + INTRA:          -7.607
REMARK INTER:                  -8.369
REMARK INTRA:                   0.762
REMARK UNBOUND:                -0.256
REMARK SMILES C=CCC1(C(C)CCC)C(=O)NC(=O)NC1=O
REMARK SMILES IDX 4 1 10 2 11 3 12 4 13 5 14 6 15 7 16 8 17 9 5 12 6 13 7 14
REMARK SMILES IDX 8 15 9 16 3 17 2 18 1 19
REMARK H PARENT 12 10 15 11
REMARK Flexibility Score: inf
ROOT
ATOM      1  C   UNL     1      23.708  37.729  -5.480  1.00  0.00     0.134 C 
ATOM      2  C   UNL     1      23.983  36.861  -6.712  1.00  0.00     0.244 C 
ATOM      3  O   UNL     1      23.190  36.909  -7.692  1.00  0.00    -0.273 OA
ATOM      4  N   UNL     1      25.150  36.041  -6.821  1.00  0.00    -0.277 N 
ATOM      5  C   UNL     1      26.059  35.896  -5.738  1.00  0.00     0.328 C 
ATOM      6  O   UNL     1      27.071  35.156  -5.860  1.00  0.00    -0.248 OA
ATOM      7  N   UNL     1      25.822  36.581  -4.514  1.00  0.00    -0.277 N 
ATOM      8  C   UNL     1      24.712  37.469  -4.355  1.00  0.00     0.244 C 
ATOM      9  O   UNL     1      24.593  38.087  -3.262  1.00  0.00    -0.273 OA
ATOM     10  H   UNL     1      25.324  35.516  -7.708  1.00  0.00     0.174 HD
ATOM     11  H   UNL     1      26.487  36.448  -3.719  1.00  0.00     0.174 HD
ENDROOT
BRANCH   1  12
ATOM     12  C   UNL     1      22.224  37.439  -4.979  1.00  0.00     0.011 C 
ATOM     13  C   UNL     1      21.634  36.108  -5.499  1.00  0.00     0.009 C 
BRANCH  12  14
ATOM     14  C   UNL     1      21.201  38.576  -5.281  1.00  0.00     0.005 C 
BRANCH  14  15
ATOM     15  C   UNL     1      20.711  39.334  -4.039  1.00  0.00    -0.003 C 
ATOM     16  C   UNL     1      19.362  40.002  -4.293  1.00  0.00     0.004 C 
ENDBRANCH  14  15
ENDBRANCH  12  14
ENDBRANCH   1  12
BRANCH   1  17
ATOM     17  C   UNL     1      23.873  39.214  -5.935  1.00  0.00     0.054 C 
BRANCH  17  18
ATOM     18  C   UNL     1      23.855  39.378  -7.439  1.00  0.00    -0.033 C 
ATOM     19  C   UNL     1      23.127  40.325  -8.038  1.00  0.00     0.004 C 
ENDBRANCH  17  18
ENDBRANCH   1  17
TORSDOF 5
ENDMDL
MODEL 14
REMARK VINA RESULT:    -5.645      1.590      4.542
REMARK INTER + INTRA:          -7.552
REMARK INTER:                  -7.164
REMARK INTRA:                  -0.388
REMARK UNBOUND:                -0.256
REMARK SMILES C=CCC1(C(C)CCC)C(=O)NC(=O)NC1=O
REMARK SMILES IDX 4 1 10 2 11 3 12 4 13 5 14 6 15 7 16 8 17 9 5 12 6 13 7 14
REMARK SMILES IDX 8 15 9 16 3 17 2 18 1 19
REMARK H PARENT 12 10 15 11
REMARK Flexibility Score: inf
ROOT
ATOM      1  C   UNL     1      22.456  37.972  -6.922  1.00  0.00     0.134 C 
ATOM      2  C   UNL     1      21.531  38.113  -8.134  1.00  0.00     0.244 C 
ATOM      3  O   UNL     1      20.874  37.111  -8.530  1.00  0.00    -0.273 OA
ATOM      4  N   UNL     1      21.332  39.363  -8.800  1.00  0.00    -0.277 N 
ATOM      5  C   UNL     1      22.077  40.520  -8.444  1.00  0.00     0.328 C 
ATOM      6  O   UNL     1      21.888  41.604  -9.058  1.00  0.00    -0.248 OA
ATOM      7  N   UNL     1      23.040  40.453  -7.399  1.00  0.00    -0.277 N 
ATOM      8  C   UNL     1      23.246  39.254  -6.646  1.00  0.00     0.244 C 
ATOM      9  O   UNL     1      24.075  39.281  -5.697  1.00  0.00    -0.273 OA
ATOM     10  H   UNL     1      20.641  39.420  -9.583  1.00  0.00     0.174 HD
ATOM     11  H   UNL     1      23.595  41.306  -7.163  1.00  0.00     0.174 HD
ENDROOT
BRANCH   1  12
ATOM     12  C   UNL     1      23.448  36.754  -7.181  1.00  0.00     0.011 C 
ATOM     13  C   UNL     1      24.031  36.132  -5.892  1.00  0.00     0.009 C 
BRANCH  12  14
ATOM     14  C   UNL     1      24.630  37.071  -8.147  1.00  0.00     0.005 C 
BRANCH  14  15
ATOM     15  C   UNL     1      25.503  35.858  -8.501  1.00  0.00    -0.003 C 
ATOM     16  C   UNL     1      24.905  35.063  -9.659  1.00  0.00     0.004 C 
ENDBRANCH  14  15
ENDBRANCH  12  14
ENDBRANCH   1  12
BRANCH   1  17
ATOM     17  C   UNL     1      21.537  37.702  -5.688  1.00  0.00     0.054 C 
BRANCH  17  18
ATOM     18  C   UNL     1      20.735  38.915  -5.271  1.00  0.00    -0.033 C 
ATOM     19  C   UNL     1      20.685  39.327  -4.001  1.00  0.00     0.004 C 
ENDBRANCH  17  18
ENDBRANCH   1  17
TORSDOF 5
ENDMDL
MODEL 15
REMARK VINA RESULT:    -5.428      1.607      4.205
REMARK INTER + INTRA:          -7.270
REMARK INTER:                  -7.145
REMARK INTRA:                  -0.125
REMARK UNBOUND:                -0.256
REMARK SMILES C=CCC1(C(C)CCC)C(=O)NC(=O)NC1=O
REMARK SMILES IDX 4 1 10 2 11 3 12 4 13 5 14 6 15 7 16 8 17 9 5 12 6 13 7 14
REMARK SMILES IDX 8 15 9 16 3 17 2 18 1 19
REMARK H PARENT 12 10 15 11
REMARK Flexibility Score: inf
ROOT
ATOM      1  C   UNL     1      21.964  39.460  -7.283  1.00  0.00     0.134 C 
ATOM      2  C   UNL     1      21.405  38.124  -7.779  1.00  0.00     0.244 C 
ATOM      3  O   UNL     1      21.395  37.131  -7.001  1.00  0.00    -0.273 OA
ATOM      4  N   UNL     1      20.828  37.975  -9.079  1.00  0.00    -0.277 N 
ATOM      5  C   UNL     1      20.852  39.034 -10.028  1.00  0.00     0.328 C 
ATOM      6  O   UNL     1      20.348  38.867 -11.170  1.00  0.00    -0.248 OA
ATOM      7  N   UNL     1      21.452  40.278  -9.690  1.00  0.00    -0.277 N 
ATOM      8  C   UNL     1      21.989  40.521  -8.386  1.00  0.00     0.244 C 
ATOM      9  O   UNL     1      22.455  41.666  -8.136  1.00  0.00    -0.273 OA
ATOM     10  H   UNL     1      20.403  37.058  -9.348  1.00  0.00     0.174 HD
ATOM     11  H   UNL     1      21.481  41.040 -10.404  1.00  0.00     0.174 HD
ENDROOT
BRANCH   1  12
ATOM     12  C   UNL     1      23.431  39.215  -6.715  1.00  0.00     0.011 C 
ATOM     13  C   UNL     1      24.228  38.133  -7.480  1.00  0.00     0.009 C 
BRANCH  12  14
ATOM     14  C   UNL     1      23.493  38.881  -5.193  1.00  0.00     0.005 C 
BRANCH  14  15
ATOM     15  C   UNL     1      23.845  37.420  -4.878  1.00  0.00    -0.003 C 
ATOM     16  C   UNL     1      24.982  37.330  -3.862  1.00  0.00     0.004 C 
ENDBRANCH  14  15
ENDBRANCH  12  14
ENDBRANCH   1  12
BRANCH   1  17
ATOM     17  C   UNL     1      20.998  39.960  -6.162  1.00  0.00     0.054 C 
BRANCH  17  18
ATOM     18  C   UNL     1      19.750  40.618  -6.706  1.00  0.00    -0.033 C 
ATOM     19  C   UNL     1      19.293  41.777  -6.223  1.00  0.00     0.004 C 
ENDBRANCH  17  18
ENDBRANCH   1  17
TORSDOF 5
ENDMDL
