MODEL 1
REMARK VINA RESULT:    -6.686      0.000      0.000
REMARK INTER + INTRA:         -12.014
REMARK INTER:                 -10.791
REMARK INTRA:                  -1.224
REMARK UNBOUND:                -1.224
REMARK SMILES COC(=O)CCc1ccc(OCC(O)CNC(C)C)cc1
REMARK SMILES IDX 11 1 10 2 7 3 8 4 21 5 9 6 20 7 6 8 5 9 3 10 4 11 2 12 1 13
REMARK SMILES IDX 12 14 13 15 14 16 15 18 16 19 17 21 18 22 19 23
REMARK H PARENT 14 17 16 20
REMARK Flexibility Score: inf
ROOT
ATOM      1  O   UNL     1      21.152  37.777  -8.527  1.00  0.00    -0.491 OA
ENDROOT
BRANCH   1   2
ATOM      2  C   UNL     1      22.059  37.691  -7.458  1.00  0.00     0.119 A 
ATOM      3  C   UNL     1      23.829  37.400  -5.282  1.00  0.00    -0.047 A 
ATOM      4  C   UNL     1      22.927  36.375  -5.606  1.00  0.00     0.007 A 
ATOM      5  C   UNL     1      23.859  38.562  -6.067  1.00  0.00     0.007 A 
ATOM      6  C   UNL     1      22.050  36.525  -6.683  1.00  0.00     0.047 A 
ATOM      7  C   UNL     1      22.981  38.710  -7.146  1.00  0.00     0.047 A 
BRANCH   3   8
ATOM      8  C   UNL     1      24.798  37.227  -4.143  1.00  0.00     0.047 C 
BRANCH   8   9
ATOM      9  C   UNL     1      25.979  36.353  -4.570  1.00  0.00     0.127 C 
BRANCH   9  10
ATOM     10  C   UNL     1      25.992  35.075  -3.793  1.00  0.00     0.305 C 
ATOM     11  O   UNL     1      25.844  35.103  -2.540  1.00  0.00    -0.252 OA
BRANCH  10  12
ATOM     12  O   UNL     1      26.211  33.867  -4.458  1.00  0.00    -0.469 OA
ATOM     13  C   UNL     1      26.405  33.791  -5.866  1.00  0.00     0.282 C 
ENDBRANCH  10  12
ENDBRANCH   9  10
ENDBRANCH   8   9
ENDBRANCH   3   8
ENDBRANCH   1   2
BRANCH   1  14
ATOM     14  C   UNL     1      21.483  37.878  -9.914  1.00  0.00     0.262 C 
BRANCH  14  15
ATOM     15  C   UNL     1      21.567  36.481 -10.561  1.00  0.00     0.165 C 
BRANCH  15  16
ATOM     16  O   UNL     1      20.694  36.392 -11.659  1.00  0.00    -0.388 OA
ATOM     17  H   UNL     1      21.071  35.726 -12.292  1.00  0.00     0.211 HD
ENDBRANCH  15  16
BRANCH  15  18
ATOM     18  C   UNL     1      23.008  36.111 -11.007  1.00  0.00     0.116 C 
BRANCH  18  19
ATOM     19  N   UNL     1      23.604  34.959 -10.301  1.00  0.00    -0.312 NA
ATOM     20  H   UNL     1      23.499  34.105 -10.897  1.00  0.00     0.123 HD
BRANCH  19  21
ATOM     21  C   UNL     1      25.017  35.116  -9.898  1.00  0.00     0.047 C 
ATOM     22  C   UNL     1      25.169  36.104  -8.731  1.00  0.00     0.024 C 
ATOM     23  C   UNL     1      25.574  33.749  -9.482  1.00  0.00     0.024 C 
ENDBRANCH  19  21
ENDBRANCH  18  19
ENDBRANCH  15  18
ENDBRANCH  14  15
ENDBRANCH   1  14
TORSDOF 11
ENDMDL
MODEL 2
REMARK VINA RESULT:    -6.677      1.975      3.889
REMARK INTER + INTRA:         -11.999
REMARK INTER:                 -11.173
REMARK INTRA:                  -0.826
REMARK UNBOUND:                -1.224
REMARK SMILES COC(=O)CCc1ccc(OCC(O)CNC(C)C)cc1
REMARK SMILES IDX 11 1 10 2 7 3 8 4 21 5 9 6 20 7 6 8 5 9 3 10 4 11 2 12 1 13
REMARK SMILES IDX 12 14 13 15 14 16 15 18 16 19 17 21 18 22 19 23
REMARK H PARENT 14 17 16 20
REMARK Flexibility Score: inf
ROOT
ATOM      1  O   UNL     1      22.611  36.594 -10.005  1.00  0.00    -0.491 OA
ENDROOT
BRANCH   1   2
ATOM      2  C   UNL     1      23.551  36.056  -9.111  1.00  0.00     0.119 A 
ATOM      3  C   UNL     1      25.370  35.029  -7.215  1.00  0.00    -0.047 A 
ATOM      4  C   UNL     1      24.240  35.749  -6.798  1.00  0.00     0.007 A 
ATOM      5  C   UNL     1      25.573  34.803  -8.584  1.00  0.00     0.007 A 
ATOM      6  C   UNL     1      23.343  36.258  -7.741  1.00  0.00     0.047 A 
ATOM      7  C   UNL     1      24.674  35.313  -9.527  1.00  0.00     0.047 A 
BRANCH   3   8
ATOM      8  C   UNL     1      26.318  34.451  -6.200  1.00  0.00     0.047 C 
BRANCH   8   9
ATOM      9  C   UNL     1      26.622  35.473  -5.103  1.00  0.00     0.127 C 
BRANCH   9  10
ATOM     10  C   UNL     1      25.931  35.096  -3.832  1.00  0.00     0.305 C 
ATOM     11  O   UNL     1      26.136  33.961  -3.320  1.00  0.00    -0.252 OA
BRANCH  10  12
ATOM     12  O   UNL     1      25.031  35.991  -3.246  1.00  0.00    -0.469 OA
ATOM     13  C   UNL     1      24.795  37.293  -3.768  1.00  0.00     0.282 C 
ENDBRANCH  10  12
ENDBRANCH   9  10
ENDBRANCH   8   9
ENDBRANCH   3   8
ENDBRANCH   1   2
BRANCH   1  14
ATOM     14  C   UNL     1      21.274  36.993  -9.691  1.00  0.00     0.262 C 
BRANCH  14  15
ATOM     15  C   UNL     1      21.124  38.525  -9.785  1.00  0.00     0.165 C 
BRANCH  15  16
ATOM     16  O   UNL     1      19.768  38.883  -9.882  1.00  0.00    -0.388 OA
ATOM     17  H   UNL     1      19.723  39.784 -10.296  1.00  0.00     0.211 HD
ENDBRANCH  15  16
BRANCH  15  18
ATOM     18  C   UNL     1      21.776  39.268  -8.587  1.00  0.00     0.116 C 
BRANCH  18  19
ATOM     19  N   UNL     1      21.041  39.164  -7.311  1.00  0.00    -0.312 NA
ATOM     20  H   UNL     1      20.764  38.166  -7.161  1.00  0.00     0.123 HD
BRANCH  19  21
ATOM     21  C   UNL     1      21.753  39.670  -6.119  1.00  0.00     0.047 C 
ATOM     22  C   UNL     1      21.393  38.866  -4.859  1.00  0.00     0.024 C 
ATOM     23  C   UNL     1      23.264  39.582  -6.363  1.00  0.00     0.024 C 
ENDBRANCH  19  21
ENDBRANCH  18  19
ENDBRANCH  15  18
ENDBRANCH  14  15
ENDBRANCH   1  14
TORSDOF 11
ENDMDL
MODEL 3
REMARK VINA RESULT:    -6.566      2.637      4.596
REMARK INTER + INTRA:         -11.820
REMARK INTER:                 -10.646
REMARK INTRA:                  -1.174
REMARK UNBOUND:                -1.224
REMARK SMILES COC(=O)CCc1ccc(OCC(O)CNC(C)C)cc1
REMARK SMILES IDX 11 1 10 2 7 3 8 4 21 5 9 6 20 7 6 8 5 9 3 10 4 11 2 12 1 13
REMARK SMILES IDX 12 14 13 15 14 16 15 18 16 19 17 21 18 22 19 23
REMARK H PARENT 14 17 16 20
REMARK Flexibility Score: inf
ROOT
ATOM      1  O   UNL     1      21.343  38.421  -8.692  1.00  0.00    -0.491 OA
ENDROOT
BRANCH   1   2
ATOM      2  C   UNL     1      22.504  37.655  -8.497  1.00  0.00     0.119 A 
ATOM      3  C   UNL     1      24.798  36.040  -8.206  1.00  0.00    -0.047 A 
ATOM      4  C   UNL     1      23.877  35.788  -9.234  1.00  0.00     0.007 A 
ATOM      5  C   UNL     1      24.579  37.120  -7.338  1.00  0.00     0.007 A 
ATOM      6  C   UNL     1      22.741  36.589  -9.373  1.00  0.00     0.047 A 
ATOM      7  C   UNL     1      23.442  37.922  -7.478  1.00  0.00     0.047 A 
BRANCH   3   8
ATOM      8  C   UNL     1      26.039  35.200  -8.076  1.00  0.00     0.047 C 
BRANCH   8   9
ATOM      9  C   UNL     1      25.796  34.022  -7.130  1.00  0.00     0.127 C 
BRANCH   9  10
ATOM     10  C   UNL     1      26.407  34.290  -5.793  1.00  0.00     0.305 C 
ATOM     11  O   UNL     1      26.185  33.501  -4.833  1.00  0.00    -0.252 OA
BRANCH  10  12
ATOM     12  O   UNL     1      27.184  35.436  -5.608  1.00  0.00    -0.469 OA
ATOM     13  C   UNL     1      26.947  36.361  -4.553  1.00  0.00     0.282 C 
ENDBRANCH  10  12
ENDBRANCH   9  10
ENDBRANCH   8   9
ENDBRANCH   3   8
ENDBRANCH   1   2
BRANCH   1  14
ATOM     14  C   UNL     1      21.290  39.813  -9.017  1.00  0.00     0.262 C 
BRANCH  14  15
ATOM     15  C   UNL     1      19.981  40.446  -8.502  1.00  0.00     0.165 C 
BRANCH  15  16
ATOM     16  O   UNL     1      18.930  39.514  -8.549  1.00  0.00    -0.388 OA
ATOM     17  H   UNL     1      19.176  38.813  -9.208  1.00  0.00     0.211 HD
ENDBRANCH  15  16
BRANCH  15  18
ATOM     18  C   UNL     1      20.113  41.014  -7.063  1.00  0.00     0.116 C 
BRANCH  18  19
ATOM     19  N   UNL     1      21.198  40.423  -6.254  1.00  0.00    -0.312 NA
ATOM     20  H   UNL     1      21.707  41.192  -5.758  1.00  0.00     0.123 HD
BRANCH  19  21
ATOM     21  C   UNL     1      20.784  39.390  -5.282  1.00  0.00     0.047 C 
ATOM     22  C   UNL     1      21.941  38.986  -4.355  1.00  0.00     0.024 C 
ATOM     23  C   UNL     1      19.624  39.933  -4.439  1.00  0.00     0.024 C 
ENDBRANCH  19  21
ENDBRANCH  18  19
ENDBRANCH  15  18
ENDBRANCH  14  15
ENDBRANCH   1  14
TORSDOF 11
ENDMDL
MODEL 4
REMARK VINA RESULT:    -6.517      2.238      3.832
REMARK INTER + INTRA:         -11.741
REMARK INTER:                 -10.845
REMARK INTRA:                  -0.895
REMARK UNBOUND:                -1.224
REMARK SMILES COC(=O)CCc1ccc(OCC(O)CNC(C)C)cc1
REMARK SMILES IDX 11 1 10 2 7 3 8 4 21 5 9 6 20 7 6 8 5 9 3 10 4 11 2 12 1 13
REMARK SMILES IDX 12 14 13 15 14 16 15 18 16 19 17 21 18 22 19 23
REMARK H PARENT 14 17 16 20
REMARK Flexibility Score: inf
ROOT
ATOM      1  O   UNL     1      23.550  35.784 -10.850  1.00  0.00    -0.491 OA
ENDROOT
BRANCH   1   2
ATOM      2  C   UNL     1      24.232  35.399  -9.684  1.00  0.00     0.119 A 
ATOM      3  C   UNL     1      25.538  34.722  -7.277  1.00  0.00    -0.047 A 
ATOM      4  C   UNL     1      24.590  35.756  -7.305  1.00  0.00     0.007 A 
ATOM      5  C   UNL     1      25.812  34.010  -8.455  1.00  0.00     0.007 A 
ATOM      6  C   UNL     1      23.947  36.090  -8.500  1.00  0.00     0.047 A 
ATOM      7  C   UNL     1      25.168  34.345  -9.650  1.00  0.00     0.047 A 
BRANCH   3   8
ATOM      8  C   UNL     1      26.206  34.338  -5.985  1.00  0.00     0.047 C 
BRANCH   8   9
ATOM      9  C   UNL     1      26.881  35.554  -5.347  1.00  0.00     0.127 C 
BRANCH   9  10
ATOM     10  C   UNL     1      26.215  35.904  -4.055  1.00  0.00     0.305 C 
ATOM     11  O   UNL     1      26.091  35.028  -3.156  1.00  0.00    -0.252 OA
BRANCH  10  12
ATOM     12  O   UNL     1      25.697  37.189  -3.874  1.00  0.00    -0.469 OA
ATOM     13  C   UNL     1      24.320  37.494  -4.061  1.00  0.00     0.282 C 
ENDBRANCH  10  12
ENDBRANCH   9  10
ENDBRANCH   8   9
ENDBRANCH   3   8
ENDBRANCH   1   2
BRANCH   1  14
ATOM     14  C   UNL     1      22.236  35.377 -11.237  1.00  0.00     0.262 C 
BRANCH  14  15
ATOM     15  C   UNL     1      21.356  36.601 -11.559  1.00  0.00     0.165 C 
BRANCH  15  16
ATOM     16  O   UNL     1      21.462  37.567 -10.544  1.00  0.00    -0.388 OA
ATOM     17  H   UNL     1      22.286  38.095 -10.713  1.00  0.00     0.211 HD
ENDBRANCH  15  16
BRANCH  15  18
ATOM     18  C   UNL     1      21.697  37.244 -12.931  1.00  0.00     0.116 C 
BRANCH  18  19
ATOM     19  N   UNL     1      22.758  36.559 -13.696  1.00  0.00    -0.312 NA
ATOM     20  H   UNL     1      22.324  35.799 -14.270  1.00  0.00     0.123 HD
BRANCH  19  21
ATOM     21  C   UNL     1      23.587  37.426 -14.559  1.00  0.00     0.047 C 
ATOM     22  C   UNL     1      23.297  38.915 -14.315  1.00  0.00     0.024 C 
ATOM     23  C   UNL     1      25.068  37.144 -14.277  1.00  0.00     0.024 C 
ENDBRANCH  19  21
ENDBRANCH  18  19
ENDBRANCH  15  18
ENDBRANCH  14  15
ENDBRANCH   1  14
TORSDOF 11
ENDMDL
MODEL 5
REMARK VINA RESULT:    -6.487      3.028      5.781
REMARK INTER + INTRA:         -11.693
REMARK INTER:                 -10.599
REMARK INTRA:                  -1.094
REMARK UNBOUND:                -1.224
REMARK SMILES COC(=O)CCc1ccc(OCC(O)CNC(C)C)cc1
REMARK SMILES IDX 11 1 10 2 7 3 8 4 21 5 9 6 20 7 6 8 5 9 3 10 4 11 2 12 1 13
REMARK SMILES IDX 12 14 13 15 14 16 15 18 16 19 17 21 18 22 19 23
REMARK H PARENT 14 17 16 20
REMARK Flexibility Score: inf
ROOT
ATOM      1  O   UNL     1      24.210  35.724  -8.624  1.00  0.00    -0.491 OA
ENDROOT
BRANCH   1   2
ATOM      2  C   UNL     1      23.734  36.507  -7.558  1.00  0.00     0.119 A 
ATOM      3  C   UNL     1      22.858  38.177  -5.462  1.00  0.00    -0.047 A 
ATOM      4  C   UNL     1      23.764  38.656  -6.420  1.00  0.00     0.007 A 
ATOM      5  C   UNL     1      22.372  36.865  -5.571  1.00  0.00     0.007 A 
ATOM      6  C   UNL     1      24.197  37.824  -7.456  1.00  0.00     0.047 A 
ATOM      7  C   UNL     1      22.806  36.034  -6.608  1.00  0.00     0.047 A 
BRANCH   3   8
ATOM      8  C   UNL     1      22.363  39.082  -4.366  1.00  0.00     0.047 C 
BRANCH   8   9
ATOM      9  C   UNL     1      20.834  39.084  -4.319  1.00  0.00     0.127 C 
BRANCH   9  10
ATOM     10  C   UNL     1      20.291  40.300  -4.999  1.00  0.00     0.305 C 
ATOM     11  O   UNL     1      20.864  40.748  -6.031  1.00  0.00    -0.252 OA
BRANCH  10  12
ATOM     12  O   UNL     1      19.180  40.953  -4.460  1.00  0.00    -0.469 OA
ATOM     13  C   UNL     1      18.728  42.216  -4.934  1.00  0.00     0.282 C 
ENDBRANCH  10  12
ENDBRANCH   9  10
ENDBRANCH   8   9
ENDBRANCH   3   8
ENDBRANCH   1   2
BRANCH   1  14
ATOM     14  C   UNL     1      25.534  35.204  -8.769  1.00  0.00     0.262 C 
BRANCH  14  15
ATOM     15  C   UNL     1      25.656  33.822  -8.095  1.00  0.00     0.165 C 
BRANCH  15  16
ATOM     16  O   UNL     1      26.183  32.879  -8.994  1.00  0.00    -0.388 OA
ATOM     17  H   UNL     1      25.682  32.031  -8.870  1.00  0.00     0.211 HD
ENDBRANCH  15  16
BRANCH  15  18
ATOM     18  C   UNL     1      26.520  33.856  -6.805  1.00  0.00     0.116 C 
BRANCH  18  19
ATOM     19  N   UNL     1      25.758  33.827  -5.541  1.00  0.00    -0.312 NA
ATOM     20  H   UNL     1      26.098  33.026  -4.959  1.00  0.00     0.123 HD
BRANCH  19  21
ATOM     21  C   UNL     1      25.791  35.072  -4.745  1.00  0.00     0.047 C 
ATOM     22  C   UNL     1      25.993  34.784  -3.248  1.00  0.00     0.024 C 
ATOM     23  C   UNL     1      26.935  35.959  -5.250  1.00  0.00     0.024 C 
ENDBRANCH  19  21
ENDBRANCH  18  19
ENDBRANCH  15  18
ENDBRANCH  14  15
ENDBRANCH   1  14
TORSDOF 11
ENDMDL
MODEL 6
REMARK VINA RESULT:    -6.472      1.921      3.753
REMARK INTER + INTRA:         -11.668
REMARK INTER:                 -10.695
REMARK INTRA:                  -0.973
REMARK UNBOUND:                -1.224
REMARK SMILES COC(=O)CCc1ccc(OCC(O)CNC(C)C)cc1
REMARK SMILES IDX 11 1 10 2 7 3 8 4 21 5 9 6 20 7 6 8 5 9 3 10 4 11 2 12 1 13
REMARK SMILES IDX 12 14 13 15 14 16 15 18 16 19 17 21 18 22 19 23
REMARK H PARENT 14 17 16 20
REMARK Flexibility Score: inf
ROOT
ATOM      1  O   UNL     1      22.525  36.095 -10.354  1.00  0.00    -0.491 OA
ENDROOT
BRANCH   1   2
ATOM      2  C   UNL     1      23.469  35.960  -9.323  1.00  0.00     0.119 A 
ATOM      3  C   UNL     1      25.427  35.597  -7.326  1.00  0.00    -0.047 A 
ATOM      4  C   UNL     1      25.507  34.890  -8.535  1.00  0.00     0.007 A 
ATOM      5  C   UNL     1      24.376  36.505  -7.129  1.00  0.00     0.007 A 
ATOM      6  C   UNL     1      24.533  35.072  -9.521  1.00  0.00     0.047 A 
ATOM      7  C   UNL     1      23.403  36.686  -8.117  1.00  0.00     0.047 A 
BRANCH   3   8
ATOM      8  C   UNL     1      26.493  35.429  -6.277  1.00  0.00     0.047 C 
BRANCH   8   9
ATOM      9  C   UNL     1      25.971  34.589  -5.109  1.00  0.00     0.127 C 
BRANCH   9  10
ATOM     10  C   UNL     1      25.873  35.421  -3.870  1.00  0.00     0.305 C 
ATOM     11  O   UNL     1      25.792  34.859  -2.744  1.00  0.00    -0.252 OA
BRANCH  10  12
ATOM     12  O   UNL     1      25.827  36.813  -3.978  1.00  0.00    -0.469 OA
ATOM     13  C   UNL     1      24.636  37.560  -3.758  1.00  0.00     0.282 C 
ENDBRANCH  10  12
ENDBRANCH   9  10
ENDBRANCH   8   9
ENDBRANCH   3   8
ENDBRANCH   1   2
BRANCH   1  14
ATOM     14  C   UNL     1      21.207  36.636 -10.232  1.00  0.00     0.262 C 
BRANCH  14  15
ATOM     15  C   UNL     1      21.151  38.074 -10.784  1.00  0.00     0.165 C 
BRANCH  15  16
ATOM     16  O   UNL     1      20.451  38.109 -12.002  1.00  0.00    -0.388 OA
ATOM     17  H   UNL     1      19.481  38.072 -11.795  1.00  0.00     0.211 HD
ENDBRANCH  15  16
BRANCH  15  18
ATOM     18  C   UNL     1      20.512  39.077  -9.785  1.00  0.00     0.116 C 
BRANCH  18  19
ATOM     19  N   UNL     1      20.746  38.775  -8.359  1.00  0.00    -0.312 NA
ATOM     20  H   UNL     1      21.392  37.955  -8.289  1.00  0.00     0.123 HD
BRANCH  19  21
ATOM     21  C   UNL     1      21.266  39.892  -7.544  1.00  0.00     0.047 C 
ATOM     22  C   UNL     1      21.449  39.485  -6.073  1.00  0.00     0.024 C 
ATOM     23  C   UNL     1      22.614  40.345  -8.117  1.00  0.00     0.024 C 
ENDBRANCH  19  21
ENDBRANCH  18  19
ENDBRANCH  15  18
ENDBRANCH  14  15
ENDBRANCH   1  14
TORSDOF 11
ENDMDL
MODEL 7
REMARK VINA RESULT:    -6.471      1.856      3.927
REMARK INTER + INTRA:         -11.667
REMARK INTER:                 -10.815
REMARK INTRA:                  -0.852
REMARK UNBOUND:                -1.224
REMARK SMILES COC(=O)CCc1ccc(OCC(O)CNC(C)C)cc1
REMARK SMILES IDX 11 1 10 2 7 3 8 4 21 5 9 6 20 7 6 8 5 9 3 10 4 11 2 12 1 13
REMARK SMILES IDX 12 14 13 15 14 16 15 18 16 19 17 21 18 22 19 23
REMARK H PARENT 14 17 16 20
REMARK Flexibility Score: inf
ROOT
ATOM      1  O   UNL     1      23.070  35.884 -10.632  1.00  0.00    -0.491 OA
ENDROOT
BRANCH   1   2
ATOM      2  C   UNL     1      23.929  35.537  -9.576  1.00  0.00     0.119 A 
ATOM      3  C   UNL     1      25.603  34.941  -7.386  1.00  0.00    -0.047 A 
ATOM      4  C   UNL     1      24.671  35.987  -7.304  1.00  0.00     0.007 A 
ATOM      5  C   UNL     1      25.677  34.179  -8.561  1.00  0.00     0.007 A 
ATOM      6  C   UNL     1      23.845  36.280  -8.393  1.00  0.00     0.047 A 
ATOM      7  C   UNL     1      24.850  34.473  -9.650  1.00  0.00     0.047 A 
BRANCH   3   8
ATOM      8  C   UNL     1      26.469  34.602  -6.204  1.00  0.00     0.047 C 
BRANCH   8   9
ATOM      9  C   UNL     1      26.510  35.769  -5.214  1.00  0.00     0.127 C 
BRANCH   9  10
ATOM     10  C   UNL     1      25.871  35.380  -3.920  1.00  0.00     0.305 C 
ATOM     11  O   UNL     1      26.059  34.223  -3.451  1.00  0.00    -0.252 OA
BRANCH  10  12
ATOM     12  O   UNL     1      25.036  36.288  -3.264  1.00  0.00    -0.469 OA
ATOM     13  C   UNL     1      24.363  37.340  -3.945  1.00  0.00     0.282 C 
ENDBRANCH  10  12
ENDBRANCH   9  10
ENDBRANCH   8   9
ENDBRANCH   3   8
ENDBRANCH   1   2
BRANCH   1  14
ATOM     14  C   UNL     1      21.647  36.009 -10.562  1.00  0.00     0.262 C 
BRANCH  14  15
ATOM     15  C   UNL     1      21.166  37.246 -11.346  1.00  0.00     0.165 C 
BRANCH  15  16
ATOM     16  O   UNL     1      20.189  36.884 -12.290  1.00  0.00    -0.388 OA
ATOM     17  H   UNL     1      19.848  37.718 -12.707  1.00  0.00     0.211 HD
ENDBRANCH  15  16
BRANCH  15  18
ATOM     18  C   UNL     1      20.613  38.366 -10.425  1.00  0.00     0.116 C 
BRANCH  18  19
ATOM     19  N   UNL     1      20.691  38.081  -8.978  1.00  0.00    -0.312 NA
ATOM     20  H   UNL     1      21.369  37.299  -8.823  1.00  0.00     0.123 HD
BRANCH  19  21
ATOM     21  C   UNL     1      21.048  39.228  -8.117  1.00  0.00     0.047 C 
ATOM     22  C   UNL     1      22.378  39.869  -8.546  1.00  0.00     0.024 C 
ATOM     23  C   UNL     1      19.931  40.277  -8.192  1.00  0.00     0.024 C 
ENDBRANCH  19  21
ENDBRANCH  18  19
ENDBRANCH  15  18
ENDBRANCH  14  15
ENDBRANCH   1  14
TORSDOF 11
ENDMDL
MODEL 8
REMARK VINA RESULT:    -6.465      3.123      5.095
REMARK INTER + INTRA:         -11.656
REMARK INTER:                 -10.021
REMARK INTRA:                  -1.635
REMARK UNBOUND:                -1.224
REMARK SMILES COC(=O)CCc1ccc(OCC(O)CNC(C)C)cc1
REMARK SMILES IDX 11 1 10 2 7 3 8 4 21 5 9 6 20 7 6 8 5 9 3 10 4 11 2 12 1 13
REMARK SMILES IDX 12 14 13 15 14 16 15 18 16 19 17 21 18 22 19 23
REMARK H PARENT 14 17 16 20
REMARK Flexibility Score: inf
ROOT
ATOM      1  O   UNL     1      21.743  40.269  -6.432  1.00  0.00    -0.491 OA
ENDROOT
BRANCH   1   2
ATOM      2  C   UNL     1      22.496  39.099  -6.624  1.00  0.00     0.119 A 
ATOM      3  C   UNL     1      23.919  36.684  -6.936  1.00  0.00    -0.047 A 
ATOM      4  C   UNL     1      22.710  36.709  -6.223  1.00  0.00     0.007 A 
ATOM      5  C   UNL     1      24.401  37.868  -7.514  1.00  0.00     0.007 A 
ATOM      6  C   UNL     1      22.010  37.909  -6.069  1.00  0.00     0.047 A 
ATOM      7  C   UNL     1      23.699  39.068  -7.359  1.00  0.00     0.047 A 
BRANCH   3   8
ATOM      8  C   UNL     1      24.656  35.387  -7.133  1.00  0.00     0.047 C 
BRANCH   8   9
ATOM      9  C   UNL     1      25.712  35.530  -8.232  1.00  0.00     0.127 C 
BRANCH   9  10
ATOM     10  C   UNL     1      25.269  34.828  -9.476  1.00  0.00     0.305 C 
ATOM     11  O   UNL     1      25.548  33.608  -9.639  1.00  0.00    -0.252 OA
BRANCH  10  12
ATOM     12  O   UNL     1      24.588  35.542 -10.464  1.00  0.00    -0.469 OA
ATOM     13  C   UNL     1      23.177  35.468 -10.630  1.00  0.00     0.282 C 
ENDBRANCH  10  12
ENDBRANCH   9  10
ENDBRANCH   8   9
ENDBRANCH   3   8
ENDBRANCH   1   2
BRANCH   1  14
ATOM     14  C   UNL     1      20.383  40.340  -5.996  1.00  0.00     0.262 C 
BRANCH  14  15
ATOM     15  C   UNL     1      19.621  41.442  -6.758  1.00  0.00     0.165 C 
BRANCH  15  16
ATOM     16  O   UNL     1      20.424  42.585  -6.909  1.00  0.00    -0.388 OA
ATOM     17  H   UNL     1      21.216  42.329  -7.451  1.00  0.00     0.211 HD
ENDBRANCH  15  16
BRANCH  15  18
ATOM     18  C   UNL     1      19.114  40.972  -8.148  1.00  0.00     0.116 C 
BRANCH  18  19
ATOM     19  N   UNL     1      19.360  39.549  -8.455  1.00  0.00    -0.312 NA
ATOM     20  H   UNL     1      18.442  39.047  -8.492  1.00  0.00     0.123 HD
BRANCH  19  21
ATOM     21  C   UNL     1      20.125  39.283  -9.691  1.00  0.00     0.047 C 
ATOM     22  C   UNL     1      21.264  40.296  -9.883  1.00  0.00     0.024 C 
ATOM     23  C   UNL     1      20.709  37.867  -9.624  1.00  0.00     0.024 C 
ENDBRANCH  19  21
ENDBRANCH  18  19
ENDBRANCH  15  18
ENDBRANCH  14  15
ENDBRANCH   1  14
TORSDOF 11
ENDMDL
MODEL 9
REMARK VINA RESULT:    -6.459      2.086      5.783
REMARK INTER + INTRA:         -11.648
REMARK INTER:                 -10.457
REMARK INTRA:                  -1.191
REMARK UNBOUND:                -1.224
REMARK SMILES COC(=O)CCc1ccc(OCC(O)CNC(C)C)cc1
REMARK SMILES IDX 11 1 10 2 7 3 8 4 21 5 9 6 20 7 6 8 5 9 3 10 4 11 2 12 1 13
REMARK SMILES IDX 12 14 13 15 14 16 15 18 16 19 17 21 18 22 19 23
REMARK H PARENT 14 17 16 20
REMARK Flexibility Score: inf
ROOT
ATOM      1  O   UNL     1      25.584  36.487  -3.851  1.00  0.00    -0.491 OA
ENDROOT
BRANCH   1   2
ATOM      2  C   UNL     1      24.344  37.069  -4.163  1.00  0.00     0.119 A 
ATOM      3  C   UNL     1      21.899  38.352  -4.739  1.00  0.00    -0.047 A 
ATOM      4  C   UNL     1      22.962  39.071  -4.171  1.00  0.00     0.007 A 
ATOM      5  C   UNL     1      22.073  36.993  -5.041  1.00  0.00     0.007 A 
ATOM      6  C   UNL     1      24.171  38.430  -3.885  1.00  0.00     0.047 A 
ATOM      7  C   UNL     1      23.283  36.353  -4.754  1.00  0.00     0.047 A 
BRANCH   3   8
ATOM      8  C   UNL     1      20.609  39.047  -5.079  1.00  0.00     0.047 C 
BRANCH   8   9
ATOM      9  C   UNL     1      20.878  40.301  -5.913  1.00  0.00     0.127 C 
BRANCH   9  10
ATOM     10  C   UNL     1      21.648  39.954  -7.147  1.00  0.00     0.305 C 
ATOM     11  O   UNL     1      22.800  40.437  -7.322  1.00  0.00    -0.252 OA
BRANCH  10  12
ATOM     12  O   UNL     1      21.064  39.132  -8.115  1.00  0.00    -0.469 OA
ATOM     13  C   UNL     1      20.006  39.573  -8.958  1.00  0.00     0.282 C 
ENDBRANCH  10  12
ENDBRANCH   9  10
ENDBRANCH   8   9
ENDBRANCH   3   8
ENDBRANCH   1   2
BRANCH   1  14
ATOM     14  C   UNL     1      26.637  36.189  -4.772  1.00  0.00     0.262 C 
BRANCH  14  15
ATOM     15  C   UNL     1      26.671  34.682  -5.096  1.00  0.00     0.165 C 
BRANCH  15  16
ATOM     16  O   UNL     1      26.098  33.939  -4.049  1.00  0.00    -0.388 OA
ATOM     17  H   UNL     1      26.495  34.259  -3.198  1.00  0.00     0.211 HD
ENDBRANCH  15  16
BRANCH  15  18
ATOM     18  C   UNL     1      25.961  34.337  -6.433  1.00  0.00     0.116 C 
BRANCH  18  19
ATOM     19  N   UNL     1      25.926  35.432  -7.423  1.00  0.00    -0.312 NA
ATOM     20  H   UNL     1      26.685  35.275  -8.127  1.00  0.00     0.123 HD
BRANCH  19  21
ATOM     21  C   UNL     1      24.636  35.628  -8.116  1.00  0.00     0.047 C 
ATOM     22  C   UNL     1      24.209  37.104  -8.113  1.00  0.00     0.024 C 
ATOM     23  C   UNL     1      24.766  35.139  -9.564  1.00  0.00     0.024 C 
ENDBRANCH  19  21
ENDBRANCH  18  19
ENDBRANCH  15  18
ENDBRANCH  14  15
ENDBRANCH   1  14
TORSDOF 11
ENDMDL
MODEL 10
REMARK VINA RESULT:    -6.391      2.155      7.185
REMARK INTER + INTRA:         -11.538
REMARK INTER:                 -10.547
REMARK INTRA:                  -0.991
REMARK UNBOUND:                -1.224
REMARK SMILES COC(=O)CCc1ccc(OCC(O)CNC(C)C)cc1
REMARK SMILES IDX 11 1 10 2 7 3 8 4 21 5 9 6 20 7 6 8 5 9 3 10 4 11 2 12 1 13
REMARK SMILES IDX 12 14 13 15 14 16 15 18 16 19 17 21 18 22 19 23
REMARK H PARENT 14 17 16 20
REMARK Flexibility Score: inf
ROOT
ATOM      1  O   UNL     1      26.262  35.488  -6.553  1.00  0.00    -0.491 OA
ENDROOT
BRANCH   1   2
ATOM      2  C   UNL     1      25.404  35.510  -7.666  1.00  0.00     0.119 A 
ATOM      3  C   UNL     1      23.610  35.649  -9.838  1.00  0.00    -0.047 A 
ATOM      4  C   UNL     1      23.455  36.500  -8.733  1.00  0.00     0.007 A 
ATOM      5  C   UNL     1      24.682  34.744  -9.863  1.00  0.00     0.007 A 
ATOM      6  C   UNL     1      24.345  36.426  -7.658  1.00  0.00     0.047 A 
ATOM      7  C   UNL     1      25.572  34.672  -8.786  1.00  0.00     0.047 A 
BRANCH   3   8
ATOM      8  C   UNL     1      22.674  35.751 -11.011  1.00  0.00     0.047 C 
BRANCH   8   9
ATOM      9  C   UNL     1      21.337  36.358 -10.582  1.00  0.00     0.127 C 
BRANCH   9  10
ATOM     10  C   UNL     1      20.852  37.332 -11.607  1.00  0.00     0.305 C 
ATOM     11  O   UNL     1      20.236  36.913 -12.626  1.00  0.00    -0.252 OA
BRANCH  10  12
ATOM     12  O   UNL     1      21.123  38.693 -11.447  1.00  0.00    -0.469 OA
ATOM     13  C   UNL     1      21.082  39.339 -10.180  1.00  0.00     0.282 C 
ENDBRANCH  10  12
ENDBRANCH   9  10
ENDBRANCH   8   9
ENDBRANCH   3   8
ENDBRANCH   1   2
BRANCH   1  14
ATOM     14  C   UNL     1      26.109  34.683  -5.381  1.00  0.00     0.262 C 
BRANCH  14  15
ATOM     15  C   UNL     1      25.965  35.567  -4.126  1.00  0.00     0.165 C 
BRANCH  15  16
ATOM     16  O   UNL     1      26.951  36.568  -4.109  1.00  0.00    -0.388 OA
ATOM     17  H   UNL     1      26.698  37.230  -3.414  1.00  0.00     0.211 HD
ENDBRANCH  15  16
BRANCH  15  18
ATOM     18  C   UNL     1      24.559  36.215  -4.005  1.00  0.00     0.116 C 
BRANCH  18  19
ATOM     19  N   UNL     1      24.548  37.692  -4.027  1.00  0.00    -0.312 NA
ATOM     20  H   UNL     1      25.305  38.026  -4.667  1.00  0.00     0.123 HD
BRANCH  19  21
ATOM     21  C   UNL     1      23.263  38.317  -4.403  1.00  0.00     0.047 C 
ATOM     22  C   UNL     1      23.406  39.203  -5.652  1.00  0.00     0.024 C 
ATOM     23  C   UNL     1      22.231  37.216  -4.677  1.00  0.00     0.024 C 
ENDBRANCH  19  21
ENDBRANCH  18  19
ENDBRANCH  15  18
ENDBRANCH  14  15
ENDBRANCH   1  14
TORSDOF 11
ENDMDL
MODEL 11
REMARK VINA RESULT:    -6.385      2.596      4.372
REMARK INTER + INTRA:         -11.529
REMARK INTER:                  -9.918
REMARK INTRA:                  -1.611
REMARK UNBOUND:                -1.224
REMARK SMILES COC(=O)CCc1ccc(OCC(O)CNC(C)C)cc1
REMARK SMILES IDX 11 1 10 2 7 3 8 4 21 5 9 6 20 7 6 8 5 9 3 10 4 11 2 12 1 13
REMARK SMILES IDX 12 14 13 15 14 16 15 18 16 19 17 21 18 22 19 23
REMARK H PARENT 14 17 16 20
REMARK Flexibility Score: inf
ROOT
ATOM      1  O   UNL     1      21.731  40.114  -6.106  1.00  0.00    -0.491 OA
ENDROOT
BRANCH   1   2
ATOM      2  C   UNL     1      22.377  38.925  -6.483  1.00  0.00     0.119 A 
ATOM      3  C   UNL     1      23.760  36.610  -7.309  1.00  0.00    -0.047 A 
ATOM      4  C   UNL     1      24.215  37.883  -7.687  1.00  0.00     0.007 A 
ATOM      5  C   UNL     1      22.623  36.501  -6.495  1.00  0.00     0.007 A 
ATOM      6  C   UNL     1      23.525  39.027  -7.278  1.00  0.00     0.047 A 
ATOM      7  C   UNL     1      21.934  37.647  -6.085  1.00  0.00     0.047 A 
BRANCH   3   8
ATOM      8  C   UNL     1      24.521  35.379  -7.720  1.00  0.00     0.047 C 
BRANCH   8   9
ATOM      9  C   UNL     1      25.960  35.438  -7.202  1.00  0.00     0.127 C 
BRANCH   9  10
ATOM     10  C   UNL     1      26.173  34.411  -6.136  1.00  0.00     0.305 C 
ATOM     11  O   UNL     1      26.389  33.210  -6.458  1.00  0.00    -0.252 OA
BRANCH  10  12
ATOM     12  O   UNL     1      26.089  34.784  -4.793  1.00  0.00    -0.469 OA
ATOM     13  C   UNL     1      26.186  36.138  -4.366  1.00  0.00     0.282 C 
ENDBRANCH  10  12
ENDBRANCH   9  10
ENDBRANCH   8   9
ENDBRANCH   3   8
ENDBRANCH   1   2
BRANCH   1  14
ATOM     14  C   UNL     1      20.319  40.314  -5.996  1.00  0.00     0.262 C 
BRANCH  14  15
ATOM     15  C   UNL     1      19.829  41.342  -7.036  1.00  0.00     0.165 C 
BRANCH  15  16
ATOM     16  O   UNL     1      20.867  42.224  -7.385  1.00  0.00    -0.388 OA
ATOM     17  H   UNL     1      20.730  42.491  -8.332  1.00  0.00     0.211 HD
ENDBRANCH  15  16
BRANCH  15  18
ATOM     18  C   UNL     1      19.254  40.678  -8.315  1.00  0.00     0.116 C 
BRANCH  18  19
ATOM     19  N   UNL     1      19.663  39.275  -8.530  1.00  0.00    -0.312 NA
ATOM     20  H   UNL     1      18.825  38.658  -8.420  1.00  0.00     0.123 HD
BRANCH  19  21
ATOM     21  C   UNL     1      20.326  38.991  -9.819  1.00  0.00     0.047 C 
ATOM     22  C   UNL     1      21.425  40.020 -10.131  1.00  0.00     0.024 C 
ATOM     23  C   UNL     1      20.943  37.588  -9.767  1.00  0.00     0.024 C 
ENDBRANCH  19  21
ENDBRANCH  18  19
ENDBRANCH  15  18
ENDBRANCH  14  15
ENDBRANCH   1  14
TORSDOF 11
ENDMDL
MODEL 12
REMARK VINA RESULT:    -6.366      3.171      5.352
REMARK INTER + INTRA:         -11.497
REMARK INTER:                 -10.479
REMARK INTRA:                  -1.018
REMARK UNBOUND:                -1.224
REMARK SMILES COC(=O)CCc1ccc(OCC(O)CNC(C)C)cc1
REMARK SMILES IDX 11 1 10 2 7 3 8 4 21 5 9 6 20 7 6 8 5 9 3 10 4 11 2 12 1 13
REMARK SMILES IDX 12 14 13 15 14 16 15 18 16 19 17 21 18 22 19 23
REMARK H PARENT 14 17 16 20
REMARK Flexibility Score: inf
ROOT
ATOM      1  O   UNL     1      25.020  36.599  -8.399  1.00  0.00    -0.491 OA
ENDROOT
BRANCH   1   2
ATOM      2  C   UNL     1      24.206  37.214  -7.432  1.00  0.00     0.119 A 
ATOM      3  C   UNL     1      22.545  38.328  -5.445  1.00  0.00    -0.047 A 
ATOM      4  C   UNL     1      22.753  36.942  -5.501  1.00  0.00     0.007 A 
ATOM      5  C   UNL     1      23.192  39.158  -6.372  1.00  0.00     0.007 A 
ATOM      6  C   UNL     1      23.575  36.393  -6.490  1.00  0.00     0.047 A 
ATOM      7  C   UNL     1      24.015  38.608  -7.360  1.00  0.00     0.047 A 
BRANCH   3   8
ATOM      8  C   UNL     1      21.687  38.923  -4.361  1.00  0.00     0.047 C 
BRANCH   8   9
ATOM      9  C   UNL     1      20.456  39.604  -4.961  1.00  0.00     0.127 C 
BRANCH   9  10
ATOM     10  C   UNL     1      19.626  40.228  -3.885  1.00  0.00     0.305 C 
ATOM     11  O   UNL     1      19.212  39.522  -2.925  1.00  0.00    -0.252 OA
BRANCH  10  12
ATOM     12  O   UNL     1      19.283  41.579  -3.978  1.00  0.00    -0.469 OA
ATOM     13  C   UNL     1      18.633  42.129  -5.117  1.00  0.00     0.282 C 
ENDBRANCH  10  12
ENDBRANCH   9  10
ENDBRANCH   8   9
ENDBRANCH   3   8
ENDBRANCH   1   2
BRANCH   1  14
ATOM     14  C   UNL     1      25.777  35.398  -8.229  1.00  0.00     0.262 C 
BRANCH  14  15
ATOM     15  C   UNL     1      25.590  34.457  -9.436  1.00  0.00     0.165 C 
BRANCH  15  16
ATOM     16  O   UNL     1      25.999  33.151  -9.113  1.00  0.00    -0.388 OA
ATOM     17  H   UNL     1      26.914  33.207  -8.733  1.00  0.00     0.211 HD
ENDBRANCH  15  16
BRANCH  15  18
ATOM     18  C   UNL     1      24.128  34.433  -9.959  1.00  0.00     0.116 C 
BRANCH  18  19
ATOM     19  N   UNL     1      23.798  35.484 -10.942  1.00  0.00    -0.312 NA
ATOM     20  H   UNL     1      24.241  35.241 -11.859  1.00  0.00     0.123 HD
BRANCH  19  21
ATOM     21  C   UNL     1      22.357  35.748 -11.139  1.00  0.00     0.047 C 
ATOM     22  C   UNL     1      21.814  36.738 -10.097  1.00  0.00     0.024 C 
ATOM     23  C   UNL     1      22.141  36.320 -12.545  1.00  0.00     0.024 C 
ENDBRANCH  19  21
ENDBRANCH  18  19
ENDBRANCH  15  18
ENDBRANCH  14  15
ENDBRANCH   1  14
TORSDOF 11
ENDMDL
MODEL 13
REMARK VINA RESULT:    -6.338      2.732      4.409
REMARK INTER + INTRA:         -11.453
REMARK INTER:                 -10.101
REMARK INTRA:                  -1.352
REMARK UNBOUND:                -1.224
REMARK SMILES COC(=O)CCc1ccc(OCC(O)CNC(C)C)cc1
REMARK SMILES IDX 11 1 10 2 7 3 8 4 21 5 9 6 20 7 6 8 5 9 3 10 4 11 2 12 1 13
REMARK SMILES IDX 12 14 13 15 14 16 15 18 16 19 17 21 18 22 19 23
REMARK H PARENT 14 17 16 20
REMARK Flexibility Score: inf
ROOT
ATOM      1  O   UNL     1      20.752  38.691  -5.124  1.00  0.00    -0.491 OA
ENDROOT
BRANCH   1   2
ATOM      2  C   UNL     1      21.979  38.054  -4.874  1.00  0.00     0.119 A 
ATOM      3  C   UNL     1      24.490  36.891  -4.330  1.00  0.00    -0.047 A 
ATOM      4  C   UNL     1      24.259  38.246  -4.049  1.00  0.00     0.007 A 
ATOM      5  C   UNL     1      23.451  36.113  -4.863  1.00  0.00     0.007 A 
ATOM      6  C   UNL     1      23.014  38.819  -4.322  1.00  0.00     0.047 A 
ATOM      7  C   UNL     1      22.205  36.687  -5.136  1.00  0.00     0.047 A 
BRANCH   3   8
ATOM      8  C   UNL     1      25.818  36.264  -4.005  1.00  0.00     0.047 C 
BRANCH   8   9
ATOM      9  C   UNL     1      26.606  35.978  -5.285  1.00  0.00     0.127 C 
BRANCH   9  10
ATOM     10  C   UNL     1      26.290  34.610  -5.800  1.00  0.00     0.305 C 
ATOM     11  O   UNL     1      26.206  33.642  -4.995  1.00  0.00    -0.252 OA
BRANCH  10  12
ATOM     12  O   UNL     1      26.133  34.411  -7.174  1.00  0.00    -0.469 OA
ATOM     13  C   UNL     1      25.233  35.182  -7.962  1.00  0.00     0.282 C 
ENDBRANCH  10  12
ENDBRANCH   9  10
ENDBRANCH   8   9
ENDBRANCH   3   8
ENDBRANCH   1   2
BRANCH   1  14
ATOM     14  C   UNL     1      20.331  39.955  -4.602  1.00  0.00     0.262 C 
BRANCH  14  15
ATOM     15  C   UNL     1      19.628  40.790  -5.691  1.00  0.00     0.165 C 
BRANCH  15  16
ATOM     16  O   UNL     1      19.381  42.095  -5.230  1.00  0.00    -0.388 OA
ATOM     17  H   UNL     1      19.625  42.724  -5.958  1.00  0.00     0.211 HD
ENDBRANCH  15  16
BRANCH  15  18
ATOM     18  C   UNL     1      20.433  40.848  -7.018  1.00  0.00     0.116 C 
BRANCH  18  19
ATOM     19  N   UNL     1      20.440  39.596  -7.800  1.00  0.00    -0.312 NA
ATOM     20  H   UNL     1      19.626  39.603  -8.457  1.00  0.00     0.123 HD
BRANCH  19  21
ATOM     21  C   UNL     1      21.683  39.315  -8.548  1.00  0.00     0.047 C 
ATOM     22  C   UNL     1      22.904  39.976  -7.889  1.00  0.00     0.024 C 
ATOM     23  C   UNL     1      21.899  37.798  -8.610  1.00  0.00     0.024 C 
ENDBRANCH  19  21
ENDBRANCH  18  19
ENDBRANCH  15  18
ENDBRANCH  14  15
ENDBRANCH   1  14
TORSDOF 11
ENDMDL
MODEL 14
REMARK VINA RESULT:    -6.334      2.052      2.738
REMARK INTER + INTRA:         -11.446
REMARK INTER:                 -10.704
REMARK INTRA:                  -0.742
REMARK UNBOUND:                -1.224
REMARK SMILES COC(=O)CCc1ccc(OCC(O)CNC(C)C)cc1
REMARK SMILES IDX 11 1 10 2 7 3 8 4 21 5 9 6 20 7 6 8 5 9 3 10 4 11 2 12 1 13
REMARK SMILES IDX 12 14 13 15 14 16 15 18 16 19 17 21 18 22 19 23
REMARK H PARENT 14 17 16 20
REMARK Flexibility Score: inf
ROOT
ATOM      1  O   UNL     1      22.675  39.948  -8.355  1.00  0.00    -0.491 OA
ENDROOT
BRANCH   1   2
ATOM      2  C   UNL     1      23.119  39.224  -7.235  1.00  0.00     0.119 A 
ATOM      3  C   UNL     1      24.070  37.686  -5.071  1.00  0.00    -0.047 A 
ATOM      4  C   UNL     1      24.401  37.338  -6.389  1.00  0.00     0.007 A 
ATOM      5  C   UNL     1      23.281  38.823  -4.838  1.00  0.00     0.007 A 
ATOM      6  C   UNL     1      23.926  38.102  -7.459  1.00  0.00     0.047 A 
ATOM      7  C   UNL     1      22.806  39.587  -5.909  1.00  0.00     0.047 A 
BRANCH   3   8
ATOM      8  C   UNL     1      24.609  36.886  -3.916  1.00  0.00     0.047 C 
BRANCH   8   9
ATOM      9  C   UNL     1      25.920  36.199  -4.303  1.00  0.00     0.127 C 
BRANCH   9  10
ATOM     10  C   UNL     1      26.013  34.851  -3.662  1.00  0.00     0.305 C 
ATOM     11  O   UNL     1      26.012  34.755  -2.404  1.00  0.00    -0.252 OA
BRANCH  10  12
ATOM     12  O   UNL     1      26.145  33.715  -4.463  1.00  0.00    -0.469 OA
ATOM     13  C   UNL     1      26.420  33.787  -5.857  1.00  0.00     0.282 C 
ENDBRANCH  10  12
ENDBRANCH   9  10
ENDBRANCH   8   9
ENDBRANCH   3   8
ENDBRANCH   1   2
BRANCH   1  14
ATOM     14  C   UNL     1      21.338  40.389  -8.603  1.00  0.00     0.262 C 
BRANCH  14  15
ATOM     15  C   UNL     1      20.393  39.187  -8.800  1.00  0.00     0.165 C 
BRANCH  15  16
ATOM     16  O   UNL     1      19.050  39.597  -8.729  1.00  0.00    -0.388 OA
ATOM     17  H   UNL     1      18.517  38.989  -9.305  1.00  0.00     0.211 HD
ENDBRANCH  15  16
BRANCH  15  18
ATOM     18  C   UNL     1      20.641  38.439 -10.138  1.00  0.00     0.116 C 
BRANCH  18  19
ATOM     19  N   UNL     1      21.258  37.104 -10.003  1.00  0.00    -0.312 NA
ATOM     20  H   UNL     1      20.529  36.426  -9.680  1.00  0.00     0.123 HD
BRANCH  19  21
ATOM     21  C   UNL     1      21.925  36.582 -11.214  1.00  0.00     0.047 C 
ATOM     22  C   UNL     1      22.172  35.068 -11.118  1.00  0.00     0.024 C 
ATOM     23  C   UNL     1      21.048  36.877 -12.436  1.00  0.00     0.024 C 
ENDBRANCH  19  21
ENDBRANCH  18  19
ENDBRANCH  15  18
ENDBRANCH  14  15
ENDBRANCH   1  14
TORSDOF 11
ENDMDL
MODEL 15
REMARK VINA RESULT:    -6.323      3.087      4.833
REMARK INTER + INTRA:         -11.428
REMARK INTER:                 -10.344
REMARK INTRA:                  -1.084
REMARK UNBOUND:                -1.224
REMARK SMILES COC(=O)CCc1ccc(OCC(O)CNC(C)C)cc1
REMARK SMILES IDX 11 1 10 2 7 3 8 4 21 5 9 6 20 7 6 8 5 9 3 10 4 11 2 12 1 13
REMARK SMILES IDX 12 14 13 15 14 16 15 18 16 19 17 21 18 22 19 23
REMARK H PARENT 14 17 16 20
REMARK Flexibility Score: inf
ROOT
ATOM      1  O   UNL     1      22.317  40.290  -7.414  1.00  0.00    -0.491 OA
ENDROOT
BRANCH   1   2
ATOM      2  C   UNL     1      23.053  39.261  -6.803  1.00  0.00     0.119 A 
ATOM      3  C   UNL     1      24.501  37.249  -5.458  1.00  0.00    -0.047 A 
ATOM      4  C   UNL     1      23.804  38.227  -4.733  1.00  0.00     0.007 A 
ATOM      5  C   UNL     1      24.450  37.267  -6.860  1.00  0.00     0.007 A 
ATOM      6  C   UNL     1      23.090  39.224  -5.404  1.00  0.00     0.047 A 
ATOM      7  C   UNL     1      23.735  38.264  -7.530  1.00  0.00     0.047 A 
BRANCH   3   8
ATOM      8  C   UNL     1      25.242  36.155  -4.739  1.00  0.00     0.047 C 
BRANCH   8   9
ATOM      9  C   UNL     1      26.359  35.591  -5.620  1.00  0.00     0.127 C 
BRANCH   9  10
ATOM     10  C   UNL     1      26.251  34.103  -5.712  1.00  0.00     0.305 C 
ATOM     11  O   UNL     1      26.208  33.411  -4.658  1.00  0.00    -0.252 OA
BRANCH  10  12
ATOM     12  O   UNL     1      26.243  33.490  -6.968  1.00  0.00    -0.469 OA
ATOM     13  C   UNL     1      25.842  34.171  -8.151  1.00  0.00     0.282 C 
ENDBRANCH  10  12
ENDBRANCH   9  10
ENDBRANCH   8   9
ENDBRANCH   3   8
ENDBRANCH   1   2
BRANCH   1  14
ATOM     14  C   UNL     1      21.842  40.307  -8.762  1.00  0.00     0.262 C 
BRANCH  14  15
ATOM     15  C   UNL     1      20.302  40.369  -8.800  1.00  0.00     0.165 C 
BRANCH  15  16
ATOM     16  O   UNL     1      19.757  39.076  -8.883  1.00  0.00    -0.388 OA
ATOM     17  H   UNL     1      18.993  39.029  -8.252  1.00  0.00     0.211 HD
ENDBRANCH  15  16
BRANCH  15  18
ATOM     18  C   UNL     1      19.699  41.113  -7.578  1.00  0.00     0.116 C 
BRANCH  18  19
ATOM     19  N   UNL     1      19.484  40.276  -6.380  1.00  0.00    -0.312 NA
ATOM     20  H   UNL     1      20.063  39.409  -6.466  1.00  0.00     0.123 HD
BRANCH  19  21
ATOM     21  C   UNL     1      19.754  40.932  -5.084  1.00  0.00     0.047 C 
ATOM     22  C   UNL     1      18.743  42.052  -4.792  1.00  0.00     0.024 C 
ATOM     23  C   UNL     1      19.686  39.882  -3.968  1.00  0.00     0.024 C 
ENDBRANCH  19  21
ENDBRANCH  18  19
ENDBRANCH  15  18
ENDBRANCH  14  15
ENDBRANCH   1  14
TORSDOF 11
ENDMDL
