MODEL 1
REMARK VINA RESULT:    -7.510      0.000      0.000
REMARK INTER + INTRA:         -17.655
REMARK INTER:                 -13.436
REMARK INTRA:                  -4.218
REMARK UNBOUND:                -4.218
REMARK SMILES CCNC(=O)CCC/C=C\C[C@@H]1[C@@H](/C=C/[C@@H](O)CCc2ccccc2)[C@H](O)C[C@@H]1O
REMARK SMILES IDX 11 1 10 2 9 3 8 4 7 5 6 6 4 7 3 8 5 10 2 11 1 12 12 13 29 14
REMARK SMILES IDX 13 15 28 16 26 17 30 18 14 20 15 21 16 22 17 23 18 25 19 26
REMARK SMILES IDX 20 27 21 28 25 29 22 30 24 31 23 32 27 33
REMARK H PARENT 3 9 30 19 17 24 27 34
REMARK Flexibility Score: inf
ROOT
ATOM      1  C   UNL     1      13.423  11.088  16.487  1.00  0.00     0.034 C 
ENDROOT
BRANCH   1   2
ATOM      2  C   UNL     1      14.675  10.731  17.258  1.00  0.00    -0.031 C 
ATOM      3  C   UNL     1      15.163  11.452  18.281  1.00  0.00    -0.031 C 
BRANCH   3   4
ATOM      4  C   UNL     1      14.541  12.713  18.833  1.00  0.00     0.027 C 
BRANCH   4   5
ATOM      5  C   UNL     1      13.666  12.485  20.081  1.00  0.00     0.014 C 
BRANCH   5   6
ATOM      6  C   UNL     1      14.377  11.769  21.242  1.00  0.00     0.100 C 
BRANCH   6   7
ATOM      7  C   UNL     1      13.662  10.516  21.661  1.00  0.00     0.219 C 
ATOM      8  N   UNL     1      14.311   9.243  21.548  1.00  0.00    -0.356 N 
ATOM      9  H   UNL     1      15.319   9.211  21.265  1.00  0.00     0.163 HD
ATOM     10  O   UNL     1      12.475  10.592  22.087  1.00  0.00    -0.275 OA
BRANCH   8  11
ATOM     11  C   UNL     1      13.659   7.987  21.923  1.00  0.00     0.112 C 
ATOM     12  C   UNL     1      14.686   6.867  22.049  1.00  0.00     0.027 C 
ENDBRANCH   8  11
ENDBRANCH   6   7
ENDBRANCH   5   6
ENDBRANCH   4   5
ENDBRANCH   3   4
ENDBRANCH   1   2
BRANCH   1  13
ATOM     13  C   UNL     1      12.212  10.156  16.773  1.00  0.00     0.031 C 
ATOM     14  C   UNL     1      11.895   9.132  15.663  1.00  0.00     0.121 C 
ATOM     15  C   UNL     1      12.380   9.341  18.079  1.00  0.00     0.046 C 
ATOM     16  C   UNL     1      12.369   7.778  16.169  1.00  0.00     0.064 C 
ATOM     17  C   UNL     1      12.315   7.847  17.693  1.00  0.00     0.124 C 
BRANCH  14  18
ATOM     18  O   UNL     1      12.511   9.440  14.438  1.00  0.00    -0.393 OA
ATOM     19  H   UNL     1      12.599   8.584  13.941  1.00  0.00     0.210 HD
ENDBRANCH  14  18
BRANCH  15  20
ATOM     20  C   UNL     1      11.289   9.674  19.076  1.00  0.00    -0.022 C 
ATOM     21  C   UNL     1      10.023   9.263  18.908  1.00  0.00     0.000 C 
BRANCH  21  22
ATOM     22  C   UNL     1       8.928   9.653  19.877  1.00  0.00     0.137 C 
BRANCH  22  23
ATOM     23  O   UNL     1       9.493  10.150  21.062  1.00  0.00    -0.389 OA
ATOM     24  H   UNL     1       8.738  10.412  21.654  1.00  0.00     0.211 HD
ENDBRANCH  22  23
BRANCH  22  25
ATOM     25  C   UNL     1       7.967  10.690  19.264  1.00  0.00     0.041 C 
BRANCH  25  26
ATOM     26  C   UNL     1       8.344  12.168  19.493  1.00  0.00     0.038 C 
BRANCH  26  27
ATOM     27  C   UNL     1       9.188  12.733  18.378  1.00  0.00    -0.048 A 
ATOM     28  C   UNL     1       8.746  12.671  17.045  1.00  0.00     0.004 A 
ATOM     29  C   UNL     1      10.435  13.312  18.664  1.00  0.00     0.004 A 
ATOM     30  C   UNL     1       9.549  13.171  16.015  1.00  0.00     0.000 A 
ATOM     31  C   UNL     1      11.232  13.818  17.630  1.00  0.00     0.000 A 
ATOM     32  C   UNL     1      10.790  13.747  16.306  1.00  0.00     0.000 A 
ENDBRANCH  26  27
ENDBRANCH  25  26
ENDBRANCH  22  25
ENDBRANCH  21  22
ENDBRANCH  15  20
BRANCH  17  33
ATOM     33  O   UNL     1      13.399   7.142  18.244  1.00  0.00    -0.392 OA
ATOM     34  H   UNL     1      14.221   7.624  17.962  1.00  0.00     0.210 HD
ENDBRANCH  17  33
ENDBRANCH   1  13
TORSDOF 15
ENDMDL
MODEL 2
REMARK VINA RESULT:    -7.402      2.773      5.080
REMARK INTER + INTRA:         -17.462
REMARK INTER:                 -14.409
REMARK INTRA:                  -3.053
REMARK UNBOUND:                -4.218
REMARK SMILES CCNC(=O)CCC/C=C\C[C@@H]1[C@@H](/C=C/[C@@H](O)CCc2ccccc2)[C@H](O)C[C@@H]1O
REMARK SMILES IDX 11 1 10 2 9 3 8 4 7 5 6 6 4 7 3 8 5 10 2 11 1 12 12 13 29 14
REMARK SMILES IDX 13 15 28 16 26 17 30 18 14 20 15 21 16 22 17 23 18 25 19 26
REMARK SMILES IDX 20 27 21 28 25 29 22 30 24 31 23 32 27 33
REMARK H PARENT 3 9 30 19 17 24 27 34
REMARK Flexibility Score: inf
ROOT
ATOM      1  C   UNL     1      11.437  10.953  18.296  1.00  0.00     0.034 C 
ENDROOT
BRANCH   1   2
ATOM      2  C   UNL     1      12.353  11.711  17.360  1.00  0.00    -0.031 C 
ATOM      3  C   UNL     1      12.521  11.412  16.060  1.00  0.00    -0.031 C 
BRANCH   3   4
ATOM      4  C   UNL     1      11.820  10.293  15.327  1.00  0.00     0.027 C 
BRANCH   4   5
ATOM      5  C   UNL     1      12.751   9.138  14.908  1.00  0.00     0.014 C 
BRANCH   5   6
ATOM      6  C   UNL     1      13.822   8.767  15.949  1.00  0.00     0.100 C 
BRANCH   6   7
ATOM      7  C   UNL     1      13.235   8.073  17.145  1.00  0.00     0.219 C 
ATOM      8  N   UNL     1      13.851   8.208  18.432  1.00  0.00    -0.356 N 
ATOM      9  H   UNL     1      14.654   8.872  18.543  1.00  0.00     0.163 HD
ATOM     10  O   UNL     1      12.208   7.350  17.002  1.00  0.00    -0.275 OA
BRANCH   8  11
ATOM     11  C   UNL     1      13.336   7.543  19.629  1.00  0.00     0.112 C 
ATOM     12  C   UNL     1      14.384   7.546  20.737  1.00  0.00     0.027 C 
ENDBRANCH   8  11
ENDBRANCH   6   7
ENDBRANCH   5   6
ENDBRANCH   4   5
ENDBRANCH   3   4
ENDBRANCH   1   2
BRANCH   1  13
ATOM     13  C   UNL     1       9.928  11.075  17.945  1.00  0.00     0.031 C 
ATOM     14  C   UNL     1       9.111   9.774  18.097  1.00  0.00     0.121 C 
ATOM     15  C   UNL     1       9.200  12.145  18.797  1.00  0.00     0.046 C 
ATOM     16  C   UNL     1       8.279   9.926  19.361  1.00  0.00     0.064 C 
ATOM     17  C   UNL     1       8.065  11.425  19.556  1.00  0.00     0.124 C 
BRANCH  14  18
ATOM     18  O   UNL     1       9.916   8.625  18.176  1.00  0.00    -0.393 OA
ATOM     19  H   UNL     1       9.929   8.353  19.131  1.00  0.00     0.210 HD
ENDBRANCH  14  18
BRANCH  15  20
ATOM     20  C   UNL     1       8.634  13.246  17.924  1.00  0.00    -0.022 C 
ATOM     21  C   UNL     1       8.731  13.214  16.586  1.00  0.00     0.000 C 
BRANCH  21  22
ATOM     22  C   UNL     1       8.217  14.348  15.727  1.00  0.00     0.137 C 
BRANCH  22  23
ATOM     23  O   UNL     1       7.994  15.486  16.519  1.00  0.00    -0.389 OA
ATOM     24  H   UNL     1       7.097  15.379  16.933  1.00  0.00     0.211 HD
ENDBRANCH  22  23
BRANCH  22  25
ATOM     25  C   UNL     1       9.187  14.677  14.576  1.00  0.00     0.041 C 
BRANCH  25  26
ATOM     26  C   UNL     1      10.664  14.306  14.819  1.00  0.00     0.038 C 
BRANCH  26  27
ATOM     27  C   UNL     1      11.371  13.874  13.559  1.00  0.00    -0.048 A 
ATOM     28  C   UNL     1      10.650  13.305  12.495  1.00  0.00     0.004 A 
ATOM     29  C   UNL     1      12.763  14.020  13.448  1.00  0.00     0.004 A 
ATOM     30  C   UNL     1      11.318  12.879  11.342  1.00  0.00     0.000 A 
ATOM     31  C   UNL     1      13.426  13.600  12.288  1.00  0.00     0.000 A 
ATOM     32  C   UNL     1      12.705  13.028  11.237  1.00  0.00     0.000 A 
ENDBRANCH  26  27
ENDBRANCH  25  26
ENDBRANCH  22  25
ENDBRANCH  21  22
ENDBRANCH  15  20
BRANCH  17  33
ATOM     33  O   UNL     1       8.102  11.740  20.926  1.00  0.00    -0.392 OA
ATOM     34  H   UNL     1       8.692  11.065  21.354  1.00  0.00     0.210 HD
ENDBRANCH  17  33
ENDBRANCH   1  13
TORSDOF 15
ENDMDL
MODEL 3
REMARK VINA RESULT:    -7.197      3.233      6.445
REMARK INTER + INTRA:         -17.095
REMARK INTER:                 -14.210
REMARK INTRA:                  -2.886
REMARK UNBOUND:                -4.218
REMARK SMILES CCNC(=O)CCC/C=C\C[C@@H]1[C@@H](/C=C/[C@@H](O)CCc2ccccc2)[C@H](O)C[C@@H]1O
REMARK SMILES IDX 11 1 10 2 9 3 8 4 7 5 6 6 4 7 3 8 5 10 2 11 1 12 12 13 29 14
REMARK SMILES IDX 13 15 28 16 26 17 30 18 14 20 15 21 16 22 17 23 18 25 19 26
REMARK SMILES IDX 20 27 21 28 25 29 22 30 24 31 23 32 27 33
REMARK H PARENT 3 9 30 19 17 24 27 34
REMARK Flexibility Score: inf
ROOT
ATOM      1  C   UNL     1       9.883  14.414  12.796  1.00  0.00     0.034 C 
ENDROOT
BRANCH   1   2
ATOM      2  C   UNL     1      10.297  15.285  13.961  1.00  0.00    -0.031 C 
ATOM      3  C   UNL     1       9.580  15.428  15.090  1.00  0.00    -0.031 C 
BRANCH   3   4
ATOM      4  C   UNL     1       8.269  14.738  15.381  1.00  0.00     0.027 C 
BRANCH   4   5
ATOM      5  C   UNL     1       8.419  13.398  16.128  1.00  0.00     0.014 C 
BRANCH   5   6
ATOM      6  C   UNL     1       9.352  13.446  17.351  1.00  0.00     0.100 C 
BRANCH   6   7
ATOM      7  C   UNL     1       8.812  12.658  18.509  1.00  0.00     0.219 C 
ATOM      8  N   UNL     1       8.315  11.328  18.309  1.00  0.00    -0.356 N 
ATOM      9  H   UNL     1       8.426  10.882  17.367  1.00  0.00     0.163 HD
ATOM     10  O   UNL     1       8.774  13.187  19.657  1.00  0.00    -0.275 OA
BRANCH   8  11
ATOM     11  C   UNL     1       7.760  10.519  19.394  1.00  0.00     0.112 C 
ATOM     12  C   UNL     1       8.861   9.723  20.086  1.00  0.00     0.027 C 
ENDBRANCH   8  11
ENDBRANCH   6   7
ENDBRANCH   5   6
ENDBRANCH   4   5
ENDBRANCH   3   4
ENDBRANCH   1   2
BRANCH   1  13
ATOM     13  C   UNL     1      10.795  13.175  12.571  1.00  0.00     0.031 C 
ATOM     14  C   UNL     1      11.072  12.821  11.095  1.00  0.00     0.121 C 
ATOM     15  C   UNL     1      12.180  13.321  13.249  1.00  0.00     0.046 C 
ATOM     16  C   UNL     1      12.501  13.254  10.804  1.00  0.00     0.064 C 
ATOM     17  C   UNL     1      13.243  13.207  12.136  1.00  0.00     0.124 C 
BRANCH  14  18
ATOM     18  O   UNL     1      10.181  13.442  10.204  1.00  0.00    -0.393 OA
ATOM     19  H   UNL     1       9.573  12.732   9.868  1.00  0.00     0.210 HD
ENDBRANCH  14  18
BRANCH  15  20
ATOM     20  C   UNL     1      12.394  12.245  14.294  1.00  0.00    -0.022 C 
ATOM     21  C   UNL     1      11.385  11.491  14.755  1.00  0.00     0.000 C 
BRANCH  21  22
ATOM     22  C   UNL     1      11.599  10.461  15.842  1.00  0.00     0.137 C 
BRANCH  22  23
ATOM     23  O   UNL     1      10.378  10.165  16.469  1.00  0.00    -0.389 OA
ATOM     24  H   UNL     1      10.170   9.216  16.262  1.00  0.00     0.211 HD
ENDBRANCH  22  23
BRANCH  22  25
ATOM     25  C   UNL     1      12.245   9.175  15.291  1.00  0.00     0.041 C 
BRANCH  25  26
ATOM     26  C   UNL     1      13.693   8.906  15.747  1.00  0.00     0.038 C 
BRANCH  26  27
ATOM     27  C   UNL     1      14.000   9.506  17.097  1.00  0.00    -0.048 A 
ATOM     28  C   UNL     1      14.667  10.739  17.195  1.00  0.00     0.004 A 
ATOM     29  C   UNL     1      13.635   8.824  18.269  1.00  0.00     0.004 A 
ATOM     30  C   UNL     1      14.974  11.273  18.451  1.00  0.00     0.000 A 
ATOM     31  C   UNL     1      13.937   9.367  19.524  1.00  0.00     0.000 A 
ATOM     32  C   UNL     1      14.607  10.590  19.615  1.00  0.00     0.000 A 
ENDBRANCH  26  27
ENDBRANCH  25  26
ENDBRANCH  22  25
ENDBRANCH  21  22
ENDBRANCH  15  20
BRANCH  17  33
ATOM     33  O   UNL     1      14.161  14.271  12.211  1.00  0.00    -0.392 OA
ATOM     34  H   UNL     1      15.058  13.861  12.332  1.00  0.00     0.210 HD
ENDBRANCH  17  33
ENDBRANCH   1  13
TORSDOF 15
ENDMDL
MODEL 4
REMARK VINA RESULT:    -7.154      2.708      3.471
REMARK INTER + INTRA:         -17.018
REMARK INTER:                 -13.883
REMARK INTRA:                  -3.135
REMARK UNBOUND:                -4.218
REMARK SMILES CCNC(=O)CCC/C=C\C[C@@H]1[C@@H](/C=C/[C@@H](O)CCc2ccccc2)[C@H](O)C[C@@H]1O
REMARK SMILES IDX 11 1 10 2 9 3 8 4 7 5 6 6 4 7 3 8 5 10 2 11 1 12 12 13 29 14
REMARK SMILES IDX 13 15 28 16 26 17 30 18 14 20 15 21 16 22 17 23 18 25 19 26
REMARK SMILES IDX 20 27 21 28 25 29 22 30 24 31 23 32 27 33
REMARK H PARENT 3 9 30 19 17 24 27 34
REMARK Flexibility Score: inf
ROOT
ATOM      1  C   UNL     1      13.468  10.942  16.482  1.00  0.00     0.034 C 
ENDROOT
BRANCH   1   2
ATOM      2  C   UNL     1      14.653  10.608  17.361  1.00  0.00    -0.031 C 
ATOM      3  C   UNL     1      15.403  11.523  17.999  1.00  0.00    -0.031 C 
BRANCH   3   4
ATOM      4  C   UNL     1      15.176  13.016  17.956  1.00  0.00     0.027 C 
BRANCH   4   5
ATOM      5  C   UNL     1      16.304  13.839  18.611  1.00  0.00     0.014 C 
BRANCH   5   6
ATOM      6  C   UNL     1      17.448  13.000  19.207  1.00  0.00     0.100 C 
BRANCH   6   7
ATOM      7  C   UNL     1      18.663  12.989  18.324  1.00  0.00     0.219 C 
ATOM      8  N   UNL     1      19.863  12.335  18.756  1.00  0.00    -0.356 N 
ATOM      9  H   UNL     1      19.848  11.784  19.648  1.00  0.00     0.163 HD
ATOM     10  O   UNL     1      18.627  13.583  17.209  1.00  0.00    -0.275 OA
BRANCH   8  11
ATOM     11  C   UNL     1      21.083  12.306  17.949  1.00  0.00     0.112 C 
ATOM     12  C   UNL     1      21.765  10.947  18.057  1.00  0.00     0.027 C 
ENDBRANCH   8  11
ENDBRANCH   6   7
ENDBRANCH   5   6
ENDBRANCH   4   5
ENDBRANCH   3   4
ENDBRANCH   1   2
BRANCH   1  13
ATOM     13  C   UNL     1      12.209  10.072  16.754  1.00  0.00     0.031 C 
ATOM     14  C   UNL     1      11.828   9.094  15.623  1.00  0.00     0.121 C 
ATOM     15  C   UNL     1      12.338   9.219  18.040  1.00  0.00     0.046 C 
ATOM     16  C   UNL     1      12.229   7.704  16.095  1.00  0.00     0.064 C 
ATOM     17  C   UNL     1      12.187   7.741  17.620  1.00  0.00     0.124 C 
BRANCH  14  18
ATOM     18  O   UNL     1      12.454   9.396  14.401  1.00  0.00    -0.393 OA
ATOM     19  H   UNL     1      13.421   9.509  14.597  1.00  0.00     0.210 HD
ENDBRANCH  14  18
BRANCH  15  20
ATOM     20  C   UNL     1      11.272   9.589  19.052  1.00  0.00    -0.022 C 
ATOM     21  C   UNL     1       9.983   9.259  18.880  1.00  0.00     0.000 C 
BRANCH  21  22
ATOM     22  C   UNL     1       8.918   9.687  19.865  1.00  0.00     0.137 C 
BRANCH  22  23
ATOM     23  O   UNL     1       9.518  10.181  21.034  1.00  0.00    -0.389 OA
ATOM     24  H   UNL     1      10.467  10.375  20.812  1.00  0.00     0.211 HD
ENDBRANCH  22  23
BRANCH  22  25
ATOM     25  C   UNL     1       7.972  10.743  19.259  1.00  0.00     0.041 C 
BRANCH  25  26
ATOM     26  C   UNL     1       8.371  12.213  19.497  1.00  0.00     0.038 C 
BRANCH  26  27
ATOM     27  C   UNL     1       9.325  12.734  18.451  1.00  0.00    -0.048 A 
ATOM     28  C   UNL     1       8.977  12.706  17.090  1.00  0.00     0.004 A 
ATOM     29  C   UNL     1      10.580  13.235  18.831  1.00  0.00     0.004 A 
ATOM     30  C   UNL     1       9.880  13.163  16.124  1.00  0.00     0.000 A 
ATOM     31  C   UNL     1      11.477  13.700  17.862  1.00  0.00     0.000 A 
ATOM     32  C   UNL     1      11.128  13.663  16.509  1.00  0.00     0.000 A 
ENDBRANCH  26  27
ENDBRANCH  25  26
ENDBRANCH  22  25
ENDBRANCH  21  22
ENDBRANCH  15  20
BRANCH  17  33
ATOM     33  O   UNL     1      13.234   6.963  18.146  1.00  0.00    -0.392 OA
ATOM     34  H   UNL     1      12.864   6.051  18.287  1.00  0.00     0.210 HD
ENDBRANCH  17  33
ENDBRANCH   1  13
TORSDOF 15
ENDMDL
MODEL 5
REMARK VINA RESULT:    -7.068      3.093      4.353
REMARK INTER + INTRA:         -16.865
REMARK INTER:                 -13.582
REMARK INTRA:                  -3.283
REMARK UNBOUND:                -4.218
REMARK SMILES CCNC(=O)CCC/C=C\C[C@@H]1[C@@H](/C=C/[C@@H](O)CCc2ccccc2)[C@H](O)C[C@@H]1O
REMARK SMILES IDX 11 1 10 2 9 3 8 4 7 5 6 6 4 7 3 8 5 10 2 11 1 12 12 13 29 14
REMARK SMILES IDX 13 15 28 16 26 17 30 18 14 20 15 21 16 22 17 23 18 25 19 26
REMARK SMILES IDX 20 27 21 28 25 29 22 30 24 31 23 32 27 33
REMARK H PARENT 3 9 30 19 17 24 27 34
REMARK Flexibility Score: inf
ROOT
ATOM      1  C   UNL     1      13.401  11.013  16.478  1.00  0.00     0.034 C 
ENDROOT
BRANCH   1   2
ATOM      2  C   UNL     1      14.649  10.645  17.251  1.00  0.00    -0.031 C 
ATOM      3  C   UNL     1      15.308  11.486  18.066  1.00  0.00    -0.031 C 
BRANCH   3   4
ATOM      4  C   UNL     1      14.908  12.914  18.352  1.00  0.00     0.027 C 
BRANCH   4   5
ATOM      5  C   UNL     1      15.759  13.963  17.611  1.00  0.00     0.014 C 
BRANCH   5   6
ATOM      6  C   UNL     1      17.279  13.799  17.788  1.00  0.00     0.100 C 
BRANCH   6   7
ATOM      7  C   UNL     1      18.057  14.706  16.880  1.00  0.00     0.219 C 
ATOM      8  N   UNL     1      17.378  15.510  15.906  1.00  0.00    -0.356 N 
ATOM      9  H   UNL     1      16.330  15.528  15.906  1.00  0.00     0.163 HD
ATOM     10  O   UNL     1      19.318  14.736  16.963  1.00  0.00    -0.275 OA
BRANCH   8  11
ATOM     11  C   UNL     1      18.083  16.398  14.982  1.00  0.00     0.112 C 
ATOM     12  C   UNL     1      18.389  15.677  13.673  1.00  0.00     0.027 C 
ENDBRANCH   8  11
ENDBRANCH   6   7
ENDBRANCH   5   6
ENDBRANCH   4   5
ENDBRANCH   3   4
ENDBRANCH   1   2
BRANCH   1  13
ATOM     13  C   UNL     1      12.184  10.088  16.756  1.00  0.00     0.031 C 
ATOM     14  C   UNL     1      11.880   9.052  15.653  1.00  0.00     0.121 C 
ATOM     15  C   UNL     1      12.329   9.287  18.074  1.00  0.00     0.046 C 
ATOM     16  C   UNL     1      12.343   7.703  16.182  1.00  0.00     0.064 C 
ATOM     17  C   UNL     1      12.266   7.790  17.703  1.00  0.00     0.124 C 
BRANCH  14  18
ATOM     18  O   UNL     1      12.515   9.344  14.434  1.00  0.00    -0.393 OA
ATOM     19  H   UNL     1      12.610  10.332  14.392  1.00  0.00     0.210 HD
ENDBRANCH  14  18
BRANCH  15  20
ATOM     20  C   UNL     1      11.224   9.635  19.050  1.00  0.00    -0.022 C 
ATOM     21  C   UNL     1       9.954   9.252  18.851  1.00  0.00     0.000 C 
BRANCH  21  22
ATOM     22  C   UNL     1       8.847   9.657  19.800  1.00  0.00     0.137 C 
BRANCH  22  23
ATOM     23  O   UNL     1       9.395  10.092  21.017  1.00  0.00    -0.389 OA
ATOM     24  H   UNL     1       9.855  10.954  20.835  1.00  0.00     0.211 HD
ENDBRANCH  22  23
BRANCH  22  25
ATOM     25  C   UNL     1       7.948  10.752  19.193  1.00  0.00     0.041 C 
BRANCH  25  26
ATOM     26  C   UNL     1       8.392  12.204  19.458  1.00  0.00     0.038 C 
BRANCH  26  27
ATOM     27  C   UNL     1       9.294  12.744  18.376  1.00  0.00    -0.048 A 
ATOM     28  C   UNL     1       8.925  12.643  17.023  1.00  0.00     0.004 A 
ATOM     29  C   UNL     1      10.521  13.339  18.713  1.00  0.00     0.004 A 
ATOM     30  C   UNL     1       9.781  13.119  16.024  1.00  0.00     0.000 A 
ATOM     31  C   UNL     1      11.370  13.822  17.710  1.00  0.00     0.000 A 
ATOM     32  C   UNL     1      11.001  13.711  16.367  1.00  0.00     0.000 A 
ENDBRANCH  26  27
ENDBRANCH  25  26
ENDBRANCH  22  25
ENDBRANCH  21  22
ENDBRANCH  15  20
BRANCH  17  33
ATOM     33  O   UNL     1      13.340   7.087  18.278  1.00  0.00    -0.392 OA
ATOM     34  H   UNL     1      12.971   6.600  19.062  1.00  0.00     0.210 HD
ENDBRANCH  17  33
ENDBRANCH   1  13
TORSDOF 15
ENDMDL
MODEL 6
REMARK VINA RESULT:    -7.018      3.389      7.087
REMARK INTER + INTRA:         -16.776
REMARK INTER:                 -13.281
REMARK INTRA:                  -3.495
REMARK UNBOUND:                -4.218
REMARK SMILES CCNC(=O)CCC/C=C\C[C@@H]1[C@@H](/C=C/[C@@H](O)CCc2ccccc2)[C@H](O)C[C@@H]1O
REMARK SMILES IDX 11 1 10 2 9 3 8 4 7 5 6 6 4 7 3 8 5 10 2 11 1 12 12 13 29 14
REMARK SMILES IDX 13 15 28 16 26 17 30 18 14 20 15 21 16 22 17 23 18 25 19 26
REMARK SMILES IDX 20 27 21 28 25 29 22 30 24 31 23 32 27 33
REMARK H PARENT 3 9 30 19 17 24 27 34
REMARK Flexibility Score: inf
ROOT
ATOM      1  C   UNL     1       9.918  12.952  17.594  1.00  0.00     0.034 C 
ENDROOT
BRANCH   1   2
ATOM      2  C   UNL     1       8.807  12.972  16.567  1.00  0.00    -0.031 C 
ATOM      3  C   UNL     1       8.647  13.940  15.647  1.00  0.00    -0.031 C 
BRANCH   3   4
ATOM      4  C   UNL     1       9.547  15.141  15.481  1.00  0.00     0.027 C 
BRANCH   4   5
ATOM      5  C   UNL     1       9.978  15.404  14.025  1.00  0.00     0.014 C 
BRANCH   5   6
ATOM      6  C   UNL     1       9.012  14.855  12.960  1.00  0.00     0.100 C 
BRANCH   6   7
ATOM      7  C   UNL     1       9.738  14.252  11.792  1.00  0.00     0.219 C 
ATOM      8  N   UNL     1      11.086  13.787  11.941  1.00  0.00    -0.356 N 
ATOM      9  H   UNL     1      11.518  13.784  12.895  1.00  0.00     0.163 HD
ATOM     10  O   UNL     1       9.160  14.183  10.670  1.00  0.00    -0.275 OA
BRANCH   8  11
ATOM     11  C   UNL     1      11.850  13.208  10.836  1.00  0.00     0.112 C 
ATOM     12  C   UNL     1      13.316  13.050  11.223  1.00  0.00     0.027 C 
ENDBRANCH   8  11
ENDBRANCH   6   7
ENDBRANCH   5   6
ENDBRANCH   4   5
ENDBRANCH   3   4
ENDBRANCH   1   2
BRANCH   1  13
ATOM     13  C   UNL     1       9.883  11.723  18.545  1.00  0.00     0.031 C 
ATOM     14  C   UNL     1       8.876  11.823  19.710  1.00  0.00     0.121 C 
ATOM     15  C   UNL     1       9.560  10.402  17.804  1.00  0.00     0.046 C 
ATOM     16  C   UNL     1       7.712  10.907  19.360  1.00  0.00     0.064 C 
ATOM     17  C   UNL     1       8.278   9.826  18.443  1.00  0.00     0.124 C 
BRANCH  14  18
ATOM     18  O   UNL     1       8.419  13.132  19.933  1.00  0.00    -0.393 OA
ATOM     19  H   UNL     1       7.924  13.403  19.115  1.00  0.00     0.210 HD
ENDBRANCH  14  18
BRANCH  15  20
ATOM     20  C   UNL     1      10.700   9.412  17.929  1.00  0.00    -0.022 C 
ATOM     21  C   UNL     1      11.626   9.512  18.894  1.00  0.00     0.000 C 
BRANCH  21  22
ATOM     22  C   UNL     1      12.796   8.555  18.972  1.00  0.00     0.137 C 
BRANCH  22  23
ATOM     23  O   UNL     1      12.475   7.354  18.320  1.00  0.00    -0.389 OA
ATOM     24  H   UNL     1      12.251   6.692  19.027  1.00  0.00     0.211 HD
ENDBRANCH  22  23
BRANCH  22  25
ATOM     25  C   UNL     1      14.075   9.168  18.370  1.00  0.00     0.041 C 
BRANCH  25  26
ATOM     26  C   UNL     1      14.147   9.187  16.830  1.00  0.00     0.038 C 
BRANCH  26  27
ATOM     27  C   UNL     1      13.566  10.445  16.235  1.00  0.00    -0.048 A 
ATOM     28  C   UNL     1      13.859  11.701  16.794  1.00  0.00     0.004 A 
ATOM     29  C   UNL     1      12.710  10.368  15.125  1.00  0.00     0.004 A 
ATOM     30  C   UNL     1      13.292  12.860  16.255  1.00  0.00     0.000 A 
ATOM     31  C   UNL     1      12.151  11.532  14.583  1.00  0.00     0.000 A 
ATOM     32  C   UNL     1      12.440  12.777  15.148  1.00  0.00     0.000 A 
ENDBRANCH  26  27
ENDBRANCH  25  26
ENDBRANCH  22  25
ENDBRANCH  21  22
ENDBRANCH  15  20
BRANCH  17  33
ATOM     33  O   UNL     1       7.334   9.493  17.456  1.00  0.00    -0.392 OA
ATOM     34  H   UNL     1       6.728  10.277  17.370  1.00  0.00     0.210 HD
ENDBRANCH  17  33
ENDBRANCH   1  13
TORSDOF 15
ENDMDL
MODEL 7
REMARK VINA RESULT:    -6.972      3.140      4.021
REMARK INTER + INTRA:         -16.693
REMARK INTER:                 -13.514
REMARK INTRA:                  -3.179
REMARK UNBOUND:                -4.218
REMARK SMILES CCNC(=O)CCC/C=C\C[C@@H]1[C@@H](/C=C/[C@@H](O)CCc2ccccc2)[C@H](O)C[C@@H]1O
REMARK SMILES IDX 11 1 10 2 9 3 8 4 7 5 6 6 4 7 3 8 5 10 2 11 1 12 12 13 29 14
REMARK SMILES IDX 13 15 28 16 26 17 30 18 14 20 15 21 16 22 17 23 18 25 19 26
REMARK SMILES IDX 20 27 21 28 25 29 22 30 24 31 23 32 27 33
REMARK H PARENT 3 9 30 19 17 24 27 34
REMARK Flexibility Score: inf
ROOT
ATOM      1  C   UNL     1      13.840  10.729  16.416  1.00  0.00     0.034 C 
ENDROOT
BRANCH   1   2
ATOM      2  C   UNL     1      14.692  10.479  17.641  1.00  0.00    -0.031 C 
ATOM      3  C   UNL     1      15.416  11.426  18.263  1.00  0.00    -0.031 C 
BRANCH   3   4
ATOM      4  C   UNL     1      15.485  12.878  17.854  1.00  0.00     0.027 C 
BRANCH   4   5
ATOM      5  C   UNL     1      16.917  13.446  17.799  1.00  0.00     0.014 C 
BRANCH   5   6
ATOM      6  C   UNL     1      17.945  12.680  18.651  1.00  0.00     0.100 C 
BRANCH   6   7
ATOM      7  C   UNL     1      19.354  12.915  18.188  1.00  0.00     0.219 C 
ATOM      8  N   UNL     1      20.384  11.969  18.502  1.00  0.00    -0.356 N 
ATOM      9  H   UNL     1      20.121  11.070  18.971  1.00  0.00     0.163 HD
ATOM     10  O   UNL     1      19.628  13.966  17.541  1.00  0.00    -0.275 OA
BRANCH   8  11
ATOM     11  C   UNL     1      21.777  12.152  18.094  1.00  0.00     0.112 C 
ATOM     12  C   UNL     1      22.207  11.042  17.141  1.00  0.00     0.027 C 
ENDBRANCH   8  11
ENDBRANCH   6   7
ENDBRANCH   5   6
ENDBRANCH   4   5
ENDBRANCH   3   4
ENDBRANCH   1   2
BRANCH   1  13
ATOM     13  C   UNL     1      12.359  10.281  16.568  1.00  0.00     0.031 C 
ATOM     14  C   UNL     1      11.907   9.165  15.603  1.00  0.00     0.121 C 
ATOM     15  C   UNL     1      12.030   9.779  17.996  1.00  0.00     0.046 C 
ATOM     16  C   UNL     1      11.817   7.888  16.425  1.00  0.00     0.064 C 
ATOM     17  C   UNL     1      11.538   8.322  17.862  1.00  0.00     0.124 C 
BRANCH  14  18
ATOM     18  O   UNL     1      12.783   8.988  14.519  1.00  0.00    -0.393 OA
ATOM     19  H   UNL     1      12.324   9.359  13.719  1.00  0.00     0.210 HD
ENDBRANCH  14  18
BRANCH  15  20
ATOM     20  C   UNL     1      10.963  10.637  18.645  1.00  0.00    -0.022 C 
ATOM     21  C   UNL     1       9.688  10.621  18.228  1.00  0.00     0.000 C 
BRANCH  21  22
ATOM     22  C   UNL     1       8.643  11.527  18.842  1.00  0.00     0.137 C 
BRANCH  22  23
ATOM     23  O   UNL     1       8.769  11.525  20.240  1.00  0.00    -0.389 OA
ATOM     24  H   UNL     1       8.219  10.769  20.579  1.00  0.00     0.211 HD
ENDBRANCH  22  23
BRANCH  22  25
ATOM     25  C   UNL     1       8.743  12.965  18.297  1.00  0.00     0.041 C 
BRANCH  25  26
ATOM     26  C   UNL     1       8.731  13.100  16.761  1.00  0.00     0.038 C 
BRANCH  26  27
ATOM     27  C   UNL     1      10.101  13.361  16.188  1.00  0.00    -0.048 A 
ATOM     28  C   UNL     1      10.410  12.980  14.871  1.00  0.00     0.004 A 
ATOM     29  C   UNL     1      11.088  13.975  16.977  1.00  0.00     0.004 A 
ATOM     30  C   UNL     1      11.692  13.199  14.358  1.00  0.00     0.000 A 
ATOM     31  C   UNL     1      12.368  14.201  16.455  1.00  0.00     0.000 A 
ATOM     32  C   UNL     1      12.671  13.812  15.148  1.00  0.00     0.000 A 
ENDBRANCH  26  27
ENDBRANCH  25  26
ENDBRANCH  22  25
ENDBRANCH  21  22
ENDBRANCH  15  20
BRANCH  17  33
ATOM     33  O   UNL     1      12.222   7.480  18.757  1.00  0.00    -0.392 OA
ATOM     34  H   UNL     1      13.122   7.878  18.887  1.00  0.00     0.210 HD
ENDBRANCH  17  33
ENDBRANCH   1  13
TORSDOF 15
ENDMDL
MODEL 8
REMARK VINA RESULT:    -6.969      1.930      3.973
REMARK INTER + INTRA:         -16.687
REMARK INTER:                 -12.992
REMARK INTRA:                  -3.695
REMARK UNBOUND:                -4.218
REMARK SMILES CCNC(=O)CCC/C=C\C[C@@H]1[C@@H](/C=C/[C@@H](O)CCc2ccccc2)[C@H](O)C[C@@H]1O
REMARK SMILES IDX 11 1 10 2 9 3 8 4 7 5 6 6 4 7 3 8 5 10 2 11 1 12 12 13 29 14
REMARK SMILES IDX 13 15 28 16 26 17 30 18 14 20 15 21 16 22 17 23 18 25 19 26
REMARK SMILES IDX 20 27 21 28 25 29 22 30 24 31 23 32 27 33
REMARK H PARENT 3 9 30 19 17 24 27 34
REMARK Flexibility Score: inf
ROOT
ATOM      1  C   UNL     1      13.331  13.595  16.020  1.00  0.00     0.034 C 
ENDROOT
BRANCH   1   2
ATOM      2  C   UNL     1      13.692  13.794  17.476  1.00  0.00    -0.031 C 
ATOM      3  C   UNL     1      14.297  12.866  18.238  1.00  0.00    -0.031 C 
BRANCH   3   4
ATOM      4  C   UNL     1      14.725  11.497  17.766  1.00  0.00     0.027 C 
BRANCH   4   5
ATOM      5  C   UNL     1      14.819  10.448  18.892  1.00  0.00     0.014 C 
BRANCH   5   6
ATOM      6  C   UNL     1      14.233  10.900  20.241  1.00  0.00     0.100 C 
BRANCH   6   7
ATOM      7  C   UNL     1      14.175   9.779  21.239  1.00  0.00     0.219 C 
ATOM      8  N   UNL     1      14.013   8.425  20.795  1.00  0.00    -0.356 N 
ATOM      9  H   UNL     1      14.034   8.223  19.767  1.00  0.00     0.163 HD
ATOM     10  O   UNL     1      14.245  10.041  22.473  1.00  0.00    -0.275 OA
BRANCH   8  11
ATOM     11  C   UNL     1      13.932   7.294  21.720  1.00  0.00     0.112 C 
ATOM     12  C   UNL     1      15.326   6.787  22.070  1.00  0.00     0.027 C 
ENDBRANCH   8  11
ENDBRANCH   6   7
ENDBRANCH   5   6
ENDBRANCH   4   5
ENDBRANCH   3   4
ENDBRANCH   1   2
BRANCH   1  13
ATOM     13  C   UNL     1      12.020  12.790  15.794  1.00  0.00     0.031 C 
ATOM     14  C   UNL     1      10.756  13.644  15.560  1.00  0.00     0.121 C 
ATOM     15  C   UNL     1      12.116  11.819  14.591  1.00  0.00     0.046 C 
ATOM     16  C   UNL     1      10.435  13.551  14.076  1.00  0.00     0.064 C 
ATOM     17  C   UNL     1      11.004  12.218  13.597  1.00  0.00     0.124 C 
BRANCH  14  18
ATOM     18  O   UNL     1      10.921  14.986  15.942  1.00  0.00    -0.393 OA
ATOM     19  H   UNL     1      11.595  15.376  15.327  1.00  0.00     0.210 HD
ENDBRANCH  14  18
BRANCH  15  20
ATOM     20  C   UNL     1      11.934  10.381  15.033  1.00  0.00    -0.022 C 
ATOM     21  C   UNL     1      12.882   9.723  15.718  1.00  0.00     0.000 C 
BRANCH  21  22
ATOM     22  C   UNL     1      12.716   8.268  16.101  1.00  0.00     0.137 C 
BRANCH  22  23
ATOM     23  O   UNL     1      13.875   7.808  16.744  1.00  0.00    -0.389 OA
ATOM     24  H   UNL     1      14.294   7.137  16.141  1.00  0.00     0.211 HD
ENDBRANCH  22  23
BRANCH  22  25
ATOM     25  C   UNL     1      11.482   8.052  16.998  1.00  0.00     0.041 C 
BRANCH  25  26
ATOM     26  C   UNL     1      11.500   8.792  18.350  1.00  0.00     0.038 C 
BRANCH  26  27
ATOM     27  C   UNL     1      10.539   9.953  18.392  1.00  0.00    -0.048 A 
ATOM     28  C   UNL     1       9.230   9.815  17.900  1.00  0.00     0.004 A 
ATOM     29  C   UNL     1      10.954  11.192  18.908  1.00  0.00     0.004 A 
ATOM     30  C   UNL     1       8.354  10.906  17.914  1.00  0.00     0.000 A 
ATOM     31  C   UNL     1      10.071  12.279  18.928  1.00  0.00     0.000 A 
ATOM     32  C   UNL     1       8.773  12.137  18.431  1.00  0.00     0.000 A 
ENDBRANCH  26  27
ENDBRANCH  25  26
ENDBRANCH  22  25
ENDBRANCH  21  22
ENDBRANCH  15  20
BRANCH  17  33
ATOM     33  O   UNL     1      11.523  12.358  12.297  1.00  0.00    -0.392 OA
ATOM     34  H   UNL     1      11.952  11.491  12.070  1.00  0.00     0.210 HD
ENDBRANCH  17  33
ENDBRANCH   1  13
TORSDOF 15
ENDMDL
MODEL 9
REMARK VINA RESULT:    -6.953      2.072      3.110
REMARK INTER + INTRA:         -16.659
REMARK INTER:                 -13.318
REMARK INTRA:                  -3.341
REMARK UNBOUND:                -4.218
REMARK SMILES CCNC(=O)CCC/C=C\C[C@@H]1[C@@H](/C=C/[C@@H](O)CCc2ccccc2)[C@H](O)C[C@@H]1O
REMARK SMILES IDX 11 1 10 2 9 3 8 4 7 5 6 6 4 7 3 8 5 10 2 11 1 12 12 13 29 14
REMARK SMILES IDX 13 15 28 16 26 17 30 18 14 20 15 21 16 22 17 23 18 25 19 26
REMARK SMILES IDX 20 27 21 28 25 29 22 30 24 31 23 32 27 33
REMARK H PARENT 3 9 30 19 17 24 27 34
REMARK Flexibility Score: inf
ROOT
ATOM      1  C   UNL     1      13.631  12.636  16.904  1.00  0.00     0.034 C 
ENDROOT
BRANCH   1   2
ATOM      2  C   UNL     1      14.401  11.333  16.928  1.00  0.00    -0.031 C 
ATOM      3  C   UNL     1      15.095  10.886  17.989  1.00  0.00    -0.031 C 
BRANCH   3   4
ATOM      4  C   UNL     1      15.207  11.594  19.318  1.00  0.00     0.027 C 
BRANCH   4   5
ATOM      5  C   UNL     1      14.356  10.961  20.437  1.00  0.00     0.014 C 
BRANCH   5   6
ATOM      6  C   UNL     1      14.357   9.422  20.453  1.00  0.00     0.100 C 
BRANCH   6   7
ATOM      7  C   UNL     1      13.032   8.850  20.040  1.00  0.00     0.219 C 
ATOM      8  N   UNL     1      12.909   8.126  18.809  1.00  0.00    -0.356 N 
ATOM      9  H   UNL     1      13.774   7.920  18.254  1.00  0.00     0.163 HD
ATOM     10  O   UNL     1      12.020   9.033  20.775  1.00  0.00    -0.275 OA
BRANCH   8  11
ATOM     11  C   UNL     1      11.642   7.561  18.346  1.00  0.00     0.112 C 
ATOM     12  C   UNL     1      11.705   7.256  16.853  1.00  0.00     0.027 C 
ENDBRANCH   8  11
ENDBRANCH   6   7
ENDBRANCH   5   6
ENDBRANCH   4   5
ENDBRANCH   3   4
ENDBRANCH   1   2
BRANCH   1  13
ATOM     13  C   UNL     1      12.186  12.511  16.346  1.00  0.00     0.031 C 
ATOM     14  C   UNL     1      11.970  13.111  14.941  1.00  0.00     0.121 C 
ATOM     15  C   UNL     1      11.698  11.043  16.271  1.00  0.00     0.046 C 
ATOM     16  C   UNL     1      11.868  11.938  13.977  1.00  0.00     0.064 C 
ATOM     17  C   UNL     1      11.352  10.756  14.794  1.00  0.00     0.124 C 
BRANCH  14  18
ATOM     18  O   UNL     1      13.003  13.978  14.548  1.00  0.00    -0.393 OA
ATOM     19  H   UNL     1      13.020  14.719  15.209  1.00  0.00     0.210 HD
ENDBRANCH  14  18
BRANCH  15  20
ATOM     20  C   UNL     1      10.483  10.825  17.148  1.00  0.00    -0.022 C 
ATOM     21  C   UNL     1      10.475  11.156  18.448  1.00  0.00     0.000 C 
BRANCH  21  22
ATOM     22  C   UNL     1       9.277  10.877  19.329  1.00  0.00     0.137 C 
BRANCH  22  23
ATOM     23  O   UNL     1       9.705  10.457  20.598  1.00  0.00    -0.389 OA
ATOM     24  H   UNL     1      10.354  11.136  20.924  1.00  0.00     0.211 HD
ENDBRANCH  22  23
BRANCH  22  25
ATOM     25  C   UNL     1       8.360  12.109  19.452  1.00  0.00     0.041 C 
BRANCH  25  26
ATOM     26  C   UNL     1       9.007  13.463  19.096  1.00  0.00     0.038 C 
BRANCH  26  27
ATOM     27  C   UNL     1       8.295  14.171  17.971  1.00  0.00    -0.048 A 
ATOM     28  C   UNL     1       7.533  15.325  18.222  1.00  0.00     0.004 A 
ATOM     29  C   UNL     1       8.373  13.668  16.662  1.00  0.00     0.004 A 
ATOM     30  C   UNL     1       6.851  15.958  17.177  1.00  0.00     0.000 A 
ATOM     31  C   UNL     1       7.696  14.310  15.618  1.00  0.00     0.000 A 
ATOM     32  C   UNL     1       6.935  15.454  15.875  1.00  0.00     0.000 A 
ENDBRANCH  26  27
ENDBRANCH  25  26
ENDBRANCH  22  25
ENDBRANCH  21  22
ENDBRANCH  15  20
BRANCH  17  33
ATOM     33  O   UNL     1      11.967   9.568  14.359  1.00  0.00    -0.392 OA
ATOM     34  H   UNL     1      11.618   9.388  13.446  1.00  0.00     0.210 HD
ENDBRANCH  17  33
ENDBRANCH   1  13
TORSDOF 15
ENDMDL
MODEL 10
REMARK VINA RESULT:    -6.952      2.363      5.049
REMARK INTER + INTRA:         -16.658
REMARK INTER:                 -12.391
REMARK INTRA:                  -4.267
REMARK UNBOUND:                -4.218
REMARK SMILES CCNC(=O)CCC/C=C\C[C@@H]1[C@@H](/C=C/[C@@H](O)CCc2ccccc2)[C@H](O)C[C@@H]1O
REMARK SMILES IDX 11 1 10 2 9 3 8 4 7 5 6 6 4 7 3 8 5 10 2 11 1 12 12 13 29 14
REMARK SMILES IDX 13 15 28 16 26 17 30 18 14 20 15 21 16 22 17 23 18 25 19 26
REMARK SMILES IDX 20 27 21 28 25 29 22 30 24 31 23 32 27 33
REMARK H PARENT 3 9 30 19 17 24 27 34
REMARK Flexibility Score: inf
ROOT
ATOM      1  C   UNL     1      11.223   9.050  19.576  1.00  0.00     0.034 C 
ENDROOT
BRANCH   1   2
ATOM      2  C   UNL     1      12.563   8.421  19.264  1.00  0.00    -0.031 C 
ATOM      3  C   UNL     1      13.676   8.615  19.992  1.00  0.00    -0.031 C 
BRANCH   3   4
ATOM      4  C   UNL     1      13.766   9.470  21.234  1.00  0.00     0.027 C 
BRANCH   4   5
ATOM      5  C   UNL     1      14.346  10.877  20.985  1.00  0.00     0.014 C 
BRANCH   5   6
ATOM      6  C   UNL     1      14.948  11.084  19.584  1.00  0.00     0.100 C 
BRANCH   6   7
ATOM      7  C   UNL     1      15.849  12.284  19.526  1.00  0.00     0.219 C 
ATOM      8  N   UNL     1      16.984  12.292  18.650  1.00  0.00    -0.356 N 
ATOM      9  H   UNL     1      17.116  11.494  17.984  1.00  0.00     0.163 HD
ATOM     10  O   UNL     1      15.614  13.275  20.274  1.00  0.00    -0.275 OA
BRANCH   8  11
ATOM     11  C   UNL     1      17.908  13.423  18.563  1.00  0.00     0.112 C 
ATOM     12  C   UNL     1      17.764  14.130  17.219  1.00  0.00     0.027 C 
ENDBRANCH   8  11
ENDBRANCH   6   7
ENDBRANCH   5   6
ENDBRANCH   4   5
ENDBRANCH   3   4
ENDBRANCH   1   2
BRANCH   1  13
ATOM     13  C   UNL     1      10.881  10.287  18.699  1.00  0.00     0.031 C 
ATOM     14  C   UNL     1       9.686  10.103  17.741  1.00  0.00     0.121 C 
ATOM     15  C   UNL     1      10.572  11.550  19.540  1.00  0.00     0.046 C 
ATOM     16  C   UNL     1       8.523  10.879  18.340  1.00  0.00     0.064 C 
ATOM     17  C   UNL     1       9.139  11.996  19.177  1.00  0.00     0.124 C 
BRANCH  14  18
ATOM     18  O   UNL     1       9.331   8.756  17.555  1.00  0.00    -0.393 OA
ATOM     19  H   UNL     1       8.364   8.684  17.771  1.00  0.00     0.210 HD
ENDBRANCH  14  18
BRANCH  15  20
ATOM     20  C   UNL     1      11.559  12.660  19.245  1.00  0.00    -0.022 C 
ATOM     21  C   UNL     1      11.307  13.612  18.334  1.00  0.00     0.000 C 
BRANCH  21  22
ATOM     22  C   UNL     1      12.326  14.680  18.002  1.00  0.00     0.137 C 
BRANCH  22  23
ATOM     23  O   UNL     1      13.260  14.791  19.043  1.00  0.00    -0.389 OA
ATOM     24  H   UNL     1      12.864  15.397  19.724  1.00  0.00     0.211 HD
ENDBRANCH  22  23
BRANCH  22  25
ATOM     25  C   UNL     1      13.040  14.391  16.667  1.00  0.00     0.041 C 
BRANCH  25  26
ATOM     26  C   UNL     1      13.995  13.181  16.669  1.00  0.00     0.038 C 
BRANCH  26  27
ATOM     27  C   UNL     1      13.356  11.934  16.111  1.00  0.00    -0.048 A 
ATOM     28  C   UNL     1      13.885  10.666  16.409  1.00  0.00     0.004 A 
ATOM     29  C   UNL     1      12.235  12.033  15.271  1.00  0.00     0.004 A 
ATOM     30  C   UNL     1      13.304   9.516  15.863  1.00  0.00     0.000 A 
ATOM     31  C   UNL     1      11.651  10.879  14.734  1.00  0.00     0.000 A 
ATOM     32  C   UNL     1      12.186   9.622  15.029  1.00  0.00     0.000 A 
ENDBRANCH  26  27
ENDBRANCH  25  26
ENDBRANCH  22  25
ENDBRANCH  21  22
ENDBRANCH  15  20
BRANCH  17  33
ATOM     33  O   UNL     1       8.372  12.204  20.338  1.00  0.00    -0.392 OA
ATOM     34  H   UNL     1       8.419  11.361  20.862  1.00  0.00     0.210 HD
ENDBRANCH  17  33
ENDBRANCH   1  13
TORSDOF 15
ENDMDL
MODEL 11
REMARK VINA RESULT:    -6.948      2.734      5.254
REMARK INTER + INTRA:         -16.650
REMARK INTER:                 -13.742
REMARK INTRA:                  -2.908
REMARK UNBOUND:                -4.218
REMARK SMILES CCNC(=O)CCC/C=C\C[C@@H]1[C@@H](/C=C/[C@@H](O)CCc2ccccc2)[C@H](O)C[C@@H]1O
REMARK SMILES IDX 11 1 10 2 9 3 8 4 7 5 6 6 4 7 3 8 5 10 2 11 1 12 12 13 29 14
REMARK SMILES IDX 13 15 28 16 26 17 30 18 14 20 15 21 16 22 17 23 18 25 19 26
REMARK SMILES IDX 20 27 21 28 25 29 22 30 24 31 23 32 27 33
REMARK H PARENT 3 9 30 19 17 24 27 34
REMARK Flexibility Score: inf
ROOT
ATOM      1  C   UNL     1      13.164   8.207  17.911  1.00  0.00     0.034 C 
ENDROOT
BRANCH   1   2
ATOM      2  C   UNL     1      13.906   9.374  17.298  1.00  0.00    -0.031 C 
ATOM      3  C   UNL     1      13.565   9.959  16.136  1.00  0.00    -0.031 C 
BRANCH   3   4
ATOM      4  C   UNL     1      12.392   9.560  15.272  1.00  0.00     0.027 C 
BRANCH   4   5
ATOM      5  C   UNL     1      11.399  10.707  14.997  1.00  0.00     0.014 C 
BRANCH   5   6
ATOM      6  C   UNL     1      11.781  12.054  15.636  1.00  0.00     0.100 C 
BRANCH   6   7
ATOM      7  C   UNL     1      12.033  13.119  14.608  1.00  0.00     0.219 C 
ATOM      8  N   UNL     1      12.874  12.848  13.478  1.00  0.00    -0.356 N 
ATOM      9  H   UNL     1      13.226  11.872  13.331  1.00  0.00     0.163 HD
ATOM     10  O   UNL     1      11.520  14.264  14.760  1.00  0.00    -0.275 OA
BRANCH   8  11
ATOM     11  C   UNL     1      13.170  13.849  12.454  1.00  0.00     0.112 C 
ATOM     12  C   UNL     1      13.258  13.199  11.077  1.00  0.00     0.027 C 
ENDBRANCH   8  11
ENDBRANCH   6   7
ENDBRANCH   5   6
ENDBRANCH   4   5
ENDBRANCH   3   4
ENDBRANCH   1   2
BRANCH   1  13
ATOM     13  C   UNL     1      12.658   8.464  19.359  1.00  0.00     0.031 C 
ATOM     14  C   UNL     1      13.616   8.010  20.480  1.00  0.00     0.121 C 
ATOM     15  C   UNL     1      12.352   9.958  19.629  1.00  0.00     0.046 C 
ATOM     16  C   UNL     1      14.247   9.271  21.052  1.00  0.00     0.064 C 
ATOM     17  C   UNL     1      13.250  10.399  20.804  1.00  0.00     0.124 C 
BRANCH  14  18
ATOM     18  O   UNL     1      14.611   7.126  20.030  1.00  0.00    -0.393 OA
ATOM     19  H   UNL     1      14.486   6.278  20.532  1.00  0.00     0.210 HD
ENDBRANCH  14  18
BRANCH  15  20
ATOM     20  C   UNL     1      10.892  10.163  19.977  1.00  0.00    -0.022 C 
ATOM     21  C   UNL     1       9.909   9.520  19.328  1.00  0.00     0.000 C 
BRANCH  21  22
ATOM     22  C   UNL     1       8.452   9.778  19.642  1.00  0.00     0.137 C 
BRANCH  22  23
ATOM     23  O   UNL     1       8.342  10.524  20.826  1.00  0.00    -0.389 OA
ATOM     24  H   UNL     1       8.667  11.440  20.622  1.00  0.00     0.211 HD
ENDBRANCH  22  23
BRANCH  22  25
ATOM     25  C   UNL     1       7.739  10.503  18.483  1.00  0.00     0.041 C 
BRANCH  25  26
ATOM     26  C   UNL     1       8.657  11.246  17.493  1.00  0.00     0.038 C 
BRANCH  26  27
ATOM     27  C   UNL     1       8.493  12.744  17.558  1.00  0.00    -0.048 A 
ATOM     28  C   UNL     1       8.410  13.400  18.798  1.00  0.00     0.004 A 
ATOM     29  C   UNL     1       8.403  13.494  16.373  1.00  0.00     0.004 A 
ATOM     30  C   UNL     1       8.227  14.786  18.848  1.00  0.00     0.000 A 
ATOM     31  C   UNL     1       8.229  14.882  16.429  1.00  0.00     0.000 A 
ATOM     32  C   UNL     1       8.139  15.528  17.665  1.00  0.00     0.000 A 
ENDBRANCH  26  27
ENDBRANCH  25  26
ENDBRANCH  22  25
ENDBRANCH  21  22
ENDBRANCH  15  20
BRANCH  17  33
ATOM     33  O   UNL     1      13.938  11.586  20.490  1.00  0.00    -0.392 OA
ATOM     34  H   UNL     1      13.249  12.298  20.414  1.00  0.00     0.210 HD
ENDBRANCH  17  33
ENDBRANCH   1  13
TORSDOF 15
ENDMDL
MODEL 12
REMARK VINA RESULT:    -6.898      3.284      5.573
REMARK INTER + INTRA:         -16.560
REMARK INTER:                 -12.887
REMARK INTRA:                  -3.673
REMARK UNBOUND:                -4.218
REMARK SMILES CCNC(=O)CCC/C=C\C[C@@H]1[C@@H](/C=C/[C@@H](O)CCc2ccccc2)[C@H](O)C[C@@H]1O
REMARK SMILES IDX 11 1 10 2 9 3 8 4 7 5 6 6 4 7 3 8 5 10 2 11 1 12 12 13 29 14
REMARK SMILES IDX 13 15 28 16 26 17 30 18 14 20 15 21 16 22 17 23 18 25 19 26
REMARK SMILES IDX 20 27 21 28 25 29 22 30 24 31 23 32 27 33
REMARK H PARENT 3 9 30 19 17 24 27 34
REMARK Flexibility Score: inf
ROOT
ATOM      1  C   UNL     1      13.516  10.908  16.501  1.00  0.00     0.034 C 
ENDROOT
BRANCH   1   2
ATOM      2  C   UNL     1      13.221  12.373  16.734  1.00  0.00    -0.031 C 
ATOM      3  C   UNL     1      12.785  13.216  15.782  1.00  0.00    -0.031 C 
BRANCH   3   4
ATOM      4  C   UNL     1      12.507  12.839  14.346  1.00  0.00     0.027 C 
BRANCH   4   5
ATOM      5  C   UNL     1      11.045  12.429  14.078  1.00  0.00     0.014 C 
BRANCH   5   6
ATOM      6  C   UNL     1      10.177  13.528  13.442  1.00  0.00     0.100 C 
BRANCH   6   7
ATOM      7  C   UNL     1      10.845  14.166  12.257  1.00  0.00     0.219 C 
ATOM      8  N   UNL     1      11.058  13.412  11.057  1.00  0.00    -0.356 N 
ATOM      9  H   UNL     1      10.654  12.448  10.985  1.00  0.00     0.163 HD
ATOM     10  O   UNL     1      11.241  15.363  12.337  1.00  0.00    -0.275 OA
BRANCH   8  11
ATOM     11  C   UNL     1      11.719  13.972   9.878  1.00  0.00     0.112 C 
ATOM     12  C   UNL     1      13.235  13.887  10.022  1.00  0.00     0.027 C 
ENDBRANCH   8  11
ENDBRANCH   6   7
ENDBRANCH   5   6
ENDBRANCH   4   5
ENDBRANCH   3   4
ENDBRANCH   1   2
BRANCH   1  13
ATOM     13  C   UNL     1      12.326   9.960  16.823  1.00  0.00     0.031 C 
ATOM     14  C   UNL     1      12.052   8.868  15.768  1.00  0.00     0.121 C 
ATOM     15  C   UNL     1      12.497   9.224  18.175  1.00  0.00     0.046 C 
ATOM     16  C   UNL     1      12.555   7.558  16.355  1.00  0.00     0.064 C 
ATOM     17  C   UNL     1      12.477   7.710  17.872  1.00  0.00     0.124 C 
BRANCH  14  18
ATOM     18  O   UNL     1      12.676   9.124  14.536  1.00  0.00    -0.393 OA
ATOM     19  H   UNL     1      12.669   8.269  14.030  1.00  0.00     0.210 HD
ENDBRANCH  14  18
BRANCH  15  20
ATOM     20  C   UNL     1      11.384   9.582  19.138  1.00  0.00    -0.022 C 
ATOM     21  C   UNL     1      10.106   9.250  18.902  1.00  0.00     0.000 C 
BRANCH  21  22
ATOM     22  C   UNL     1       8.993   9.667  19.839  1.00  0.00     0.137 C 
BRANCH  22  23
ATOM     23  O   UNL     1       9.534  10.112  21.055  1.00  0.00    -0.389 OA
ATOM     24  H   UNL     1       9.296  11.073  21.143  1.00  0.00     0.211 HD
ENDBRANCH  22  23
BRANCH  22  25
ATOM     25  C   UNL     1       8.101  10.758  19.216  1.00  0.00     0.041 C 
BRANCH  25  26
ATOM     26  C   UNL     1       8.477  11.192  17.785  1.00  0.00     0.038 C 
BRANCH  26  27
ATOM     27  C   UNL     1       9.029  12.595  17.729  1.00  0.00    -0.048 A 
ATOM     28  C   UNL     1       8.563  13.507  16.767  1.00  0.00     0.004 A 
ATOM     29  C   UNL     1      10.030  12.995  18.629  1.00  0.00     0.004 A 
ATOM     30  C   UNL     1       9.102  14.797  16.701  1.00  0.00     0.000 A 
ATOM     31  C   UNL     1      10.560  14.289  18.566  1.00  0.00     0.000 A 
ATOM     32  C   UNL     1      10.097  15.189  17.602  1.00  0.00     0.000 A 
ENDBRANCH  26  27
ENDBRANCH  25  26
ENDBRANCH  22  25
ENDBRANCH  21  22
ENDBRANCH  15  20
BRANCH  17  33
ATOM     33  O   UNL     1      13.572   7.065  18.474  1.00  0.00    -0.392 OA
ATOM     34  H   UNL     1      13.631   7.418  19.402  1.00  0.00     0.210 HD
ENDBRANCH  17  33
ENDBRANCH   1  13
TORSDOF 15
ENDMDL
MODEL 13
REMARK VINA RESULT:    -6.832      3.518      5.413
REMARK INTER + INTRA:         -16.442
REMARK INTER:                 -13.698
REMARK INTRA:                  -2.744
REMARK UNBOUND:                -4.218
REMARK SMILES CCNC(=O)CCC/C=C\C[C@@H]1[C@@H](/C=C/[C@@H](O)CCc2ccccc2)[C@H](O)C[C@@H]1O
REMARK SMILES IDX 11 1 10 2 9 3 8 4 7 5 6 6 4 7 3 8 5 10 2 11 1 12 12 13 29 14
REMARK SMILES IDX 13 15 28 16 26 17 30 18 14 20 15 21 16 22 17 23 18 25 19 26
REMARK SMILES IDX 20 27 21 28 25 29 22 30 24 31 23 32 27 33
REMARK H PARENT 3 9 30 19 17 24 27 34
REMARK Flexibility Score: inf
ROOT
ATOM      1  C   UNL     1      14.775   9.692  18.971  1.00  0.00     0.034 C 
ENDROOT
BRANCH   1   2
ATOM      2  C   UNL     1      14.543  10.646  17.819  1.00  0.00    -0.031 C 
ATOM      3  C   UNL     1      15.148  11.840  17.694  1.00  0.00    -0.031 C 
BRANCH   3   4
ATOM      4  C   UNL     1      16.158  12.410  18.661  1.00  0.00     0.027 C 
BRANCH   4   5
ATOM      5  C   UNL     1      17.476  12.857  17.999  1.00  0.00     0.014 C 
BRANCH   5   6
ATOM      6  C   UNL     1      18.650  13.054  18.974  1.00  0.00     0.100 C 
BRANCH   6   7
ATOM      7  C   UNL     1      19.968  13.156  18.261  1.00  0.00     0.219 C 
ATOM      8  N   UNL     1      20.617  14.427  18.122  1.00  0.00    -0.356 N 
ATOM      9  H   UNL     1      20.208  15.261  18.607  1.00  0.00     0.163 HD
ATOM     10  O   UNL     1      20.488  12.117  17.764  1.00  0.00    -0.275 OA
BRANCH   8  11
ATOM     11  C   UNL     1      21.892  14.592  17.423  1.00  0.00     0.112 C 
ATOM     12  C   UNL     1      21.690  15.331  16.105  1.00  0.00     0.027 C 
ENDBRANCH   8  11
ENDBRANCH   6   7
ENDBRANCH   5   6
ENDBRANCH   4   5
ENDBRANCH   3   4
ENDBRANCH   1   2
BRANCH   1  13
ATOM     13  C   UNL     1      13.475   9.230  19.687  1.00  0.00     0.031 C 
ATOM     14  C   UNL     1      13.593   7.909  20.476  1.00  0.00     0.121 C 
ATOM     15  C   UNL     1      12.935  10.284  20.684  1.00  0.00     0.046 C 
ATOM     16  C   UNL     1      13.632   8.284  21.950  1.00  0.00     0.064 C 
ATOM     17  C   UNL     1      12.892   9.613  22.074  1.00  0.00     0.124 C 
BRANCH  14  18
ATOM     18  O   UNL     1      14.732   7.162  20.131  1.00  0.00    -0.393 OA
ATOM     19  H   UNL     1      15.520   7.705  20.398  1.00  0.00     0.210 HD
ENDBRANCH  14  18
BRANCH  15  20
ATOM     20  C   UNL     1      11.551  10.756  20.285  1.00  0.00    -0.022 C 
ATOM     21  C   UNL     1      10.470   9.971  20.406  1.00  0.00     0.000 C 
BRANCH  21  22
ATOM     22  C   UNL     1       9.103  10.430  19.948  1.00  0.00     0.137 C 
BRANCH  22  23
ATOM     23  O   UNL     1       8.949  11.802  20.199  1.00  0.00    -0.389 OA
ATOM     24  H   UNL     1       9.178  12.278  19.357  1.00  0.00     0.211 HD
ENDBRANCH  22  23
BRANCH  22  25
ATOM     25  C   UNL     1       8.872  10.128  18.454  1.00  0.00     0.041 C 
BRANCH  25  26
ATOM     26  C   UNL     1       9.515  11.120  17.464  1.00  0.00     0.038 C 
BRANCH  26  27
ATOM     27  C   UNL     1      10.600  10.489  16.629  1.00  0.00    -0.048 A 
ATOM     28  C   UNL     1      11.049   9.187  16.907  1.00  0.00     0.004 A 
ATOM     29  C   UNL     1      11.184  11.209  15.574  1.00  0.00     0.004 A 
ATOM     30  C   UNL     1      12.077   8.620  16.146  1.00  0.00     0.000 A 
ATOM     31  C   UNL     1      12.207  10.635  14.809  1.00  0.00     0.000 A 
ATOM     32  C   UNL     1      12.655   9.342  15.095  1.00  0.00     0.000 A 
ENDBRANCH  26  27
ENDBRANCH  25  26
ENDBRANCH  22  25
ENDBRANCH  21  22
ENDBRANCH  15  20
BRANCH  17  33
ATOM     33  O   UNL     1      13.519  10.422  23.039  1.00  0.00    -0.392 OA
ATOM     34  H   UNL     1      14.359  10.755  22.625  1.00  0.00     0.210 HD
ENDBRANCH  17  33
ENDBRANCH   1  13
TORSDOF 15
ENDMDL
MODEL 14
REMARK VINA RESULT:    -6.809      1.996      3.882
REMARK INTER + INTRA:         -16.401
REMARK INTER:                 -13.411
REMARK INTRA:                  -2.990
REMARK UNBOUND:                -4.218
REMARK SMILES CCNC(=O)CCC/C=C\C[C@@H]1[C@@H](/C=C/[C@@H](O)CCc2ccccc2)[C@H](O)C[C@@H]1O
REMARK SMILES IDX 11 1 10 2 9 3 8 4 7 5 6 6 4 7 3 8 5 10 2 11 1 12 12 13 29 14
REMARK SMILES IDX 13 15 28 16 26 17 30 18 14 20 15 21 16 22 17 23 18 25 19 26
REMARK SMILES IDX 20 27 21 28 25 29 22 30 24 31 23 32 27 33
REMARK H PARENT 3 9 30 19 17 24 27 34
REMARK Flexibility Score: inf
ROOT
ATOM      1  C   UNL     1      13.377   9.252  17.412  1.00  0.00     0.034 C 
ENDROOT
BRANCH   1   2
ATOM      2  C   UNL     1      12.910   8.603  16.127  1.00  0.00    -0.031 C 
ATOM      3  C   UNL     1      12.088   9.191  15.240  1.00  0.00    -0.031 C 
BRANCH   3   4
ATOM      4  C   UNL     1      11.516  10.582  15.372  1.00  0.00     0.027 C 
BRANCH   4   5
ATOM      5  C   UNL     1      12.450  11.695  14.858  1.00  0.00     0.014 C 
BRANCH   5   6
ATOM      6  C   UNL     1      12.269  13.057  15.551  1.00  0.00     0.100 C 
BRANCH   6   7
ATOM      7  C   UNL     1      12.788  13.050  16.960  1.00  0.00     0.219 C 
ATOM      8  N   UNL     1      14.186  12.861  17.214  1.00  0.00    -0.356 N 
ATOM      9  H   UNL     1      14.848  12.826  16.403  1.00  0.00     0.163 HD
ATOM     10  O   UNL     1      11.979  13.187  17.921  1.00  0.00    -0.275 OA
BRANCH   8  11
ATOM     11  C   UNL     1      14.748  12.827  18.564  1.00  0.00     0.112 C 
ATOM     12  C   UNL     1      15.758  11.692  18.697  1.00  0.00     0.027 C 
ENDBRANCH   8  11
ENDBRANCH   6   7
ENDBRANCH   5   6
ENDBRANCH   4   5
ENDBRANCH   3   4
ENDBRANCH   1   2
BRANCH   1  13
ATOM     13  C   UNL     1      12.550   8.848  18.665  1.00  0.00     0.031 C 
ATOM     14  C   UNL     1      13.097   7.638  19.452  1.00  0.00     0.121 C 
ATOM     15  C   UNL     1      12.411  10.003  19.687  1.00  0.00     0.046 C 
ATOM     16  C   UNL     1      13.736   8.193  20.716  1.00  0.00     0.064 C 
ATOM     17  C   UNL     1      13.021   9.508  21.016  1.00  0.00     0.124 C 
BRANCH  14  18
ATOM     18  O   UNL     1      14.031   6.884  18.722  1.00  0.00    -0.393 OA
ATOM     19  H   UNL     1      13.597   6.014  18.519  1.00  0.00     0.210 HD
ENDBRANCH  14  18
BRANCH  15  20
ATOM     20  C   UNL     1      10.959  10.386  19.886  1.00  0.00    -0.022 C 
ATOM     21  C   UNL     1       9.953   9.610  19.454  1.00  0.00     0.000 C 
BRANCH  21  22
ATOM     22  C   UNL     1       8.508  10.031  19.602  1.00  0.00     0.137 C 
BRANCH  22  23
ATOM     23  O   UNL     1       8.378  10.930  20.672  1.00  0.00    -0.389 OA
ATOM     24  H   UNL     1       8.797  11.784  20.384  1.00  0.00     0.211 HD
ENDBRANCH  22  23
BRANCH  22  25
ATOM     25  C   UNL     1       7.960  10.657  18.305  1.00  0.00     0.041 C 
BRANCH  25  26
ATOM     26  C   UNL     1       8.938  11.570  17.539  1.00  0.00     0.038 C 
BRANCH  26  27
ATOM     27  C   UNL     1       8.495  13.011  17.519  1.00  0.00    -0.048 A 
ATOM     28  C   UNL     1       8.268  13.672  16.299  1.00  0.00     0.004 A 
ATOM     29  C   UNL     1       8.322  13.712  18.724  1.00  0.00     0.004 A 
ATOM     30  C   UNL     1       7.886  15.018  16.289  1.00  0.00     0.000 A 
ATOM     31  C   UNL     1       7.931  15.056  18.709  1.00  0.00     0.000 A 
ATOM     32  C   UNL     1       7.715  15.709  17.493  1.00  0.00     0.000 A 
ENDBRANCH  26  27
ENDBRANCH  25  26
ENDBRANCH  22  25
ENDBRANCH  21  22
ENDBRANCH  15  20
BRANCH  17  33
ATOM     33  O   UNL     1      13.937  10.446  21.526  1.00  0.00    -0.392 OA
ATOM     34  H   UNL     1      14.291  10.947  20.744  1.00  0.00     0.210 HD
ENDBRANCH  17  33
ENDBRANCH   1  13
TORSDOF 15
ENDMDL
MODEL 15
REMARK VINA RESULT:    -6.792      3.442      7.125
REMARK INTER + INTRA:         -16.371
REMARK INTER:                 -13.515
REMARK INTRA:                  -2.856
REMARK UNBOUND:                -4.218
REMARK SMILES CCNC(=O)CCC/C=C\C[C@@H]1[C@@H](/C=C/[C@@H](O)CCc2ccccc2)[C@H](O)C[C@@H]1O
REMARK SMILES IDX 11 1 10 2 9 3 8 4 7 5 6 6 4 7 3 8 5 10 2 11 1 12 12 13 29 14
REMARK SMILES IDX 13 15 28 16 26 17 30 18 14 20 15 21 16 22 17 23 18 25 19 26
REMARK SMILES IDX 20 27 21 28 25 29 22 30 24 31 23 32 27 33
REMARK H PARENT 3 9 30 19 17 24 27 34
REMARK Flexibility Score: inf
ROOT
ATOM      1  C   UNL     1       9.472  13.436  17.185  1.00  0.00     0.034 C 
ENDROOT
BRANCH   1   2
ATOM      2  C   UNL     1       9.473  13.209  15.689  1.00  0.00    -0.031 C 
ATOM      3  C   UNL     1      10.380  13.735  14.847  1.00  0.00    -0.031 C 
BRANCH   3   4
ATOM      4  C   UNL     1      11.539  14.614  15.253  1.00  0.00     0.027 C 
BRANCH   4   5
ATOM      5  C   UNL     1      12.846  14.318  14.491  1.00  0.00     0.014 C 
BRANCH   5   6
ATOM      6  C   UNL     1      12.772  13.118  13.531  1.00  0.00     0.100 C 
BRANCH   6   7
ATOM      7  C   UNL     1      12.880  13.533  12.092  1.00  0.00     0.219 C 
ATOM      8  N   UNL     1      11.725  13.501  11.244  1.00  0.00    -0.356 N 
ATOM      9  H   UNL     1      10.791  13.280  11.666  1.00  0.00     0.163 HD
ATOM     10  O   UNL     1      14.001  13.886  11.630  1.00  0.00    -0.275 OA
BRANCH   8  11
ATOM     11  C   UNL     1      11.771  13.877   9.830  1.00  0.00     0.112 C 
ATOM     12  C   UNL     1      10.455  14.518   9.403  1.00  0.00     0.027 C 
ENDBRANCH   8  11
ENDBRANCH   6   7
ENDBRANCH   5   6
ENDBRANCH   4   5
ENDBRANCH   3   4
ENDBRANCH   1   2
BRANCH   1  13
ATOM     13  C   UNL     1       9.788  12.165  18.022  1.00  0.00     0.031 C 
ATOM     14  C   UNL     1       9.124  12.112  19.414  1.00  0.00     0.121 C 
ATOM     15  C   UNL     1       9.383  10.856  17.298  1.00  0.00     0.046 C 
ATOM     16  C   UNL     1       7.985  11.109  19.316  1.00  0.00     0.064 C 
ATOM     17  C   UNL     1       8.368  10.132  18.208  1.00  0.00     0.124 C 
BRANCH  14  18
ATOM     18  O   UNL     1       8.642  13.360  19.841  1.00  0.00    -0.393 OA
ATOM     19  H   UNL     1       8.916  13.461  20.791  1.00  0.00     0.210 HD
ENDBRANCH  14  18
BRANCH  15  20
ATOM     20  C   UNL     1      10.589   9.974  17.049  1.00  0.00    -0.022 C 
ATOM     21  C   UNL     1      10.700   8.752  17.590  1.00  0.00     0.000 C 
BRANCH  21  22
ATOM     22  C   UNL     1      11.936   7.903  17.385  1.00  0.00     0.137 C 
BRANCH  22  23
ATOM     23  O   UNL     1      11.599   6.543  17.452  1.00  0.00    -0.389 OA
ATOM     24  H   UNL     1      11.705   6.265  18.400  1.00  0.00     0.211 HD
ENDBRANCH  22  23
BRANCH  22  25
ATOM     25  C   UNL     1      12.628   8.220  16.045  1.00  0.00     0.041 C 
BRANCH  25  26
ATOM     26  C   UNL     1      14.078   8.735  16.147  1.00  0.00     0.038 C 
BRANCH  26  27
ATOM     27  C   UNL     1      14.191   9.999  16.962  1.00  0.00    -0.048 A 
ATOM     28  C   UNL     1      13.696  11.216  16.464  1.00  0.00     0.004 A 
ATOM     29  C   UNL     1      14.811   9.970  18.222  1.00  0.00     0.004 A 
ATOM     30  C   UNL     1      13.832  12.390  17.214  1.00  0.00     0.000 A 
ATOM     31  C   UNL     1      14.937  11.146  18.973  1.00  0.00     0.000 A 
ATOM     32  C   UNL     1      14.449  12.355  18.469  1.00  0.00     0.000 A 
ENDBRANCH  26  27
ENDBRANCH  25  26
ENDBRANCH  22  25
ENDBRANCH  21  22
ENDBRANCH  15  20
BRANCH  17  33
ATOM     33  O   UNL     1       7.223   9.759  17.480  1.00  0.00    -0.392 OA
ATOM     34  H   UNL     1       6.949  10.559  16.957  1.00  0.00     0.210 HD
ENDBRANCH  17  33
ENDBRANCH   1  13
TORSDOF 15
ENDMDL
