MODEL 1
REMARK VINA RESULT:    -1.235      0.000      0.000
REMARK INTER + INTRA:          -1.235
REMARK INTER:                  -1.235
REMARK INTRA:                   0.000
REMARK UNBOUND:                 0.000
REMARK SMILES C[N+]1(C)C2CCC1CC(OC(=O)C(O)c1ccccc1)C2.[Br-]
REMARK SMILES IDX 22 1
REMARK H PARENT
REMARK Flexibility Score: inf
ROOT
ATOM      1  Br  UNL     1       9.655  71.371  -5.304  1.00  0.00    -1.000 Br
ENDROOT
TORSDOF 0
ENDMDL
MODEL 2
REMARK VINA RESULT:    -1.200      1.097      1.097
REMARK INTER + INTRA:          -1.200
REMARK INTER:                  -1.200
REMARK INTRA:                   0.000
REMARK UNBOUND:                 0.000
REMARK SMILES C[N+]1(C)C2CCC1CC(OC(=O)C(O)c1ccccc1)C2.[Br-]
REMARK SMILES IDX 22 1
REMARK H PARENT
REMARK Flexibility Score: inf
ROOT
ATOM      1  Br  UNL     1       9.759  71.204  -4.225  1.00  0.00    -1.000 Br
ENDROOT
TORSDOF 0
ENDMDL
MODEL 3
REMARK VINA RESULT:    -1.167      2.816      2.816
REMARK INTER + INTRA:          -1.167
REMARK INTER:                  -1.167
REMARK INTRA:                   0.000
REMARK UNBOUND:                 0.000
REMARK SMILES C[N+]1(C)C2CCC1CC(OC(=O)C(O)c1ccccc1)C2.[Br-]
REMARK SMILES IDX 22 1
REMARK H PARENT
REMARK Flexibility Score: inf
ROOT
ATOM      1  Br  UNL     1      12.098  72.773  -5.319  1.00  0.00    -1.000 Br
ENDROOT
TORSDOF 0
ENDMDL
MODEL 4
REMARK VINA RESULT:    -1.014     15.076     15.076
REMARK INTER + INTRA:          -1.014
REMARK INTER:                  -1.014
REMARK INTRA:                   0.000
REMARK UNBOUND:                 0.000
REMARK SMILES C[N+]1(C)C2CCC1CC(OC(=O)C(O)c1ccccc1)C2.[Br-]
REMARK SMILES IDX 22 1
REMARK H PARENT
REMARK Flexibility Score: inf
ROOT
ATOM      1  Br  UNL     1       2.141  77.838   6.053  1.00  0.00    -1.000 Br
ENDROOT
TORSDOF 0
ENDMDL
MODEL 5
REMARK VINA RESULT:    -1.007     13.173     13.173
REMARK INTER + INTRA:          -1.007
REMARK INTER:                  -1.007
REMARK INTRA:                   0.000
REMARK UNBOUND:                 0.000
REMARK SMILES C[N+]1(C)C2CCC1CC(OC(=O)C(O)c1ccccc1)C2.[Br-]
REMARK SMILES IDX 22 1
REMARK H PARENT
REMARK Flexibility Score: inf
ROOT
ATOM      1  Br  UNL     1      15.089  73.912   6.424  1.00  0.00    -1.000 Br
ENDROOT
TORSDOF 0
ENDMDL
MODEL 6
REMARK VINA RESULT:    -0.914      9.637      9.637
REMARK INTER + INTRA:          -0.914
REMARK INTER:                  -0.914
REMARK INTRA:                   0.000
REMARK UNBOUND:                 0.000
REMARK SMILES C[N+]1(C)C2CCC1CC(OC(=O)C(O)c1ccccc1)C2.[Br-]
REMARK SMILES IDX 22 1
REMARK H PARENT
REMARK Flexibility Score: inf
ROOT
ATOM      1  Br  UNL     1       7.806  80.259  -2.070  1.00  0.00    -1.000 Br
ENDROOT
TORSDOF 0
ENDMDL
MODEL 7
REMARK VINA RESULT:    -0.890      8.051      8.051
REMARK INTER + INTRA:          -0.890
REMARK INTER:                  -0.890
REMARK INTRA:                   0.000
REMARK UNBOUND:                 0.000
REMARK SMILES C[N+]1(C)C2CCC1CC(OC(=O)C(O)c1ccccc1)C2.[Br-]
REMARK SMILES IDX 22 1
REMARK H PARENT
REMARK Flexibility Score: inf
ROOT
ATOM      1  Br  UNL     1       5.487  75.210   0.415  1.00  0.00    -1.000 Br
ENDROOT
TORSDOF 0
ENDMDL
MODEL 8
REMARK VINA RESULT:    -0.863     14.467     14.467
REMARK INTER + INTRA:          -0.863
REMARK INTER:                  -0.863
REMARK INTRA:                   0.000
REMARK UNBOUND:                 0.000
REMARK SMILES C[N+]1(C)C2CCC1CC(OC(=O)C(O)c1ccccc1)C2.[Br-]
REMARK SMILES IDX 22 1
REMARK H PARENT
REMARK Flexibility Score: inf
ROOT
ATOM      1  Br  UNL     1      19.527  81.941  -4.957  1.00  0.00    -1.000 Br
ENDROOT
TORSDOF 0
ENDMDL
MODEL 9
REMARK VINA RESULT:    -0.860     12.047     12.047
REMARK INTER + INTRA:          -0.860
REMARK INTER:                  -0.860
REMARK INTRA:                   0.000
REMARK UNBOUND:                 0.000
REMARK SMILES C[N+]1(C)C2CCC1CC(OC(=O)C(O)c1ccccc1)C2.[Br-]
REMARK SMILES IDX 22 1
REMARK H PARENT
REMARK Flexibility Score: inf
ROOT
ATOM      1  Br  UNL     1      -2.248  69.549  -5.672  1.00  0.00    -1.000 Br
ENDROOT
TORSDOF 0
ENDMDL
MODEL 10
REMARK VINA RESULT:    -0.852     10.926     10.926
REMARK INTER + INTRA:          -0.852
REMARK INTER:                  -0.852
REMARK INTRA:                   0.000
REMARK UNBOUND:                 0.000
REMARK SMILES C[N+]1(C)C2CCC1CC(OC(=O)C(O)c1ccccc1)C2.[Br-]
REMARK SMILES IDX 22 1
REMARK H PARENT
REMARK Flexibility Score: inf
ROOT
ATOM      1  Br  UNL     1      17.464  78.780  -7.179  1.00  0.00    -1.000 Br
ENDROOT
TORSDOF 0
ENDMDL
MODEL 11
REMARK VINA RESULT:    -0.834     11.939     11.939
REMARK INTER + INTRA:          -0.834
REMARK INTER:                  -0.834
REMARK INTRA:                   0.000
REMARK UNBOUND:                 0.000
REMARK SMILES C[N+]1(C)C2CCC1CC(OC(=O)C(O)c1ccccc1)C2.[Br-]
REMARK SMILES IDX 22 1
REMARK H PARENT
REMARK Flexibility Score: inf
ROOT
ATOM      1  Br  UNL     1      10.873  81.570   0.781  1.00  0.00    -1.000 Br
ENDROOT
TORSDOF 0
ENDMDL
MODEL 12
REMARK VINA RESULT:    -0.823      9.991      9.991
REMARK INTER + INTRA:          -0.823
REMARK INTER:                  -0.823
REMARK INTRA:                   0.000
REMARK UNBOUND:                 0.000
REMARK SMILES C[N+]1(C)C2CCC1CC(OC(=O)C(O)c1ccccc1)C2.[Br-]
REMARK SMILES IDX 22 1
REMARK H PARENT
REMARK Flexibility Score: inf
ROOT
ATOM      1  Br  UNL     1      13.592  80.551  -5.098  1.00  0.00    -1.000 Br
ENDROOT
TORSDOF 0
ENDMDL
MODEL 13
REMARK VINA RESULT:    -0.806     16.409     16.409
REMARK INTER + INTRA:          -0.806
REMARK INTER:                  -0.806
REMARK INTRA:                   0.000
REMARK UNBOUND:                 0.000
REMARK SMILES C[N+]1(C)C2CCC1CC(OC(=O)C(O)c1ccccc1)C2.[Br-]
REMARK SMILES IDX 22 1
REMARK H PARENT
REMARK Flexibility Score: inf
ROOT
ATOM      1  Br  UNL     1      16.127  65.396   8.540  1.00  0.00    -1.000 Br
ENDROOT
TORSDOF 0
ENDMDL
MODEL 14
REMARK VINA RESULT:    -0.790      4.996      4.996
REMARK INTER + INTRA:          -0.790
REMARK INTER:                  -0.790
REMARK INTRA:                   0.000
REMARK UNBOUND:                 0.000
REMARK SMILES C[N+]1(C)C2CCC1CC(OC(=O)C(O)c1ccccc1)C2.[Br-]
REMARK SMILES IDX 22 1
REMARK H PARENT
REMARK Flexibility Score: inf
ROOT
ATOM      1  Br  UNL     1       7.028  75.299  -3.683  1.00  0.00    -1.000 Br
ENDROOT
TORSDOF 0
ENDMDL
MODEL 15
REMARK VINA RESULT:    -0.770     18.042     18.042
REMARK INTER + INTRA:          -0.770
REMARK INTER:                  -0.770
REMARK INTRA:                   0.000
REMARK UNBOUND:                 0.000
REMARK SMILES C[N+]1(C)C2CCC1CC(OC(=O)C(O)c1ccccc1)C2.[Br-]
REMARK SMILES IDX 22 1
REMARK H PARENT
REMARK Flexibility Score: inf
ROOT
ATOM      1  Br  UNL     1       3.039  80.040   9.069  1.00  0.00    -1.000 Br
ENDROOT
TORSDOF 0
ENDMDL
