MODEL 1
REMARK VINA RESULT:    -8.066      0.000      0.000
REMARK INTER + INTRA:         -17.510
REMARK INTER:                 -15.374
REMARK INTRA:                  -2.137
REMARK UNBOUND:                -2.137
REMARK SMILES NC[C@@H]1O[C@H](O[C@H]2[C@@H](O)[C@H](O[C@@H]3[C@@H](O)[C@H](N)C[C@H](N)[C@H]3O[C@H]3O[C@H](CN)[C@@H](O)[C@H](O)[C@H]3N)O[C@@H]2CO)[C@H](N)[C@@H](O)[C@@H]1O
REMARK SMILES IDX 11 1 10 2 7 3 34 4 8 5 33 6 6 7 5 8 3 9 4 10 41 11 39 12
REMARK SMILES IDX 37 13 2 14 1 15 42 18 40 20 38 22 35 25 36 26 9 28 12 30
REMARK SMILES IDX 13 31 20 32 15 33 18 34 17 35 14 36 21 38 22 39 23 40 31 41
REMARK SMILES IDX 24 42 29 43 27 44 32 45 25 48 26 49 30 52 28 54 16 56 19 59
REMARK H PARENT 1 16 1 17 42 19 40 21 38 23 38 24 36 27 9 29 14 37 32 46 32 47
REMARK H PARENT 26 50 26 51 30 53 28 55 16 57 16 58 19 60 19 61
REMARK Flexibility Score: inf
ROOT
ATOM      1  O   UNL     1      14.230  78.281  -2.076  1.00  0.00    -0.341 OA
ENDROOT
BRANCH   1   2
ATOM      2  C   UNL     1      14.845  78.721  -3.290  1.00  0.00     0.282 C 
ATOM      3  C   UNL     1      14.594  79.496  -5.534  1.00  0.00     0.186 C 
ATOM      4  C   UNL     1      14.632  80.650  -4.513  1.00  0.00     0.179 C 
ATOM      5  C   UNL     1      14.243  78.316  -4.659  1.00  0.00     0.202 C 
ATOM      6  O   UNL     1      14.940  80.127  -3.239  1.00  0.00    -0.341 OA
BRANCH   3   7
ATOM      7  O   UNL     1      15.867  79.300  -6.132  1.00  0.00    -0.342 OA
BRANCH   7   8
ATOM      8  C   UNL     1      16.525  80.533  -6.385  1.00  0.00     0.270 C 
ATOM      9  C   UNL     1      18.347  81.818  -5.731  1.00  0.00     0.166 C 
ATOM     10  O   UNL     1      17.750  80.540  -5.665  1.00  0.00    -0.344 OA
ATOM     11  C   UNL     1      18.798  82.136  -7.175  1.00  0.00     0.175 C 
ATOM     12  C   UNL     1      17.637  81.937  -8.175  1.00  0.00     0.167 C 
ATOM     13  C   UNL     1      16.821  80.643  -7.889  1.00  0.00     0.139 C 
BRANCH   9  14
ATOM     14  C   UNL     1      19.518  81.877  -4.743  1.00  0.00     0.112 C 
BRANCH  14  15
ATOM     15  N   UNL     1      20.209  80.591  -4.687  1.00  0.00    -0.328 NA
ATOM     16  H   UNL     1      19.932  80.119  -3.790  1.00  0.00     0.118 HD
ATOM     17  H   UNL     1      19.827  79.985  -5.457  1.00  0.00     0.118 HD
ENDBRANCH  14  15
ENDBRANCH   9  14
BRANCH  11  18
ATOM     18  O   UNL     1      19.889  81.313  -7.530  1.00  0.00    -0.388 OA
ATOM     19  H   UNL     1      20.246  80.936  -6.682  1.00  0.00     0.211 HD
ENDBRANCH  11  18
BRANCH  12  20
ATOM     20  O   UNL     1      16.784  83.053  -8.078  1.00  0.00    -0.388 OA
ATOM     21  H   UNL     1      16.775  83.493  -8.971  1.00  0.00     0.211 HD
ENDBRANCH  12  20
BRANCH  13  22
ATOM     22  N   UNL     1      17.521  79.435  -8.382  1.00  0.00    -0.321 NA
ATOM     23  H   UNL     1      16.993  78.584  -8.071  1.00  0.00     0.119 HD
ATOM     24  H   UNL     1      17.564  79.440  -9.428  1.00  0.00     0.119 HD
ENDBRANCH  13  22
ENDBRANCH   7   8
ENDBRANCH   3   7
BRANCH   4  25
ATOM     25  C   UNL     1      13.314  81.448  -4.426  1.00  0.00     0.191 C 
BRANCH  25  26
ATOM     26  O   UNL     1      12.343  80.962  -5.322  1.00  0.00    -0.394 OA
ATOM     27  H   UNL     1      12.122  81.709  -5.932  1.00  0.00     0.210 HD
ENDBRANCH  25  26
ENDBRANCH   4  25
BRANCH   5  28
ATOM     28  O   UNL     1      14.798  77.132  -5.188  1.00  0.00    -0.385 OA
ATOM     29  H   UNL     1      15.781  77.241  -5.243  1.00  0.00     0.211 HD
ENDBRANCH   5  28
ENDBRANCH   1   2
BRANCH   1  30
ATOM     30  C   UNL     1      12.877  78.641  -1.828  1.00  0.00     0.182 C 
ATOM     31  C   UNL     1      12.768  80.140  -1.418  1.00  0.00     0.163 C 
ATOM     32  C   UNL     1      12.297  77.711  -0.734  1.00  0.00     0.170 C 
ATOM     33  C   UNL     1      13.332  80.443   0.001  1.00  0.00     0.084 C 
ATOM     34  C   UNL     1      12.957  77.972   0.646  1.00  0.00     0.084 C 
ATOM     35  C   UNL     1      12.829  79.451   1.064  1.00  0.00     0.043 C 
BRANCH  31  36
ATOM     36  O   UNL     1      11.418  80.553  -1.468  1.00  0.00    -0.389 OA
ATOM     37  H   UNL     1      11.380  81.352  -2.057  1.00  0.00     0.211 HD
ENDBRANCH  31  36
BRANCH  32  38
ATOM     38  O   UNL     1      10.897  77.936  -0.645  1.00  0.00    -0.343 OA
BRANCH  38  39
ATOM     39  C   UNL     1      10.128  77.040  -1.433  1.00  0.00     0.270 C 
ATOM     40  O   UNL     1      10.115  75.757  -0.820  1.00  0.00    -0.344 OA
ATOM     41  C   UNL     1       8.709  77.653  -1.579  1.00  0.00     0.139 C 
ATOM     42  C   UNL     1       9.342  74.799  -1.526  1.00  0.00     0.166 C 
ATOM     43  C   UNL     1       7.637  76.630  -2.073  1.00  0.00     0.167 C 
ATOM     44  C   UNL     1       7.849  75.204  -1.521  1.00  0.00     0.175 C 
BRANCH  41  45
ATOM     45  N   UNL     1       8.304  78.318  -0.331  1.00  0.00    -0.321 NA
ATOM     46  H   UNL     1       7.415  78.834  -0.496  1.00  0.00     0.119 HD
ATOM     47  H   UNL     1       8.143  77.612   0.428  1.00  0.00     0.119 HD
ENDBRANCH  41  45
BRANCH  42  48
ATOM     48  C   UNL     1       9.946  74.462  -2.922  1.00  0.00     0.112 C 
BRANCH  48  49
ATOM     49  N   UNL     1       9.018  73.721  -3.774  1.00  0.00    -0.328 NA
ATOM     50  H   UNL     1       8.417  73.104  -3.186  1.00  0.00     0.118 HD
ATOM     51  H   UNL     1       9.551  73.131  -4.454  1.00  0.00     0.118 HD
ENDBRANCH  48  49
ENDBRANCH  42  48
BRANCH  43  52
ATOM     52  O   UNL     1       7.630  76.589  -3.485  1.00  0.00    -0.388 OA
ATOM     53  H   UNL     1       6.790  76.131  -3.758  1.00  0.00     0.211 HD
ENDBRANCH  43  52
BRANCH  44  54
ATOM     54  O   UNL     1       7.301  75.084  -0.228  1.00  0.00    -0.388 OA
ATOM     55  H   UNL     1       6.347  75.373  -0.262  1.00  0.00     0.211 HD
ENDBRANCH  44  54
ENDBRANCH  38  39
ENDBRANCH  32  38
BRANCH  33  56
ATOM     56  N   UNL     1      14.796  80.541   0.024  1.00  0.00    -0.325 NA
ATOM     57  H   UNL     1      15.169  79.790   0.654  1.00  0.00     0.119 HD
ATOM     58  H   UNL     1      15.102  81.447   0.429  1.00  0.00     0.119 HD
ENDBRANCH  33  56
BRANCH  34  59
ATOM     59  N   UNL     1      14.357  77.538   0.657  1.00  0.00    -0.325 NA
ATOM     60  H   UNL     1      14.962  78.392   0.727  1.00  0.00     0.119 HD
ATOM     61  H   UNL     1      14.578  77.110  -0.266  1.00  0.00     0.119 HD
ENDBRANCH  34  59
ENDBRANCH   1  30
TORSDOF 22
ENDMDL
MODEL 2
REMARK VINA RESULT:    -7.739      1.345      1.503
REMARK INTER + INTRA:         -16.887
REMARK INTER:                 -15.073
REMARK INTRA:                  -1.815
REMARK UNBOUND:                -2.137
REMARK SMILES NC[C@@H]1O[C@H](O[C@H]2[C@@H](O)[C@H](O[C@@H]3[C@@H](O)[C@H](N)C[C@H](N)[C@H]3O[C@H]3O[C@H](CN)[C@@H](O)[C@H](O)[C@H]3N)O[C@@H]2CO)[C@H](N)[C@@H](O)[C@@H]1O
REMARK SMILES IDX 11 1 10 2 7 3 34 4 8 5 33 6 6 7 5 8 3 9 4 10 41 11 39 12
REMARK SMILES IDX 37 13 2 14 1 15 42 18 40 20 38 22 35 25 36 26 9 28 12 30
REMARK SMILES IDX 13 31 20 32 15 33 18 34 17 35 14 36 21 38 22 39 23 40 31 41
REMARK SMILES IDX 24 42 29 43 27 44 32 45 25 48 26 49 30 52 28 54 16 56 19 59
REMARK H PARENT 1 16 1 17 42 19 40 21 38 23 38 24 36 27 9 29 14 37 32 46 32 47
REMARK H PARENT 26 50 26 51 30 53 28 55 16 57 16 58 19 60 19 61
REMARK Flexibility Score: inf
ROOT
ATOM      1  O   UNL     1      14.025  78.201  -2.242  1.00  0.00    -0.341 OA
ENDROOT
BRANCH   1   2
ATOM      2  C   UNL     1      14.741  78.669  -3.389  1.00  0.00     0.282 C 
ATOM      3  C   UNL     1      14.682  79.497  -5.627  1.00  0.00     0.186 C 
ATOM      4  C   UNL     1      14.632  80.627  -4.579  1.00  0.00     0.179 C 
ATOM      5  C   UNL     1      14.259  78.297  -4.813  1.00  0.00     0.202 C 
ATOM      6  O   UNL     1      14.830  80.073  -3.297  1.00  0.00    -0.341 OA
BRANCH   3   7
ATOM      7  O   UNL     1      16.001  79.313  -6.119  1.00  0.00    -0.342 OA
BRANCH   7   8
ATOM      8  C   UNL     1      16.641  80.553  -6.383  1.00  0.00     0.270 C 
ATOM      9  C   UNL     1      18.462  81.858  -5.764  1.00  0.00     0.166 C 
ATOM     10  O   UNL     1      17.879  80.573  -5.687  1.00  0.00    -0.344 OA
ATOM     11  C   UNL     1      18.881  82.181  -7.216  1.00  0.00     0.175 C 
ATOM     12  C   UNL     1      17.703  81.969  -8.194  1.00  0.00     0.167 C 
ATOM     13  C   UNL     1      16.908  80.667  -7.893  1.00  0.00     0.139 C 
BRANCH   9  14
ATOM     14  C   UNL     1      19.650  81.929  -4.799  1.00  0.00     0.112 C 
BRANCH  14  15
ATOM     15  N   UNL     1      20.293  80.623  -4.677  1.00  0.00    -0.328 NA
ATOM     16  H   UNL     1      20.296  80.363  -3.659  1.00  0.00     0.118 HD
ATOM     17  H   UNL     1      19.677  79.914  -5.150  1.00  0.00     0.118 HD
ENDBRANCH  14  15
ENDBRANCH   9  14
BRANCH  11  18
ATOM     18  O   UNL     1      19.974  81.370  -7.592  1.00  0.00    -0.388 OA
ATOM     19  H   UNL     1      19.590  80.549  -7.999  1.00  0.00     0.211 HD
ENDBRANCH  11  18
BRANCH  12  20
ATOM     20  O   UNL     1      16.841  83.076  -8.081  1.00  0.00    -0.388 OA
ATOM     21  H   UNL     1      17.111  83.731  -8.780  1.00  0.00     0.211 HD
ENDBRANCH  12  20
BRANCH  13  22
ATOM     22  N   UNL     1      17.610  79.467  -8.399  1.00  0.00    -0.321 NA
ATOM     23  H   UNL     1      17.828  78.832  -7.593  1.00  0.00     0.119 HD
ATOM     24  H   UNL     1      17.006  78.949  -9.080  1.00  0.00     0.119 HD
ENDBRANCH  13  22
ENDBRANCH   7   8
ENDBRANCH   3   7
BRANCH   4  25
ATOM     25  C   UNL     1      13.310  81.424  -4.586  1.00  0.00     0.191 C 
BRANCH  25  26
ATOM     26  O   UNL     1      12.414  80.951  -5.563  1.00  0.00    -0.394 OA
ATOM     27  H   UNL     1      12.692  81.356  -6.422  1.00  0.00     0.210 HD
ENDBRANCH  25  26
ENDBRANCH   4  25
BRANCH   5  28
ATOM     28  O   UNL     1      14.857  77.125  -5.320  1.00  0.00    -0.385 OA
ATOM     29  H   UNL     1      14.640  77.050  -6.283  1.00  0.00     0.211 HD
ENDBRANCH   5  28
ENDBRANCH   1   2
BRANCH   1  30
ATOM     30  C   UNL     1      13.021  79.036  -1.679  1.00  0.00     0.182 C 
ATOM     31  C   UNL     1      13.654  80.299  -1.021  1.00  0.00     0.163 C 
ATOM     32  C   UNL     1      12.198  78.217  -0.653  1.00  0.00     0.170 C 
ATOM     33  C   UNL     1      14.439  79.995   0.288  1.00  0.00     0.084 C 
ATOM     34  C   UNL     1      13.044  77.845   0.593  1.00  0.00     0.084 C 
ATOM     35  C   UNL     1      13.652  79.097   1.257  1.00  0.00     0.043 C 
BRANCH  31  36
ATOM     36  O   UNL     1      12.646  81.247  -0.738  1.00  0.00    -0.389 OA
ATOM     37  H   UNL     1      11.795  80.746  -0.640  1.00  0.00     0.211 HD
ENDBRANCH  31  36
BRANCH  32  38
ATOM     38  O   UNL     1      11.074  78.990  -0.256  1.00  0.00    -0.343 OA
BRANCH  38  39
ATOM     39  C   UNL     1       9.898  78.701  -0.996  1.00  0.00     0.270 C 
ATOM     40  O   UNL     1       9.376  77.442  -0.590  1.00  0.00    -0.344 OA
ATOM     41  C   UNL     1       8.903  79.870  -0.758  1.00  0.00     0.139 C 
ATOM     42  C   UNL     1       8.177  77.083  -1.259  1.00  0.00     0.166 C 
ATOM     43  C   UNL     1       7.435  79.533  -1.171  1.00  0.00     0.167 C 
ATOM     44  C   UNL     1       7.041  78.066  -0.891  1.00  0.00     0.175 C 
BRANCH  41  45
ATOM     45  N   UNL     1       8.991  80.347   0.631  1.00  0.00    -0.321 NA
ATOM     46  H   UNL     1       8.951  81.387   0.635  1.00  0.00     0.119 HD
ATOM     47  H   UNL     1       8.188  79.982   1.198  1.00  0.00     0.119 HD
ENDBRANCH  41  45
BRANCH  42  48
ATOM     48  C   UNL     1       8.397  76.844  -2.783  1.00  0.00     0.112 C 
BRANCH  48  49
ATOM     49  N   UNL     1       7.143  76.769  -3.529  1.00  0.00    -0.328 NA
ATOM     50  H   UNL     1       7.322  76.384  -4.482  1.00  0.00     0.118 HD
ATOM     51  H   UNL     1       6.724  77.724  -3.621  1.00  0.00     0.118 HD
ENDBRANCH  48  49
ENDBRANCH  42  48
BRANCH  43  52
ATOM     52  O   UNL     1       7.247  79.815  -2.542  1.00  0.00    -0.388 OA
ATOM     53  H   UNL     1       6.955  78.968  -2.975  1.00  0.00     0.211 HD
ENDBRANCH  43  52
BRANCH  44  54
ATOM     54  O   UNL     1       6.652  77.903   0.454  1.00  0.00    -0.388 OA
ATOM     55  H   UNL     1       5.662  78.008   0.510  1.00  0.00     0.211 HD
ENDBRANCH  44  54
ENDBRANCH  38  39
ENDBRANCH  32  38
BRANCH  33  56
ATOM     56  N   UNL     1      15.779  79.452   0.037  1.00  0.00    -0.325 NA
ATOM     57  H   UNL     1      16.474  80.231   0.124  1.00  0.00     0.119 HD
ATOM     58  H   UNL     1      15.858  79.090  -0.933  1.00  0.00     0.119 HD
ENDBRANCH  33  56
BRANCH  34  59
ATOM     59  N   UNL     1      14.082  76.867   0.258  1.00  0.00    -0.325 NA
ATOM     60  H   UNL     1      14.991  77.380   0.147  1.00  0.00     0.119 HD
ATOM     61  H   UNL     1      13.869  76.464  -0.678  1.00  0.00     0.119 HD
ENDBRANCH  34  59
ENDBRANCH   1  30
TORSDOF 22
ENDMDL
MODEL 3
REMARK VINA RESULT:    -7.523      1.040      1.619
REMARK INTER + INTRA:         -16.475
REMARK INTER:                 -14.768
REMARK INTRA:                  -1.707
REMARK UNBOUND:                -2.137
REMARK SMILES NC[C@@H]1O[C@H](O[C@H]2[C@@H](O)[C@H](O[C@@H]3[C@@H](O)[C@H](N)C[C@H](N)[C@H]3O[C@H]3O[C@H](CN)[C@@H](O)[C@H](O)[C@H]3N)O[C@@H]2CO)[C@H](N)[C@@H](O)[C@@H]1O
REMARK SMILES IDX 11 1 10 2 7 3 34 4 8 5 33 6 6 7 5 8 3 9 4 10 41 11 39 12
REMARK SMILES IDX 37 13 2 14 1 15 42 18 40 20 38 22 35 25 36 26 9 28 12 30
REMARK SMILES IDX 13 31 20 32 15 33 18 34 17 35 14 36 21 38 22 39 23 40 31 41
REMARK SMILES IDX 24 42 29 43 27 44 32 45 25 48 26 49 30 52 28 54 16 56 19 59
REMARK H PARENT 1 16 1 17 42 19 40 21 38 23 38 24 36 27 9 29 14 37 32 46 32 47
REMARK H PARENT 26 50 26 51 30 53 28 55 16 57 16 58 19 60 19 61
REMARK Flexibility Score: inf
ROOT
ATOM      1  O   UNL     1      13.492  78.329  -2.542  1.00  0.00    -0.341 OA
ENDROOT
BRANCH   1   2
ATOM      2  C   UNL     1      13.896  79.192  -3.608  1.00  0.00     0.282 C 
ATOM      3  C   UNL     1      15.512  79.745  -5.277  1.00  0.00     0.186 C 
ATOM      4  C   UNL     1      14.429  78.783  -5.802  1.00  0.00     0.179 C 
ATOM      5  C   UNL     1      15.390  79.568  -3.782  1.00  0.00     0.202 C 
ATOM      6  O   UNL     1      13.432  78.630  -4.815  1.00  0.00    -0.341 OA
BRANCH   3   7
ATOM      7  O   UNL     1      15.220  81.088  -5.635  1.00  0.00    -0.342 OA
BRANCH   7   8
ATOM      8  C   UNL     1      16.371  81.765  -6.119  1.00  0.00     0.270 C 
ATOM      9  C   UNL     1      18.645  82.046  -5.730  1.00  0.00     0.166 C 
ATOM     10  O   UNL     1      17.505  81.270  -5.420  1.00  0.00    -0.344 OA
ATOM     11  C   UNL     1      19.047  81.858  -7.210  1.00  0.00     0.175 C 
ATOM     12  C   UNL     1      17.846  82.113  -8.148  1.00  0.00     0.167 C 
ATOM     13  C   UNL     1      16.533  81.469  -7.619  1.00  0.00     0.139 C 
BRANCH   9  14
ATOM     14  C   UNL     1      19.784  81.665  -4.777  1.00  0.00     0.112 C 
BRANCH  14  15
ATOM     15  N   UNL     1      19.813  80.221  -4.560  1.00  0.00    -0.328 NA
ATOM     16  H   UNL     1      20.585  79.825  -5.152  1.00  0.00     0.118 HD
ATOM     17  H   UNL     1      20.102  80.049  -3.564  1.00  0.00     0.118 HD
ENDBRANCH  14  15
ENDBRANCH   9  14
BRANCH  11  18
ATOM     18  O   UNL     1      19.550  80.554  -7.409  1.00  0.00    -0.388 OA
ATOM     19  H   UNL     1      20.538  80.614  -7.312  1.00  0.00     0.211 HD
ENDBRANCH  11  18
BRANCH  12  20
ATOM     20  O   UNL     1      17.668  83.505  -8.258  1.00  0.00    -0.388 OA
ATOM     21  H   UNL     1      16.866  83.742  -7.719  1.00  0.00     0.211 HD
ENDBRANCH  12  20
BRANCH  13  22
ATOM     22  N   UNL     1      16.493  80.013  -7.880  1.00  0.00    -0.321 NA
ATOM     23  H   UNL     1      16.680  79.499  -6.984  1.00  0.00     0.119 HD
ATOM     24  H   UNL     1      15.551  79.731  -8.237  1.00  0.00     0.119 HD
ENDBRANCH  13  22
ENDBRANCH   7   8
ENDBRANCH   3   7
BRANCH   4  25
ATOM     25  C   UNL     1      14.970  77.391  -6.192  1.00  0.00     0.191 C 
BRANCH  25  26
ATOM     26  O   UNL     1      16.267  77.461  -6.734  1.00  0.00    -0.394 OA
ATOM     27  H   UNL     1      16.206  77.120  -7.661  1.00  0.00     0.210 HD
ENDBRANCH  25  26
ENDBRANCH   4  25
BRANCH   5  28
ATOM     28  O   UNL     1      15.749  80.758  -3.117  1.00  0.00    -0.385 OA
ATOM     29  H   UNL     1      16.530  81.155  -3.577  1.00  0.00     0.211 HD
ENDBRANCH   5  28
ENDBRANCH   1   2
BRANCH   1  30
ATOM     30  C   UNL     1      12.152  78.404  -2.074  1.00  0.00     0.182 C 
ATOM     31  C   UNL     1      11.755  79.879  -1.765  1.00  0.00     0.163 C 
ATOM     32  C   UNL     1      12.000  77.504  -0.822  1.00  0.00     0.170 C 
ATOM     33  C   UNL     1      12.454  80.465  -0.504  1.00  0.00     0.084 C 
ATOM     34  C   UNL     1      12.795  78.066   0.386  1.00  0.00     0.084 C 
ATOM     35  C   UNL     1      12.385  79.518   0.706  1.00  0.00     0.043 C 
BRANCH  31  36
ATOM     36  O   UNL     1      10.356  79.972  -1.594  1.00  0.00    -0.389 OA
ATOM     37  H   UNL     1       9.980  80.318  -2.446  1.00  0.00     0.211 HD
ENDBRANCH  31  36
BRANCH  32  38
ATOM     38  O   UNL     1      10.621  77.420  -0.491  1.00  0.00    -0.343 OA
BRANCH  38  39
ATOM     39  C   UNL     1       9.873  76.607  -1.383  1.00  0.00     0.270 C 
ATOM     40  O   UNL     1       9.763  75.293  -0.851  1.00  0.00    -0.344 OA
ATOM     41  C   UNL     1       8.495  77.292  -1.587  1.00  0.00     0.139 C 
ATOM     42  C   UNL     1       9.002  74.414  -1.664  1.00  0.00     0.166 C 
ATOM     43  C   UNL     1       7.418  76.350  -2.213  1.00  0.00     0.167 C 
ATOM     44  C   UNL     1       7.531  74.886  -1.736  1.00  0.00     0.175 C 
BRANCH  41  45
ATOM     45  N   UNL     1       8.031  77.902  -0.330  1.00  0.00    -0.321 NA
ATOM     46  H   UNL     1       6.990  77.924  -0.330  1.00  0.00     0.119 HD
ATOM     47  H   UNL     1       8.352  77.338   0.494  1.00  0.00     0.119 HD
ENDBRANCH  41  45
BRANCH  42  48
ATOM     48  C   UNL     1       9.688  74.131  -3.035  1.00  0.00     0.112 C 
BRANCH  48  49
ATOM     49  N   UNL     1       8.777  73.535  -4.010  1.00  0.00    -0.328 NA
ATOM     50  H   UNL     1       9.325  73.071  -4.766  1.00  0.00     0.118 HD
ATOM     51  H   UNL     1       8.171  74.276  -4.432  1.00  0.00     0.118 HD
ENDBRANCH  48  49
ENDBRANCH  42  48
BRANCH  43  52
ATOM     52  O   UNL     1       7.508  76.392  -3.622  1.00  0.00    -0.388 OA
ATOM     53  H   UNL     1       8.434  76.117  -3.862  1.00  0.00     0.211 HD
ENDBRANCH  43  52
BRANCH  44  54
ATOM     54  O   UNL     1       6.889  74.717  -0.493  1.00  0.00    -0.388 OA
ATOM     55  H   UNL     1       6.309  73.907  -0.545  1.00  0.00     0.211 HD
ENDBRANCH  44  54
ENDBRANCH  38  39
ENDBRANCH  32  38
BRANCH  33  56
ATOM     56  N   UNL     1      13.835  80.889  -0.762  1.00  0.00    -0.325 NA
ATOM     57  H   UNL     1      14.396  80.743   0.111  1.00  0.00     0.119 HD
ATOM     58  H   UNL     1      13.878  81.905  -0.977  1.00  0.00     0.119 HD
ENDBRANCH  33  56
BRANCH  34  59
ATOM     59  N   UNL     1      14.240  77.960   0.168  1.00  0.00    -0.325 NA
ATOM     60  H   UNL     1      14.497  78.593  -0.629  1.00  0.00     0.119 HD
ATOM     61  H   UNL     1      14.457  76.995  -0.155  1.00  0.00     0.119 HD
ENDBRANCH  34  59
ENDBRANCH   1  30
TORSDOF 22
ENDMDL
MODEL 4
REMARK VINA RESULT:    -7.267      2.423      4.475
REMARK INTER + INTRA:         -15.989
REMARK INTER:                 -14.183
REMARK INTRA:                  -1.807
REMARK UNBOUND:                -2.137
REMARK SMILES NC[C@@H]1O[C@H](O[C@H]2[C@@H](O)[C@H](O[C@@H]3[C@@H](O)[C@H](N)C[C@H](N)[C@H]3O[C@H]3O[C@H](CN)[C@@H](O)[C@H](O)[C@H]3N)O[C@@H]2CO)[C@H](N)[C@@H](O)[C@@H]1O
REMARK SMILES IDX 11 1 10 2 7 3 34 4 8 5 33 6 6 7 5 8 3 9 4 10 41 11 39 12
REMARK SMILES IDX 37 13 2 14 1 15 42 18 40 20 38 22 35 25 36 26 9 28 12 30
REMARK SMILES IDX 13 31 20 32 15 33 18 34 17 35 14 36 21 38 22 39 23 40 31 41
REMARK SMILES IDX 24 42 29 43 27 44 32 45 25 48 26 49 30 52 28 54 16 56 19 59
REMARK H PARENT 1 16 1 17 42 19 40 21 38 23 38 24 36 27 9 29 14 37 32 46 32 47
REMARK H PARENT 26 50 26 51 30 53 28 55 16 57 16 58 19 60 19 61
REMARK Flexibility Score: inf
ROOT
ATOM      1  O   UNL     1      10.990  77.672  -1.912  1.00  0.00    -0.341 OA
ENDROOT
BRANCH   1   2
ATOM      2  C   UNL     1      11.917  78.419  -2.705  1.00  0.00     0.282 C 
ATOM      3  C   UNL     1      13.454  80.239  -2.865  1.00  0.00     0.186 C 
ATOM      4  C   UNL     1      14.133  78.933  -2.407  1.00  0.00     0.179 C 
ATOM      5  C   UNL     1      12.000  79.959  -2.560  1.00  0.00     0.202 C 
ATOM      6  O   UNL     1      13.200  77.877  -2.489  1.00  0.00    -0.341 OA
BRANCH   3   7
ATOM      7  O   UNL     1      13.629  80.446  -4.259  1.00  0.00    -0.342 OA
BRANCH   7   8
ATOM      8  C   UNL     1      14.986  80.288  -4.646  1.00  0.00     0.270 C 
ATOM      9  C   UNL     1      16.366  79.094  -6.086  1.00  0.00     0.166 C 
ATOM     10  O   UNL     1      15.029  79.434  -5.781  1.00  0.00    -0.344 OA
ATOM     11  C   UNL     1      17.150  80.337  -6.563  1.00  0.00     0.175 C 
ATOM     12  C   UNL     1      17.016  81.499  -5.554  1.00  0.00     0.167 C 
ATOM     13  C   UNL     1      15.563  81.661  -5.024  1.00  0.00     0.139 C 
BRANCH   9  14
ATOM     14  C   UNL     1      16.372  77.977  -7.137  1.00  0.00     0.112 C 
BRANCH  14  15
ATOM     15  N   UNL     1      17.648  77.947  -7.847  1.00  0.00    -0.328 NA
ATOM     16  H   UNL     1      17.610  77.156  -8.538  1.00  0.00     0.118 HD
ATOM     17  H   UNL     1      17.719  78.824  -8.423  1.00  0.00     0.118 HD
ENDBRANCH  14  15
ENDBRANCH   9  14
BRANCH  11  18
ATOM     18  O   UNL     1      16.682  80.741  -7.833  1.00  0.00    -0.388 OA
ATOM     19  H   UNL     1      17.486  80.967  -8.371  1.00  0.00     0.211 HD
ENDBRANCH  11  18
BRANCH  12  20
ATOM     20  O   UNL     1      17.877  81.235  -4.472  1.00  0.00    -0.388 OA
ATOM     21  H   UNL     1      18.794  81.134  -4.845  1.00  0.00     0.211 HD
ENDBRANCH  12  20
BRANCH  13  22
ATOM     22  N   UNL     1      14.696  82.348  -6.008  1.00  0.00    -0.321 NA
ATOM     23  H   UNL     1      15.005  82.090  -6.976  1.00  0.00     0.119 HD
ATOM     24  H   UNL     1      13.699  82.053  -5.885  1.00  0.00     0.119 HD
ENDBRANCH  13  22
ENDBRANCH   7   8
ENDBRANCH   3   7
BRANCH   4  25
ATOM     25  C   UNL     1      14.699  78.996  -0.972  1.00  0.00     0.191 C 
BRANCH  25  26
ATOM     26  O   UNL     1      16.077  78.712  -0.936  1.00  0.00    -0.394 OA
ATOM     27  H   UNL     1      16.541  79.517  -1.274  1.00  0.00     0.210 HD
ENDBRANCH  25  26
ENDBRANCH   4  25
BRANCH   5  28
ATOM     28  O   UNL     1      11.168  80.653  -3.462  1.00  0.00    -0.385 OA
ATOM     29  H   UNL     1      10.229  80.389  -3.294  1.00  0.00     0.211 HD
ENDBRANCH   5  28
ENDBRANCH   1   2
BRANCH   1  30
ATOM     30  C   UNL     1       9.936  76.977  -2.567  1.00  0.00     0.182 C 
ATOM     31  C   UNL     1       8.594  77.759  -2.441  1.00  0.00     0.163 C 
ATOM     32  C   UNL     1       9.820  75.553  -1.970  1.00  0.00     0.170 C 
ATOM     33  C   UNL     1       7.996  77.747  -1.004  1.00  0.00     0.084 C 
ATOM     34  C   UNL     1       9.318  75.587  -0.502  1.00  0.00     0.084 C 
ATOM     35  C   UNL     1       7.978  76.341  -0.380  1.00  0.00     0.043 C 
BRANCH  31  36
ATOM     36  O   UNL     1       7.642  77.221  -3.335  1.00  0.00    -0.389 OA
ATOM     37  H   UNL     1       7.958  76.313  -3.585  1.00  0.00     0.211 HD
ENDBRANCH  31  36
BRANCH  32  38
ATOM     38  O   UNL     1       8.916  74.801  -2.768  1.00  0.00    -0.343 OA
BRANCH  38  39
ATOM     39  C   UNL     1       9.541  73.764  -3.508  1.00  0.00     0.270 C 
ATOM     40  O   UNL     1      10.954  73.890  -3.405  1.00  0.00    -0.344 OA
ATOM     41  C   UNL     1       9.014  72.415  -2.949  1.00  0.00     0.139 C 
ATOM     42  C   UNL     1      11.665  72.873  -4.092  1.00  0.00     0.166 C 
ATOM     43  C   UNL     1       9.879  71.185  -3.372  1.00  0.00     0.167 C 
ATOM     44  C   UNL     1      11.390  71.494  -3.448  1.00  0.00     0.175 C 
BRANCH  41  45
ATOM     45  N   UNL     1       8.842  72.493  -1.489  1.00  0.00    -0.321 NA
ATOM     46  H   UNL     1       8.230  73.304  -1.264  1.00  0.00     0.119 HD
ATOM     47  H   UNL     1       8.387  71.621  -1.124  1.00  0.00     0.119 HD
ENDBRANCH  41  45
BRANCH  42  48
ATOM     48  C   UNL     1      11.465  72.950  -5.636  1.00  0.00     0.112 C 
BRANCH  48  49
ATOM     49  N   UNL     1      12.673  72.599  -6.380  1.00  0.00    -0.328 NA
ATOM     50  H   UNL     1      12.413  72.237  -7.323  1.00  0.00     0.118 HD
ATOM     51  H   UNL     1      13.207  71.861  -5.866  1.00  0.00     0.118 HD
ENDBRANCH  48  49
ENDBRANCH  42  48
BRANCH  43  52
ATOM     52  O   UNL     1       9.438  70.698  -4.622  1.00  0.00    -0.388 OA
ATOM     53  H   UNL     1      10.028  71.099  -5.316  1.00  0.00     0.211 HD
ENDBRANCH  43  52
BRANCH  44  54
ATOM     54  O   UNL     1      11.979  71.411  -2.170  1.00  0.00    -0.388 OA
ATOM     55  H   UNL     1      11.318  71.004  -1.544  1.00  0.00     0.211 HD
ENDBRANCH  44  54
ENDBRANCH  38  39
ENDBRANCH  32  38
BRANCH  33  56
ATOM     56  N   UNL     1       8.644  78.711  -0.108  1.00  0.00    -0.325 NA
ATOM     57  H   UNL     1       9.655  78.451  -0.015  1.00  0.00     0.119 HD
ATOM     58  H   UNL     1       8.236  78.665   0.846  1.00  0.00     0.119 HD
ENDBRANCH  33  56
BRANCH  34  59
ATOM     59  N   UNL     1      10.329  76.159   0.392  1.00  0.00    -0.325 NA
ATOM     60  H   UNL     1      11.138  75.493   0.437  1.00  0.00     0.119 HD
ATOM     61  H   UNL     1       9.937  76.193   1.357  1.00  0.00     0.119 HD
ENDBRANCH  34  59
ENDBRANCH   1  30
TORSDOF 22
ENDMDL
MODEL 5
REMARK VINA RESULT:    -7.170      2.168      3.605
REMARK INTER + INTRA:         -15.803
REMARK INTER:                 -14.118
REMARK INTRA:                  -1.685
REMARK UNBOUND:                -2.137
REMARK SMILES NC[C@@H]1O[C@H](O[C@H]2[C@@H](O)[C@H](O[C@@H]3[C@@H](O)[C@H](N)C[C@H](N)[C@H]3O[C@H]3O[C@H](CN)[C@@H](O)[C@H](O)[C@H]3N)O[C@@H]2CO)[C@H](N)[C@@H](O)[C@@H]1O
REMARK SMILES IDX 11 1 10 2 7 3 34 4 8 5 33 6 6 7 5 8 3 9 4 10 41 11 39 12
REMARK SMILES IDX 37 13 2 14 1 15 42 18 40 20 38 22 35 25 36 26 9 28 12 30
REMARK SMILES IDX 13 31 20 32 15 33 18 34 17 35 14 36 21 38 22 39 23 40 31 41
REMARK SMILES IDX 24 42 29 43 27 44 32 45 25 48 26 49 30 52 28 54 16 56 19 59
REMARK H PARENT 1 16 1 17 42 19 40 21 38 23 38 24 36 27 9 29 14 37 32 46 32 47
REMARK H PARENT 26 50 26 51 30 53 28 55 16 57 16 58 19 60 19 61
REMARK Flexibility Score: inf
ROOT
ATOM      1  O   UNL     1      11.602  78.248  -2.086  1.00  0.00    -0.341 OA
ENDROOT
BRANCH   1   2
ATOM      2  C   UNL     1      12.752  78.509  -2.896  1.00  0.00     0.282 C 
ATOM      3  C   UNL     1      14.590  79.939  -3.419  1.00  0.00     0.186 C 
ATOM      4  C   UNL     1      14.956  78.870  -2.372  1.00  0.00     0.179 C 
ATOM      5  C   UNL     1      13.082  79.958  -3.335  1.00  0.00     0.202 C 
ATOM      6  O   UNL     1      13.875  77.973  -2.234  1.00  0.00    -0.341 OA
BRANCH   3   7
ATOM      7  O   UNL     1      15.002  79.544  -4.720  1.00  0.00    -0.342 OA
BRANCH   7   8
ATOM      8  C   UNL     1      15.788  80.545  -5.349  1.00  0.00     0.270 C 
ATOM      9  C   UNL     1      17.895  81.524  -5.320  1.00  0.00     0.166 C 
ATOM     10  O   UNL     1      17.120  80.433  -4.869  1.00  0.00    -0.344 OA
ATOM     11  C   UNL     1      18.079  81.467  -6.853  1.00  0.00     0.175 C 
ATOM     12  C   UNL     1      16.717  81.330  -7.570  1.00  0.00     0.167 C 
ATOM     13  C   UNL     1      15.776  80.309  -6.868  1.00  0.00     0.139 C 
BRANCH   9  14
ATOM     14  C   UNL     1      19.240  81.523  -4.585  1.00  0.00     0.112 C 
BRANCH  14  15
ATOM     15  N   UNL     1      20.283  82.118  -5.418  1.00  0.00    -0.328 NA
ATOM     16  H   UNL     1      19.945  82.100  -6.412  1.00  0.00     0.118 HD
ATOM     17  H   UNL     1      20.361  83.134  -5.161  1.00  0.00     0.118 HD
ENDBRANCH  14  15
ENDBRANCH   9  14
BRANCH  11  18
ATOM     18  O   UNL     1      18.918  80.385  -7.196  1.00  0.00    -0.388 OA
ATOM     19  H   UNL     1      19.703  80.432  -6.588  1.00  0.00     0.211 HD
ENDBRANCH  11  18
BRANCH  12  20
ATOM     20  O   UNL     1      16.102  82.596  -7.581  1.00  0.00    -0.388 OA
ATOM     21  H   UNL     1      16.717  83.225  -7.115  1.00  0.00     0.211 HD
ENDBRANCH  12  20
BRANCH  13  22
ATOM     22  N   UNL     1      16.145  78.913  -7.191  1.00  0.00    -0.321 NA
ATOM     23  H   UNL     1      16.834  78.567  -6.480  1.00  0.00     0.119 HD
ATOM     24  H   UNL     1      15.299  78.296  -7.166  1.00  0.00     0.119 HD
ENDBRANCH  13  22
ENDBRANCH   7   8
ENDBRANCH   3   7
BRANCH   4  25
ATOM     25  C   UNL     1      15.308  79.452  -0.986  1.00  0.00     0.191 C 
BRANCH  25  26
ATOM     26  O   UNL     1      16.326  78.718  -0.349  1.00  0.00    -0.394 OA
ATOM     27  H   UNL     1      17.106  78.728  -0.957  1.00  0.00     0.210 HD
ENDBRANCH  25  26
ENDBRANCH   4  25
BRANCH   5  28
ATOM     28  O   UNL     1      12.526  80.307  -4.582  1.00  0.00    -0.385 OA
ATOM     29  H   UNL     1      13.262  80.494  -5.217  1.00  0.00     0.211 HD
ENDBRANCH   5  28
ENDBRANCH   1   2
BRANCH   1  30
ATOM     30  C   UNL     1      10.499  77.565  -2.667  1.00  0.00     0.182 C 
ATOM     31  C   UNL     1       9.155  78.256  -2.285  1.00  0.00     0.163 C 
ATOM     32  C   UNL     1      10.523  76.084  -2.214  1.00  0.00     0.170 C 
ATOM     33  C   UNL     1       8.759  78.069  -0.791  1.00  0.00     0.084 C 
ATOM     34  C   UNL     1      10.224  75.946  -0.697  1.00  0.00     0.084 C 
ATOM     35  C   UNL     1       8.884  76.609  -0.323  1.00  0.00     0.043 C 
BRANCH  31  36
ATOM     36  O   UNL     1       8.113  77.758  -3.098  1.00  0.00    -0.389 OA
ATOM     37  H   UNL     1       8.222  78.169  -3.995  1.00  0.00     0.211 HD
ENDBRANCH  31  36
BRANCH  32  38
ATOM     38  O   UNL     1       9.551  75.367  -2.961  1.00  0.00    -0.343 OA
BRANCH  38  39
ATOM     39  C   UNL     1      10.017  74.118  -3.447  1.00  0.00     0.270 C 
ATOM     40  O   UNL     1      11.266  73.808  -2.842  1.00  0.00    -0.344 OA
ATOM     41  C   UNL     1       8.920  73.063  -3.139  1.00  0.00     0.139 C 
ATOM     42  C   UNL     1      11.797  72.556  -3.247  1.00  0.00     0.166 C 
ATOM     43  C   UNL     1       9.425  71.589  -3.246  1.00  0.00     0.167 C 
ATOM     44  C   UNL     1      10.882  71.404  -2.769  1.00  0.00     0.175 C 
BRANCH  41  45
ATOM     45  N   UNL     1       8.291  73.338  -1.837  1.00  0.00    -0.321 NA
ATOM     46  H   UNL     1       8.843  74.071  -1.344  1.00  0.00     0.119 HD
ATOM     47  H   UNL     1       7.312  73.690  -1.967  1.00  0.00     0.119 HD
ENDBRANCH  41  45
BRANCH  42  48
ATOM     48  C   UNL     1      12.177  72.534  -4.758  1.00  0.00     0.112 C 
BRANCH  48  49
ATOM     49  N   UNL     1      12.730  73.807  -5.218  1.00  0.00    -0.328 NA
ATOM     50  H   UNL     1      12.776  73.814  -6.261  1.00  0.00     0.118 HD
ATOM     51  H   UNL     1      13.694  73.937  -4.834  1.00  0.00     0.118 HD
ENDBRANCH  48  49
ENDBRANCH  42  48
BRANCH  43  52
ATOM     52  O   UNL     1       9.308  71.140  -4.580  1.00  0.00    -0.388 OA
ATOM     53  H   UNL     1       8.393  70.763  -4.681  1.00  0.00     0.211 HD
ENDBRANCH  43  52
BRANCH  44  54
ATOM     54  O   UNL     1      10.933  71.271  -1.367  1.00  0.00    -0.388 OA
ATOM     55  H   UNL     1      10.324  71.951  -0.964  1.00  0.00     0.211 HD
ENDBRANCH  44  54
ENDBRANCH  38  39
ENDBRANCH  32  38
BRANCH  33  56
ATOM     56  N   UNL     1       9.483  78.973   0.109  1.00  0.00    -0.325 NA
ATOM     57  H   UNL     1       9.904  78.405   0.883  1.00  0.00     0.119 HD
ATOM     58  H   UNL     1       8.834  79.650   0.556  1.00  0.00     0.119 HD
ENDBRANCH  33  56
BRANCH  34  59
ATOM     59  N   UNL     1      11.323  76.479   0.112  1.00  0.00    -0.325 NA
ATOM     60  H   UNL     1      11.591  75.752   0.819  1.00  0.00     0.119 HD
ATOM     61  H   UNL     1      10.968  77.290   0.660  1.00  0.00     0.119 HD
ENDBRANCH  34  59
ENDBRANCH   1  30
TORSDOF 22
ENDMDL
MODEL 6
REMARK VINA RESULT:    -6.951      1.998      2.783
REMARK INTER + INTRA:         -15.387
REMARK INTER:                 -14.393
REMARK INTRA:                  -0.993
REMARK UNBOUND:                -2.137
REMARK SMILES NC[C@@H]1O[C@H](O[C@H]2[C@@H](O)[C@H](O[C@@H]3[C@@H](O)[C@H](N)C[C@H](N)[C@H]3O[C@H]3O[C@H](CN)[C@@H](O)[C@H](O)[C@H]3N)O[C@@H]2CO)[C@H](N)[C@@H](O)[C@@H]1O
REMARK SMILES IDX 11 1 10 2 7 3 34 4 8 5 33 6 6 7 5 8 3 9 4 10 41 11 39 12
REMARK SMILES IDX 37 13 2 14 1 15 42 18 40 20 38 22 35 25 36 26 9 28 12 30
REMARK SMILES IDX 13 31 20 32 15 33 18 34 17 35 14 36 21 38 22 39 23 40 31 41
REMARK SMILES IDX 24 42 29 43 27 44 32 45 25 48 26 49 30 52 28 54 16 56 19 59
REMARK H PARENT 1 16 1 17 42 19 40 21 38 23 38 24 36 27 9 29 14 37 32 46 32 47
REMARK H PARENT 26 50 26 51 30 53 28 55 16 57 16 58 19 60 19 61
REMARK Flexibility Score: inf
ROOT
ATOM      1  O   UNL     1      11.798  80.441  -2.268  1.00  0.00    -0.341 OA
ENDROOT
BRANCH   1   2
ATOM      2  C   UNL     1      12.962  79.998  -2.970  1.00  0.00     0.282 C 
ATOM      3  C   UNL     1      15.331  80.103  -3.253  1.00  0.00     0.186 C 
ATOM      4  C   UNL     1      14.905  79.005  -2.259  1.00  0.00     0.179 C 
ATOM      5  C   UNL     1      14.110  80.992  -3.280  1.00  0.00     0.202 C 
ATOM      6  O   UNL     1      13.497  78.900  -2.266  1.00  0.00    -0.341 OA
BRANCH   3   7
ATOM      7  O   UNL     1      15.568  79.561  -4.544  1.00  0.00    -0.342 OA
BRANCH   7   8
ATOM      8  C   UNL     1      16.218  80.494  -5.395  1.00  0.00     0.270 C 
ATOM      9  C   UNL     1      18.195  81.687  -5.654  1.00  0.00     0.166 C 
ATOM     10  O   UNL     1      17.564  80.630  -4.960  1.00  0.00    -0.344 OA
ATOM     11  C   UNL     1      18.353  81.340  -7.151  1.00  0.00     0.175 C 
ATOM     12  C   UNL     1      17.003  80.909  -7.766  1.00  0.00     0.167 C 
ATOM     13  C   UNL     1      16.203  79.954  -6.834  1.00  0.00     0.139 C 
BRANCH   9  14
ATOM     14  C   UNL     1      19.546  81.984  -4.992  1.00  0.00     0.112 C 
BRANCH  14  15
ATOM     15  N   UNL     1      20.212  80.744  -4.600  1.00  0.00    -0.328 NA
ATOM     16  H   UNL     1      19.769  79.960  -5.141  1.00  0.00     0.118 HD
ATOM     17  H   UNL     1      21.208  80.792  -4.933  1.00  0.00     0.118 HD
ENDBRANCH  14  15
ENDBRANCH   9  14
BRANCH  11  18
ATOM     18  O   UNL     1      19.307  80.311  -7.308  1.00  0.00    -0.388 OA
ATOM     19  H   UNL     1      19.151  79.665  -6.569  1.00  0.00     0.211 HD
ENDBRANCH  11  18
BRANCH  12  20
ATOM     20  O   UNL     1      16.243  82.070  -8.003  1.00  0.00    -0.388 OA
ATOM     21  H   UNL     1      16.651  82.802  -7.466  1.00  0.00     0.211 HD
ENDBRANCH  12  20
BRANCH  13  22
ATOM     22  N   UNL     1      16.727  78.571  -6.888  1.00  0.00    -0.321 NA
ATOM     23  H   UNL     1      16.967  78.335  -7.881  1.00  0.00     0.119 HD
ATOM     24  H   UNL     1      17.592  78.485  -6.305  1.00  0.00     0.119 HD
ENDBRANCH  13  22
ENDBRANCH   7   8
ENDBRANCH   3   7
BRANCH   4  25
ATOM     25  C   UNL     1      15.385  79.254  -0.814  1.00  0.00     0.191 C 
BRANCH  25  26
ATOM     26  O   UNL     1      16.596  78.593  -0.539  1.00  0.00    -0.394 OA
ATOM     27  H   UNL     1      17.102  78.563  -1.389  1.00  0.00     0.210 HD
ENDBRANCH  25  26
ENDBRANCH   4  25
BRANCH   5  28
ATOM     28  O   UNL     1      13.986  81.618  -4.537  1.00  0.00    -0.385 OA
ATOM     29  H   UNL     1      14.378  81.024  -5.226  1.00  0.00     0.211 HD
ENDBRANCH   5  28
ENDBRANCH   1   2
BRANCH   1  30
ATOM     30  C   UNL     1      10.536  79.892  -2.626  1.00  0.00     0.182 C 
ATOM     31  C   UNL     1       9.373  80.772  -2.076  1.00  0.00     0.163 C 
ATOM     32  C   UNL     1      10.445  78.440  -2.095  1.00  0.00     0.170 C 
ATOM     33  C   UNL     1       9.208  80.697  -0.530  1.00  0.00     0.084 C 
ATOM     34  C   UNL     1      10.386  78.400  -0.545  1.00  0.00     0.084 C 
ATOM     35  C   UNL     1       9.221  79.252  -0.002  1.00  0.00     0.043 C 
BRANCH  31  36
ATOM     36  O   UNL     1       8.156  80.390  -2.683  1.00  0.00    -0.389 OA
ATOM     37  H   UNL     1       7.565  81.187  -2.679  1.00  0.00     0.211 HD
ENDBRANCH  31  36
BRANCH  32  38
ATOM     38  O   UNL     1       9.280  77.833  -2.635  1.00  0.00    -0.343 OA
BRANCH  38  39
ATOM     39  C   UNL     1       9.267  76.420  -2.510  1.00  0.00     0.270 C 
ATOM     40  O   UNL     1       8.901  76.062  -1.183  1.00  0.00    -0.344 OA
ATOM     41  C   UNL     1       8.280  75.870  -3.576  1.00  0.00     0.139 C 
ATOM     42  C   UNL     1       8.832  74.661  -0.972  1.00  0.00     0.166 C 
ATOM     43  C   UNL     1       7.850  74.390  -3.322  1.00  0.00     0.167 C 
ATOM     44  C   UNL     1       7.699  74.043  -1.825  1.00  0.00     0.175 C 
BRANCH  41  45
ATOM     45  N   UNL     1       7.121  76.766  -3.716  1.00  0.00    -0.321 NA
ATOM     46  H   UNL     1       6.814  77.072  -2.769  1.00  0.00     0.119 HD
ATOM     47  H   UNL     1       7.377  77.617  -4.273  1.00  0.00     0.119 HD
ENDBRANCH  41  45
BRANCH  42  48
ATOM     48  C   UNL     1      10.225  73.973  -1.100  1.00  0.00     0.112 C 
BRANCH  48  49
ATOM     49  N   UNL     1      10.124  72.538  -1.359  1.00  0.00    -0.328 NA
ATOM     50  H   UNL     1      10.290  72.009  -0.475  1.00  0.00     0.118 HD
ATOM     51  H   UNL     1      10.838  72.252  -2.068  1.00  0.00     0.118 HD
ENDBRANCH  48  49
ENDBRANCH  42  48
BRANCH  43  52
ATOM     52  O   UNL     1       8.785  73.513  -3.914  1.00  0.00    -0.388 OA
ATOM     53  H   UNL     1       8.938  72.772  -3.267  1.00  0.00     0.211 HD
ENDBRANCH  43  52
BRANCH  44  54
ATOM     54  O   UNL     1       6.436  74.445  -1.346  1.00  0.00    -0.388 OA
ATOM     55  H   UNL     1       5.829  74.572  -2.128  1.00  0.00     0.211 HD
ENDBRANCH  44  54
ENDBRANCH  38  39
ENDBRANCH  32  38
BRANCH  33  56
ATOM     56  N   UNL     1      10.179  81.528   0.189  1.00  0.00    -0.325 NA
ATOM     57  H   UNL     1      10.538  82.262  -0.468  1.00  0.00     0.119 HD
ATOM     58  H   UNL     1      11.002  80.968   0.486  1.00  0.00     0.119 HD
ENDBRANCH  33  56
BRANCH  34  59
ATOM     59  N   UNL     1      11.662  78.810   0.047  1.00  0.00    -0.325 NA
ATOM     60  H   UNL     1      11.900  78.132   0.811  1.00  0.00     0.119 HD
ATOM     61  H   UNL     1      11.530  79.731   0.516  1.00  0.00     0.119 HD
ENDBRANCH  34  59
ENDBRANCH   1  30
TORSDOF 22
ENDMDL
MODEL 7
REMARK VINA RESULT:    -6.951      2.087      2.950
REMARK INTER + INTRA:         -15.386
REMARK INTER:                 -13.949
REMARK INTRA:                  -1.437
REMARK UNBOUND:                -2.137
REMARK SMILES NC[C@@H]1O[C@H](O[C@H]2[C@@H](O)[C@H](O[C@@H]3[C@@H](O)[C@H](N)C[C@H](N)[C@H]3O[C@H]3O[C@H](CN)[C@@H](O)[C@H](O)[C@H]3N)O[C@@H]2CO)[C@H](N)[C@@H](O)[C@@H]1O
REMARK SMILES IDX 11 1 10 2 7 3 34 4 8 5 33 6 6 7 5 8 3 9 4 10 41 11 39 12
REMARK SMILES IDX 37 13 2 14 1 15 42 18 40 20 38 22 35 25 36 26 9 28 12 30
REMARK SMILES IDX 13 31 20 32 15 33 18 34 17 35 14 36 21 38 22 39 23 40 31 41
REMARK SMILES IDX 24 42 29 43 27 44 32 45 25 48 26 49 30 52 28 54 16 56 19 59
REMARK H PARENT 1 16 1 17 42 19 40 21 38 23 38 24 36 27 9 29 14 37 32 46 32 47
REMARK H PARENT 26 50 26 51 30 53 28 55 16 57 16 58 19 60 19 61
REMARK Flexibility Score: inf
ROOT
ATOM      1  O   UNL     1      12.186  80.276  -1.904  1.00  0.00    -0.341 OA
ENDROOT
BRANCH   1   2
ATOM      2  C   UNL     1      13.300  80.318  -2.800  1.00  0.00     0.282 C 
ATOM      3  C   UNL     1      15.193  79.214  -3.746  1.00  0.00     0.186 C 
ATOM      4  C   UNL     1      13.908  78.983  -4.564  1.00  0.00     0.179 C 
ATOM      5  C   UNL     1      14.640  79.646  -2.408  1.00  0.00     0.202 C 
ATOM      6  O   UNL     1      12.877  79.789  -4.036  1.00  0.00    -0.341 OA
BRANCH   3   7
ATOM      7  O   UNL     1      15.979  80.254  -4.308  1.00  0.00    -0.342 OA
BRANCH   7   8
ATOM      8  C   UNL     1      16.351  79.966  -5.648  1.00  0.00     0.270 C 
ATOM      9  C   UNL     1      16.874  80.975  -7.675  1.00  0.00     0.166 C 
ATOM     10  O   UNL     1      16.683  81.188  -6.292  1.00  0.00    -0.344 OA
ATOM     11  C   UNL     1      18.127  80.106  -7.925  1.00  0.00     0.175 C 
ATOM     12  C   UNL     1      18.074  78.804  -7.095  1.00  0.00     0.167 C 
ATOM     13  C   UNL     1      17.584  79.048  -5.639  1.00  0.00     0.139 C 
BRANCH   9  14
ATOM     14  C   UNL     1      16.971  82.331  -8.383  1.00  0.00     0.112 C 
BRANCH  14  15
ATOM     15  N   UNL     1      18.143  83.071  -7.920  1.00  0.00    -0.328 NA
ATOM     16  H   UNL     1      18.108  84.027  -8.354  1.00  0.00     0.118 HD
ATOM     17  H   UNL     1      18.040  83.224  -6.885  1.00  0.00     0.118 HD
ENDBRANCH  14  15
ENDBRANCH   9  14
BRANCH  11  18
ATOM     18  O   UNL     1      19.291  80.837  -7.605  1.00  0.00    -0.388 OA
ATOM     19  H   UNL     1      19.530  80.595  -6.672  1.00  0.00     0.211 HD
ENDBRANCH  11  18
BRANCH  12  20
ATOM     20  O   UNL     1      17.193  77.914  -7.738  1.00  0.00    -0.388 OA
ATOM     21  H   UNL     1      17.288  78.064  -8.717  1.00  0.00     0.211 HD
ENDBRANCH  12  20
BRANCH  13  22
ATOM     22  N   UNL     1      18.656  79.608  -4.787  1.00  0.00    -0.321 NA
ATOM     23  H   UNL     1      18.500  79.302  -3.795  1.00  0.00     0.119 HD
ATOM     24  H   UNL     1      19.592  79.261  -5.102  1.00  0.00     0.119 HD
ENDBRANCH  13  22
ENDBRANCH   7   8
ENDBRANCH   3   7
BRANCH   4  25
ATOM     25  C   UNL     1      13.439  77.513  -4.584  1.00  0.00     0.191 C 
BRANCH  25  26
ATOM     26  O   UNL     1      14.362  76.673  -5.236  1.00  0.00    -0.394 OA
ATOM     27  H   UNL     1      13.839  75.938  -5.641  1.00  0.00     0.210 HD
ENDBRANCH  25  26
ENDBRANCH   4  25
BRANCH   5  28
ATOM     28  O   UNL     1      15.539  80.521  -1.765  1.00  0.00    -0.385 OA
ATOM     29  H   UNL     1      16.464  80.231  -1.968  1.00  0.00     0.211 HD
ENDBRANCH   5  28
ENDBRANCH   1   2
BRANCH   1  30
ATOM     30  C   UNL     1      10.924  79.852  -2.404  1.00  0.00     0.182 C 
ATOM     31  C   UNL     1       9.801  80.853  -1.998  1.00  0.00     0.163 C 
ATOM     32  C   UNL     1      10.625  78.425  -1.880  1.00  0.00     0.170 C 
ATOM     33  C   UNL     1       9.452  80.820  -0.481  1.00  0.00     0.084 C 
ATOM     34  C   UNL     1      10.383  78.417  -0.347  1.00  0.00     0.084 C 
ATOM     35  C   UNL     1       9.256  79.391   0.052  1.00  0.00     0.043 C 
BRANCH  31  36
ATOM     36  O   UNL     1       8.630  80.585  -2.741  1.00  0.00    -0.389 OA
ATOM     37  H   UNL     1       8.696  79.647  -3.059  1.00  0.00     0.211 HD
ENDBRANCH  31  36
BRANCH  32  38
ATOM     38  O   UNL     1       9.474  77.930  -2.550  1.00  0.00    -0.343 OA
BRANCH  38  39
ATOM     39  C   UNL     1       9.351  76.517  -2.498  1.00  0.00     0.270 C 
ATOM     40  O   UNL     1       9.133  76.107  -1.153  1.00  0.00    -0.344 OA
ATOM     41  C   UNL     1       8.188  76.118  -3.446  1.00  0.00     0.139 C 
ATOM     42  C   UNL     1       8.968  74.706  -1.008  1.00  0.00     0.166 C 
ATOM     43  C   UNL     1       7.665  74.665  -3.213  1.00  0.00     0.167 C 
ATOM     44  C   UNL     1       7.681  74.238  -1.729  1.00  0.00     0.175 C 
BRANCH  41  45
ATOM     45  N   UNL     1       7.105  77.113  -3.380  1.00  0.00    -0.321 NA
ATOM     46  H   UNL     1       7.115  77.681  -4.253  1.00  0.00     0.119 HD
ATOM     47  H   UNL     1       6.173  76.639  -3.302  1.00  0.00     0.119 HD
ENDBRANCH  41  45
BRANCH  42  48
ATOM     48  C   UNL     1      10.264  73.916  -1.360  1.00  0.00     0.112 C 
BRANCH  48  49
ATOM     49  N   UNL     1      10.051  72.471  -1.403  1.00  0.00    -0.328 NA
ATOM     50  H   UNL     1      10.341  72.100  -2.334  1.00  0.00     0.118 HD
ATOM     51  H   UNL     1       9.038  72.255  -1.249  1.00  0.00     0.118 HD
ENDBRANCH  48  49
ENDBRANCH  42  48
BRANCH  43  52
ATOM     52  O   UNL     1       8.432  73.754  -3.971  1.00  0.00    -0.388 OA
ATOM     53  H   UNL     1       8.229  72.843  -3.624  1.00  0.00     0.211 HD
ENDBRANCH  43  52
BRANCH  44  54
ATOM     54  O   UNL     1       6.533  74.710  -1.062  1.00  0.00    -0.388 OA
ATOM     55  H   UNL     1       6.751  74.813  -0.094  1.00  0.00     0.211 HD
ENDBRANCH  44  54
ENDBRANCH  38  39
ENDBRANCH  32  38
BRANCH  33  56
ATOM     56  N   UNL     1      10.414  81.562   0.342  1.00  0.00    -0.325 NA
ATOM     57  H   UNL     1      10.221  82.586   0.235  1.00  0.00     0.119 HD
ATOM     58  H   UNL     1      11.386  81.406   0.011  1.00  0.00     0.119 HD
ENDBRANCH  33  56
BRANCH  34  59
ATOM     59  N   UNL     1      11.617  78.706   0.387  1.00  0.00    -0.325 NA
ATOM     60  H   UNL     1      11.767  77.940   1.088  1.00  0.00     0.119 HD
ATOM     61  H   UNL     1      11.477  79.575   0.943  1.00  0.00     0.119 HD
ENDBRANCH  34  59
ENDBRANCH   1  30
TORSDOF 22
ENDMDL
MODEL 8
REMARK VINA RESULT:    -6.674      2.305      3.978
REMARK INTER + INTRA:         -14.858
REMARK INTER:                 -12.930
REMARK INTRA:                  -1.928
REMARK UNBOUND:                -2.137
REMARK SMILES NC[C@@H]1O[C@H](O[C@H]2[C@@H](O)[C@H](O[C@@H]3[C@@H](O)[C@H](N)C[C@H](N)[C@H]3O[C@H]3O[C@H](CN)[C@@H](O)[C@H](O)[C@H]3N)O[C@@H]2CO)[C@H](N)[C@@H](O)[C@@H]1O
REMARK SMILES IDX 11 1 10 2 7 3 34 4 8 5 33 6 6 7 5 8 3 9 4 10 41 11 39 12
REMARK SMILES IDX 37 13 2 14 1 15 42 18 40 20 38 22 35 25 36 26 9 28 12 30
REMARK SMILES IDX 13 31 20 32 15 33 18 34 17 35 14 36 21 38 22 39 23 40 31 41
REMARK SMILES IDX 24 42 29 43 27 44 32 45 25 48 26 49 30 52 28 54 16 56 19 59
REMARK H PARENT 1 16 1 17 42 19 40 21 38 23 38 24 36 27 9 29 14 37 32 46 32 47
REMARK H PARENT 26 50 26 51 30 53 28 55 16 57 16 58 19 60 19 61
REMARK Flexibility Score: inf
ROOT
ATOM      1  O   UNL     1      11.317  78.487  -2.104  1.00  0.00    -0.341 OA
ENDROOT
BRANCH   1   2
ATOM      2  C   UNL     1      12.611  78.659  -2.689  1.00  0.00     0.282 C 
ATOM      3  C   UNL     1      14.546  80.027  -2.981  1.00  0.00     0.186 C 
ATOM      4  C   UNL     1      14.672  79.080  -1.772  1.00  0.00     0.179 C 
ATOM      5  C   UNL     1      13.052  80.052  -3.206  1.00  0.00     0.202 C 
ATOM      6  O   UNL     1      13.567  78.201  -1.760  1.00  0.00    -0.341 OA
BRANCH   3   7
ATOM      7  O   UNL     1      15.202  79.492  -4.121  1.00  0.00    -0.342 OA
BRANCH   7   8
ATOM      8  C   UNL     1      15.837  80.507  -4.887  1.00  0.00     0.270 C 
ATOM      9  C   UNL     1      17.878  81.568  -5.209  1.00  0.00     0.166 C 
ATOM     10  O   UNL     1      17.231  80.459  -4.620  1.00  0.00    -0.344 OA
ATOM     11  C   UNL     1      17.821  81.478  -6.751  1.00  0.00     0.175 C 
ATOM     12  C   UNL     1      16.371  81.269  -7.241  1.00  0.00     0.167 C 
ATOM     13  C   UNL     1      15.596  80.231  -6.379  1.00  0.00     0.139 C 
BRANCH   9  14
ATOM     14  C   UNL     1      19.321  81.638  -4.695  1.00  0.00     0.112 C 
BRANCH  14  15
ATOM     15  N   UNL     1      19.942  80.315  -4.722  1.00  0.00    -0.328 NA
ATOM     16  H   UNL     1      20.705  80.307  -4.000  1.00  0.00     0.118 HD
ATOM     17  H   UNL     1      19.229  79.617  -4.391  1.00  0.00     0.118 HD
ENDBRANCH  14  15
ENDBRANCH   9  14
BRANCH  11  18
ATOM     18  O   UNL     1      18.642  80.421  -7.201  1.00  0.00    -0.388 OA
ATOM     19  H   UNL     1      18.686  79.761  -6.459  1.00  0.00     0.211 HD
ENDBRANCH  11  18
BRANCH  12  20
ATOM     20  O   UNL     1      15.709  82.510  -7.179  1.00  0.00    -0.388 OA
ATOM     21  H   UNL     1      15.300  82.669  -8.073  1.00  0.00     0.211 HD
ENDBRANCH  12  20
BRANCH  13  22
ATOM     22  N   UNL     1      15.969  78.842  -6.729  1.00  0.00    -0.321 NA
ATOM     23  H   UNL     1      15.107  78.319  -7.018  1.00  0.00     0.119 HD
ATOM     24  H   UNL     1      16.647  78.836  -7.527  1.00  0.00     0.119 HD
ENDBRANCH  13  22
ENDBRANCH   7   8
ENDBRANCH   3   7
BRANCH   4  25
ATOM     25  C   UNL     1      14.750  79.810  -0.415  1.00  0.00     0.191 C 
BRANCH  25  26
ATOM     26  O   UNL     1      14.252  79.021   0.639  1.00  0.00    -0.394 OA
ATOM     27  H   UNL     1      14.279  78.082   0.327  1.00  0.00     0.210 HD
ENDBRANCH  25  26
ENDBRANCH   4  25
BRANCH   5  28
ATOM     28  O   UNL     1      12.765  80.262  -4.569  1.00  0.00    -0.385 OA
ATOM     29  H   UNL     1      11.822  80.554  -4.653  1.00  0.00     0.211 HD
ENDBRANCH   5  28
ENDBRANCH   1   2
BRANCH   1  30
ATOM     30  C   UNL     1      10.386  77.628  -2.750  1.00  0.00     0.182 C 
ATOM     31  C   UNL     1       8.923  78.037  -2.404  1.00  0.00     0.163 C 
ATOM     32  C   UNL     1      10.676  76.163  -2.338  1.00  0.00     0.170 C 
ATOM     33  C   UNL     1       8.517  77.724  -0.934  1.00  0.00     0.084 C 
ATOM     34  C   UNL     1      10.356  75.916  -0.840  1.00  0.00     0.084 C 
ATOM     35  C   UNL     1       8.901  76.299  -0.502  1.00  0.00     0.043 C 
BRANCH  31  36
ATOM     36  O   UNL     1       8.024  77.379  -3.274  1.00  0.00    -0.389 OA
ATOM     37  H   UNL     1       7.801  76.507  -2.856  1.00  0.00     0.211 HD
ENDBRANCH  31  36
BRANCH  32  38
ATOM     38  O   UNL     1       9.886  75.302  -3.145  1.00  0.00    -0.343 OA
BRANCH  38  39
ATOM     39  C   UNL     1      10.187  73.926  -2.969  1.00  0.00     0.270 C 
ATOM     40  O   UNL     1       9.172  73.135  -3.575  1.00  0.00    -0.344 OA
ATOM     41  C   UNL     1      11.592  73.677  -3.581  1.00  0.00     0.139 C 
ATOM     42  C   UNL     1       9.406  71.739  -3.474  1.00  0.00     0.166 C 
ATOM     43  C   UNL     1      11.907  72.167  -3.825  1.00  0.00     0.167 C 
ATOM     44  C   UNL     1      10.675  71.347  -4.267  1.00  0.00     0.175 C 
BRANCH  41  45
ATOM     45  N   UNL     1      11.773  74.483  -4.800  1.00  0.00    -0.321 NA
ATOM     46  H   UNL     1      11.671  73.865  -5.631  1.00  0.00     0.119 HD
ATOM     47  H   UNL     1      11.047  75.237  -4.855  1.00  0.00     0.119 HD
ENDBRANCH  41  45
BRANCH  42  48
ATOM     48  C   UNL     1       9.346  71.233  -2.001  1.00  0.00     0.112 C 
BRANCH  48  49
ATOM     49  N   UNL     1      10.024  69.951  -1.817  1.00  0.00    -0.328 NA
ATOM     50  H   UNL     1       9.636  69.250  -2.486  1.00  0.00     0.118 HD
ATOM     51  H   UNL     1       9.879  69.608  -0.840  1.00  0.00     0.118 HD
ENDBRANCH  48  49
ENDBRANCH  42  48
BRANCH  43  52
ATOM     52  O   UNL     1      12.452  71.597  -2.654  1.00  0.00    -0.388 OA
ATOM     53  H   UNL     1      12.976  72.311  -2.200  1.00  0.00     0.211 HD
ENDBRANCH  43  52
BRANCH  44  54
ATOM     54  O   UNL     1      10.460  71.479  -5.654  1.00  0.00    -0.388 OA
ATOM     55  H   UNL     1      10.208  72.426  -5.844  1.00  0.00     0.211 HD
ENDBRANCH  44  54
ENDBRANCH  38  39
ENDBRANCH  32  38
BRANCH  33  56
ATOM     56  N   UNL     1       9.021  78.718   0.020  1.00  0.00    -0.325 NA
ATOM     57  H   UNL     1       8.781  78.399   0.989  1.00  0.00     0.119 HD
ATOM     58  H   UNL     1       8.553  79.635  -0.115  1.00  0.00     0.119 HD
ENDBRANCH  33  56
BRANCH  34  59
ATOM     59  N   UNL     1      11.303  76.620   0.029  1.00  0.00    -0.325 NA
ATOM     60  H   UNL     1      12.266  76.495  -0.369  1.00  0.00     0.119 HD
ATOM     61  H   UNL     1      11.317  76.147   0.957  1.00  0.00     0.119 HD
ENDBRANCH  34  59
ENDBRANCH   1  30
TORSDOF 22
ENDMDL
MODEL 9
REMARK VINA RESULT:    -6.556      2.002      9.258
REMARK INTER + INTRA:         -14.634
REMARK INTER:                 -13.345
REMARK INTRA:                  -1.289
REMARK UNBOUND:                -2.137
REMARK SMILES NC[C@@H]1O[C@H](O[C@H]2[C@@H](O)[C@H](O[C@@H]3[C@@H](O)[C@H](N)C[C@H](N)[C@H]3O[C@H]3O[C@H](CN)[C@@H](O)[C@H](O)[C@H]3N)O[C@@H]2CO)[C@H](N)[C@@H](O)[C@@H]1O
REMARK SMILES IDX 11 1 10 2 7 3 34 4 8 5 33 6 6 7 5 8 3 9 4 10 41 11 39 12
REMARK SMILES IDX 37 13 2 14 1 15 42 18 40 20 38 22 35 25 36 26 9 28 12 30
REMARK SMILES IDX 13 31 20 32 15 33 18 34 17 35 14 36 21 38 22 39 23 40 31 41
REMARK SMILES IDX 24 42 29 43 27 44 32 45 25 48 26 49 30 52 28 54 16 56 19 59
REMARK H PARENT 1 16 1 17 42 19 40 21 38 23 38 24 36 27 9 29 14 37 32 46 32 47
REMARK H PARENT 26 50 26 51 30 53 28 55 16 57 16 58 19 60 19 61
REMARK Flexibility Score: inf
ROOT
ATOM      1  O   UNL     1      12.112  80.643  -1.837  1.00  0.00    -0.341 OA
ENDROOT
BRANCH   1   2
ATOM      2  C   UNL     1      10.900  80.108  -1.297  1.00  0.00     0.282 C 
ATOM      3  C   UNL     1       8.701  80.500  -0.455  1.00  0.00     0.186 C 
ATOM      4  C   UNL     1       8.714  80.257  -1.976  1.00  0.00     0.179 C 
ATOM      5  C   UNL     1      10.140  80.874  -0.185  1.00  0.00     0.202 C 
ATOM      6  O   UNL     1      10.016  79.879  -2.370  1.00  0.00    -0.341 OA
BRANCH   3   7
ATOM      7  O   UNL     1       8.364  79.314   0.250  1.00  0.00    -0.342 OA
BRANCH   7   8
ATOM      8  C   UNL     1       8.389  78.174  -0.596  1.00  0.00     0.270 C 
ATOM      9  C   UNL     1       9.420  76.111  -0.881  1.00  0.00     0.166 C 
ATOM     10  O   UNL     1       9.210  77.186   0.011  1.00  0.00    -0.344 OA
ATOM     11  C   UNL     1       8.101  75.349  -1.137  1.00  0.00     0.175 C 
ATOM     12  C   UNL     1       6.978  76.315  -1.578  1.00  0.00     0.167 C 
ATOM     13  C   UNL     1       6.961  77.626  -0.741  1.00  0.00     0.139 C 
BRANCH   9  14
ATOM     14  C   UNL     1      10.508  75.193  -0.312  1.00  0.00     0.112 C 
BRANCH  14  15
ATOM     15  N   UNL     1      10.292  73.813  -0.740  1.00  0.00    -0.328 NA
ATOM     16  H   UNL     1      11.167  73.272  -0.528  1.00  0.00     0.118 HD
ATOM     17  H   UNL     1       9.545  73.397  -0.127  1.00  0.00     0.118 HD
ENDBRANCH  14  15
ENDBRANCH   9  14
BRANCH  11  18
ATOM     18  O   UNL     1       7.713  74.655   0.029  1.00  0.00    -0.388 OA
ATOM     19  H   UNL     1       8.109  75.148   0.796  1.00  0.00     0.211 HD
ENDBRANCH  11  18
BRANCH  12  20
ATOM     20  O   UNL     1       7.186  76.633  -2.933  1.00  0.00    -0.388 OA
ATOM     21  H   UNL     1       6.322  76.484  -3.405  1.00  0.00     0.211 HD
ENDBRANCH  12  20
BRANCH  13  22
ATOM     22  N   UNL     1       6.334  77.421   0.584  1.00  0.00    -0.321 NA
ATOM     23  H   UNL     1       5.548  78.105   0.700  1.00  0.00     0.119 HD
ATOM     24  H   UNL     1       5.949  76.451   0.660  1.00  0.00     0.119 HD
ENDBRANCH  13  22
ENDBRANCH   7   8
ENDBRANCH   3   7
BRANCH   4  25
ATOM     25  C   UNL     1       8.272  81.481  -2.806  1.00  0.00     0.191 C 
BRANCH  25  26
ATOM     26  O   UNL     1       9.187  81.781  -3.833  1.00  0.00    -0.394 OA
ATOM     27  H   UNL     1       9.586  80.921  -4.117  1.00  0.00     0.210 HD
ENDBRANCH  25  26
ENDBRANCH   4  25
BRANCH   5  28
ATOM     28  O   UNL     1      10.511  80.485   1.118  1.00  0.00    -0.385 OA
ATOM     29  H   UNL     1      11.496  80.552   1.200  1.00  0.00     0.211 HD
ENDBRANCH   5  28
ENDBRANCH   1   2
BRANCH   1  30
ATOM     30  C   UNL     1      12.918  79.809  -2.661  1.00  0.00     0.182 C 
ATOM     31  C   UNL     1      12.697  78.307  -2.313  1.00  0.00     0.163 C 
ATOM     32  C   UNL     1      14.403  80.216  -2.495  1.00  0.00     0.170 C 
ATOM     33  C   UNL     1      13.294  77.888  -0.938  1.00  0.00     0.084 C 
ATOM     34  C   UNL     1      14.934  79.876  -1.077  1.00  0.00     0.084 C 
ATOM     35  C   UNL     1      14.737  78.384  -0.742  1.00  0.00     0.043 C 
BRANCH  31  36
ATOM     36  O   UNL     1      13.263  77.495  -3.321  1.00  0.00    -0.389 OA
ATOM     37  H   UNL     1      12.756  77.672  -4.157  1.00  0.00     0.211 HD
ENDBRANCH  31  36
BRANCH  32  38
ATOM     38  O   UNL     1      15.171  79.528  -3.472  1.00  0.00    -0.343 OA
BRANCH  38  39
ATOM     39  C   UNL     1      15.862  80.392  -4.361  1.00  0.00     0.270 C 
ATOM     40  O   UNL     1      17.146  79.853  -4.649  1.00  0.00    -0.344 OA
ATOM     41  C   UNL     1      14.978  80.554  -5.628  1.00  0.00     0.139 C 
ATOM     42  C   UNL     1      17.900  80.638  -5.559  1.00  0.00     0.166 C 
ATOM     43  C   UNL     1      15.748  81.142  -6.853  1.00  0.00     0.167 C 
ATOM     44  C   UNL     1      17.213  80.664  -6.945  1.00  0.00     0.175 C 
BRANCH  41  45
ATOM     45  N   UNL     1      14.308  79.285  -5.954  1.00  0.00    -0.321 NA
ATOM     46  H   UNL     1      13.681  79.435  -6.772  1.00  0.00     0.119 HD
ATOM     47  H   UNL     1      15.012  78.549  -6.205  1.00  0.00     0.119 HD
ENDBRANCH  41  45
BRANCH  42  48
ATOM     48  C   UNL     1      18.280  82.029  -4.968  1.00  0.00     0.112 C 
BRANCH  48  49
ATOM     49  N   UNL     1      19.648  82.425  -5.294  1.00  0.00    -0.328 NA
ATOM     50  H   UNL     1      19.942  81.973  -6.188  1.00  0.00     0.118 HD
ATOM     51  H   UNL     1      20.299  82.126  -4.531  1.00  0.00     0.118 HD
ENDBRANCH  48  49
ENDBRANCH  42  48
BRANCH  43  52
ATOM     52  O   UNL     1      15.718  82.553  -6.803  1.00  0.00    -0.388 OA
ATOM     53  H   UNL     1      14.795  82.816  -6.540  1.00  0.00     0.211 HD
ENDBRANCH  43  52
BRANCH  44  54
ATOM     54  O   UNL     1      17.286  79.399  -7.564  1.00  0.00    -0.388 OA
ATOM     55  H   UNL     1      17.878  78.813  -7.014  1.00  0.00     0.211 HD
ENDBRANCH  44  54
ENDBRANCH  38  39
ENDBRANCH  32  38
BRANCH  33  56
ATOM     56  N   UNL     1      12.446  78.276   0.194  1.00  0.00    -0.325 NA
ATOM     57  H   UNL     1      12.699  79.253   0.479  1.00  0.00     0.119 HD
ATOM     58  H   UNL     1      12.625  77.670   1.019  1.00  0.00     0.119 HD
ENDBRANCH  33  56
BRANCH  34  59
ATOM     59  N   UNL     1      14.319  80.733  -0.059  1.00  0.00    -0.325 NA
ATOM     60  H   UNL     1      13.575  81.309  -0.524  1.00  0.00     0.119 HD
ATOM     61  H   UNL     1      15.032  81.411   0.279  1.00  0.00     0.119 HD
ENDBRANCH  34  59
ENDBRANCH   1  30
TORSDOF 22
ENDMDL
MODEL 10
REMARK VINA RESULT:    -6.383      2.728      8.696
REMARK INTER + INTRA:         -14.303
REMARK INTER:                 -12.897
REMARK INTRA:                  -1.405
REMARK UNBOUND:                -2.137
REMARK SMILES NC[C@@H]1O[C@H](O[C@H]2[C@@H](O)[C@H](O[C@@H]3[C@@H](O)[C@H](N)C[C@H](N)[C@H]3O[C@H]3O[C@H](CN)[C@@H](O)[C@H](O)[C@H]3N)O[C@@H]2CO)[C@H](N)[C@@H](O)[C@@H]1O
REMARK SMILES IDX 11 1 10 2 7 3 34 4 8 5 33 6 6 7 5 8 3 9 4 10 41 11 39 12
REMARK SMILES IDX 37 13 2 14 1 15 42 18 40 20 38 22 35 25 36 26 9 28 12 30
REMARK SMILES IDX 13 31 20 32 15 33 18 34 17 35 14 36 21 38 22 39 23 40 31 41
REMARK SMILES IDX 24 42 29 43 27 44 32 45 25 48 26 49 30 52 28 54 16 56 19 59
REMARK H PARENT 1 16 1 17 42 19 40 21 38 23 38 24 36 27 9 29 14 37 32 46 32 47
REMARK H PARENT 26 50 26 51 30 53 28 55 16 57 16 58 19 60 19 61
REMARK Flexibility Score: inf
ROOT
ATOM      1  O   UNL     1       9.856  78.127  -0.968  1.00  0.00    -0.341 OA
ENDROOT
BRANCH   1   2
ATOM      2  C   UNL     1       9.639  76.738  -1.229  1.00  0.00     0.282 C 
ATOM      3  C   UNL     1       8.097  74.960  -1.633  1.00  0.00     0.186 C 
ATOM      4  C   UNL     1       8.562  75.642  -2.934  1.00  0.00     0.179 C 
ATOM      5  C   UNL     1       8.429  76.006  -0.594  1.00  0.00     0.202 C 
ATOM      6  O   UNL     1       9.583  76.568  -2.628  1.00  0.00    -0.341 OA
BRANCH   3   7
ATOM      7  O   UNL     1       8.836  73.773  -1.384  1.00  0.00    -0.342 OA
BRANCH   7   8
ATOM      8  C   UNL     1       9.307  73.186  -2.589  1.00  0.00     0.270 C 
ATOM      9  C   UNL     1      10.944  73.395  -4.225  1.00  0.00     0.166 C 
ATOM     10  O   UNL     1      10.535  73.810  -2.938  1.00  0.00    -0.344 OA
ATOM     11  C   UNL     1      11.311  71.894  -4.223  1.00  0.00     0.175 C 
ATOM     12  C   UNL     1      10.168  71.043  -3.627  1.00  0.00     0.167 C 
ATOM     13  C   UNL     1       9.550  71.687  -2.352  1.00  0.00     0.139 C 
BRANCH   9  14
ATOM     14  C   UNL     1      12.117  74.268  -4.685  1.00  0.00     0.112 C 
BRANCH  14  15
ATOM     15  N   UNL     1      13.010  73.512  -5.559  1.00  0.00    -0.328 NA
ATOM     16  H   UNL     1      12.420  72.847  -6.120  1.00  0.00     0.118 HD
ATOM     17  H   UNL     1      13.424  74.181  -6.256  1.00  0.00     0.118 HD
ENDBRANCH  14  15
ENDBRANCH   9  14
BRANCH  11  18
ATOM     18  O   UNL     1      12.500  71.691  -3.488  1.00  0.00    -0.388 OA
ATOM     19  H   UNL     1      12.279  71.043  -2.767  1.00  0.00     0.211 HD
ENDBRANCH  11  18
BRANCH  12  20
ATOM     20  O   UNL     1       9.168  70.910  -4.610  1.00  0.00    -0.388 OA
ATOM     21  H   UNL     1       8.293  71.058  -4.159  1.00  0.00     0.211 HD
ENDBRANCH  12  20
BRANCH  13  22
ATOM     22  N   UNL     1      10.402  71.468  -1.162  1.00  0.00    -0.321 NA
ATOM     23  H   UNL     1       9.791  71.222  -0.345  1.00  0.00     0.119 HD
ATOM     24  H   UNL     1      11.070  70.680  -1.330  1.00  0.00     0.119 HD
ENDBRANCH  13  22
ENDBRANCH   7   8
ENDBRANCH   3   7
BRANCH   4  25
ATOM     25  C   UNL     1       7.432  76.370  -3.693  1.00  0.00     0.191 C 
BRANCH  25  26
ATOM     26  O   UNL     1       6.435  75.480  -4.134  1.00  0.00    -0.394 OA
ATOM     27  H   UNL     1       5.665  75.592  -3.524  1.00  0.00     0.210 HD
ENDBRANCH  25  26
ENDBRANCH   4  25
BRANCH   5  28
ATOM     28  O   UNL     1       8.730  75.394   0.639  1.00  0.00    -0.385 OA
ATOM     29  H   UNL     1       9.144  74.512   0.463  1.00  0.00     0.211 HD
ENDBRANCH   5  28
ENDBRANCH   1   2
BRANCH   1  30
ATOM     30  C   UNL     1      11.193  78.608  -0.900  1.00  0.00     0.182 C 
ATOM     31  C   UNL     1      11.438  79.379   0.431  1.00  0.00     0.163 C 
ATOM     32  C   UNL     1      11.472  79.503  -2.133  1.00  0.00     0.170 C 
ATOM     33  C   UNL     1      10.713  80.755   0.499  1.00  0.00     0.084 C 
ATOM     34  C   UNL     1      10.653  80.821  -2.080  1.00  0.00     0.084 C 
ATOM     35  C   UNL     1      10.914  81.596  -0.773  1.00  0.00     0.043 C 
BRANCH  31  36
ATOM     36  O   UNL     1      12.823  79.585   0.615  1.00  0.00    -0.389 OA
ATOM     37  H   UNL     1      13.131  80.176  -0.121  1.00  0.00     0.211 HD
ENDBRANCH  31  36
BRANCH  32  38
ATOM     38  O   UNL     1      12.860  79.803  -2.169  1.00  0.00    -0.343 OA
BRANCH  38  39
ATOM     39  C   UNL     1      13.360  80.021  -3.479  1.00  0.00     0.270 C 
ATOM     40  O   UNL     1      14.453  80.929  -3.427  1.00  0.00    -0.344 OA
ATOM     41  C   UNL     1      13.754  78.636  -4.060  1.00  0.00     0.139 C 
ATOM     42  C   UNL     1      15.038  81.185  -4.694  1.00  0.00     0.166 C 
ATOM     43  C   UNL     1      14.674  78.728  -5.319  1.00  0.00     0.167 C 
ATOM     44  C   UNL     1      15.681  79.896  -5.259  1.00  0.00     0.175 C 
BRANCH  41  45
ATOM     45  N   UNL     1      14.337  77.784  -3.011  1.00  0.00    -0.321 NA
ATOM     46  H   UNL     1      14.701  78.390  -2.247  1.00  0.00     0.119 HD
ATOM     47  H   UNL     1      13.610  77.143  -2.610  1.00  0.00     0.119 HD
ENDBRANCH  41  45
BRANCH  42  48
ATOM     48  C   UNL     1      14.067  81.933  -5.656  1.00  0.00     0.112 C 
BRANCH  48  49
ATOM     49  N   UNL     1      14.708  83.046  -6.351  1.00  0.00    -0.328 NA
ATOM     50  H   UNL     1      14.136  83.321  -7.179  1.00  0.00     0.118 HD
ATOM     51  H   UNL     1      15.662  82.763  -6.675  1.00  0.00     0.118 HD
ENDBRANCH  48  49
ENDBRANCH  42  48
BRANCH  43  52
ATOM     52  O   UNL     1      13.881  78.852  -6.482  1.00  0.00    -0.388 OA
ATOM     53  H   UNL     1      14.360  78.376  -7.212  1.00  0.00     0.211 HD
ENDBRANCH  43  52
BRANCH  44  54
ATOM     54  O   UNL     1      16.819  79.534  -4.511  1.00  0.00    -0.388 OA
ATOM     55  H   UNL     1      17.384  80.347  -4.383  1.00  0.00     0.211 HD
ENDBRANCH  44  54
ENDBRANCH  38  39
ENDBRANCH  32  38
BRANCH  33  56
ATOM     56  N   UNL     1       9.289  80.634   0.830  1.00  0.00    -0.325 NA
ATOM     57  H   UNL     1       9.199  80.516   1.868  1.00  0.00     0.119 HD
ATOM     58  H   UNL     1       8.878  79.784   0.398  1.00  0.00     0.119 HD
ENDBRANCH  33  56
BRANCH  34  59
ATOM     59  N   UNL     1       9.223  80.566  -2.267  1.00  0.00    -0.325 NA
ATOM     60  H   UNL     1       8.954  79.753  -1.661  1.00  0.00     0.119 HD
ATOM     61  H   UNL     1       9.067  80.251  -3.248  1.00  0.00     0.119 HD
ENDBRANCH  34  59
ENDBRANCH   1  30
TORSDOF 22
ENDMDL
MODEL 11
REMARK VINA RESULT:    -6.282      2.582      5.169
REMARK INTER + INTRA:         -14.110
REMARK INTER:                 -12.144
REMARK INTRA:                  -1.966
REMARK UNBOUND:                -2.137
REMARK SMILES NC[C@@H]1O[C@H](O[C@H]2[C@@H](O)[C@H](O[C@@H]3[C@@H](O)[C@H](N)C[C@H](N)[C@H]3O[C@H]3O[C@H](CN)[C@@H](O)[C@H](O)[C@H]3N)O[C@@H]2CO)[C@H](N)[C@@H](O)[C@@H]1O
REMARK SMILES IDX 11 1 10 2 7 3 34 4 8 5 33 6 6 7 5 8 3 9 4 10 41 11 39 12
REMARK SMILES IDX 37 13 2 14 1 15 42 18 40 20 38 22 35 25 36 26 9 28 12 30
REMARK SMILES IDX 13 31 20 32 15 33 18 34 17 35 14 36 21 38 22 39 23 40 31 41
REMARK SMILES IDX 24 42 29 43 27 44 32 45 25 48 26 49 30 52 28 54 16 56 19 59
REMARK H PARENT 1 16 1 17 42 19 40 21 38 23 38 24 36 27 9 29 14 37 32 46 32 47
REMARK H PARENT 26 50 26 51 30 53 28 55 16 57 16 58 19 60 19 61
REMARK Flexibility Score: inf
ROOT
ATOM      1  O   UNL     1       9.969  77.117  -0.833  1.00  0.00    -0.341 OA
ENDROOT
BRANCH   1   2
ATOM      2  C   UNL     1      10.934  78.075  -1.277  1.00  0.00     0.282 C 
ATOM      3  C   UNL     1      11.567  79.738  -2.868  1.00  0.00     0.186 C 
ATOM      4  C   UNL     1      10.796  80.330  -1.673  1.00  0.00     0.179 C 
ATOM      5  C   UNL     1      11.190  78.277  -2.792  1.00  0.00     0.202 C 
ATOM      6  O   UNL     1      10.597  79.319  -0.708  1.00  0.00    -0.341 OA
BRANCH   3   7
ATOM      7  O   UNL     1      12.968  79.890  -2.699  1.00  0.00    -0.342 OA
BRANCH   7   8
ATOM      8  C   UNL     1      13.656  79.840  -3.941  1.00  0.00     0.270 C 
ATOM      9  C   UNL     1      14.604  81.187  -5.580  1.00  0.00     0.166 C 
ATOM     10  O   UNL     1      14.085  81.154  -4.266  1.00  0.00    -0.344 OA
ATOM     11  C   UNL     1      15.912  80.369  -5.670  1.00  0.00     0.175 C 
ATOM     12  C   UNL     1      15.713  78.941  -5.113  1.00  0.00     0.167 C 
ATOM     13  C   UNL     1      14.885  78.928  -3.796  1.00  0.00     0.139 C 
BRANCH   9  14
ATOM     14  C   UNL     1      14.814  82.646  -6.000  1.00  0.00     0.112 C 
BRANCH  14  15
ATOM     15  N   UNL     1      15.728  82.727  -7.137  1.00  0.00    -0.328 NA
ATOM     16  H   UNL     1      15.182  83.084  -7.960  1.00  0.00     0.118 HD
ATOM     17  H   UNL     1      16.442  83.470  -6.926  1.00  0.00     0.118 HD
ENDBRANCH  14  15
ENDBRANCH   9  14
BRANCH  11  18
ATOM     18  O   UNL     1      16.940  81.027  -4.961  1.00  0.00    -0.388 OA
ATOM     19  H   UNL     1      17.087  81.897  -5.419  1.00  0.00     0.211 HD
ENDBRANCH  11  18
BRANCH  12  20
ATOM     20  O   UNL     1      15.042  78.183  -6.090  1.00  0.00    -0.388 OA
ATOM     21  H   UNL     1      14.196  77.857  -5.679  1.00  0.00     0.211 HD
ENDBRANCH  12  20
BRANCH  13  22
ATOM     22  N   UNL     1      15.705  79.324  -2.629  1.00  0.00    -0.321 NA
ATOM     23  H   UNL     1      16.625  78.821  -2.671  1.00  0.00     0.119 HD
ATOM     24  H   UNL     1      15.886  80.355  -2.643  1.00  0.00     0.119 HD
ENDBRANCH  13  22
ENDBRANCH   7   8
ENDBRANCH   3   7
BRANCH   4  25
ATOM     25  C   UNL     1       9.429  80.939  -2.053  1.00  0.00     0.191 C 
BRANCH  25  26
ATOM     26  O   UNL     1       8.392  80.467  -1.227  1.00  0.00    -0.394 OA
ATOM     27  H   UNL     1       8.825  80.034  -0.449  1.00  0.00     0.210 HD
ENDBRANCH  25  26
ENDBRANCH   4  25
BRANCH   5  28
ATOM     28  O   UNL     1      12.233  77.475  -3.297  1.00  0.00    -0.385 OA
ATOM     29  H   UNL     1      13.012  78.053  -3.491  1.00  0.00     0.211 HD
ENDBRANCH   5  28
ENDBRANCH   1   2
BRANCH   1  30
ATOM     30  C   UNL     1       9.294  76.328  -1.804  1.00  0.00     0.182 C 
ATOM     31  C   UNL     1       8.001  77.043  -2.299  1.00  0.00     0.163 C 
ATOM     32  C   UNL     1       8.976  74.939  -1.197  1.00  0.00     0.170 C 
ATOM     33  C   UNL     1       6.866  77.088  -1.235  1.00  0.00     0.084 C 
ATOM     34  C   UNL     1       7.914  75.037  -0.070  1.00  0.00     0.084 C 
ATOM     35  C   UNL     1       6.626  75.724  -0.565  1.00  0.00     0.043 C 
BRANCH  31  36
ATOM     36  O   UNL     1       7.514  76.400  -3.459  1.00  0.00    -0.389 OA
ATOM     37  H   UNL     1       8.135  76.626  -4.199  1.00  0.00     0.211 HD
ENDBRANCH  31  36
BRANCH  32  38
ATOM     38  O   UNL     1       8.498  74.092  -2.233  1.00  0.00    -0.343 OA
BRANCH  38  39
ATOM     39  C   UNL     1       9.505  73.273  -2.806  1.00  0.00     0.270 C 
ATOM     40  O   UNL     1       9.159  71.904  -2.639  1.00  0.00    -0.344 OA
ATOM     41  C   UNL     1       9.641  73.682  -4.298  1.00  0.00     0.139 C 
ATOM     42  C   UNL     1      10.098  71.007  -3.210  1.00  0.00     0.166 C 
ATOM     43  C   UNL     1      10.410  72.634  -5.164  1.00  0.00     0.167 C 
ATOM     44  C   UNL     1      10.133  71.173  -4.748  1.00  0.00     0.175 C 
BRANCH  41  45
ATOM     45  N   UNL     1       8.322  74.007  -4.865  1.00  0.00    -0.321 NA
ATOM     46  H   UNL     1       8.448  74.335  -5.845  1.00  0.00     0.119 HD
ATOM     47  H   UNL     1       7.706  73.158  -4.875  1.00  0.00     0.119 HD
ENDBRANCH  41  45
BRANCH  42  48
ATOM     48  C   UNL     1      11.481  71.061  -2.493  1.00  0.00     0.112 C 
BRANCH  48  49
ATOM     49  N   UNL     1      11.411  70.627  -1.099  1.00  0.00    -0.328 NA
ATOM     50  H   UNL     1      11.518  69.590  -1.048  1.00  0.00     0.118 HD
ATOM     51  H   UNL     1      10.487  70.895  -0.688  1.00  0.00     0.118 HD
ENDBRANCH  48  49
ENDBRANCH  42  48
BRANCH  43  52
ATOM     52  O   UNL     1      11.798  72.886  -5.097  1.00  0.00    -0.388 OA
ATOM     53  H   UNL     1      11.934  73.585  -4.402  1.00  0.00     0.211 HD
ENDBRANCH  43  52
BRANCH  44  54
ATOM     54  O   UNL     1       8.937  70.708  -5.329  1.00  0.00    -0.388 OA
ATOM     55  H   UNL     1       9.004  69.719  -5.438  1.00  0.00     0.211 HD
ENDBRANCH  44  54
ENDBRANCH  38  39
ENDBRANCH  32  38
BRANCH  33  56
ATOM     56  N   UNL     1       7.065  78.139  -0.232  1.00  0.00    -0.325 NA
ATOM     57  H   UNL     1       6.645  79.028  -0.595  1.00  0.00     0.119 HD
ATOM     58  H   UNL     1       8.077  78.327  -0.086  1.00  0.00     0.119 HD
ENDBRANCH  33  56
BRANCH  34  59
ATOM     59  N   UNL     1       8.454  75.716   1.111  1.00  0.00    -0.325 NA
ATOM     60  H   UNL     1       8.537  75.010   1.884  1.00  0.00     0.119 HD
ATOM     61  H   UNL     1       7.757  76.416   1.440  1.00  0.00     0.119 HD
ENDBRANCH  34  59
ENDBRANCH   1  30
TORSDOF 22
ENDMDL
MODEL 12
REMARK VINA RESULT:    -6.254      1.810      2.469
REMARK INTER + INTRA:         -14.058
REMARK INTER:                 -13.477
REMARK INTRA:                  -0.581
REMARK UNBOUND:                -2.137
REMARK SMILES NC[C@@H]1O[C@H](O[C@H]2[C@@H](O)[C@H](O[C@@H]3[C@@H](O)[C@H](N)C[C@H](N)[C@H]3O[C@H]3O[C@H](CN)[C@@H](O)[C@H](O)[C@H]3N)O[C@@H]2CO)[C@H](N)[C@@H](O)[C@@H]1O
REMARK SMILES IDX 11 1 10 2 7 3 34 4 8 5 33 6 6 7 5 8 3 9 4 10 41 11 39 12
REMARK SMILES IDX 37 13 2 14 1 15 42 18 40 20 38 22 35 25 36 26 9 28 12 30
REMARK SMILES IDX 13 31 20 32 15 33 18 34 17 35 14 36 21 38 22 39 23 40 31 41
REMARK SMILES IDX 24 42 29 43 27 44 32 45 25 48 26 49 30 52 28 54 16 56 19 59
REMARK H PARENT 1 16 1 17 42 19 40 21 38 23 38 24 36 27 9 29 14 37 32 46 32 47
REMARK H PARENT 26 50 26 51 30 53 28 55 16 57 16 58 19 60 19 61
REMARK Flexibility Score: inf
ROOT
ATOM      1  O   UNL     1      12.988  80.462  -1.703  1.00  0.00    -0.341 OA
ENDROOT
BRANCH   1   2
ATOM      2  C   UNL     1      14.161  80.467  -2.522  1.00  0.00     0.282 C 
ATOM      3  C   UNL     1      15.401  79.477  -4.306  1.00  0.00     0.186 C 
ATOM      4  C   UNL     1      14.452  80.589  -4.794  1.00  0.00     0.179 C 
ATOM      5  C   UNL     1      14.809  79.129  -2.960  1.00  0.00     0.202 C 
ATOM      6  O   UNL     1      13.877  81.227  -3.674  1.00  0.00    -0.341 OA
BRANCH   3   7
ATOM      7  O   UNL     1      16.724  79.967  -4.146  1.00  0.00    -0.342 OA
BRANCH   7   8
ATOM      8  C   UNL     1      17.059  80.915  -5.149  1.00  0.00     0.270 C 
ATOM      9  C   UNL     1      18.818  82.197  -5.961  1.00  0.00     0.166 C 
ATOM     10  O   UNL     1      18.463  81.125  -5.113  1.00  0.00    -0.344 OA
ATOM     11  C   UNL     1      18.565  81.830  -7.441  1.00  0.00     0.175 C 
ATOM     12  C   UNL     1      17.120  81.322  -7.648  1.00  0.00     0.167 C 
ATOM     13  C   UNL     1      16.667  80.348  -6.523  1.00  0.00     0.139 C 
BRANCH   9  14
ATOM     14  C   UNL     1      20.283  82.572  -5.710  1.00  0.00     0.112 C 
BRANCH  14  15
ATOM     15  N   UNL     1      20.631  82.373  -4.305  1.00  0.00    -0.328 NA
ATOM     16  H   UNL     1      21.678  82.420  -4.226  1.00  0.00     0.118 HD
ATOM     17  H   UNL     1      20.268  83.196  -3.762  1.00  0.00     0.118 HD
ENDBRANCH  14  15
ENDBRANCH   9  14
BRANCH  11  18
ATOM     18  O   UNL     1      19.488  80.846  -7.856  1.00  0.00    -0.388 OA
ATOM     19  H   UNL     1      19.950  81.211  -8.657  1.00  0.00     0.211 HD
ENDBRANCH  11  18
BRANCH  12  20
ATOM     20  O   UNL     1      16.265  82.441  -7.665  1.00  0.00    -0.388 OA
ATOM     21  H   UNL     1      15.555  82.257  -8.337  1.00  0.00     0.211 HD
ENDBRANCH  12  20
BRANCH  13  22
ATOM     22  N   UNL     1      17.225  78.991  -6.717  1.00  0.00    -0.321 NA
ATOM     23  H   UNL     1      17.549  78.619  -5.791  1.00  0.00     0.119 HD
ATOM     24  H   UNL     1      16.495  78.346  -7.100  1.00  0.00     0.119 HD
ENDBRANCH  13  22
ENDBRANCH   7   8
ENDBRANCH   3   7
BRANCH   4  25
ATOM     25  C   UNL     1      13.325  80.084  -5.720  1.00  0.00     0.191 C 
BRANCH  25  26
ATOM     26  O   UNL     1      13.627  78.829  -6.282  1.00  0.00    -0.394 OA
ATOM     27  H   UNL     1      12.769  78.344  -6.371  1.00  0.00     0.210 HD
ENDBRANCH  25  26
ENDBRANCH   4  25
BRANCH   5  28
ATOM     28  O   UNL     1      15.817  78.681  -2.083  1.00  0.00    -0.385 OA
ATOM     29  H   UNL     1      16.699  78.857  -2.497  1.00  0.00     0.211 HD
ENDBRANCH   5  28
ENDBRANCH   1   2
BRANCH   1  30
ATOM     30  C   UNL     1      11.754  80.057  -2.282  1.00  0.00     0.182 C 
ATOM     31  C   UNL     1      10.610  81.041  -1.894  1.00  0.00     0.163 C 
ATOM     32  C   UNL     1      11.433  78.610  -1.831  1.00  0.00     0.170 C 
ATOM     33  C   UNL     1      10.185  80.948  -0.400  1.00  0.00     0.084 C 
ATOM     34  C   UNL     1      11.114  78.542  -0.314  1.00  0.00     0.084 C 
ATOM     35  C   UNL     1       9.966  79.499   0.066  1.00  0.00     0.043 C 
BRANCH  31  36
ATOM     36  O   UNL     1       9.478  80.802  -2.705  1.00  0.00    -0.389 OA
ATOM     37  H   UNL     1       9.654  79.967  -3.212  1.00  0.00     0.211 HD
ENDBRANCH  31  36
BRANCH  32  38
ATOM     38  O   UNL     1      10.318  78.142  -2.576  1.00  0.00    -0.343 OA
BRANCH  38  39
ATOM     39  C   UNL     1       9.633  77.064  -1.956  1.00  0.00     0.270 C 
ATOM     40  O   UNL     1       8.328  76.948  -2.508  1.00  0.00    -0.344 OA
ATOM     41  C   UNL     1      10.492  75.788  -2.167  1.00  0.00     0.139 C 
ATOM     42  C   UNL     1       7.577  75.873  -1.966  1.00  0.00     0.166 C 
ATOM     43  C   UNL     1       9.713  74.461  -1.899  1.00  0.00     0.167 C 
ATOM     44  C   UNL     1       8.232  74.521  -2.333  1.00  0.00     0.175 C 
BRANCH  41  45
ATOM     45  N   UNL     1      11.117  75.801  -3.500  1.00  0.00    -0.321 NA
ATOM     46  H   UNL     1      11.758  74.985  -3.580  1.00  0.00     0.119 HD
ATOM     47  H   UNL     1      10.388  75.727  -4.250  1.00  0.00     0.119 HD
ENDBRANCH  41  45
BRANCH  42  48
ATOM     48  C   UNL     1       7.252  76.079  -0.456  1.00  0.00     0.112 C 
BRANCH  48  49
ATOM     49  N   UNL     1       6.781  74.856   0.191  1.00  0.00    -0.328 NA
ATOM     50  H   UNL     1       5.744  74.786   0.100  1.00  0.00     0.118 HD
ATOM     51  H   UNL     1       7.035  74.868   1.206  1.00  0.00     0.118 HD
ENDBRANCH  48  49
ENDBRANCH  42  48
BRANCH  43  52
ATOM     52  O   UNL     1       9.785  74.134  -0.527  1.00  0.00    -0.388 OA
ATOM     53  H   UNL     1      10.127  73.201  -0.468  1.00  0.00     0.211 HD
ENDBRANCH  43  52
BRANCH  44  54
ATOM     54  O   UNL     1       8.108  74.262  -3.713  1.00  0.00    -0.388 OA
ATOM     55  H   UNL     1       7.175  73.957  -3.893  1.00  0.00     0.211 HD
ENDBRANCH  44  54
ENDBRANCH  38  39
ENDBRANCH  32  38
BRANCH  33  56
ATOM     56  N   UNL     1      11.102  81.657   0.499  1.00  0.00    -0.325 NA
ATOM     57  H   UNL     1      12.085  81.456   0.197  1.00  0.00     0.119 HD
ATOM     58  H   UNL     1      11.013  81.307   1.474  1.00  0.00     0.119 HD
ENDBRANCH  33  56
BRANCH  34  59
ATOM     59  N   UNL     1      12.309  78.803   0.493  1.00  0.00    -0.325 NA
ATOM     60  H   UNL     1      12.161  79.702   1.013  1.00  0.00     0.119 HD
ATOM     61  H   UNL     1      13.111  78.975  -0.148  1.00  0.00     0.119 HD
ENDBRANCH  34  59
ENDBRANCH   1  30
TORSDOF 22
ENDMDL
MODEL 13
REMARK VINA RESULT:    -6.038      2.053      2.779
REMARK INTER + INTRA:         -13.646
REMARK INTER:                 -11.887
REMARK INTRA:                  -1.759
REMARK UNBOUND:                -2.137
REMARK SMILES NC[C@@H]1O[C@H](O[C@H]2[C@@H](O)[C@H](O[C@@H]3[C@@H](O)[C@H](N)C[C@H](N)[C@H]3O[C@H]3O[C@H](CN)[C@@H](O)[C@H](O)[C@H]3N)O[C@@H]2CO)[C@H](N)[C@@H](O)[C@@H]1O
REMARK SMILES IDX 11 1 10 2 7 3 34 4 8 5 33 6 6 7 5 8 3 9 4 10 41 11 39 12
REMARK SMILES IDX 37 13 2 14 1 15 42 18 40 20 38 22 35 25 36 26 9 28 12 30
REMARK SMILES IDX 13 31 20 32 15 33 18 34 17 35 14 36 21 38 22 39 23 40 31 41
REMARK SMILES IDX 24 42 29 43 27 44 32 45 25 48 26 49 30 52 28 54 16 56 19 59
REMARK H PARENT 1 16 1 17 42 19 40 21 38 23 38 24 36 27 9 29 14 37 32 46 32 47
REMARK H PARENT 26 50 26 51 30 53 28 55 16 57 16 58 19 60 19 61
REMARK Flexibility Score: inf
ROOT
ATOM      1  O   UNL     1      12.436  79.976  -1.929  1.00  0.00    -0.341 OA
ENDROOT
BRANCH   1   2
ATOM      2  C   UNL     1      13.436  80.399  -2.861  1.00  0.00     0.282 C 
ATOM      3  C   UNL     1      15.286  79.828  -4.257  1.00  0.00     0.186 C 
ATOM      4  C   UNL     1      13.937  79.720  -4.994  1.00  0.00     0.179 C 
ATOM      5  C   UNL     1      14.857  79.782  -2.810  1.00  0.00     0.202 C 
ATOM      6  O   UNL     1      12.916  80.221  -4.159  1.00  0.00    -0.341 OA
BRANCH   3   7
ATOM      7  O   UNL     1      15.926  81.064  -4.538  1.00  0.00    -0.342 OA
BRANCH   7   8
ATOM      8  C   UNL     1      17.034  80.896  -5.410  1.00  0.00     0.270 C 
ATOM      9  C   UNL     1      17.914  79.472  -7.022  1.00  0.00     0.166 C 
ATOM     10  O   UNL     1      16.764  79.797  -6.268  1.00  0.00    -0.344 OA
ATOM     11  C   UNL     1      18.254  80.605  -8.015  1.00  0.00     0.175 C 
ATOM     12  C   UNL     1      18.346  81.968  -7.292  1.00  0.00     0.167 C 
ATOM     13  C   UNL     1      17.204  82.168  -6.255  1.00  0.00     0.139 C 
BRANCH   9  14
ATOM     14  C   UNL     1      17.683  78.136  -7.738  1.00  0.00     0.112 C 
BRANCH  14  15
ATOM     15  N   UNL     1      16.478  77.482  -7.233  1.00  0.00    -0.328 NA
ATOM     16  H   UNL     1      16.235  77.929  -6.314  1.00  0.00     0.118 HD
ATOM     17  H   UNL     1      15.685  77.719  -7.883  1.00  0.00     0.118 HD
ENDBRANCH  14  15
ENDBRANCH   9  14
BRANCH  11  18
ATOM     18  O   UNL     1      17.277  80.662  -9.032  1.00  0.00    -0.388 OA
ATOM     19  H   UNL     1      17.706  81.104  -9.812  1.00  0.00     0.211 HD
ENDBRANCH  11  18
BRANCH  12  20
ATOM     20  O   UNL     1      19.588  82.025  -6.630  1.00  0.00    -0.388 OA
ATOM     21  H   UNL     1      19.416  82.374  -5.714  1.00  0.00     0.211 HD
ENDBRANCH  12  20
BRANCH  13  22
ATOM     22  N   UNL     1      15.931  82.544  -6.910  1.00  0.00    -0.321 NA
ATOM     23  H   UNL     1      15.320  83.037  -6.213  1.00  0.00     0.119 HD
ATOM     24  H   UNL     1      16.110  83.191  -7.714  1.00  0.00     0.119 HD
ENDBRANCH  13  22
ENDBRANCH   7   8
ENDBRANCH   3   7
BRANCH   4  25
ATOM     25  C   UNL     1      13.576  78.282  -5.425  1.00  0.00     0.191 C 
BRANCH  25  26
ATOM     26  O   UNL     1      14.576  77.358  -5.068  1.00  0.00    -0.394 OA
ATOM     27  H   UNL     1      14.634  76.704  -5.808  1.00  0.00     0.210 HD
ENDBRANCH  25  26
ENDBRANCH   4  25
BRANCH   5  28
ATOM     28  O   UNL     1      15.756  80.514  -2.008  1.00  0.00    -0.385 OA
ATOM     29  H   UNL     1      15.693  81.471  -2.253  1.00  0.00     0.211 HD
ENDBRANCH   5  28
ENDBRANCH   1   2
BRANCH   1  30
ATOM     30  C   UNL     1      11.128  79.694  -2.413  1.00  0.00     0.182 C 
ATOM     31  C   UNL     1      10.143  80.846  -2.051  1.00  0.00     0.163 C 
ATOM     32  C   UNL     1      10.654  78.340  -1.831  1.00  0.00     0.170 C 
ATOM     33  C   UNL     1       9.798  80.920  -0.535  1.00  0.00     0.084 C 
ATOM     34  C   UNL     1      10.418  78.426  -0.300  1.00  0.00     0.084 C 
ATOM     35  C   UNL     1       9.425  79.551   0.057  1.00  0.00     0.043 C 
BRANCH  31  36
ATOM     36  O   UNL     1       8.945  80.697  -2.784  1.00  0.00    -0.389 OA
ATOM     37  H   UNL     1       8.225  81.131  -2.256  1.00  0.00     0.211 HD
ENDBRANCH  31  36
BRANCH  32  38
ATOM     38  O   UNL     1       9.447  77.967  -2.481  1.00  0.00    -0.343 OA
BRANCH  38  39
ATOM     39  C   UNL     1       9.229  76.565  -2.512  1.00  0.00     0.270 C 
ATOM     40  O   UNL     1       9.116  76.071  -1.183  1.00  0.00    -0.344 OA
ATOM     41  C   UNL     1       7.952  76.313  -3.358  1.00  0.00     0.139 C 
ATOM     42  C   UNL     1       8.866  74.676  -1.115  1.00  0.00     0.166 C 
ATOM     43  C   UNL     1       7.351  74.884  -3.170  1.00  0.00     0.167 C 
ATOM     44  C   UNL     1       7.485  74.347  -1.728  1.00  0.00     0.175 C 
BRANCH  41  45
ATOM     45  N   UNL     1       6.955  77.368  -3.113  1.00  0.00    -0.321 NA
ATOM     46  H   UNL     1       6.833  77.926  -3.984  1.00  0.00     0.119 HD
ATOM     47  H   UNL     1       6.029  76.948  -2.855  1.00  0.00     0.119 HD
ENDBRANCH  41  45
BRANCH  42  48
ATOM     48  C   UNL     1      10.062  73.833  -1.652  1.00  0.00     0.112 C 
BRANCH  48  49
ATOM     49  N   UNL     1       9.725  72.421  -1.822  1.00  0.00    -0.328 NA
ATOM     50  H   UNL     1      10.418  71.830  -1.313  1.00  0.00     0.118 HD
ATOM     51  H   UNL     1       9.742  72.169  -2.838  1.00  0.00     0.118 HD
ENDBRANCH  48  49
ENDBRANCH  42  48
BRANCH  43  52
ATOM     52  O   UNL     1       7.972  73.983  -4.064  1.00  0.00    -0.388 OA
ATOM     53  H   UNL     1       8.809  74.418  -4.380  1.00  0.00     0.211 HD
ENDBRANCH  43  52
BRANCH  44  54
ATOM     54  O   UNL     1       6.445  74.842  -0.915  1.00  0.00    -0.388 OA
ATOM     55  H   UNL     1       6.239  74.159  -0.217  1.00  0.00     0.211 HD
ENDBRANCH  44  54
ENDBRANCH  38  39
ENDBRANCH  32  38
BRANCH  33  56
ATOM     56  N   UNL     1      10.848  81.568   0.258  1.00  0.00    -0.325 NA
ATOM     57  H   UNL     1      10.819  81.177   1.230  1.00  0.00     0.119 HD
ATOM     58  H   UNL     1      10.674  82.589   0.343  1.00  0.00     0.119 HD
ENDBRANCH  33  56
BRANCH  34  59
ATOM     59  N   UNL     1      11.682  78.588   0.424  1.00  0.00    -0.325 NA
ATOM     60  H   UNL     1      11.981  79.590   0.339  1.00  0.00     0.119 HD
ATOM     61  H   UNL     1      12.416  78.031  -0.061  1.00  0.00     0.119 HD
ENDBRANCH  34  59
ENDBRANCH   1  30
TORSDOF 22
ENDMDL
MODEL 14
REMARK VINA RESULT:    -5.961      2.630      8.822
REMARK INTER + INTRA:         -13.498
REMARK INTER:                 -12.771
REMARK INTRA:                  -0.728
REMARK UNBOUND:                -2.137
REMARK SMILES NC[C@@H]1O[C@H](O[C@H]2[C@@H](O)[C@H](O[C@@H]3[C@@H](O)[C@H](N)C[C@H](N)[C@H]3O[C@H]3O[C@H](CN)[C@@H](O)[C@H](O)[C@H]3N)O[C@@H]2CO)[C@H](N)[C@@H](O)[C@@H]1O
REMARK SMILES IDX 11 1 10 2 7 3 34 4 8 5 33 6 6 7 5 8 3 9 4 10 41 11 39 12
REMARK SMILES IDX 37 13 2 14 1 15 42 18 40 20 38 22 35 25 36 26 9 28 12 30
REMARK SMILES IDX 13 31 20 32 15 33 18 34 17 35 14 36 21 38 22 39 23 40 31 41
REMARK SMILES IDX 24 42 29 43 27 44 32 45 25 48 26 49 30 52 28 54 16 56 19 59
REMARK H PARENT 1 16 1 17 42 19 40 21 38 23 38 24 36 27 9 29 14 37 32 46 32 47
REMARK H PARENT 26 50 26 51 30 53 28 55 16 57 16 58 19 60 19 61
REMARK Flexibility Score: inf
ROOT
ATOM      1  O   UNL     1      10.086  78.583  -0.594  1.00  0.00    -0.341 OA
ENDROOT
BRANCH   1   2
ATOM      2  C   UNL     1       9.538  77.514  -1.370  1.00  0.00     0.282 C 
ATOM      3  C   UNL     1       8.820  75.240  -1.480  1.00  0.00     0.186 C 
ATOM      4  C   UNL     1       7.681  76.198  -1.083  1.00  0.00     0.179 C 
ATOM      5  C   UNL     1      10.047  76.064  -1.167  1.00  0.00     0.202 C 
ATOM      6  O   UNL     1       8.139  77.528  -1.194  1.00  0.00    -0.341 OA
BRANCH   3   7
ATOM      7  O   UNL     1       8.775  74.938  -2.867  1.00  0.00    -0.342 OA
BRANCH   7   8
ATOM      8  C   UNL     1       9.809  74.040  -3.243  1.00  0.00     0.270 C 
ATOM      9  C   UNL     1      10.837  72.049  -2.627  1.00  0.00     0.166 C 
ATOM     10  O   UNL     1       9.717  72.885  -2.421  1.00  0.00    -0.344 OA
ATOM     11  C   UNL     1      10.820  71.455  -4.053  1.00  0.00     0.175 C 
ATOM     12  C   UNL     1      10.667  72.566  -5.115  1.00  0.00     0.167 C 
ATOM     13  C   UNL     1       9.608  73.632  -4.712  1.00  0.00     0.139 C 
BRANCH   9  14
ATOM     14  C   UNL     1      10.850  70.955  -1.553  1.00  0.00     0.112 C 
BRANCH  14  15
ATOM     15  N   UNL     1       9.793  69.978  -1.801  1.00  0.00    -0.328 NA
ATOM     16  H   UNL     1      10.234  69.139  -2.254  1.00  0.00     0.118 HD
ATOM     17  H   UNL     1       9.436  69.644  -0.870  1.00  0.00     0.118 HD
ENDBRANCH  14  15
ENDBRANCH   9  14
BRANCH  11  18
ATOM     18  O   UNL     1       9.766  70.522  -4.172  1.00  0.00    -0.388 OA
ATOM     19  H   UNL     1       9.126  70.725  -3.440  1.00  0.00     0.211 HD
ENDBRANCH  11  18
BRANCH  12  20
ATOM     20  O   UNL     1      11.918  73.192  -5.273  1.00  0.00    -0.388 OA
ATOM     21  H   UNL     1      12.601  72.471  -5.329  1.00  0.00     0.211 HD
ENDBRANCH  12  20
BRANCH  13  22
ATOM     22  N   UNL     1       8.229  73.149  -4.944  1.00  0.00    -0.321 NA
ATOM     23  H   UNL     1       7.750  73.793  -5.620  1.00  0.00     0.119 HD
ATOM     24  H   UNL     1       8.243  72.185  -5.353  1.00  0.00     0.119 HD
ENDBRANCH  13  22
ENDBRANCH   7   8
ENDBRANCH   3   7
BRANCH   4  25
ATOM     25  C   UNL     1       7.143  75.967   0.345  1.00  0.00     0.191 C 
BRANCH  25  26
ATOM     26  O   UNL     1       6.772  77.173   0.971  1.00  0.00    -0.394 OA
ATOM     27  H   UNL     1       7.531  77.438   1.547  1.00  0.00     0.210 HD
ENDBRANCH  25  26
ENDBRANCH   4  25
BRANCH   5  28
ATOM     28  O   UNL     1      11.105  75.716  -2.030  1.00  0.00    -0.385 OA
ATOM     29  H   UNL     1      11.849  75.350  -1.488  1.00  0.00     0.211 HD
ENDBRANCH   5  28
ENDBRANCH   1   2
BRANCH   1  30
ATOM     30  C   UNL     1      11.487  78.823  -0.657  1.00  0.00     0.182 C 
ATOM     31  C   UNL     1      12.010  79.407   0.689  1.00  0.00     0.163 C 
ATOM     32  C   UNL     1      11.785  79.776  -1.841  1.00  0.00     0.170 C 
ATOM     33  C   UNL     1      11.554  80.872   0.955  1.00  0.00     0.084 C 
ATOM     34  C   UNL     1      11.226  81.201  -1.584  1.00  0.00     0.084 C 
ATOM     35  C   UNL     1      11.762  81.788  -0.263  1.00  0.00     0.043 C 
BRANCH  31  36
ATOM     36  O   UNL     1      13.421  79.358   0.715  1.00  0.00    -0.389 OA
ATOM     37  H   UNL     1      13.741  79.717  -0.154  1.00  0.00     0.211 HD
ENDBRANCH  31  36
BRANCH  32  38
ATOM     38  O   UNL     1      13.192  79.840  -2.026  1.00  0.00    -0.343 OA
BRANCH  38  39
ATOM     39  C   UNL     1      13.578  80.039  -3.377  1.00  0.00     0.270 C 
ATOM     40  O   UNL     1      14.686  80.929  -3.430  1.00  0.00    -0.344 OA
ATOM     41  C   UNL     1      13.897  78.643  -3.978  1.00  0.00     0.139 C 
ATOM     42  C   UNL     1      15.162  81.165  -4.745  1.00  0.00     0.166 C 
ATOM     43  C   UNL     1      14.703  78.710  -5.314  1.00  0.00     0.167 C 
ATOM     44  C   UNL     1      15.731  79.861  -5.353  1.00  0.00     0.175 C 
BRANCH  41  45
ATOM     45  N   UNL     1      14.556  77.789  -2.977  1.00  0.00    -0.321 NA
ATOM     46  H   UNL     1      14.583  76.811  -3.333  1.00  0.00     0.119 HD
ATOM     47  H   UNL     1      15.540  78.110  -2.809  1.00  0.00     0.119 HD
ENDBRANCH  41  45
BRANCH  42  48
ATOM     48  C   UNL     1      14.121  81.922  -5.625  1.00  0.00     0.112 C 
BRANCH  48  49
ATOM     49  N   UNL     1      14.707  83.051  -6.345  1.00  0.00    -0.328 NA
ATOM     50  H   UNL     1      14.648  82.881  -7.373  1.00  0.00     0.118 HD
ATOM     51  H   UNL     1      15.712  83.165  -6.075  1.00  0.00     0.118 HD
ENDBRANCH  48  49
ENDBRANCH  42  48
BRANCH  43  52
ATOM     52  O   UNL     1      13.814  78.839  -6.403  1.00  0.00    -0.388 OA
ATOM     53  H   UNL     1      13.442  77.934  -6.584  1.00  0.00     0.211 HD
ENDBRANCH  43  52
BRANCH  44  54
ATOM     54  O   UNL     1      16.925  79.486  -4.704  1.00  0.00    -0.388 OA
ATOM     55  H   UNL     1      17.463  78.928  -5.333  1.00  0.00     0.211 HD
ENDBRANCH  44  54
ENDBRANCH  38  39
ENDBRANCH  32  38
BRANCH  33  56
ATOM     56  N   UNL     1      10.176  80.960   1.451  1.00  0.00    -0.325 NA
ATOM     57  H   UNL     1       9.533  80.592   0.709  1.00  0.00     0.119 HD
ATOM     58  H   UNL     1       9.903  81.948   1.618  1.00  0.00     0.119 HD
ENDBRANCH  33  56
BRANCH  34  59
ATOM     59  N   UNL     1       9.761  81.209  -1.611  1.00  0.00    -0.325 NA
ATOM     60  H   UNL     1       9.424  80.245  -1.369  1.00  0.00     0.119 HD
ATOM     61  H   UNL     1       9.448  81.382  -2.589  1.00  0.00     0.119 HD
ENDBRANCH  34  59
ENDBRANCH   1  30
TORSDOF 22
ENDMDL
MODEL 15
REMARK VINA RESULT:    -5.947      2.506      8.504
REMARK INTER + INTRA:         -13.472
REMARK INTER:                 -12.687
REMARK INTRA:                  -0.785
REMARK UNBOUND:                -2.137
REMARK SMILES NC[C@@H]1O[C@H](O[C@H]2[C@@H](O)[C@H](O[C@@H]3[C@@H](O)[C@H](N)C[C@H](N)[C@H]3O[C@H]3O[C@H](CN)[C@@H](O)[C@H](O)[C@H]3N)O[C@@H]2CO)[C@H](N)[C@@H](O)[C@@H]1O
REMARK SMILES IDX 11 1 10 2 7 3 34 4 8 5 33 6 6 7 5 8 3 9 4 10 41 11 39 12
REMARK SMILES IDX 37 13 2 14 1 15 42 18 40 20 38 22 35 25 36 26 9 28 12 30
REMARK SMILES IDX 13 31 20 32 15 33 18 34 17 35 14 36 21 38 22 39 23 40 31 41
REMARK SMILES IDX 24 42 29 43 27 44 32 45 25 48 26 49 30 52 28 54 16 56 19 59
REMARK H PARENT 1 16 1 17 42 19 40 21 38 23 38 24 36 27 9 29 14 37 32 46 32 47
REMARK H PARENT 26 50 26 51 30 53 28 55 16 57 16 58 19 60 19 61
REMARK Flexibility Score: inf
ROOT
ATOM      1  O   UNL     1      10.368  77.823  -0.752  1.00  0.00    -0.341 OA
ENDROOT
BRANCH   1   2
ATOM      2  C   UNL     1       9.955  76.500  -1.107  1.00  0.00     0.282 C 
ATOM      3  C   UNL     1       8.172  74.974  -1.548  1.00  0.00     0.186 C 
ATOM      4  C   UNL     1       8.653  75.701  -2.819  1.00  0.00     0.179 C 
ATOM      5  C   UNL     1       8.695  75.877  -0.455  1.00  0.00     0.202 C 
ATOM      6  O   UNL     1       9.802  76.459  -2.508  1.00  0.00    -0.341 OA
BRANCH   3   7
ATOM      7  O   UNL     1       8.759  73.686  -1.441  1.00  0.00    -0.342 OA
BRANCH   7   8
ATOM      8  C   UNL     1       9.232  73.218  -2.695  1.00  0.00     0.270 C 
ATOM      9  C   UNL     1      10.933  73.511  -4.251  1.00  0.00     0.166 C 
ATOM     10  O   UNL     1      10.509  73.794  -2.934  1.00  0.00    -0.344 OA
ATOM     11  C   UNL     1      11.203  72.000  -4.424  1.00  0.00     0.175 C 
ATOM     12  C   UNL     1       9.987  71.163  -3.967  1.00  0.00     0.167 C 
ATOM     13  C   UNL     1       9.370  71.688  -2.639  1.00  0.00     0.139 C 
BRANCH   9  14
ATOM     14  C   UNL     1      12.175  74.352  -4.569  1.00  0.00     0.112 C 
BRANCH  14  15
ATOM     15  N   UNL     1      13.049  73.645  -5.503  1.00  0.00    -0.328 NA
ATOM     16  H   UNL     1      12.472  72.915  -5.989  1.00  0.00     0.118 HD
ATOM     17  H   UNL     1      13.339  74.324  -6.252  1.00  0.00     0.118 HD
ENDBRANCH  14  15
ENDBRANCH   9  14
BRANCH  11  18
ATOM     18  O   UNL     1      12.351  71.629  -3.689  1.00  0.00    -0.388 OA
ATOM     19  H   UNL     1      12.032  71.349  -2.790  1.00  0.00     0.211 HD
ENDBRANCH  11  18
BRANCH  12  20
ATOM     20  O   UNL     1       9.015  71.217  -4.984  1.00  0.00    -0.388 OA
ATOM     21  H   UNL     1       8.640  70.301  -5.080  1.00  0.00     0.211 HD
ENDBRANCH  12  20
BRANCH  13  22
ATOM     22  N   UNL     1      10.165  71.270  -1.463  1.00  0.00    -0.321 NA
ATOM     23  H   UNL     1      10.285  70.228  -1.484  1.00  0.00     0.119 HD
ATOM     24  H   UNL     1      11.112  71.717  -1.484  1.00  0.00     0.119 HD
ENDBRANCH  13  22
ENDBRANCH   7   8
ENDBRANCH   3   7
BRANCH   4  25
ATOM     25  C   UNL     1       7.591  76.629  -3.446  1.00  0.00     0.191 C 
BRANCH  25  26
ATOM     26  O   UNL     1       6.777  75.950  -4.372  1.00  0.00    -0.394 OA
ATOM     27  H   UNL     1       7.278  75.144  -4.652  1.00  0.00     0.210 HD
ENDBRANCH  25  26
ENDBRANCH   4  25
BRANCH   5  28
ATOM     28  O   UNL     1       8.976  75.128   0.706  1.00  0.00    -0.385 OA
ATOM     29  H   UNL     1       9.941  74.907   0.714  1.00  0.00     0.211 HD
ENDBRANCH   5  28
ENDBRANCH   1   2
BRANCH   1  30
ATOM     30  C   UNL     1      11.756  78.083  -0.590  1.00  0.00     0.182 C 
ATOM     31  C   UNL     1      12.013  78.951   0.678  1.00  0.00     0.163 C 
ATOM     32  C   UNL     1      12.294  78.775  -1.868  1.00  0.00     0.170 C 
ATOM     33  C   UNL     1      11.535  80.425   0.535  1.00  0.00     0.084 C 
ATOM     34  C   UNL     1      11.715  80.206  -2.030  1.00  0.00     0.084 C 
ATOM     35  C   UNL     1      11.990  81.072  -0.784  1.00  0.00     0.043 C 
BRANCH  31  36
ATOM     36  O   UNL     1      13.392  78.948   0.988  1.00  0.00    -0.389 OA
ATOM     37  H   UNL     1      13.789  78.156   0.539  1.00  0.00     0.211 HD
ENDBRANCH  31  36
BRANCH  32  38
ATOM     38  O   UNL     1      13.711  78.839  -1.785  1.00  0.00    -0.343 OA
BRANCH  38  39
ATOM     39  C   UNL     1      14.354  78.821  -3.050  1.00  0.00     0.270 C 
ATOM     40  O   UNL     1      13.383  78.957  -4.080  1.00  0.00    -0.344 OA
ATOM     41  C   UNL     1      15.400  79.968  -3.053  1.00  0.00     0.139 C 
ATOM     42  C   UNL     1      13.940  78.979  -5.384  1.00  0.00     0.166 C 
ATOM     43  C   UNL     1      15.913  80.340  -4.480  1.00  0.00     0.167 C 
ATOM     44  C   UNL     1      14.824  80.235  -5.570  1.00  0.00     0.175 C 
BRANCH  41  45
ATOM     45  N   UNL     1      14.882  81.140  -2.329  1.00  0.00    -0.321 NA
ATOM     46  H   UNL     1      14.053  81.511  -2.838  1.00  0.00     0.119 HD
ATOM     47  H   UNL     1      14.585  80.874  -1.359  1.00  0.00     0.119 HD
ENDBRANCH  41  45
BRANCH  42  48
ATOM     48  C   UNL     1      14.604  77.623  -5.769  1.00  0.00     0.112 C 
BRANCH  48  49
ATOM     49  N   UNL     1      15.757  77.790  -6.652  1.00  0.00    -0.328 NA
ATOM     50  H   UNL     1      16.560  77.228  -6.293  1.00  0.00     0.118 HD
ATOM     51  H   UNL     1      16.036  78.798  -6.688  1.00  0.00     0.118 HD
ENDBRANCH  48  49
ENDBRANCH  42  48
BRANCH  43  52
ATOM     52  O   UNL     1      17.003  79.511  -4.827  1.00  0.00    -0.388 OA
ATOM     53  H   UNL     1      17.455  79.254  -3.978  1.00  0.00     0.211 HD
ENDBRANCH  43  52
BRANCH  44  54
ATOM     54  O   UNL     1      14.036  81.403  -5.599  1.00  0.00    -0.388 OA
ATOM     55  H   UNL     1      13.648  81.499  -6.513  1.00  0.00     0.211 HD
ENDBRANCH  44  54
ENDBRANCH  38  39
ENDBRANCH  32  38
BRANCH  33  56
ATOM     56  N   UNL     1      10.088  80.576   0.724  1.00  0.00    -0.325 NA
ATOM     57  H   UNL     1       9.606  79.773   0.253  1.00  0.00     0.119 HD
ATOM     58  H   UNL     1       9.741  81.441   0.264  1.00  0.00     0.119 HD
ENDBRANCH  33  56
BRANCH  34  59
ATOM     59  N   UNL     1      10.284  80.168  -2.343  1.00  0.00    -0.325 NA
ATOM     60  H   UNL     1      10.168  80.368  -3.366  1.00  0.00     0.119 HD
ATOM     61  H   UNL     1       9.814  80.953  -1.845  1.00  0.00     0.119 HD
ENDBRANCH  34  59
ENDBRANCH   1  30
TORSDOF 22
ENDMDL
