MODEL 1
REMARK VINA RESULT:    -8.454      0.000      0.000
REMARK INTER + INTRA:         -15.128
REMARK INTER:                 -13.890
REMARK INTRA:                  -1.238
REMARK UNBOUND:                -1.238
REMARK SMILES C#Cc1cccc(Nc2ncnc3cc(OCCOC)c(OCCOC)cc23)c1
REMARK SMILES IDX 15 1 14 2 13 3 28 4 27 5 21 6 9 7 10 8 11 9 12 10 16 11
REMARK SMILES IDX 17 12 18 13 19 14 20 15 22 16 23 17 24 18 25 19 26 20 8 21
REMARK SMILES IDX 7 23 29 24 6 25 3 26 5 27 4 28 2 29 1 30
REMARK H PARENT 8 22
REMARK Flexibility Score: inf
ROOT
ATOM      1  C   UNL     1      12.366  79.734  -1.488  1.00  0.00     0.163 A 
ATOM      2  C   UNL     1      11.207  80.087  -0.772  1.00  0.00     0.079 A 
ATOM      3  C   UNL     1      10.008  79.403  -0.983  1.00  0.00     0.080 A 
ATOM      4  C   UNL     1       9.948  78.338  -1.906  1.00  0.00     0.047 A 
ATOM      5  C   UNL     1      11.103  77.995  -2.631  1.00  0.00     0.064 A 
ATOM      6  C   UNL     1      12.312  78.686  -2.420  1.00  0.00     0.162 A 
ATOM      7  C   UNL     1       8.709  77.681  -2.078  1.00  0.00     0.141 A 
ATOM      8  N   UNL     1       7.631  78.097  -1.359  1.00  0.00    -0.219 NA
ATOM      9  C   UNL     1       7.714  79.131  -0.484  1.00  0.00     0.224 A 
ATOM     10  N   UNL     1       8.895  79.771  -0.298  1.00  0.00    -0.236 NA
ENDROOT
BRANCH   1  11
ATOM     11  O   UNL     1      13.595  80.392  -1.307  1.00  0.00    -0.487 OA
BRANCH  11  12
ATOM     12  C   UNL     1      14.440  80.280  -0.161  1.00  0.00     0.258 C 
BRANCH  12  13
ATOM     13  C   UNL     1      15.114  78.910  -0.117  1.00  0.00     0.201 C 
BRANCH  13  14
ATOM     14  O   UNL     1      14.893  78.329   1.150  1.00  0.00    -0.381 OA
ATOM     15  C   UNL     1      13.843  77.392   1.056  1.00  0.00     0.195 C 
ENDBRANCH  13  14
ENDBRANCH  12  13
ENDBRANCH  11  12
ENDBRANCH   1  11
BRANCH   6  16
ATOM     16  O   UNL     1      13.485  78.365  -3.122  1.00  0.00    -0.487 OA
BRANCH  16  17
ATOM     17  C   UNL     1      13.537  78.018  -4.504  1.00  0.00     0.258 C 
BRANCH  17  18
ATOM     18  C   UNL     1      14.232  79.125  -5.284  1.00  0.00     0.201 C 
BRANCH  18  19
ATOM     19  O   UNL     1      13.435  80.291  -5.253  1.00  0.00    -0.381 OA
ATOM     20  C   UNL     1      14.265  81.426  -5.342  1.00  0.00     0.195 C 
ENDBRANCH  18  19
ENDBRANCH  17  18
ENDBRANCH  16  17
ENDBRANCH   6  16
BRANCH   7  21
ATOM     21  N   UNL     1       8.575  76.544  -2.948  1.00  0.00    -0.340 N 
ATOM     22  H   UNL     1       8.207  76.701  -3.914  1.00  0.00     0.168 HD
BRANCH  21  23
ATOM     23  C   UNL     1       9.083  75.237  -2.628  1.00  0.00     0.041 A 
ATOM     24  C   UNL     1       9.064  74.229  -3.605  1.00  0.00     0.043 A 
ATOM     25  C   UNL     1       9.553  74.932  -1.337  1.00  0.00     0.026 A 
ATOM     26  C   UNL     1       9.535  72.944  -3.308  1.00  0.00     0.026 A 
ATOM     27  C   UNL     1      10.023  73.648  -1.042  1.00  0.00     0.003 A 
ATOM     28  C   UNL     1      10.018  72.656  -2.025  1.00  0.00     0.017 A 
BRANCH  26  29
ATOM     29  C   UNL     1       9.522  71.918  -4.319  1.00  0.00    -0.070 C 
ATOM     30  C   UNL     1       9.510  71.058  -5.165  1.00  0.00     0.010 C 
ENDBRANCH  26  29
ENDBRANCH  21  23
ENDBRANCH   7  21
TORSDOF 11
ENDMDL
MODEL 2
REMARK VINA RESULT:    -8.343      1.923      2.819
REMARK INTER + INTRA:         -14.945
REMARK INTER:                 -13.952
REMARK INTRA:                  -0.993
REMARK UNBOUND:                -1.238
REMARK SMILES C#Cc1cccc(Nc2ncnc3cc(OCCOC)c(OCCOC)cc23)c1
REMARK SMILES IDX 15 1 14 2 13 3 28 4 27 5 21 6 9 7 10 8 11 9 12 10 16 11
REMARK SMILES IDX 17 12 18 13 19 14 20 15 22 16 23 17 24 18 25 19 26 20 8 21
REMARK SMILES IDX 7 23 29 24 6 25 3 26 5 27 4 28 2 29 1 30
REMARK H PARENT 8 22
REMARK Flexibility Score: inf
ROOT
ATOM      1  C   UNL     1       9.997  79.370  -1.163  1.00  0.00     0.163 A 
ATOM      2  C   UNL     1       8.738  78.901  -0.745  1.00  0.00     0.079 A 
ATOM      3  C   UNL     1       8.494  77.531  -0.632  1.00  0.00     0.080 A 
ATOM      4  C   UNL     1       9.513  76.599  -0.921  1.00  0.00     0.047 A 
ATOM      5  C   UNL     1      10.767  77.068  -1.352  1.00  0.00     0.064 A 
ATOM      6  C   UNL     1      11.014  78.450  -1.467  1.00  0.00     0.162 A 
ATOM      7  C   UNL     1       9.210  75.225  -0.789  1.00  0.00     0.141 A 
ATOM      8  N   UNL     1       7.960  74.856  -0.398  1.00  0.00    -0.219 NA
ATOM      9  C   UNL     1       6.995  75.772  -0.135  1.00  0.00     0.224 A 
ATOM     10  N   UNL     1       7.266  77.097  -0.248  1.00  0.00    -0.236 NA
ENDROOT
BRANCH   1  11
ATOM     11  O   UNL     1      10.290  80.739  -1.287  1.00  0.00    -0.487 OA
BRANCH  11  12
ATOM     12  C   UNL     1      11.018  81.526  -0.344  1.00  0.00     0.258 C 
BRANCH  12  13
ATOM     13  C   UNL     1      10.570  81.214   1.083  1.00  0.00     0.201 C 
BRANCH  13  14
ATOM     14  O   UNL     1      11.705  81.154   1.919  1.00  0.00    -0.381 OA
ATOM     15  C   UNL     1      12.690  80.346   1.313  1.00  0.00     0.195 C 
ENDBRANCH  13  14
ENDBRANCH  12  13
ENDBRANCH  11  12
ENDBRANCH   1  11
BRANCH   6  16
ATOM     16  O   UNL     1      12.255  78.952  -1.887  1.00  0.00    -0.487 OA
BRANCH  16  17
ATOM     17  C   UNL     1      12.555  79.371  -3.216  1.00  0.00     0.258 C 
BRANCH  17  18
ATOM     18  C   UNL     1      13.709  78.545  -3.766  1.00  0.00     0.201 C 
BRANCH  18  19
ATOM     19  O   UNL     1      14.200  79.150  -4.943  1.00  0.00    -0.381 OA
ATOM     20  C   UNL     1      14.243  78.193  -5.977  1.00  0.00     0.195 C 
ENDBRANCH  18  19
ENDBRANCH  17  18
ENDBRANCH  16  17
ENDBRANCH   6  16
BRANCH   7  21
ATOM     21  N   UNL     1      10.207  74.211  -0.999  1.00  0.00    -0.340 N 
ATOM     22  H   UNL     1      11.005  74.153  -0.326  1.00  0.00     0.168 HD
BRANCH  21  23
ATOM     23  C   UNL     1      10.076  73.162  -1.975  1.00  0.00     0.041 A 
ATOM     24  C   UNL     1       9.490  73.445  -3.219  1.00  0.00     0.043 A 
ATOM     25  C   UNL     1      10.475  71.844  -1.689  1.00  0.00     0.026 A 
ATOM     26  C   UNL     1       9.333  72.434  -4.176  1.00  0.00     0.026 A 
ATOM     27  C   UNL     1      10.318  70.836  -2.645  1.00  0.00     0.003 A 
ATOM     28  C   UNL     1       9.751  71.129  -3.888  1.00  0.00     0.017 A 
BRANCH  26  29
ATOM     29  C   UNL     1       8.741  72.735  -5.454  1.00  0.00    -0.070 C 
ATOM     30  C   UNL     1       8.244  72.986  -6.524  1.00  0.00     0.010 C 
ENDBRANCH  26  29
ENDBRANCH  21  23
ENDBRANCH   7  21
TORSDOF 11
ENDMDL
MODEL 3
REMARK VINA RESULT:    -8.185      3.197      7.235
REMARK INTER + INTRA:         -14.686
REMARK INTER:                 -13.616
REMARK INTRA:                  -1.070
REMARK UNBOUND:                -1.238
REMARK SMILES C#Cc1cccc(Nc2ncnc3cc(OCCOC)c(OCCOC)cc23)c1
REMARK SMILES IDX 15 1 14 2 13 3 28 4 27 5 21 6 9 7 10 8 11 9 12 10 16 11
REMARK SMILES IDX 17 12 18 13 19 14 20 15 22 16 23 17 24 18 25 19 26 20 8 21
REMARK SMILES IDX 7 23 29 24 6 25 3 26 5 27 4 28 2 29 1 30
REMARK H PARENT 8 22
REMARK Flexibility Score: inf
ROOT
ATOM      1  C   UNL     1       8.078  76.435  -2.441  1.00  0.00     0.163 A 
ATOM      2  C   UNL     1       7.871  77.782  -2.091  1.00  0.00     0.079 A 
ATOM      3  C   UNL     1       8.955  78.647  -1.926  1.00  0.00     0.080 A 
ATOM      4  C   UNL     1      10.273  78.183  -2.124  1.00  0.00     0.047 A 
ATOM      5  C   UNL     1      10.480  76.833  -2.460  1.00  0.00     0.064 A 
ATOM      6  C   UNL     1       9.387  75.960  -2.626  1.00  0.00     0.162 A 
ATOM      7  C   UNL     1      11.331  79.101  -1.945  1.00  0.00     0.141 A 
ATOM      8  N   UNL     1      11.045  80.383  -1.587  1.00  0.00    -0.219 NA
ATOM      9  C   UNL     1       9.769  80.800  -1.394  1.00  0.00     0.224 A 
ATOM     10  N   UNL     1       8.737  79.938  -1.567  1.00  0.00    -0.236 NA
ENDROOT
BRANCH   1  11
ATOM     11  O   UNL     1       7.018  75.530  -2.621  1.00  0.00    -0.487 OA
BRANCH  11  12
ATOM     12  C   UNL     1       6.394  74.760  -1.593  1.00  0.00     0.258 C 
BRANCH  12  13
ATOM     13  C   UNL     1       6.842  75.235  -0.212  1.00  0.00     0.201 C 
BRANCH  13  14
ATOM     14  O   UNL     1       5.730  75.769   0.474  1.00  0.00    -0.381 OA
ATOM     15  C   UNL     1       6.035  77.075   0.912  1.00  0.00     0.195 C 
ENDBRANCH  13  14
ENDBRANCH  12  13
ENDBRANCH  11  12
ENDBRANCH   1  11
BRANCH   6  16
ATOM     16  O   UNL     1       9.557  74.609  -2.968  1.00  0.00    -0.487 OA
BRANCH  16  17
ATOM     17  C   UNL     1      10.161  73.628  -2.128  1.00  0.00     0.258 C 
BRANCH  17  18
ATOM     18  C   UNL     1       9.403  72.313  -2.251  1.00  0.00     0.201 C 
BRANCH  18  19
ATOM     19  O   UNL     1      10.217  71.363  -2.905  1.00  0.00    -0.381 OA
ATOM     20  C   UNL     1       9.709  71.125  -4.198  1.00  0.00     0.195 C 
ENDBRANCH  18  19
ENDBRANCH  17  18
ENDBRANCH  16  17
ENDBRANCH   6  16
BRANCH   7  21
ATOM     21  N   UNL     1      12.699  78.731  -2.190  1.00  0.00    -0.340 N 
ATOM     22  H   UNL     1      13.217  78.221  -1.438  1.00  0.00     0.168 HD
BRANCH  21  23
ATOM     23  C   UNL     1      13.336  78.862  -3.473  1.00  0.00     0.041 A 
ATOM     24  C   UNL     1      13.680  80.138  -3.947  1.00  0.00     0.043 A 
ATOM     25  C   UNL     1      13.576  77.741  -4.288  1.00  0.00     0.026 A 
ATOM     26  C   UNL     1      14.283  80.290  -5.202  1.00  0.00     0.026 A 
ATOM     27  C   UNL     1      14.178  77.894  -5.541  1.00  0.00     0.003 A 
ATOM     28  C   UNL     1      14.534  79.165  -5.997  1.00  0.00     0.017 A 
BRANCH  26  29
ATOM     29  C   UNL     1      14.643  81.602  -5.676  1.00  0.00    -0.070 C 
ATOM     30  C   UNL     1      14.942  82.701  -6.072  1.00  0.00     0.010 C 
ENDBRANCH  26  29
ENDBRANCH  21  23
ENDBRANCH   7  21
TORSDOF 11
ENDMDL
MODEL 4
REMARK VINA RESULT:    -8.152      3.347      7.527
REMARK INTER + INTRA:         -14.632
REMARK INTER:                 -13.377
REMARK INTRA:                  -1.255
REMARK UNBOUND:                -1.238
REMARK SMILES C#Cc1cccc(Nc2ncnc3cc(OCCOC)c(OCCOC)cc23)c1
REMARK SMILES IDX 15 1 14 2 13 3 28 4 27 5 21 6 9 7 10 8 11 9 12 10 16 11
REMARK SMILES IDX 17 12 18 13 19 14 20 15 22 16 23 17 24 18 25 19 26 20 8 21
REMARK SMILES IDX 7 23 29 24 6 25 3 26 5 27 4 28 2 29 1 30
REMARK H PARENT 8 22
REMARK Flexibility Score: inf
ROOT
ATOM      1  C   UNL     1       8.898  78.176  -1.368  1.00  0.00     0.163 A 
ATOM      2  C   UNL     1       9.276  79.315  -0.634  1.00  0.00     0.079 A 
ATOM      3  C   UNL     1      10.573  79.824  -0.731  1.00  0.00     0.080 A 
ATOM      4  C   UNL     1      11.517  79.209  -1.580  1.00  0.00     0.047 A 
ATOM      5  C   UNL     1      11.144  78.063  -2.303  1.00  0.00     0.064 A 
ATOM      6  C   UNL     1       9.836  77.549  -2.205  1.00  0.00     0.162 A 
ATOM      7  C   UNL     1      12.814  79.767  -1.640  1.00  0.00     0.141 A 
ATOM      8  N   UNL     1      13.102  80.860  -0.881  1.00  0.00    -0.219 NA
ATOM      9  C   UNL     1      12.178  81.426  -0.066  1.00  0.00     0.224 A 
ATOM     10  N   UNL     1      10.924  80.912   0.002  1.00  0.00    -0.236 NA
ENDROOT
BRANCH   1  11
ATOM     11  O   UNL     1       7.604  77.631  -1.305  1.00  0.00    -0.487 OA
BRANCH  11  12
ATOM     12  C   UNL     1       6.945  77.180  -0.121  1.00  0.00     0.258 C 
BRANCH  12  13
ATOM     13  C   UNL     1       7.499  75.829   0.326  1.00  0.00     0.201 C 
BRANCH  13  14
ATOM     14  O   UNL     1       6.583  74.815  -0.029  1.00  0.00    -0.381 OA
ATOM     15  C   UNL     1       5.325  75.103   0.541  1.00  0.00     0.195 C 
ENDBRANCH  13  14
ENDBRANCH  12  13
ENDBRANCH  11  12
ENDBRANCH   1  11
BRANCH   6  16
ATOM     16  O   UNL     1       9.427  76.410  -2.918  1.00  0.00    -0.487 OA
BRANCH  16  17
ATOM     17  C   UNL     1       9.847  75.078  -2.632  1.00  0.00     0.258 C 
BRANCH  17  18
ATOM     18  C   UNL     1       8.662  74.130  -2.754  1.00  0.00     0.201 C 
BRANCH  18  19
ATOM     19  O   UNL     1       8.814  73.070  -1.834  1.00  0.00    -0.381 OA
ATOM     20  C   UNL     1       9.919  72.280  -2.211  1.00  0.00     0.195 C 
ENDBRANCH  18  19
ENDBRANCH  17  18
ENDBRANCH  16  17
ENDBRANCH   6  16
BRANCH   7  21
ATOM     21  N   UNL     1      13.818  79.245  -2.527  1.00  0.00    -0.340 N 
ATOM     22  H   UNL     1      14.120  78.251  -2.403  1.00  0.00     0.168 HD
BRANCH  21  23
ATOM     23  C   UNL     1      14.297  79.953  -3.684  1.00  0.00     0.041 A 
ATOM     24  C   UNL     1      15.679  80.132  -3.861  1.00  0.00     0.043 A 
ATOM     25  C   UNL     1      13.408  80.517  -4.616  1.00  0.00     0.026 A 
ATOM     26  C   UNL     1      16.166  80.836  -4.969  1.00  0.00     0.026 A 
ATOM     27  C   UNL     1      13.896  81.220  -5.722  1.00  0.00     0.003 A 
ATOM     28  C   UNL     1      15.272  81.377  -5.901  1.00  0.00     0.017 A 
BRANCH  26  29
ATOM     29  C   UNL     1      17.585  81.006  -5.149  1.00  0.00    -0.070 C 
ATOM     30  C   UNL     1      18.774  81.147  -5.300  1.00  0.00     0.010 C 
ENDBRANCH  26  29
ENDBRANCH  21  23
ENDBRANCH   7  21
TORSDOF 11
ENDMDL
MODEL 5
REMARK VINA RESULT:    -8.079      3.283      7.501
REMARK INTER + INTRA:         -14.511
REMARK INTER:                 -13.313
REMARK INTRA:                  -1.198
REMARK UNBOUND:                -1.238
REMARK SMILES C#Cc1cccc(Nc2ncnc3cc(OCCOC)c(OCCOC)cc23)c1
REMARK SMILES IDX 15 1 14 2 13 3 28 4 27 5 21 6 9 7 10 8 11 9 12 10 16 11
REMARK SMILES IDX 17 12 18 13 19 14 20 15 22 16 23 17 24 18 25 19 26 20 8 21
REMARK SMILES IDX 7 23 29 24 6 25 3 26 5 27 4 28 2 29 1 30
REMARK H PARENT 8 22
REMARK Flexibility Score: inf
ROOT
ATOM      1  C   UNL     1       8.913  77.523  -1.296  1.00  0.00     0.163 A 
ATOM      2  C   UNL     1       9.110  78.766  -0.668  1.00  0.00     0.079 A 
ATOM      3  C   UNL     1      10.330  79.435  -0.786  1.00  0.00     0.080 A 
ATOM      4  C   UNL     1      11.376  78.879  -1.552  1.00  0.00     0.047 A 
ATOM      5  C   UNL     1      11.184  77.630  -2.168  1.00  0.00     0.064 A 
ATOM      6  C   UNL     1       9.953  76.954  -2.048  1.00  0.00     0.162 A 
ATOM      7  C   UNL     1      12.588  79.599  -1.638  1.00  0.00     0.141 A 
ATOM      8  N   UNL     1      12.703  80.787  -0.983  1.00  0.00    -0.219 NA
ATOM      9  C   UNL     1      11.684  81.295  -0.246  1.00  0.00     0.224 A 
ATOM     10  N   UNL     1      10.509  80.624  -0.155  1.00  0.00    -0.236 NA
ENDROOT
BRANCH   1  11
ATOM     11  O   UNL     1       7.701  76.816  -1.207  1.00  0.00    -0.487 OA
BRANCH  11  12
ATOM     12  C   UNL     1       7.256  76.061  -0.080  1.00  0.00     0.258 C 
BRANCH  12  13
ATOM     13  C   UNL     1       6.028  76.711   0.556  1.00  0.00     0.201 C 
BRANCH  13  14
ATOM     14  O   UNL     1       6.448  77.776   1.383  1.00  0.00    -0.381 OA
ATOM     15  C   UNL     1       5.728  78.941   1.044  1.00  0.00     0.195 C 
ENDBRANCH  13  14
ENDBRANCH  12  13
ENDBRANCH  11  12
ENDBRANCH   1  11
BRANCH   6  16
ATOM     16  O   UNL     1       9.725  75.709  -2.656  1.00  0.00    -0.487 OA
BRANCH  16  17
ATOM     17  C   UNL     1      10.051  74.449  -2.075  1.00  0.00     0.258 C 
BRANCH  17  18
ATOM     18  C   UNL     1       8.963  73.436  -2.405  1.00  0.00     0.201 C 
BRANCH  18  19
ATOM     19  O   UNL     1       9.334  72.170  -1.902  1.00  0.00    -0.381 OA
ATOM     20  C   UNL     1      10.476  71.711  -2.589  1.00  0.00     0.195 C 
ENDBRANCH  18  19
ENDBRANCH  17  18
ENDBRANCH  16  17
ENDBRANCH   6  16
BRANCH   7  21
ATOM     21  N   UNL     1      13.682  79.138  -2.449  1.00  0.00    -0.340 N 
ATOM     22  H   UNL     1      14.063  78.181  -2.269  1.00  0.00     0.168 HD
BRANCH  21  23
ATOM     23  C   UNL     1      14.161  79.845  -3.607  1.00  0.00     0.041 A 
ATOM     24  C   UNL     1      15.544  79.991  -3.805  1.00  0.00     0.043 A 
ATOM     25  C   UNL     1      13.272  80.439  -4.521  1.00  0.00     0.026 A 
ATOM     26  C   UNL     1      16.032  80.693  -4.914  1.00  0.00     0.026 A 
ATOM     27  C   UNL     1      13.761  81.140  -5.628  1.00  0.00     0.003 A 
ATOM     28  C   UNL     1      15.137  81.265  -5.827  1.00  0.00     0.017 A 
BRANCH  26  29
ATOM     29  C   UNL     1      17.452  80.829  -5.115  1.00  0.00    -0.070 C 
ATOM     30  C   UNL     1      18.640  80.943  -5.285  1.00  0.00     0.010 C 
ENDBRANCH  26  29
ENDBRANCH  21  23
ENDBRANCH   7  21
TORSDOF 11
ENDMDL
MODEL 6
REMARK VINA RESULT:    -7.882      1.571      3.868
REMARK INTER + INTRA:         -14.188
REMARK INTER:                 -13.237
REMARK INTRA:                  -0.951
REMARK UNBOUND:                -1.238
REMARK SMILES C#Cc1cccc(Nc2ncnc3cc(OCCOC)c(OCCOC)cc23)c1
REMARK SMILES IDX 15 1 14 2 13 3 28 4 27 5 21 6 9 7 10 8 11 9 12 10 16 11
REMARK SMILES IDX 17 12 18 13 19 14 20 15 22 16 23 17 24 18 25 19 26 20 8 21
REMARK SMILES IDX 7 23 29 24 6 25 3 26 5 27 4 28 2 29 1 30
REMARK H PARENT 8 22
REMARK Flexibility Score: inf
ROOT
ATOM      1  C   UNL     1      12.424  79.635  -0.882  1.00  0.00     0.163 A 
ATOM      2  C   UNL     1      11.398  80.472  -1.357  1.00  0.00     0.079 A 
ATOM      3  C   UNL     1      10.111  79.970  -1.563  1.00  0.00     0.080 A 
ATOM      4  C   UNL     1       9.821  78.618  -1.283  1.00  0.00     0.047 A 
ATOM      5  C   UNL     1      10.851  77.778  -0.821  1.00  0.00     0.064 A 
ATOM      6  C   UNL     1      12.149  78.285  -0.614  1.00  0.00     0.162 A 
ATOM      7  C   UNL     1       8.503  78.164  -1.510  1.00  0.00     0.141 A 
ATOM      8  N   UNL     1       7.574  79.035  -1.989  1.00  0.00    -0.219 NA
ATOM      9  C   UNL     1       7.882  80.328  -2.259  1.00  0.00     0.224 A 
ATOM     10  N   UNL     1       9.139  80.788  -2.042  1.00  0.00    -0.236 NA
ENDROOT
BRANCH   1  11
ATOM     11  O   UNL     1      13.732  80.098  -0.655  1.00  0.00    -0.487 OA
BRANCH  11  12
ATOM     12  C   UNL     1      14.768  80.185  -1.635  1.00  0.00     0.258 C 
BRANCH  12  13
ATOM     13  C   UNL     1      14.365  79.458  -2.916  1.00  0.00     0.201 C 
BRANCH  13  14
ATOM     14  O   UNL     1      14.280  80.394  -3.970  1.00  0.00    -0.381 OA
ATOM     15  C   UNL     1      15.189  80.035  -4.986  1.00  0.00     0.195 C 
ENDBRANCH  13  14
ENDBRANCH  12  13
ENDBRANCH  11  12
ENDBRANCH   1  11
BRANCH   6  16
ATOM     16  O   UNL     1      13.198  77.477  -0.148  1.00  0.00    -0.487 OA
BRANCH  16  17
ATOM     17  C   UNL     1      13.588  77.359   1.219  1.00  0.00     0.258 C 
BRANCH  17  18
ATOM     18  C   UNL     1      13.998  75.923   1.512  1.00  0.00     0.201 C 
BRANCH  18  19
ATOM     19  O   UNL     1      15.408  75.830   1.516  1.00  0.00    -0.381 OA
ATOM     20  C   UNL     1      15.786  74.493   1.749  1.00  0.00     0.195 C 
ENDBRANCH  18  19
ENDBRANCH  17  18
ENDBRANCH  16  17
ENDBRANCH   6  16
BRANCH   7  21
ATOM     21  N   UNL     1       8.104  76.820  -1.189  1.00  0.00    -0.340 N 
ATOM     22  H   UNL     1       7.634  76.648  -0.271  1.00  0.00     0.168 HD
BRANCH  21  23
ATOM     23  C   UNL     1       8.154  75.734  -2.131  1.00  0.00     0.041 A 
ATOM     24  C   UNL     1       8.954  74.613  -1.854  1.00  0.00     0.043 A 
ATOM     25  C   UNL     1       7.458  75.793  -3.352  1.00  0.00     0.026 A 
ATOM     26  C   UNL     1       9.032  73.554  -2.767  1.00  0.00     0.026 A 
ATOM     27  C   UNL     1       7.537  74.735  -4.263  1.00  0.00     0.003 A 
ATOM     28  C   UNL     1       8.320  73.615  -3.970  1.00  0.00     0.017 A 
BRANCH  26  29
ATOM     29  C   UNL     1       9.847  72.404  -2.469  1.00  0.00    -0.070 C 
ATOM     30  C   UNL     1      10.528  71.441  -2.219  1.00  0.00     0.010 C 
ENDBRANCH  26  29
ENDBRANCH  21  23
ENDBRANCH   7  21
TORSDOF 11
ENDMDL
MODEL 7
REMARK VINA RESULT:    -7.700      1.516      1.937
REMARK INTER + INTRA:         -13.889
REMARK INTER:                 -12.673
REMARK INTRA:                  -1.216
REMARK UNBOUND:                -1.238
REMARK SMILES C#Cc1cccc(Nc2ncnc3cc(OCCOC)c(OCCOC)cc23)c1
REMARK SMILES IDX 15 1 14 2 13 3 28 4 27 5 21 6 9 7 10 8 11 9 12 10 16 11
REMARK SMILES IDX 17 12 18 13 19 14 20 15 22 16 23 17 24 18 25 19 26 20 8 21
REMARK SMILES IDX 7 23 29 24 6 25 3 26 5 27 4 28 2 29 1 30
REMARK H PARENT 8 22
REMARK Flexibility Score: inf
ROOT
ATOM      1  C   UNL     1      10.104  80.446  -0.751  1.00  0.00     0.163 A 
ATOM      2  C   UNL     1       9.030  80.032   0.058  1.00  0.00     0.079 A 
ATOM      3  C   UNL     1       8.298  78.887  -0.267  1.00  0.00     0.080 A 
ATOM      4  C   UNL     1       8.638  78.123  -1.403  1.00  0.00     0.047 A 
ATOM      5  C   UNL     1       9.703  78.546  -2.219  1.00  0.00     0.064 A 
ATOM      6  C   UNL     1      10.441  79.701  -1.892  1.00  0.00     0.162 A 
ATOM      7  C   UNL     1       7.864  76.975  -1.683  1.00  0.00     0.141 A 
ATOM      8  N   UNL     1       6.829  76.655  -0.860  1.00  0.00    -0.219 NA
ATOM      9  C   UNL     1       6.518  77.412   0.222  1.00  0.00     0.224 A 
ATOM     10  N   UNL     1       7.251  78.515   0.514  1.00  0.00    -0.236 NA
ENDROOT
BRANCH   1  11
ATOM     11  O   UNL     1      10.871  81.588  -0.461  1.00  0.00    -0.487 OA
BRANCH  11  12
ATOM     12  C   UNL     1      11.646  81.795   0.721  1.00  0.00     0.258 C 
BRANCH  12  13
ATOM     13  C   UNL     1      12.227  80.476   1.226  1.00  0.00     0.201 C 
BRANCH  13  14
ATOM     14  O   UNL     1      13.453  80.231   0.571  1.00  0.00    -0.381 OA
ATOM     15  C   UNL     1      13.684  78.841   0.517  1.00  0.00     0.195 C 
ENDBRANCH  13  14
ENDBRANCH  12  13
ENDBRANCH  11  12
ENDBRANCH   1  11
BRANCH   6  16
ATOM     16  O   UNL     1      11.514  80.146  -2.680  1.00  0.00    -0.487 OA
BRANCH  16  17
ATOM     17  C   UNL     1      12.483  79.297  -3.289  1.00  0.00     0.258 C 
BRANCH  17  18
ATOM     18  C   UNL     1      13.272  80.082  -4.327  1.00  0.00     0.201 C 
BRANCH  18  19
ATOM     19  O   UNL     1      14.646  79.782  -4.195  1.00  0.00    -0.381 OA
ATOM     20  C   UNL     1      14.974  79.688  -2.827  1.00  0.00     0.195 C 
ENDBRANCH  18  19
ENDBRANCH  17  18
ENDBRANCH  16  17
ENDBRANCH   6  16
BRANCH   7  21
ATOM     21  N   UNL     1       8.181  76.104  -2.782  1.00  0.00    -0.340 N 
ATOM     22  H   UNL     1       8.004  76.447  -3.754  1.00  0.00     0.168 HD
BRANCH  21  23
ATOM     23  C   UNL     1       8.892  74.863  -2.628  1.00  0.00     0.041 A 
ATOM     24  C   UNL     1       8.865  73.916  -3.665  1.00  0.00     0.043 A 
ATOM     25  C   UNL     1       9.573  74.553  -1.436  1.00  0.00     0.026 A 
ATOM     26  C   UNL     1       9.533  72.693  -3.528  1.00  0.00     0.026 A 
ATOM     27  C   UNL     1      10.239  73.332  -1.301  1.00  0.00     0.003 A 
ATOM     28  C   UNL     1      10.224  72.404  -2.345  1.00  0.00     0.017 A 
BRANCH  26  29
ATOM     29  C   UNL     1       9.509  71.733  -4.601  1.00  0.00    -0.070 C 
ATOM     30  C   UNL     1       9.488  70.929  -5.500  1.00  0.00     0.010 C 
ENDBRANCH  26  29
ENDBRANCH  21  23
ENDBRANCH   7  21
TORSDOF 11
ENDMDL
MODEL 8
REMARK VINA RESULT:    -7.636      3.608      8.303
REMARK INTER + INTRA:         -13.783
REMARK INTER:                 -12.768
REMARK INTRA:                  -1.016
REMARK UNBOUND:                -1.238
REMARK SMILES C#Cc1cccc(Nc2ncnc3cc(OCCOC)c(OCCOC)cc23)c1
REMARK SMILES IDX 15 1 14 2 13 3 28 4 27 5 21 6 9 7 10 8 11 9 12 10 16 11
REMARK SMILES IDX 17 12 18 13 19 14 20 15 22 16 23 17 24 18 25 19 26 20 8 21
REMARK SMILES IDX 7 23 29 24 6 25 3 26 5 27 4 28 2 29 1 30
REMARK H PARENT 8 22
REMARK Flexibility Score: inf
ROOT
ATOM      1  C   UNL     1      11.171  78.585  -2.006  1.00  0.00     0.163 A 
ATOM      2  C   UNL     1      11.730  77.600  -2.841  1.00  0.00     0.079 A 
ATOM      3  C   UNL     1      12.734  77.931  -3.754  1.00  0.00     0.080 A 
ATOM      4  C   UNL     1      13.212  79.256  -3.838  1.00  0.00     0.047 A 
ATOM      5  C   UNL     1      12.643  80.242  -3.012  1.00  0.00     0.064 A 
ATOM      6  C   UNL     1      11.629  79.909  -2.092  1.00  0.00     0.162 A 
ATOM      7  C   UNL     1      14.229  79.534  -4.778  1.00  0.00     0.141 A 
ATOM      8  N   UNL     1      14.701  78.527  -5.562  1.00  0.00    -0.219 NA
ATOM      9  C   UNL     1      14.218  77.263  -5.467  1.00  0.00     0.224 A 
ATOM     10  N   UNL     1      13.246  76.972  -4.567  1.00  0.00    -0.236 NA
ENDROOT
BRANCH   1  11
ATOM     11  O   UNL     1      10.162  78.297  -1.071  1.00  0.00    -0.487 OA
BRANCH  11  12
ATOM     12  C   UNL     1       8.934  77.622  -1.348  1.00  0.00     0.258 C 
BRANCH  12  13
ATOM     13  C   UNL     1       7.780  78.255  -0.572  1.00  0.00     0.201 C 
BRANCH  13  14
ATOM     14  O   UNL     1       7.365  77.365   0.442  1.00  0.00    -0.381 OA
ATOM     15  C   UNL     1       7.706  76.047   0.074  1.00  0.00     0.195 C 
ENDBRANCH  13  14
ENDBRANCH  12  13
ENDBRANCH  11  12
ENDBRANCH   1  11
BRANCH   6  16
ATOM     16  O   UNL     1      11.045  80.867  -1.248  1.00  0.00    -0.487 OA
BRANCH  16  17
ATOM     17  C   UNL     1      11.733  81.567  -0.214  1.00  0.00     0.258 C 
BRANCH  17  18
ATOM     18  C   UNL     1      11.977  80.633   0.962  1.00  0.00     0.201 C 
BRANCH  18  19
ATOM     19  O   UNL     1      13.336  80.249   0.982  1.00  0.00    -0.381 OA
ATOM     20  C   UNL     1      13.424  78.843   1.004  1.00  0.00     0.195 C 
ENDBRANCH  18  19
ENDBRANCH  17  18
ENDBRANCH  16  17
ENDBRANCH   6  16
BRANCH   7  21
ATOM     21  N   UNL     1      14.819  80.841  -4.884  1.00  0.00    -0.340 N 
ATOM     22  H   UNL     1      14.420  81.613  -4.303  1.00  0.00     0.168 HD
BRANCH  21  23
ATOM     23  C   UNL     1      16.035  81.103  -5.606  1.00  0.00     0.041 A 
ATOM     24  C   UNL     1      17.216  81.374  -4.896  1.00  0.00     0.043 A 
ATOM     25  C   UNL     1      16.056  81.147  -7.012  1.00  0.00     0.026 A 
ATOM     26  C   UNL     1      18.407  81.652  -5.579  1.00  0.00     0.026 A 
ATOM     27  C   UNL     1      17.245  81.425  -7.692  1.00  0.00     0.003 A 
ATOM     28  C   UNL     1      18.420  81.674  -6.979  1.00  0.00     0.017 A 
BRANCH  26  29
ATOM     29  C   UNL     1      19.617  81.917  -4.843  1.00  0.00    -0.070 C 
ATOM     30  C   UNL     1      20.630  82.140  -4.228  1.00  0.00     0.010 C 
ENDBRANCH  26  29
ENDBRANCH  21  23
ENDBRANCH   7  21
TORSDOF 11
ENDMDL
MODEL 9
REMARK VINA RESULT:    -7.616      3.266      6.943
REMARK INTER + INTRA:         -13.751
REMARK INTER:                 -12.744
REMARK INTRA:                  -1.007
REMARK UNBOUND:                -1.238
REMARK SMILES C#Cc1cccc(Nc2ncnc3cc(OCCOC)c(OCCOC)cc23)c1
REMARK SMILES IDX 15 1 14 2 13 3 28 4 27 5 21 6 9 7 10 8 11 9 12 10 16 11
REMARK SMILES IDX 17 12 18 13 19 14 20 15 22 16 23 17 24 18 25 19 26 20 8 21
REMARK SMILES IDX 7 23 29 24 6 25 3 26 5 27 4 28 2 29 1 30
REMARK H PARENT 8 22
REMARK Flexibility Score: inf
ROOT
ATOM      1  C   UNL     1       8.093  75.862  -2.226  1.00  0.00     0.163 A 
ATOM      2  C   UNL     1       7.511  77.141  -2.161  1.00  0.00     0.079 A 
ATOM      3  C   UNL     1       8.310  78.286  -2.209  1.00  0.00     0.080 A 
ATOM      4  C   UNL     1       9.710  78.173  -2.341  1.00  0.00     0.047 A 
ATOM      5  C   UNL     1      10.291  76.894  -2.392  1.00  0.00     0.064 A 
ATOM      6  C   UNL     1       9.486  75.739  -2.342  1.00  0.00     0.162 A 
ATOM      7  C   UNL     1      10.468  79.364  -2.386  1.00  0.00     0.141 A 
ATOM      8  N   UNL     1       9.828  80.563  -2.297  1.00  0.00    -0.219 NA
ATOM      9  C   UNL     1       8.481  80.643  -2.162  1.00  0.00     0.224 A 
ATOM     10  N   UNL     1       7.732  79.512  -2.123  1.00  0.00    -0.236 NA
ENDROOT
BRANCH   1  11
ATOM     11  O   UNL     1       7.329  74.682  -2.184  1.00  0.00    -0.487 OA
BRANCH  11  12
ATOM     12  C   UNL     1       6.097  74.510  -1.482  1.00  0.00     0.258 C 
BRANCH  12  13
ATOM     13  C   UNL     1       6.280  74.787   0.009  1.00  0.00     0.201 C 
BRANCH  13  14
ATOM     14  O   UNL     1       5.371  75.791   0.406  1.00  0.00    -0.381 OA
ATOM     15  C   UNL     1       6.080  76.850   1.012  1.00  0.00     0.195 C 
ENDBRANCH  13  14
ENDBRANCH  12  13
ENDBRANCH  11  12
ENDBRANCH   1  11
BRANCH   6  16
ATOM     16  O   UNL     1      10.033  74.447  -2.398  1.00  0.00    -0.487 OA
BRANCH  16  17
ATOM     17  C   UNL     1      10.394  73.768  -3.599  1.00  0.00     0.258 C 
BRANCH  17  18
ATOM     18  C   UNL     1       9.542  72.516  -3.755  1.00  0.00     0.201 C 
BRANCH  18  19
ATOM     19  O   UNL     1      10.351  71.374  -3.572  1.00  0.00    -0.381 OA
ATOM     20  C   UNL     1      10.110  70.830  -2.294  1.00  0.00     0.195 C 
ENDBRANCH  18  19
ENDBRANCH  17  18
ENDBRANCH  16  17
ENDBRANCH   6  16
BRANCH   7  21
ATOM     21  N   UNL     1      11.892  79.343  -2.584  1.00  0.00    -0.340 N 
ATOM     22  H   UNL     1      12.259  79.485  -3.553  1.00  0.00     0.168 HD
BRANCH  21  23
ATOM     23  C   UNL     1      12.841  79.317  -1.504  1.00  0.00     0.041 A 
ATOM     24  C   UNL     1      12.998  78.144  -0.749  1.00  0.00     0.043 A 
ATOM     25  C   UNL     1      13.580  80.462  -1.152  1.00  0.00     0.026 A 
ATOM     26  C   UNL     1      13.902  78.103   0.320  1.00  0.00     0.026 A 
ATOM     27  C   UNL     1      14.481  80.420  -0.084  1.00  0.00     0.003 A 
ATOM     28  C   UNL     1      14.646  79.243   0.649  1.00  0.00     0.017 A 
BRANCH  26  29
ATOM     29  C   UNL     1      14.065  76.891   1.082  1.00  0.00    -0.070 C 
ATOM     30  C   UNL     1      14.203  75.877   1.719  1.00  0.00     0.010 C 
ENDBRANCH  26  29
ENDBRANCH  21  23
ENDBRANCH   7  21
TORSDOF 11
ENDMDL
MODEL 10
REMARK VINA RESULT:    -7.583      2.680      6.366
REMARK INTER + INTRA:         -13.696
REMARK INTER:                 -13.585
REMARK INTRA:                  -0.111
REMARK UNBOUND:                -1.238
REMARK SMILES C#Cc1cccc(Nc2ncnc3cc(OCCOC)c(OCCOC)cc23)c1
REMARK SMILES IDX 15 1 14 2 13 3 28 4 27 5 21 6 9 7 10 8 11 9 12 10 16 11
REMARK SMILES IDX 17 12 18 13 19 14 20 15 22 16 23 17 24 18 25 19 26 20 8 21
REMARK SMILES IDX 7 23 29 24 6 25 3 26 5 27 4 28 2 29 1 30
REMARK H PARENT 8 22
REMARK Flexibility Score: inf
ROOT
ATOM      1  C   UNL     1       9.408  74.926  -2.575  1.00  0.00     0.163 A 
ATOM      2  C   UNL     1       8.283  74.362  -1.945  1.00  0.00     0.079 A 
ATOM      3  C   UNL     1       7.489  75.130  -1.091  1.00  0.00     0.080 A 
ATOM      4  C   UNL     1       7.797  76.488  -0.862  1.00  0.00     0.047 A 
ATOM      5  C   UNL     1       8.929  77.047  -1.481  1.00  0.00     0.064 A 
ATOM      6  C   UNL     1       9.730  76.272  -2.342  1.00  0.00     0.162 A 
ATOM      7  C   UNL     1       6.960  77.218   0.011  1.00  0.00     0.141 A 
ATOM      8  N   UNL     1       5.902  76.591   0.596  1.00  0.00    -0.219 NA
ATOM      9  C   UNL     1       5.634  75.281   0.365  1.00  0.00     0.224 A 
ATOM     10  N   UNL     1       6.421  74.563  -0.474  1.00  0.00    -0.236 NA
ENDROOT
BRANCH   1  11
ATOM     11  O   UNL     1      10.233  74.192  -3.446  1.00  0.00    -0.487 OA
BRANCH  11  12
ATOM     12  C   UNL     1      10.634  72.833  -3.267  1.00  0.00     0.258 C 
BRANCH  12  13
ATOM     13  C   UNL     1       9.906  71.920  -4.251  1.00  0.00     0.201 C 
BRANCH  13  14
ATOM     14  O   UNL     1       9.775  70.636  -3.677  1.00  0.00    -0.381 OA
ATOM     15  C   UNL     1      10.131  70.696  -2.314  1.00  0.00     0.195 C 
ENDBRANCH  13  14
ENDBRANCH  12  13
ENDBRANCH  11  12
ENDBRANCH   1  11
BRANCH   6  16
ATOM     16  O   UNL     1      10.862  76.801  -2.982  1.00  0.00    -0.487 OA
BRANCH  16  17
ATOM     17  C   UNL     1      11.751  77.755  -2.406  1.00  0.00     0.258 C 
BRANCH  17  18
ATOM     18  C   UNL     1      12.750  78.224  -3.455  1.00  0.00     0.201 C 
BRANCH  18  19
ATOM     19  O   UNL     1      12.554  79.600  -3.705  1.00  0.00    -0.381 OA
ATOM     20  C   UNL     1      13.776  80.181  -4.101  1.00  0.00     0.195 C 
ENDBRANCH  18  19
ENDBRANCH  17  18
ENDBRANCH  16  17
ENDBRANCH   6  16
BRANCH   7  21
ATOM     21  N   UNL     1       7.161  78.622   0.249  1.00  0.00    -0.340 N 
ATOM     22  H   UNL     1       6.830  79.023   1.156  1.00  0.00     0.168 HD
BRANCH  21  23
ATOM     23  C   UNL     1       7.949  79.465  -0.610  1.00  0.00     0.041 A 
ATOM     24  C   UNL     1       9.265  79.789  -0.243  1.00  0.00     0.043 A 
ATOM     25  C   UNL     1       7.410  80.017  -1.787  1.00  0.00     0.026 A 
ATOM     26  C   UNL     1      10.043  80.624  -1.055  1.00  0.00     0.026 A 
ATOM     27  C   UNL     1       8.187  80.851  -2.595  1.00  0.00     0.003 A 
ATOM     28  C   UNL     1       9.502  81.153  -2.233  1.00  0.00     0.017 A 
BRANCH  26  29
ATOM     29  C   UNL     1      11.395  80.943  -0.676  1.00  0.00    -0.070 C 
ATOM     30  C   UNL     1      12.528  81.210  -0.359  1.00  0.00     0.010 C 
ENDBRANCH  26  29
ENDBRANCH  21  23
ENDBRANCH   7  21
TORSDOF 11
ENDMDL
MODEL 11
REMARK VINA RESULT:    -7.554      1.832      4.014
REMARK INTER + INTRA:         -13.650
REMARK INTER:                 -12.503
REMARK INTRA:                  -1.147
REMARK UNBOUND:                -1.238
REMARK SMILES C#Cc1cccc(Nc2ncnc3cc(OCCOC)c(OCCOC)cc23)c1
REMARK SMILES IDX 15 1 14 2 13 3 28 4 27 5 21 6 9 7 10 8 11 9 12 10 16 11
REMARK SMILES IDX 17 12 18 13 19 14 20 15 22 16 23 17 24 18 25 19 26 20 8 21
REMARK SMILES IDX 7 23 29 24 6 25 3 26 5 27 4 28 2 29 1 30
REMARK H PARENT 8 22
REMARK Flexibility Score: inf
ROOT
ATOM      1  C   UNL     1      11.826  79.090  -0.862  1.00  0.00     0.163 A 
ATOM      2  C   UNL     1      10.560  79.214  -1.464  1.00  0.00     0.079 A 
ATOM      3  C   UNL     1       9.764  78.088  -1.681  1.00  0.00     0.080 A 
ATOM      4  C   UNL     1      10.213  76.811  -1.284  1.00  0.00     0.047 A 
ATOM      5  C   UNL     1      11.484  76.685  -0.695  1.00  0.00     0.064 A 
ATOM      6  C   UNL     1      12.288  77.821  -0.477  1.00  0.00     0.162 A 
ATOM      7  C   UNL     1       9.366  75.707  -1.527  1.00  0.00     0.141 A 
ATOM      8  N   UNL     1       8.165  75.912  -2.132  1.00  0.00    -0.219 NA
ATOM      9  C   UNL     1       7.761  77.150  -2.512  1.00  0.00     0.224 A 
ATOM     10  N   UNL     1       8.554  78.225  -2.283  1.00  0.00    -0.236 NA
ENDROOT
BRANCH   1  11
ATOM     11  O   UNL     1      12.660  80.195  -0.621  1.00  0.00    -0.487 OA
BRANCH  11  12
ATOM     12  C   UNL     1      13.464  80.862  -1.595  1.00  0.00     0.258 C 
BRANCH  12  13
ATOM     13  C   UNL     1      14.047  79.863  -2.592  1.00  0.00     0.201 C 
BRANCH  13  14
ATOM     14  O   UNL     1      13.363  79.987  -3.821  1.00  0.00    -0.381 OA
ATOM     15  C   UNL     1      13.895  79.066  -4.746  1.00  0.00     0.195 C 
ENDBRANCH  13  14
ENDBRANCH  12  13
ENDBRANCH  11  12
ENDBRANCH   1  11
BRANCH   6  16
ATOM     16  O   UNL     1      13.558  77.732   0.115  1.00  0.00    -0.487 OA
BRANCH  16  17
ATOM     17  C   UNL     1      13.799  77.372   1.473  1.00  0.00     0.258 C 
BRANCH  17  18
ATOM     18  C   UNL     1      14.058  75.875   1.567  1.00  0.00     0.201 C 
BRANCH  18  19
ATOM     19  O   UNL     1      15.397  75.655   1.959  1.00  0.00    -0.381 OA
ATOM     20  C   UNL     1      15.824  74.401   1.478  1.00  0.00     0.195 C 
ENDBRANCH  18  19
ENDBRANCH  17  18
ENDBRANCH  16  17
ENDBRANCH   6  16
BRANCH   7  21
ATOM     21  N   UNL     1       9.716  74.380  -1.095  1.00  0.00    -0.340 N 
ATOM     22  H   UNL     1       9.650  74.157  -0.076  1.00  0.00     0.168 HD
BRANCH  21  23
ATOM     23  C   UNL     1       9.979  73.296  -2.004  1.00  0.00     0.041 A 
ATOM     24  C   UNL     1      10.747  73.530  -3.156  1.00  0.00     0.043 A 
ATOM     25  C   UNL     1       9.437  72.016  -1.791  1.00  0.00     0.026 A 
ATOM     26  C   UNL     1      10.998  72.494  -4.064  1.00  0.00     0.026 A 
ATOM     27  C   UNL     1       9.687  70.982  -2.698  1.00  0.00     0.003 A 
ATOM     28  C   UNL     1      10.469  71.218  -3.832  1.00  0.00     0.017 A 
BRANCH  26  29
ATOM     29  C   UNL     1      11.796  72.740  -5.238  1.00  0.00    -0.070 C 
ATOM     30  C   UNL     1      12.463  72.945  -6.221  1.00  0.00     0.010 C 
ENDBRANCH  26  29
ENDBRANCH  21  23
ENDBRANCH   7  21
TORSDOF 11
ENDMDL
MODEL 12
REMARK VINA RESULT:    -7.458      2.013      3.187
REMARK INTER + INTRA:         -13.492
REMARK INTER:                 -12.407
REMARK INTRA:                  -1.085
REMARK UNBOUND:                -1.238
REMARK SMILES C#Cc1cccc(Nc2ncnc3cc(OCCOC)c(OCCOC)cc23)c1
REMARK SMILES IDX 15 1 14 2 13 3 28 4 27 5 21 6 9 7 10 8 11 9 12 10 16 11
REMARK SMILES IDX 17 12 18 13 19 14 20 15 22 16 23 17 24 18 25 19 26 20 8 21
REMARK SMILES IDX 7 23 29 24 6 25 3 26 5 27 4 28 2 29 1 30
REMARK H PARENT 8 22
REMARK Flexibility Score: inf
ROOT
ATOM      1  C   UNL     1      13.081  79.981  -3.244  1.00  0.00     0.163 A 
ATOM      2  C   UNL     1      12.073  80.670  -2.545  1.00  0.00     0.079 A 
ATOM      3  C   UNL     1      11.029  79.970  -1.934  1.00  0.00     0.080 A 
ATOM      4  C   UNL     1      10.983  78.562  -1.998  1.00  0.00     0.047 A 
ATOM      5  C   UNL     1      11.983  77.875  -2.708  1.00  0.00     0.064 A 
ATOM      6  C   UNL     1      13.036  78.580  -3.325  1.00  0.00     0.162 A 
ATOM      7  C   UNL     1       9.905  77.906  -1.361  1.00  0.00     0.141 A 
ATOM      8  N   UNL     1       8.960  78.649  -0.723  1.00  0.00    -0.219 NA
ATOM      9  C   UNL     1       9.024  80.004  -0.684  1.00  0.00     0.224 A 
ATOM     10  N   UNL     1      10.053  80.654  -1.282  1.00  0.00    -0.236 NA
ENDROOT
BRANCH   1  11
ATOM     11  O   UNL     1      14.152  80.642  -3.870  1.00  0.00    -0.487 OA
BRANCH  11  12
ATOM     12  C   UNL     1      14.115  81.256  -5.159  1.00  0.00     0.258 C 
BRANCH  12  13
ATOM     13  C   UNL     1      15.528  81.512  -5.679  1.00  0.00     0.201 C 
BRANCH  13  14
ATOM     14  O   UNL     1      16.459  80.975  -4.764  1.00  0.00    -0.381 OA
ATOM     15  C   UNL     1      17.766  81.300  -5.182  1.00  0.00     0.195 C 
ENDBRANCH  13  14
ENDBRANCH  12  13
ENDBRANCH  11  12
ENDBRANCH   1  11
BRANCH   6  16
ATOM     16  O   UNL     1      14.054  77.926  -4.036  1.00  0.00    -0.487 OA
BRANCH  16  17
ATOM     17  C   UNL     1      13.890  77.314  -5.313  1.00  0.00     0.258 C 
BRANCH  17  18
ATOM     18  C   UNL     1      14.650  78.111  -6.364  1.00  0.00     0.201 C 
BRANCH  18  19
ATOM     19  O   UNL     1      15.826  77.415  -6.719  1.00  0.00    -0.381 OA
ATOM     20  C   UNL     1      16.830  78.342  -7.065  1.00  0.00     0.195 C 
ENDBRANCH  18  19
ENDBRANCH  17  18
ENDBRANCH  16  17
ENDBRANCH   6  16
BRANCH   7  21
ATOM     21  N   UNL     1       9.815  76.472  -1.320  1.00  0.00    -0.340 N 
ATOM     22  H   UNL     1      10.181  75.976  -0.475  1.00  0.00     0.168 HD
BRANCH  21  23
ATOM     23  C   UNL     1       9.091  75.697  -2.292  1.00  0.00     0.041 A 
ATOM     24  C   UNL     1       9.557  74.419  -2.644  1.00  0.00     0.043 A 
ATOM     25  C   UNL     1       7.953  76.213  -2.938  1.00  0.00     0.026 A 
ATOM     26  C   UNL     1       8.878  73.656  -3.602  1.00  0.00     0.026 A 
ATOM     27  C   UNL     1       7.277  75.450  -3.895  1.00  0.00     0.003 A 
ATOM     28  C   UNL     1       7.736  74.172  -4.225  1.00  0.00     0.017 A 
BRANCH  26  29
ATOM     29  C   UNL     1       9.357  72.342  -3.949  1.00  0.00    -0.070 C 
ATOM     30  C   UNL     1       9.759  71.243  -4.240  1.00  0.00     0.010 C 
ENDBRANCH  26  29
ENDBRANCH  21  23
ENDBRANCH   7  21
TORSDOF 11
ENDMDL
MODEL 13
REMARK VINA RESULT:    -7.450      3.499      7.751
REMARK INTER + INTRA:         -13.479
REMARK INTER:                 -12.765
REMARK INTRA:                  -0.714
REMARK UNBOUND:                -1.238
REMARK SMILES C#Cc1cccc(Nc2ncnc3cc(OCCOC)c(OCCOC)cc23)c1
REMARK SMILES IDX 15 1 14 2 13 3 28 4 27 5 21 6 9 7 10 8 11 9 12 10 16 11
REMARK SMILES IDX 17 12 18 13 19 14 20 15 22 16 23 17 24 18 25 19 26 20 8 21
REMARK SMILES IDX 7 23 29 24 6 25 3 26 5 27 4 28 2 29 1 30
REMARK H PARENT 8 22
REMARK Flexibility Score: inf
ROOT
ATOM      1  C   UNL     1      11.064  77.044  -0.857  1.00  0.00     0.163 A 
ATOM      2  C   UNL     1      12.205  77.346  -0.090  1.00  0.00     0.079 A 
ATOM      3  C   UNL     1      13.226  78.137  -0.620  1.00  0.00     0.080 A 
ATOM      4  C   UNL     1      13.119  78.658  -1.927  1.00  0.00     0.047 A 
ATOM      5  C   UNL     1      11.985  78.345  -2.697  1.00  0.00     0.064 A 
ATOM      6  C   UNL     1      10.955  77.546  -2.164  1.00  0.00     0.162 A 
ATOM      7  C   UNL     1      14.182  79.453  -2.410  1.00  0.00     0.141 A 
ATOM      8  N   UNL     1      15.259  79.681  -1.610  1.00  0.00    -0.219 NA
ATOM      9  C   UNL     1      15.341  79.160  -0.360  1.00  0.00     0.224 A 
ATOM     10  N   UNL     1      14.329  78.400   0.128  1.00  0.00    -0.236 NA
ENDROOT
BRANCH   1  11
ATOM     11  O   UNL     1      10.010  76.255  -0.364  1.00  0.00    -0.487 OA
BRANCH  11  12
ATOM     12  C   UNL     1      10.037  74.837  -0.198  1.00  0.00     0.258 C 
BRANCH  12  13
ATOM     13  C   UNL     1      10.085  74.133  -1.553  1.00  0.00     0.201 C 
BRANCH  13  14
ATOM     14  O   UNL     1       9.190  73.042  -1.537  1.00  0.00    -0.381 OA
ATOM     15  C   UNL     1       9.679  72.026  -2.385  1.00  0.00     0.195 C 
ENDBRANCH  13  14
ENDBRANCH  12  13
ENDBRANCH  11  12
ENDBRANCH   1  11
BRANCH   6  16
ATOM     16  O   UNL     1       9.807  77.220  -2.903  1.00  0.00    -0.487 OA
BRANCH  16  17
ATOM     17  C   UNL     1       8.492  77.687  -2.610  1.00  0.00     0.258 C 
BRANCH  17  18
ATOM     18  C   UNL     1       7.519  76.516  -2.619  1.00  0.00     0.201 C 
BRANCH  18  19
ATOM     19  O   UNL     1       7.105  76.262  -3.945  1.00  0.00    -0.381 OA
ATOM     20  C   UNL     1       6.918  74.875  -4.118  1.00  0.00     0.195 C 
ENDBRANCH  18  19
ENDBRANCH  17  18
ENDBRANCH  16  17
ENDBRANCH   6  16
BRANCH   7  21
ATOM     21  N   UNL     1      14.126  80.078  -3.705  1.00  0.00    -0.340 N 
ATOM     22  H   UNL     1      13.382  80.792  -3.878  1.00  0.00     0.168 HD
BRANCH  21  23
ATOM     23  C   UNL     1      15.140  79.907  -4.710  1.00  0.00     0.041 A 
ATOM     24  C   UNL     1      16.301  80.696  -4.662  1.00  0.00     0.043 A 
ATOM     25  C   UNL     1      14.971  79.002  -5.773  1.00  0.00     0.026 A 
ATOM     26  C   UNL     1      17.293  80.560  -5.642  1.00  0.00     0.026 A 
ATOM     27  C   UNL     1      15.961  78.868  -6.751  1.00  0.00     0.003 A 
ATOM     28  C   UNL     1      17.122  79.643  -6.685  1.00  0.00     0.017 A 
BRANCH  26  29
ATOM     29  C   UNL     1      18.485  81.366  -5.578  1.00  0.00    -0.070 C 
ATOM     30  C   UNL     1      19.484  82.039  -5.525  1.00  0.00     0.010 C 
ENDBRANCH  26  29
ENDBRANCH  21  23
ENDBRANCH   7  21
TORSDOF 11
ENDMDL
MODEL 14
REMARK VINA RESULT:    -7.410      2.085      4.223
REMARK INTER + INTRA:         -13.412
REMARK INTER:                 -12.473
REMARK INTRA:                  -0.939
REMARK UNBOUND:                -1.238
REMARK SMILES C#Cc1cccc(Nc2ncnc3cc(OCCOC)c(OCCOC)cc23)c1
REMARK SMILES IDX 15 1 14 2 13 3 28 4 27 5 21 6 9 7 10 8 11 9 12 10 16 11
REMARK SMILES IDX 17 12 18 13 19 14 20 15 22 16 23 17 24 18 25 19 26 20 8 21
REMARK SMILES IDX 7 23 29 24 6 25 3 26 5 27 4 28 2 29 1 30
REMARK H PARENT 8 22
REMARK Flexibility Score: inf
ROOT
ATOM      1  C   UNL     1      12.165  79.660  -2.072  1.00  0.00     0.163 A 
ATOM      2  C   UNL     1      11.119  80.459  -2.570  1.00  0.00     0.079 A 
ATOM      3  C   UNL     1       9.799  80.225  -2.177  1.00  0.00     0.080 A 
ATOM      4  C   UNL     1       9.501  79.193  -1.262  1.00  0.00     0.047 A 
ATOM      5  C   UNL     1      10.545  78.386  -0.776  1.00  0.00     0.064 A 
ATOM      6  C   UNL     1      11.876  78.621  -1.173  1.00  0.00     0.162 A 
ATOM      7  C   UNL     1       8.149  79.002  -0.899  1.00  0.00     0.141 A 
ATOM      8  N   UNL     1       7.195  79.807  -1.442  1.00  0.00    -0.219 NA
ATOM      9  C   UNL     1       7.509  80.787  -2.327  1.00  0.00     0.224 A 
ATOM     10  N   UNL     1       8.801  80.993  -2.685  1.00  0.00    -0.236 NA
ENDROOT
BRANCH   1  11
ATOM     11  O   UNL     1      13.508  79.861  -2.437  1.00  0.00    -0.487 OA
BRANCH  11  12
ATOM     12  C   UNL     1      13.967  80.324  -3.708  1.00  0.00     0.258 C 
BRANCH  12  13
ATOM     13  C   UNL     1      15.440  79.974  -3.911  1.00  0.00     0.201 C 
BRANCH  13  14
ATOM     14  O   UNL     1      15.973  80.798  -4.926  1.00  0.00    -0.381 OA
ATOM     15  C   UNL     1      16.930  80.071  -5.663  1.00  0.00     0.195 C 
ENDBRANCH  13  14
ENDBRANCH  12  13
ENDBRANCH  11  12
ENDBRANCH   1  11
BRANCH   6  16
ATOM     16  O   UNL     1      12.942  77.840  -0.702  1.00  0.00    -0.487 OA
BRANCH  16  17
ATOM     17  C   UNL     1      13.470  77.898   0.622  1.00  0.00     0.258 C 
BRANCH  17  18
ATOM     18  C   UNL     1      13.636  76.488   1.170  1.00  0.00     0.201 C 
BRANCH  18  19
ATOM     19  O   UNL     1      14.976  76.296   1.572  1.00  0.00    -0.381 OA
ATOM     20  C   UNL     1      15.251  74.915   1.633  1.00  0.00     0.195 C 
ENDBRANCH  18  19
ENDBRANCH  17  18
ENDBRANCH  16  17
ENDBRANCH   6  16
BRANCH   7  21
ATOM     21  N   UNL     1       7.763  78.018   0.076  1.00  0.00    -0.340 N 
ATOM     22  H   UNL     1       7.657  78.322   1.071  1.00  0.00     0.168 HD
BRANCH  21  23
ATOM     23  C   UNL     1       7.343  76.686  -0.268  1.00  0.00     0.041 A 
ATOM     24  C   UNL     1       8.074  75.954  -1.218  1.00  0.00     0.043 A 
ATOM     25  C   UNL     1       6.183  76.119   0.289  1.00  0.00     0.026 A 
ATOM     26  C   UNL     1       7.671  74.663  -1.582  1.00  0.00     0.026 A 
ATOM     27  C   UNL     1       5.781  74.830  -0.076  1.00  0.00     0.003 A 
ATOM     28  C   UNL     1       6.525  74.101  -1.007  1.00  0.00     0.017 A 
BRANCH  26  29
ATOM     29  C   UNL     1       8.432  73.915  -2.549  1.00  0.00    -0.070 C 
ATOM     30  C   UNL     1       9.071  73.288  -3.358  1.00  0.00     0.010 C 
ENDBRANCH  26  29
ENDBRANCH  21  23
ENDBRANCH   7  21
TORSDOF 11
ENDMDL
MODEL 15
REMARK VINA RESULT:    -7.331      3.489      7.585
REMARK INTER + INTRA:         -13.284
REMARK INTER:                 -12.261
REMARK INTRA:                  -1.022
REMARK UNBOUND:                -1.238
REMARK SMILES C#Cc1cccc(Nc2ncnc3cc(OCCOC)c(OCCOC)cc23)c1
REMARK SMILES IDX 15 1 14 2 13 3 28 4 27 5 21 6 9 7 10 8 11 9 12 10 16 11
REMARK SMILES IDX 17 12 18 13 19 14 20 15 22 16 23 17 24 18 25 19 26 20 8 21
REMARK SMILES IDX 7 23 29 24 6 25 3 26 5 27 4 28 2 29 1 30
REMARK H PARENT 8 22
REMARK Flexibility Score: inf
ROOT
ATOM      1  C   UNL     1      10.295  76.953  -0.780  1.00  0.00     0.163 A 
ATOM      2  C   UNL     1      11.460  76.913   0.009  1.00  0.00     0.079 A 
ATOM      3  C   UNL     1      12.585  77.658  -0.351  1.00  0.00     0.080 A 
ATOM      4  C   UNL     1      12.562  78.473  -1.503  1.00  0.00     0.047 A 
ATOM      5  C   UNL     1      11.402  78.502  -2.298  1.00  0.00     0.064 A 
ATOM      6  C   UNL     1      10.267  77.749  -1.935  1.00  0.00     0.162 A 
ATOM      7  C   UNL     1      13.727  79.205  -1.819  1.00  0.00     0.141 A 
ATOM      8  N   UNL     1      14.819  79.095  -1.013  1.00  0.00    -0.219 NA
ATOM      9  C   UNL     1      14.818  78.297   0.083  1.00  0.00     0.224 A 
ATOM     10  N   UNL     1      13.708  77.590   0.410  1.00  0.00    -0.236 NA
ENDROOT
BRANCH   1  11
ATOM     11  O   UNL     1       9.138  76.224  -0.454  1.00  0.00    -0.487 OA
BRANCH  11  12
ATOM     12  C   UNL     1       8.760  74.965  -1.013  1.00  0.00     0.258 C 
BRANCH  12  13
ATOM     13  C   UNL     1       7.257  74.921  -1.282  1.00  0.00     0.201 C 
BRANCH  13  14
ATOM     14  O   UNL     1       6.604  74.372  -0.157  1.00  0.00    -0.381 OA
ATOM     15  C   UNL     1       5.642  75.288   0.316  1.00  0.00     0.195 C 
ENDBRANCH  13  14
ENDBRANCH  12  13
ENDBRANCH  11  12
ENDBRANCH   1  11
BRANCH   6  16
ATOM     16  O   UNL     1       9.091  77.760  -2.702  1.00  0.00    -0.487 OA
BRANCH  16  17
ATOM     17  C   UNL     1       7.876  78.402  -2.318  1.00  0.00     0.258 C 
BRANCH  17  18
ATOM     18  C   UNL     1       8.135  79.882  -2.072  1.00  0.00     0.201 C 
BRANCH  18  19
ATOM     19  O   UNL     1       8.032  80.152  -0.690  1.00  0.00    -0.381 OA
ATOM     20  C   UNL     1       7.113  79.256  -0.107  1.00  0.00     0.195 C 
ENDBRANCH  18  19
ENDBRANCH  17  18
ENDBRANCH  16  17
ENDBRANCH   6  16
BRANCH   7  21
ATOM     21  N   UNL     1      13.769  80.110  -2.936  1.00  0.00    -0.340 N 
ATOM     22  H   UNL     1      13.270  81.025  -2.851  1.00  0.00     0.168 HD
BRANCH  21  23
ATOM     23  C   UNL     1      14.602  79.905  -4.090  1.00  0.00     0.041 A 
ATOM     24  C   UNL     1      15.831  80.578  -4.184  1.00  0.00     0.043 A 
ATOM     25  C   UNL     1      14.189  79.082  -5.154  1.00  0.00     0.026 A 
ATOM     26  C   UNL     1      16.649  80.408  -5.308  1.00  0.00     0.026 A 
ATOM     27  C   UNL     1      15.006  78.914  -6.275  1.00  0.00     0.003 A 
ATOM     28  C   UNL     1      16.236  79.572  -6.353  1.00  0.00     0.017 A 
BRANCH  26  29
ATOM     29  C   UNL     1      17.913  81.094  -5.392  1.00  0.00    -0.070 C 
ATOM     30  C   UNL     1      18.970  81.670  -5.463  1.00  0.00     0.010 C 
ENDBRANCH  26  29
ENDBRANCH  21  23
ENDBRANCH   7  21
TORSDOF 11
ENDMDL
