MODEL 1
REMARK VINA RESULT:    -8.113      0.000      0.000
REMARK INTER + INTRA:         -12.322
REMARK INTER:                 -11.432
REMARK INTRA:                  -0.890
REMARK UNBOUND:                -0.890
REMARK SMILES CC[N+](C)(CC)CCOC(=O)C1c2ccccc2Oc2ccccc21
REMARK SMILES IDX 8 1 7 2 3 3 4 4 2 5 1 6 5 7 6 8 9 9 10 10 11 11 12 12 13 13
REMARK SMILES IDX 25 14 14 15 18 16 20 17 24 18 15 19 17 20 19 21 21 22 23 23
REMARK SMILES IDX 16 24 22 25
REMARK H PARENT
REMARK Flexibility Score: inf
ROOT
ATOM      1  C   UNL     1      21.122  36.966 -10.230  1.00  0.00     0.294 C 
ENDROOT
BRANCH   1   2
ATOM      2  C   UNL     1      20.652  37.893 -11.370  1.00  0.00     0.305 C 
BRANCH   2   3
ATOM      3  N   UNL     1      21.174  37.557 -12.738  1.00  0.00    -0.324 N 
ATOM      4  C   UNL     1      21.895  38.730 -13.308  1.00  0.00     0.334 C 
BRANCH   3   5
ATOM      5  C   UNL     1      22.106  36.385 -12.635  1.00  0.00     0.260 C 
ATOM      6  C   UNL     1      23.468  36.554 -13.334  1.00  0.00     0.071 C 
ENDBRANCH   3   5
BRANCH   3   7
ATOM      7  C   UNL     1      20.018  37.189 -13.625  1.00  0.00     0.260 C 
ATOM      8  C   UNL     1      20.273  37.322 -15.138  1.00  0.00     0.071 C 
ENDBRANCH   3   7
ENDBRANCH   2   3
ENDBRANCH   1   2
BRANCH   1   9
ATOM      9  O   UNL     1      21.860  37.731  -9.283  1.00  0.00    -0.459 OA
BRANCH   9  10
ATOM     10  C   UNL     1      22.402  37.173  -8.121  1.00  0.00     0.318 C 
ATOM     11  O   UNL     1      21.671  36.533  -7.315  1.00  0.00    -0.251 OA
BRANCH  10  12
ATOM     12  C   UNL     1      23.869  37.340  -7.839  1.00  0.00     0.167 C 
ATOM     13  C   UNL     1      24.071  37.626  -6.365  1.00  0.00     0.014 A 
ATOM     14  C   UNL     1      24.619  36.115  -8.320  1.00  0.00     0.014 A 
ATOM     15  C   UNL     1      23.633  38.847  -5.822  1.00  0.00     0.009 A 
ATOM     16  C   UNL     1      24.641  36.659  -5.514  1.00  0.00     0.131 A 
ATOM     17  C   UNL     1      25.169  35.200  -7.401  1.00  0.00     0.131 A 
ATOM     18  C   UNL     1      24.720  35.851  -9.697  1.00  0.00     0.009 A 
ATOM     19  C   UNL     1      23.754  39.095  -4.453  1.00  0.00     0.001 A 
ATOM     20  C   UNL     1      24.748  36.910  -4.141  1.00  0.00     0.047 A 
ATOM     21  O   UNL     1      25.121  35.454  -6.030  1.00  0.00    -0.457 OA
ATOM     22  C   UNL     1      25.791  34.032  -7.861  1.00  0.00     0.047 A 
ATOM     23  C   UNL     1      25.352  34.689 -10.149  1.00  0.00     0.001 A 
ATOM     24  C   UNL     1      24.306  38.125  -3.612  1.00  0.00     0.004 A 
ATOM     25  C   UNL     1      25.883  33.779  -9.232  1.00  0.00     0.004 A 
ENDBRANCH  10  12
ENDBRANCH   9  10
ENDBRANCH   1   9
TORSDOF 7
ENDMDL
MODEL 2
REMARK VINA RESULT:    -7.929      2.267      3.543
REMARK INTER + INTRA:         -12.064
REMARK INTER:                 -11.335
REMARK INTRA:                  -0.729
REMARK UNBOUND:                -0.890
REMARK SMILES CC[N+](C)(CC)CCOC(=O)C1c2ccccc2Oc2ccccc21
REMARK SMILES IDX 8 1 7 2 3 3 4 4 2 5 1 6 5 7 6 8 9 9 10 10 11 11 12 12 13 13
REMARK SMILES IDX 25 14 14 15 18 16 20 17 24 18 15 19 17 20 19 21 21 22 23 23
REMARK SMILES IDX 16 24 22 25
REMARK H PARENT
REMARK Flexibility Score: inf
ROOT
ATOM      1  C   UNL     1      20.840  38.213  -9.592  1.00  0.00     0.294 C 
ENDROOT
BRANCH   1   2
ATOM      2  C   UNL     1      21.187  39.715  -9.612  1.00  0.00     0.305 C 
BRANCH   2   3
ATOM      3  N   UNL     1      20.448  40.567  -8.619  1.00  0.00    -0.324 N 
ATOM      4  C   UNL     1      20.861  41.991  -8.766  1.00  0.00     0.334 C 
BRANCH   3   5
ATOM      5  C   UNL     1      18.972  40.435  -8.862  1.00  0.00     0.260 C 
ATOM      6  C   UNL     1      18.388  41.374  -9.934  1.00  0.00     0.071 C 
ENDBRANCH   3   5
BRANCH   3   7
ATOM      7  C   UNL     1      20.763  40.085  -7.231  1.00  0.00     0.260 C 
ATOM      8  C   UNL     1      20.138  40.903  -6.086  1.00  0.00     0.071 C 
ENDBRANCH   3   7
ENDBRANCH   2   3
ENDBRANCH   1   2
BRANCH   1   9
ATOM      9  O   UNL     1      22.034  37.461  -9.401  1.00  0.00    -0.459 OA
BRANCH   9  10
ATOM     10  C   UNL     1      22.496  37.090  -8.135  1.00  0.00     0.318 C 
ATOM     11  O   UNL     1      21.703  36.615  -7.275  1.00  0.00    -0.251 OA
BRANCH  10  12
ATOM     12  C   UNL     1      23.953  37.260  -7.804  1.00  0.00     0.167 C 
ATOM     13  C   UNL     1      24.101  37.599  -6.335  1.00  0.00     0.014 A 
ATOM     14  C   UNL     1      24.713  36.015  -8.213  1.00  0.00     0.014 A 
ATOM     15  C   UNL     1      23.651  38.841  -5.854  1.00  0.00     0.009 A 
ATOM     16  C   UNL     1      24.633  36.661  -5.429  1.00  0.00     0.131 A 
ATOM     17  C   UNL     1      25.223  35.131  -7.241  1.00  0.00     0.131 A 
ATOM     18  C   UNL     1      24.863  35.701  -9.574  1.00  0.00     0.009 A 
ATOM     19  C   UNL     1      23.723  39.137  -4.490  1.00  0.00     0.001 A 
ATOM     20  C   UNL     1      24.691  36.960  -4.063  1.00  0.00     0.047 A 
ATOM     21  O   UNL     1      25.125  35.435  -5.882  1.00  0.00    -0.457 OA
ATOM     22  C   UNL     1      25.854  33.945  -7.635  1.00  0.00     0.047 A 
ATOM     23  C   UNL     1      25.504  34.520  -9.960  1.00  0.00     0.001 A 
ATOM     24  C   UNL     1      24.237  38.196  -3.595  1.00  0.00     0.004 A 
ATOM     25  C   UNL     1      25.995  33.641  -8.991  1.00  0.00     0.004 A 
ENDBRANCH  10  12
ENDBRANCH   9  10
ENDBRANCH   1   9
TORSDOF 7
ENDMDL
MODEL 3
REMARK VINA RESULT:    -7.912      3.190      5.422
REMARK INTER + INTRA:         -12.039
REMARK INTER:                 -10.988
REMARK INTRA:                  -1.050
REMARK UNBOUND:                -0.890
REMARK SMILES CC[N+](C)(CC)CCOC(=O)C1c2ccccc2Oc2ccccc21
REMARK SMILES IDX 8 1 7 2 3 3 4 4 2 5 1 6 5 7 6 8 9 9 10 10 11 11 12 12 13 13
REMARK SMILES IDX 25 14 14 15 18 16 20 17 24 18 15 19 17 20 19 21 21 22 23 23
REMARK SMILES IDX 16 24 22 25
REMARK H PARENT
REMARK Flexibility Score: inf
ROOT
ATOM      1  C   UNL     1      20.995  39.761  -6.204  1.00  0.00     0.294 C 
ENDROOT
BRANCH   1   2
ATOM      2  C   UNL     1      20.269  41.120  -6.258  1.00  0.00     0.305 C 
BRANCH   2   3
ATOM      3  N   UNL     1      19.777  41.542  -7.613  1.00  0.00    -0.324 N 
ATOM      4  C   UNL     1      20.863  42.249  -8.349  1.00  0.00     0.334 C 
BRANCH   3   5
ATOM      5  C   UNL     1      19.348  40.325  -8.381  1.00  0.00     0.260 C 
ATOM      6  C   UNL     1      19.651  40.351  -9.891  1.00  0.00     0.071 C 
ENDBRANCH   3   5
BRANCH   3   7
ATOM      7  C   UNL     1      18.597  42.456  -7.442  1.00  0.00     0.260 C 
ATOM      8  C   UNL     1      18.319  42.920  -6.000  1.00  0.00     0.071 C 
ENDBRANCH   3   7
ENDBRANCH   2   3
ENDBRANCH   1   2
BRANCH   1   9
ATOM      9  O   UNL     1      22.396  39.975  -6.343  1.00  0.00    -0.459 OA
BRANCH   9  10
ATOM     10  C   UNL     1      23.235  39.074  -7.005  1.00  0.00     0.318 C 
ATOM     11  O   UNL     1      24.196  39.491  -7.711  1.00  0.00    -0.251 OA
BRANCH  10  12
ATOM     12  C   UNL     1      22.985  37.599  -6.869  1.00  0.00     0.167 C 
ATOM     13  C   UNL     1      22.738  36.999  -8.238  1.00  0.00     0.014 A 
ATOM     14  C   UNL     1      24.141  36.955  -6.132  1.00  0.00     0.014 A 
ATOM     15  C   UNL     1      21.568  37.326  -8.946  1.00  0.00     0.009 A 
ATOM     16  C   UNL     1      23.696  36.161  -8.842  1.00  0.00     0.131 A 
ATOM     17  C   UNL     1      25.051  36.119  -6.808  1.00  0.00     0.131 A 
ATOM     18  C   UNL     1      24.348  37.238  -4.771  1.00  0.00     0.009 A 
ATOM     19  C   UNL     1      21.362  36.832 -10.237  1.00  0.00     0.001 A 
ATOM     20  C   UNL     1      23.489  35.679 -10.139  1.00  0.00     0.047 A 
ATOM     21  O   UNL     1      24.850  35.787  -8.149  1.00  0.00    -0.457 OA
ATOM     22  C   UNL     1      26.159  35.595  -6.131  1.00  0.00     0.047 A 
ATOM     23  C   UNL     1      25.450  36.703  -4.098  1.00  0.00     0.001 A 
ATOM     24  C   UNL     1      22.324  36.013 -10.835  1.00  0.00     0.004 A 
ATOM     25  C   UNL     1      26.357  35.886  -4.779  1.00  0.00     0.004 A 
ENDBRANCH  10  12
ENDBRANCH   9  10
ENDBRANCH   1   9
TORSDOF 7
ENDMDL
MODEL 4
REMARK VINA RESULT:    -7.859      2.929      4.874
REMARK INTER + INTRA:         -11.964
REMARK INTER:                 -10.913
REMARK INTRA:                  -1.051
REMARK UNBOUND:                -0.890
REMARK SMILES CC[N+](C)(CC)CCOC(=O)C1c2ccccc2Oc2ccccc21
REMARK SMILES IDX 8 1 7 2 3 3 4 4 2 5 1 6 5 7 6 8 9 9 10 10 11 11 12 12 13 13
REMARK SMILES IDX 25 14 14 15 18 16 20 17 24 18 15 19 17 20 19 21 21 22 23 23
REMARK SMILES IDX 16 24 22 25
REMARK H PARENT
REMARK Flexibility Score: inf
ROOT
ATOM      1  C   UNL     1      21.718  39.451  -5.790  1.00  0.00     0.294 C 
ENDROOT
BRANCH   1   2
ATOM      2  C   UNL     1      20.449  40.312  -5.956  1.00  0.00     0.305 C 
BRANCH   2   3
ATOM      3  N   UNL     1      20.311  41.018  -7.275  1.00  0.00    -0.324 N 
ATOM      4  C   UNL     1      21.635  41.089  -7.955  1.00  0.00     0.334 C 
BRANCH   3   5
ATOM      5  C   UNL     1      19.334  40.268  -8.135  1.00  0.00     0.260 C 
ATOM      6  C   UNL     1      18.683  41.082  -9.268  1.00  0.00     0.071 C 
ENDBRANCH   3   5
BRANCH   3   7
ATOM      7  C   UNL     1      19.786  42.406  -7.033  1.00  0.00     0.260 C 
ATOM      8  C   UNL     1      19.007  42.602  -5.720  1.00  0.00     0.071 C 
ENDBRANCH   3   7
ENDBRANCH   2   3
ENDBRANCH   1   2
BRANCH   1   9
ATOM      9  O   UNL     1      21.337  38.094  -5.589  1.00  0.00    -0.459 OA
BRANCH   9  10
ATOM     10  C   UNL     1      22.075  37.020  -6.097  1.00  0.00     0.318 C 
ATOM     11  O   UNL     1      21.758  35.831  -5.811  1.00  0.00    -0.251 OA
BRANCH  10  12
ATOM     12  C   UNL     1      23.252  37.293  -6.991  1.00  0.00     0.167 C 
ATOM     13  C   UNL     1      24.468  36.561  -6.462  1.00  0.00     0.014 A 
ATOM     14  C   UNL     1      22.901  36.922  -8.417  1.00  0.00     0.014 A 
ATOM     15  C   UNL     1      25.055  36.962  -5.248  1.00  0.00     0.009 A 
ATOM     16  C   UNL     1      24.989  35.442  -7.141  1.00  0.00     0.131 A 
ATOM     17  C   UNL     1      23.475  35.790  -9.028  1.00  0.00     0.131 A 
ATOM     18  C   UNL     1      21.949  37.676  -9.123  1.00  0.00     0.009 A 
ATOM     19  C   UNL     1      26.136  36.252  -4.718  1.00  0.00     0.001 A 
ATOM     20  C   UNL     1      26.064  34.729  -6.599  1.00  0.00     0.047 A 
ATOM     21  O   UNL     1      24.453  35.044  -8.368  1.00  0.00    -0.457 OA
ATOM     22  C   UNL     1      23.082  35.415 -10.319  1.00  0.00     0.047 A 
ATOM     23  C   UNL     1      21.569  37.302 -10.415  1.00  0.00     0.001 A 
ATOM     24  C   UNL     1      26.637  35.134  -5.390  1.00  0.00     0.004 A 
ATOM     25  C   UNL     1      22.132  36.170 -11.010  1.00  0.00     0.004 A 
ENDBRANCH  10  12
ENDBRANCH   9  10
ENDBRANCH   1   9
TORSDOF 7
ENDMDL
MODEL 5
REMARK VINA RESULT:    -7.844      3.133      5.259
REMARK INTER + INTRA:         -11.943
REMARK INTER:                 -10.864
REMARK INTRA:                  -1.079
REMARK UNBOUND:                -0.890
REMARK SMILES CC[N+](C)(CC)CCOC(=O)C1c2ccccc2Oc2ccccc21
REMARK SMILES IDX 8 1 7 2 3 3 4 4 2 5 1 6 5 7 6 8 9 9 10 10 11 11 12 12 13 13
REMARK SMILES IDX 25 14 14 15 18 16 20 17 24 18 15 19 17 20 19 21 21 22 23 23
REMARK SMILES IDX 16 24 22 25
REMARK H PARENT
REMARK Flexibility Score: inf
ROOT
ATOM      1  C   UNL     1      20.990  39.736  -6.294  1.00  0.00     0.294 C 
ENDROOT
BRANCH   1   2
ATOM      2  C   UNL     1      20.261  41.094  -6.349  1.00  0.00     0.305 C 
BRANCH   2   3
ATOM      3  N   UNL     1      19.766  41.512  -7.704  1.00  0.00    -0.324 N 
ATOM      4  C   UNL     1      18.630  42.465  -7.557  1.00  0.00     0.334 C 
BRANCH   3   5
ATOM      5  C   UNL     1      20.888  42.167  -8.457  1.00  0.00     0.260 C 
ATOM      6  C   UNL     1      20.727  43.678  -8.710  1.00  0.00     0.071 C 
ENDBRANCH   3   5
BRANCH   3   7
ATOM      7  C   UNL     1      19.315  40.292  -8.457  1.00  0.00     0.260 C 
ATOM      8  C   UNL     1      19.844  40.167  -9.898  1.00  0.00     0.071 C 
ENDBRANCH   3   7
ENDBRANCH   2   3
ENDBRANCH   1   2
BRANCH   1   9
ATOM      9  O   UNL     1      22.395  39.957  -6.372  1.00  0.00    -0.459 OA
BRANCH   9  10
ATOM     10  C   UNL     1      23.265  39.066  -7.006  1.00  0.00     0.318 C 
ATOM     11  O   UNL     1      24.225  39.494  -7.706  1.00  0.00    -0.251 OA
BRANCH  10  12
ATOM     12  C   UNL     1      23.050  37.587  -6.846  1.00  0.00     0.167 C 
ATOM     13  C   UNL     1      22.907  36.947  -8.211  1.00  0.00     0.014 A 
ATOM     14  C   UNL     1      24.175  36.998  -6.021  1.00  0.00     0.014 A 
ATOM     15  C   UNL     1      21.774  37.220  -8.999  1.00  0.00     0.009 A 
ATOM     16  C   UNL     1      23.925  36.124  -8.732  1.00  0.00     0.131 A 
ATOM     17  C   UNL     1      25.150  36.174  -6.618  1.00  0.00     0.131 A 
ATOM     18  C   UNL     1      24.288  37.321  -4.659  1.00  0.00     0.009 A 
ATOM     19  C   UNL     1      21.665  36.687 -10.286  1.00  0.00     0.001 A 
ATOM     20  C   UNL     1      23.814  35.603 -10.026  1.00  0.00     0.047 A 
ATOM     21  O   UNL     1      25.043  35.802  -7.959  1.00  0.00    -0.457 OA
ATOM     22  C   UNL     1      26.228  35.701  -5.859  1.00  0.00     0.047 A 
ATOM     23  C   UNL     1      25.361  36.837  -3.905  1.00  0.00     0.001 A 
ATOM     24  C   UNL     1      22.686  35.884 -10.801  1.00  0.00     0.004 A 
ATOM     25  C   UNL     1      26.332  36.032  -4.506  1.00  0.00     0.004 A 
ENDBRANCH  10  12
ENDBRANCH   9  10
ENDBRANCH   1   9
TORSDOF 7
ENDMDL
MODEL 6
REMARK VINA RESULT:    -7.746      3.471      5.827
REMARK INTER + INTRA:         -11.806
REMARK INTER:                 -10.658
REMARK INTRA:                  -1.148
REMARK UNBOUND:                -0.890
REMARK SMILES CC[N+](C)(CC)CCOC(=O)C1c2ccccc2Oc2ccccc21
REMARK SMILES IDX 8 1 7 2 3 3 4 4 2 5 1 6 5 7 6 8 9 9 10 10 11 11 12 12 13 13
REMARK SMILES IDX 25 14 14 15 18 16 20 17 24 18 15 19 17 20 19 21 21 22 23 23
REMARK SMILES IDX 16 24 22 25
REMARK H PARENT
REMARK Flexibility Score: inf
ROOT
ATOM      1  C   UNL     1      21.493  41.593  -8.592  1.00  0.00     0.294 C 
ENDROOT
BRANCH   1   2
ATOM      2  C   UNL     1      20.481  42.600  -8.007  1.00  0.00     0.305 C 
BRANCH   2   3
ATOM      3  N   UNL     1      19.208  42.007  -7.475  1.00  0.00    -0.324 N 
ATOM      4  C   UNL     1      18.962  40.681  -8.107  1.00  0.00     0.334 C 
BRANCH   3   5
ATOM      5  C   UNL     1      19.323  41.850  -5.986  1.00  0.00     0.260 C 
ATOM      6  C   UNL     1      19.725  40.446  -5.495  1.00  0.00     0.071 C 
ENDBRANCH   3   5
BRANCH   3   7
ATOM      7  C   UNL     1      18.069  42.938  -7.783  1.00  0.00     0.260 C 
ATOM      8  C   UNL     1      17.460  42.800  -9.191  1.00  0.00     0.071 C 
ENDBRANCH   3   7
ENDBRANCH   2   3
ENDBRANCH   1   2
BRANCH   1   9
ATOM      9  O   UNL     1      22.395  41.191  -7.566  1.00  0.00    -0.459 OA
BRANCH   9  10
ATOM     10  C   UNL     1      23.178  40.037  -7.661  1.00  0.00     0.318 C 
ATOM     11  O   UNL     1      24.355  40.094  -8.116  1.00  0.00    -0.251 OA
BRANCH  10  12
ATOM     12  C   UNL     1      22.608  38.720  -7.213  1.00  0.00     0.167 C 
ATOM     13  C   UNL     1      22.522  37.778  -8.395  1.00  0.00     0.014 A 
ATOM     14  C   UNL     1      23.435  38.173  -6.068  1.00  0.00     0.014 A 
ATOM     15  C   UNL     1      21.609  38.037  -9.433  1.00  0.00     0.009 A 
ATOM     16  C   UNL     1      23.388  36.672  -8.500  1.00  0.00     0.131 A 
ATOM     17  C   UNL     1      24.270  37.054  -6.254  1.00  0.00     0.131 A 
ATOM     18  C   UNL     1      23.421  38.820  -4.821  1.00  0.00     0.009 A 
ATOM     19  C   UNL     1      21.568  37.211 -10.560  1.00  0.00     0.001 A 
ATOM     20  C   UNL     1      23.349  35.855  -9.637  1.00  0.00     0.047 A 
ATOM     21  O   UNL     1      24.277  36.365  -7.468  1.00  0.00    -0.457 OA
ATOM     22  C   UNL     1      25.089  36.609  -5.208  1.00  0.00     0.047 A 
ATOM     23  C   UNL     1      24.232  38.364  -3.779  1.00  0.00     0.001 A 
ATOM     24  C   UNL     1      22.441  36.124 -10.664  1.00  0.00     0.004 A 
ATOM     25  C   UNL     1      25.068  37.262  -3.974  1.00  0.00     0.004 A 
ENDBRANCH  10  12
ENDBRANCH   9  10
ENDBRANCH   1   9
TORSDOF 7
ENDMDL
MODEL 7
REMARK VINA RESULT:    -7.722      3.349      5.824
REMARK INTER + INTRA:         -11.772
REMARK INTER:                 -10.616
REMARK INTRA:                  -1.156
REMARK UNBOUND:                -0.890
REMARK SMILES CC[N+](C)(CC)CCOC(=O)C1c2ccccc2Oc2ccccc21
REMARK SMILES IDX 8 1 7 2 3 3 4 4 2 5 1 6 5 7 6 8 9 9 10 10 11 11 12 12 13 13
REMARK SMILES IDX 25 14 14 15 18 16 20 17 24 18 15 19 17 20 19 21 21 22 23 23
REMARK SMILES IDX 16 24 22 25
REMARK H PARENT
REMARK Flexibility Score: inf
ROOT
ATOM      1  C   UNL     1      21.558  41.681  -8.530  1.00  0.00     0.294 C 
ENDROOT
BRANCH   1   2
ATOM      2  C   UNL     1      20.530  42.679  -7.959  1.00  0.00     0.305 C 
BRANCH   2   3
ATOM      3  N   UNL     1      19.231  42.081  -7.497  1.00  0.00    -0.324 N 
ATOM      4  C   UNL     1      18.101  42.985  -7.854  1.00  0.00     0.334 C 
BRANCH   3   5
ATOM      5  C   UNL     1      19.043  40.745  -8.156  1.00  0.00     0.260 C 
ATOM      6  C   UNL     1      18.172  40.746  -9.426  1.00  0.00     0.071 C 
ENDBRANCH   3   5
BRANCH   3   7
ATOM      7  C   UNL     1      19.282  41.891  -6.007  1.00  0.00     0.260 C 
ATOM      8  C   UNL     1      19.683  40.483  -5.531  1.00  0.00     0.071 C 
ENDBRANCH   3   7
ENDBRANCH   2   3
ENDBRANCH   1   2
BRANCH   1   9
ATOM      9  O   UNL     1      22.326  41.139  -7.460  1.00  0.00    -0.459 OA
BRANCH   9  10
ATOM     10  C   UNL     1      23.125  40.002  -7.606  1.00  0.00     0.318 C 
ATOM     11  O   UNL     1      24.287  40.091  -8.094  1.00  0.00    -0.251 OA
BRANCH  10  12
ATOM     12  C   UNL     1      22.590  38.666  -7.174  1.00  0.00     0.167 C 
ATOM     13  C   UNL     1      22.525  37.737  -8.369  1.00  0.00     0.014 A 
ATOM     14  C   UNL     1      23.434  38.125  -6.039  1.00  0.00     0.014 A 
ATOM     15  C   UNL     1      21.603  37.986  -9.401  1.00  0.00     0.009 A 
ATOM     16  C   UNL     1      23.419  36.655  -8.490  1.00  0.00     0.131 A 
ATOM     17  C   UNL     1      24.298  37.030  -6.241  1.00  0.00     0.131 A 
ATOM     18  C   UNL     1      23.406  38.755  -4.783  1.00  0.00     0.009 A 
ATOM     19  C   UNL     1      21.581  37.174 -10.538  1.00  0.00     0.001 A 
ATOM     20  C   UNL     1      23.398  35.853  -9.638  1.00  0.00     0.047 A 
ATOM     21  O   UNL     1      24.319  36.358  -7.464  1.00  0.00    -0.457 OA
ATOM     22  C   UNL     1      25.130  36.592  -5.204  1.00  0.00     0.047 A 
ATOM     23  C   UNL     1      24.232  38.305  -3.749  1.00  0.00     0.001 A 
ATOM     24  C   UNL     1      22.481  36.112 -10.659  1.00  0.00     0.004 A 
ATOM     25  C   UNL     1      25.096  37.228  -3.961  1.00  0.00     0.004 A 
ENDBRANCH  10  12
ENDBRANCH   9  10
ENDBRANCH   1   9
TORSDOF 7
ENDMDL
MODEL 8
REMARK VINA RESULT:    -7.611      3.002      7.354
REMARK INTER + INTRA:         -11.615
REMARK INTER:                 -10.753
REMARK INTRA:                  -0.862
REMARK UNBOUND:                -0.890
REMARK SMILES CC[N+](C)(CC)CCOC(=O)C1c2ccccc2Oc2ccccc21
REMARK SMILES IDX 8 1 7 2 3 3 4 4 2 5 1 6 5 7 6 8 9 9 10 10 11 11 12 12 13 13
REMARK SMILES IDX 25 14 14 15 18 16 20 17 24 18 15 19 17 20 19 21 21 22 23 23
REMARK SMILES IDX 16 24 22 25
REMARK H PARENT
REMARK Flexibility Score: inf
ROOT
ATOM      1  C   UNL     1      24.596  37.217  -4.733  1.00  0.00     0.294 C 
ENDROOT
BRANCH   1   2
ATOM      2  C   UNL     1      24.748  35.740  -5.149  1.00  0.00     0.305 C 
BRANCH   2   3
ATOM      3  N   UNL     1      26.010  35.063  -4.696  1.00  0.00    -0.324 N 
ATOM      4  C   UNL     1      27.196  35.810  -5.202  1.00  0.00     0.334 C 
BRANCH   3   5
ATOM      5  C   UNL     1      26.035  35.023  -3.195  1.00  0.00     0.260 C 
ATOM      6  C   UNL     1      26.019  33.617  -2.567  1.00  0.00     0.071 C 
ENDBRANCH   3   5
BRANCH   3   7
ATOM      7  C   UNL     1      26.028  33.657  -5.225  1.00  0.00     0.260 C 
ATOM      8  C   UNL     1      26.319  33.517  -6.731  1.00  0.00     0.071 C 
ENDBRANCH   3   7
ENDBRANCH   2   3
ENDBRANCH   1   2
BRANCH   1   9
ATOM      9  O   UNL     1      23.226  37.593  -4.841  1.00  0.00    -0.459 OA
BRANCH   9  10
ATOM     10  C   UNL     1      22.479  37.392  -6.004  1.00  0.00     0.318 C 
ATOM     11  O   UNL     1      21.551  36.535  -6.033  1.00  0.00    -0.251 OA
BRANCH  10  12
ATOM     12  C   UNL     1      22.786  38.210  -7.228  1.00  0.00     0.167 C 
ATOM     13  C   UNL     1      23.116  37.287  -8.383  1.00  0.00     0.014 A 
ATOM     14  C   UNL     1      21.629  39.143  -7.517  1.00  0.00     0.014 A 
ATOM     15  C   UNL     1      24.301  36.529  -8.358  1.00  0.00     0.009 A 
ATOM     16  C   UNL     1      22.222  37.132  -9.460  1.00  0.00     0.131 A 
ATOM     17  C   UNL     1      20.785  38.923  -8.624  1.00  0.00     0.131 A 
ATOM     18  C   UNL     1      21.352  40.208  -6.642  1.00  0.00     0.009 A 
ATOM     19  C   UNL     1      24.582  35.626  -9.386  1.00  0.00     0.001 A 
ATOM     20  C   UNL     1      22.505  36.217 -10.480  1.00  0.00     0.047 A 
ATOM     21  O   UNL     1      21.057  37.899  -9.532  1.00  0.00    -0.457 OA
ATOM     22  C   UNL     1      19.673  39.748  -8.832  1.00  0.00     0.047 A 
ATOM     23  C   UNL     1      20.246  41.034  -6.864  1.00  0.00     0.001 A 
ATOM     24  C   UNL     1      23.683  35.466 -10.444  1.00  0.00     0.004 A 
ATOM     25  C   UNL     1      19.406  40.801  -7.955  1.00  0.00     0.004 A 
ENDBRANCH  10  12
ENDBRANCH   9  10
ENDBRANCH   1   9
TORSDOF 7
ENDMDL
MODEL 9
REMARK VINA RESULT:    -7.545      2.397      3.520
REMARK INTER + INTRA:         -11.522
REMARK INTER:                 -10.549
REMARK INTRA:                  -0.974
REMARK UNBOUND:                -0.890
REMARK SMILES CC[N+](C)(CC)CCOC(=O)C1c2ccccc2Oc2ccccc21
REMARK SMILES IDX 8 1 7 2 3 3 4 4 2 5 1 6 5 7 6 8 9 9 10 10 11 11 12 12 13 13
REMARK SMILES IDX 25 14 14 15 18 16 20 17 24 18 15 19 17 20 19 21 21 22 23 23
REMARK SMILES IDX 16 24 22 25
REMARK H PARENT
REMARK Flexibility Score: inf
ROOT
ATOM      1  C   UNL     1      21.633  38.846  -9.478  1.00  0.00     0.294 C 
ENDROOT
BRANCH   1   2
ATOM      2  C   UNL     1      20.267  39.527  -9.704  1.00  0.00     0.305 C 
BRANCH   2   3
ATOM      3  N   UNL     1      19.991  40.730  -8.848  1.00  0.00    -0.324 N 
ATOM      4  C   UNL     1      18.840  41.496  -9.403  1.00  0.00     0.334 C 
BRANCH   3   5
ATOM      5  C   UNL     1      19.677  40.278  -7.451  1.00  0.00     0.260 C 
ATOM      6  C   UNL     1      20.303  41.119  -6.322  1.00  0.00     0.071 C 
ENDBRANCH   3   5
BRANCH   3   7
ATOM      7  C   UNL     1      21.216  41.601  -8.818  1.00  0.00     0.260 C 
ATOM      8  C   UNL     1      21.011  43.053  -9.287  1.00  0.00     0.071 C 
ENDBRANCH   3   7
ENDBRANCH   2   3
ENDBRANCH   1   2
BRANCH   1   9
ATOM      9  O   UNL     1      21.420  37.536  -8.963  1.00  0.00    -0.459 OA
BRANCH   9  10
ATOM     10  C   UNL     1      22.117  37.037  -7.860  1.00  0.00     0.318 C 
ATOM     11  O   UNL     1      21.525  36.344  -6.986  1.00  0.00    -0.251 OA
BRANCH  10  12
ATOM     12  C   UNL     1      23.584  37.332  -7.720  1.00  0.00     0.167 C 
ATOM     13  C   UNL     1      23.897  37.671  -6.278  1.00  0.00     0.014 A 
ATOM     14  C   UNL     1      24.388  36.163  -8.250  1.00  0.00     0.014 A 
ATOM     15  C   UNL     1      23.409  38.865  -5.716  1.00  0.00     0.009 A 
ATOM     16  C   UNL     1      24.624  36.777  -5.468  1.00  0.00     0.131 A 
ATOM     17  C   UNL     1      25.098  35.320  -7.372  1.00  0.00     0.131 A 
ATOM     18  C   UNL     1      24.383  35.874  -9.625  1.00  0.00     0.009 A 
ATOM     19  C   UNL     1      23.636  39.156  -4.369  1.00  0.00     0.001 A 
ATOM     20  C   UNL     1      24.837  37.069  -4.116  1.00  0.00     0.047 A 
ATOM     21  O   UNL     1      25.155  35.603  -6.006  1.00  0.00    -0.457 OA
ATOM     22  C   UNL     1      25.771  34.197  -7.868  1.00  0.00     0.047 A 
ATOM     23  C   UNL     1      25.067  34.758 -10.115  1.00  0.00     0.001 A 
ATOM     24  C   UNL     1      24.344  38.256  -3.568  1.00  0.00     0.004 A 
ATOM     25  C   UNL     1      25.756  33.918  -9.237  1.00  0.00     0.004 A 
ENDBRANCH  10  12
ENDBRANCH   9  10
ENDBRANCH   1   9
TORSDOF 7
ENDMDL
MODEL 10
REMARK VINA RESULT:    -7.534      2.762      6.676
REMARK INTER + INTRA:         -11.506
REMARK INTER:                 -10.839
REMARK INTRA:                  -0.668
REMARK UNBOUND:                -0.890
REMARK SMILES CC[N+](C)(CC)CCOC(=O)C1c2ccccc2Oc2ccccc21
REMARK SMILES IDX 8 1 7 2 3 3 4 4 2 5 1 6 5 7 6 8 9 9 10 10 11 11 12 12 13 13
REMARK SMILES IDX 25 14 14 15 18 16 20 17 24 18 15 19 17 20 19 21 21 22 23 23
REMARK SMILES IDX 16 24 22 25
REMARK H PARENT
REMARK Flexibility Score: inf
ROOT
ATOM      1  C   UNL     1      25.310  35.146  -7.740  1.00  0.00     0.294 C 
ENDROOT
BRANCH   1   2
ATOM      2  C   UNL     1      24.976  35.225  -6.236  1.00  0.00     0.305 C 
BRANCH   2   3
ATOM      3  N   UNL     1      26.037  34.709  -5.306  1.00  0.00    -0.324 N 
ATOM      4  C   UNL     1      26.206  33.241  -5.493  1.00  0.00     0.334 C 
BRANCH   3   5
ATOM      5  C   UNL     1      27.331  35.414  -5.597  1.00  0.00     0.260 C 
ATOM      6  C   UNL     1      27.652  36.616  -4.688  1.00  0.00     0.071 C 
ENDBRANCH   3   5
BRANCH   3   7
ATOM      7  C   UNL     1      25.628  34.999  -3.889  1.00  0.00     0.260 C 
ATOM      8  C   UNL     1      26.038  33.940  -2.849  1.00  0.00     0.071 C 
ENDBRANCH   3   7
ENDBRANCH   2   3
ENDBRANCH   1   2
BRANCH   1   9
ATOM      9  O   UNL     1      24.232  35.700  -8.486  1.00  0.00    -0.459 OA
BRANCH   9  10
ATOM     10  C   UNL     1      23.627  36.914  -8.150  1.00  0.00     0.318 C 
ATOM     11  O   UNL     1      24.323  37.955  -7.986  1.00  0.00    -0.251 OA
BRANCH  10  12
ATOM     12  C   UNL     1      22.134  36.973  -7.985  1.00  0.00     0.167 C 
ATOM     13  C   UNL     1      21.791  37.831  -6.785  1.00  0.00     0.014 A 
ATOM     14  C   UNL     1      21.502  37.461  -9.272  1.00  0.00     0.014 A 
ATOM     15  C   UNL     1      22.108  37.383  -5.490  1.00  0.00     0.009 A 
ATOM     16  C   UNL     1      21.210  39.103  -6.951  1.00  0.00     0.131 A 
ATOM     17  C   UNL     1      20.931  38.747  -9.352  1.00  0.00     0.131 A 
ATOM     18  C   UNL     1      21.534  36.651 -10.420  1.00  0.00     0.009 A 
ATOM     19  C   UNL     1      21.856  38.195  -4.381  1.00  0.00     0.001 A 
ATOM     20  C   UNL     1      20.971  39.916  -5.836  1.00  0.00     0.047 A 
ATOM     21  O   UNL     1      20.848  39.559  -8.220  1.00  0.00    -0.457 OA
ATOM     22  C   UNL     1      20.422  39.213 -10.570  1.00  0.00     0.047 A 
ATOM     23  C   UNL     1      21.014  37.119 -11.630  1.00  0.00     0.001 A 
ATOM     24  C   UNL     1      21.293  39.462  -4.554  1.00  0.00     0.004 A 
ATOM     25  C   UNL     1      20.462  38.401 -11.705  1.00  0.00     0.004 A 
ENDBRANCH  10  12
ENDBRANCH   9  10
ENDBRANCH   1   9
TORSDOF 7
ENDMDL
MODEL 11
REMARK VINA RESULT:    -7.228      1.593      4.032
REMARK INTER + INTRA:         -11.075
REMARK INTER:                 -10.527
REMARK INTRA:                  -0.548
REMARK UNBOUND:                -0.890
REMARK SMILES CC[N+](C)(CC)CCOC(=O)C1c2ccccc2Oc2ccccc21
REMARK SMILES IDX 8 1 7 2 3 3 4 4 2 5 1 6 5 7 6 8 9 9 10 10 11 11 12 12 13 13
REMARK SMILES IDX 25 14 14 15 18 16 20 17 24 18 15 19 17 20 19 21 21 22 23 23
REMARK SMILES IDX 16 24 22 25
REMARK H PARENT
REMARK Flexibility Score: inf
ROOT
ATOM      1  C   UNL     1      22.501  36.527 -10.453  1.00  0.00     0.294 C 
ENDROOT
BRANCH   1   2
ATOM      2  C   UNL     1      21.183  36.972 -11.119  1.00  0.00     0.305 C 
BRANCH   2   3
ATOM      3  N   UNL     1      21.319  37.594 -12.480  1.00  0.00    -0.324 N 
ATOM      4  C   UNL     1      22.495  37.013 -13.188  1.00  0.00     0.334 C 
BRANCH   3   5
ATOM      5  C   UNL     1      20.068  37.332 -13.267  1.00  0.00     0.260 C 
ATOM      6  C   UNL     1      20.236  37.323 -14.798  1.00  0.00     0.071 C 
ENDBRANCH   3   5
BRANCH   3   7
ATOM      7  C   UNL     1      21.500  39.078 -12.324  1.00  0.00     0.260 C 
ATOM      8  C   UNL     1      20.673  39.733 -11.202  1.00  0.00     0.071 C 
ENDBRANCH   3   7
ENDBRANCH   2   3
ENDBRANCH   1   2
BRANCH   1   9
ATOM      9  O   UNL     1      22.346  36.571  -9.038  1.00  0.00    -0.459 OA
BRANCH   9  10
ATOM     10  C   UNL     1      23.433  36.663  -8.164  1.00  0.00     0.318 C 
ATOM     11  O   UNL     1      24.501  37.233  -8.524  1.00  0.00    -0.251 OA
BRANCH  10  12
ATOM     12  C   UNL     1      23.320  36.077  -6.784  1.00  0.00     0.167 C 
ATOM     13  C   UNL     1      24.635  35.432  -6.399  1.00  0.00     0.014 A 
ATOM     14  C   UNL     1      22.871  37.151  -5.814  1.00  0.00     0.014 A 
ATOM     15  C   UNL     1      25.067  34.271  -7.064  1.00  0.00     0.009 A 
ATOM     16  C   UNL     1      25.464  36.014  -5.421  1.00  0.00     0.131 A 
ATOM     17  C   UNL     1      23.762  37.674  -4.856  1.00  0.00     0.131 A 
ATOM     18  C   UNL     1      21.571  37.677  -5.903  1.00  0.00     0.009 A 
ATOM     19  C   UNL     1      26.309  33.706  -6.763  1.00  0.00     0.001 A 
ATOM     20  C   UNL     1      26.712  35.449  -5.132  1.00  0.00     0.047 A 
ATOM     21  O   UNL     1      25.046  37.145  -4.715  1.00  0.00    -0.457 OA
ATOM     22  C   UNL     1      23.356  38.721  -4.019  1.00  0.00     0.047 A 
ATOM     23  C   UNL     1      21.169  38.714  -5.057  1.00  0.00     0.001 A 
ATOM     24  C   UNL     1      27.133  34.297  -5.802  1.00  0.00     0.004 A 
ATOM     25  C   UNL     1      22.062  39.238  -4.119  1.00  0.00     0.004 A 
ENDBRANCH  10  12
ENDBRANCH   9  10
ENDBRANCH   1   9
TORSDOF 7
ENDMDL
MODEL 12
REMARK VINA RESULT:    -7.186      3.166      6.797
REMARK INTER + INTRA:         -11.016
REMARK INTER:                  -9.958
REMARK INTRA:                  -1.058
REMARK UNBOUND:                -0.890
REMARK SMILES CC[N+](C)(CC)CCOC(=O)C1c2ccccc2Oc2ccccc21
REMARK SMILES IDX 8 1 7 2 3 3 4 4 2 5 1 6 5 7 6 8 9 9 10 10 11 11 12 12 13 13
REMARK SMILES IDX 25 14 14 15 18 16 20 17 24 18 15 19 17 20 19 21 21 22 23 23
REMARK SMILES IDX 16 24 22 25
REMARK H PARENT
REMARK Flexibility Score: inf
ROOT
ATOM      1  C   UNL     1      23.914  37.018  -7.517  1.00  0.00     0.294 C 
ENDROOT
BRANCH   1   2
ATOM      2  C   UNL     1      25.262  36.390  -7.107  1.00  0.00     0.305 C 
BRANCH   2   3
ATOM      3  N   UNL     1      25.326  35.840  -5.711  1.00  0.00    -0.324 N 
ATOM      4  C   UNL     1      26.631  36.192  -5.085  1.00  0.00     0.334 C 
BRANCH   3   5
ATOM      5  C   UNL     1      24.199  36.417  -4.903  1.00  0.00     0.260 C 
ATOM      6  C   UNL     1      24.584  37.567  -3.953  1.00  0.00     0.071 C 
ENDBRANCH   3   5
BRANCH   3   7
ATOM      7  C   UNL     1      25.174  34.346  -5.767  1.00  0.00     0.260 C 
ATOM      8  C   UNL     1      26.433  33.565  -6.187  1.00  0.00     0.071 C 
ENDBRANCH   3   7
ENDBRANCH   2   3
ENDBRANCH   1   2
BRANCH   1   9
ATOM      9  O   UNL     1      24.088  38.420  -7.695  1.00  0.00    -0.459 OA
BRANCH   9  10
ATOM     10  C   UNL     1      23.044  39.335  -7.539  1.00  0.00     0.318 C 
ATOM     11  O   UNL     1      23.283  40.570  -7.427  1.00  0.00    -0.251 OA
BRANCH  10  12
ATOM     12  C   UNL     1      21.626  38.836  -7.506  1.00  0.00     0.167 C 
ATOM     13  C   UNL     1      20.939  39.347  -6.257  1.00  0.00     0.014 A 
ATOM     14  C   UNL     1      20.920  39.235  -8.786  1.00  0.00     0.014 A 
ATOM     15  C   UNL     1      21.336  38.873  -4.994  1.00  0.00     0.009 A 
ATOM     16  C   UNL     1      19.942  40.340  -6.337  1.00  0.00     0.131 A 
ATOM     17  C   UNL     1      19.924  40.232  -8.778  1.00  0.00     0.131 A 
ATOM     18  C   UNL     1      21.298  38.651 -10.006  1.00  0.00     0.009 A 
ATOM     19  C   UNL     1      20.755  39.386  -3.832  1.00  0.00     0.001 A 
ATOM     20  C   UNL     1      19.372  40.858  -5.168  1.00  0.00     0.047 A 
ATOM     21  O   UNL     1      19.498  40.802  -7.578  1.00  0.00    -0.457 OA
ATOM     22  C   UNL     1      19.337  40.645  -9.980  1.00  0.00     0.047 A 
ATOM     23  C   UNL     1      20.700  39.060 -11.201  1.00  0.00     0.001 A 
ATOM     24  C   UNL     1      19.778  40.382  -3.919  1.00  0.00     0.004 A 
ATOM     25  C   UNL     1      19.723  40.060 -11.188  1.00  0.00     0.004 A 
ENDBRANCH  10  12
ENDBRANCH   9  10
ENDBRANCH   1   9
TORSDOF 7
ENDMDL
MODEL 13
REMARK VINA RESULT:    -7.125      1.400      4.048
REMARK INTER + INTRA:         -10.930
REMARK INTER:                 -10.089
REMARK INTRA:                  -0.841
REMARK UNBOUND:                -0.890
REMARK SMILES CC[N+](C)(CC)CCOC(=O)C1c2ccccc2Oc2ccccc21
REMARK SMILES IDX 8 1 7 2 3 3 4 4 2 5 1 6 5 7 6 8 9 9 10 10 11 11 12 12 13 13
REMARK SMILES IDX 25 14 14 15 18 16 20 17 24 18 15 19 17 20 19 21 21 22 23 23
REMARK SMILES IDX 16 24 22 25
REMARK H PARENT
REMARK Flexibility Score: inf
ROOT
ATOM      1  C   UNL     1      20.422  38.898 -10.776  1.00  0.00     0.294 C 
ENDROOT
BRANCH   1   2
ATOM      2  C   UNL     1      20.904  37.937 -11.882  1.00  0.00     0.305 C 
BRANCH   2   3
ATOM      3  N   UNL     1      21.346  38.589 -13.161  1.00  0.00    -0.324 N 
ATOM      4  C   UNL     1      21.728  40.006 -12.905  1.00  0.00     0.334 C 
BRANCH   3   5
ATOM      5  C   UNL     1      22.520  37.835 -13.716  1.00  0.00     0.260 C 
ATOM      6  C   UNL     1      23.406  38.619 -14.704  1.00  0.00     0.071 C 
ENDBRANCH   3   5
BRANCH   3   7
ATOM      7  C   UNL     1      20.217  38.536 -14.152  1.00  0.00     0.260 C 
ATOM      8  C   UNL     1      19.954  37.158 -14.787  1.00  0.00     0.071 C 
ENDBRANCH   3   7
ENDBRANCH   2   3
ENDBRANCH   1   2
BRANCH   1   9
ATOM      9  O   UNL     1      20.569  38.263  -9.510  1.00  0.00    -0.459 OA
BRANCH   9  10
ATOM     10  C   UNL     1      21.736  38.362  -8.748  1.00  0.00     0.318 C 
ATOM     11  O   UNL     1      22.456  39.398  -8.808  1.00  0.00    -0.251 OA
BRANCH  10  12
ATOM     12  C   UNL     1      22.130  37.223  -7.851  1.00  0.00     0.167 C 
ATOM     13  C   UNL     1      23.260  36.443  -8.490  1.00  0.00     0.014 A 
ATOM     14  C   UNL     1      22.471  37.756  -6.475  1.00  0.00     0.014 A 
ATOM     15  C   UNL     1      23.024  35.694  -9.656  1.00  0.00     0.009 A 
ATOM     16  C   UNL     1      24.566  36.504  -7.964  1.00  0.00     0.131 A 
ATOM     17  C   UNL     1      23.805  37.773  -6.019  1.00  0.00     0.131 A 
ATOM     18  C   UNL     1      21.461  38.296  -5.662  1.00  0.00     0.009 A 
ATOM     19  C   UNL     1      24.074  35.025 -10.291  1.00  0.00     0.001 A 
ATOM     20  C   UNL     1      25.615  35.841  -8.612  1.00  0.00     0.047 A 
ATOM     21  O   UNL     1      24.825  37.207  -6.786  1.00  0.00    -0.457 OA
ATOM     22  C   UNL     1      24.114  38.341  -4.778  1.00  0.00     0.047 A 
ATOM     23  C   UNL     1      21.776  38.852  -4.419  1.00  0.00     0.001 A 
ATOM     24  C   UNL     1      25.369  35.103  -9.772  1.00  0.00     0.004 A 
ATOM     25  C   UNL     1      23.102  38.879  -3.980  1.00  0.00     0.004 A 
ENDBRANCH  10  12
ENDBRANCH   9  10
ENDBRANCH   1   9
TORSDOF 7
ENDMDL
MODEL 14
REMARK VINA RESULT:    -6.994      3.300      5.843
REMARK INTER + INTRA:         -10.746
REMARK INTER:                  -9.843
REMARK INTRA:                  -0.902
REMARK UNBOUND:                -0.890
REMARK SMILES CC[N+](C)(CC)CCOC(=O)C1c2ccccc2Oc2ccccc21
REMARK SMILES IDX 8 1 7 2 3 3 4 4 2 5 1 6 5 7 6 8 9 9 10 10 11 11 12 12 13 13
REMARK SMILES IDX 25 14 14 15 18 16 20 17 24 18 15 19 17 20 19 21 21 22 23 23
REMARK SMILES IDX 16 24 22 25
REMARK H PARENT
REMARK Flexibility Score: inf
ROOT
ATOM      1  C   UNL     1      21.748  40.837  -8.799  1.00  0.00     0.294 C 
ENDROOT
BRANCH   1   2
ATOM      2  C   UNL     1      21.223  41.171  -7.388  1.00  0.00     0.305 C 
BRANCH   2   3
ATOM      3  N   UNL     1      19.868  41.817  -7.334  1.00  0.00    -0.324 N 
ATOM      4  C   UNL     1      19.372  41.840  -5.929  1.00  0.00     0.334 C 
BRANCH   3   5
ATOM      5  C   UNL     1      19.971  43.219  -7.863  1.00  0.00     0.260 C 
ATOM      6  C   UNL     1      19.586  44.333  -6.871  1.00  0.00     0.071 C 
ENDBRANCH   3   5
BRANCH   3   7
ATOM      7  C   UNL     1      18.919  41.035  -8.198  1.00  0.00     0.260 C 
ATOM      8  C   UNL     1      18.217  41.837  -9.309  1.00  0.00     0.071 C 
ENDBRANCH   3   7
ENDBRANCH   2   3
ENDBRANCH   1   2
BRANCH   1   9
ATOM      9  O   UNL     1      22.355  39.549  -8.778  1.00  0.00    -0.459 OA
BRANCH   9  10
ATOM     10  C   UNL     1      21.611  38.365  -8.775  1.00  0.00     0.318 C 
ATOM     11  O   UNL     1      20.601  38.239  -9.522  1.00  0.00    -0.251 OA
BRANCH  10  12
ATOM     12  C   UNL     1      22.026  37.237  -7.873  1.00  0.00     0.167 C 
ATOM     13  C   UNL     1      23.179  36.483  -8.503  1.00  0.00     0.014 A 
ATOM     14  C   UNL     1      22.346  37.781  -6.496  1.00  0.00     0.014 A 
ATOM     15  C   UNL     1      22.967  35.726  -9.669  1.00  0.00     0.009 A 
ATOM     16  C   UNL     1      24.479  36.577  -7.970  1.00  0.00     0.131 A 
ATOM     17  C   UNL     1      23.676  37.830  -6.032  1.00  0.00     0.131 A 
ATOM     18  C   UNL     1      21.318  38.299  -5.691  1.00  0.00     0.009 A 
ATOM     19  C   UNL     1      24.036  35.081 -10.296  1.00  0.00     0.001 A 
ATOM     20  C   UNL     1      25.547  35.937  -8.610  1.00  0.00     0.047 A 
ATOM     21  O   UNL     1      24.714  37.288  -6.791  1.00  0.00    -0.457 OA
ATOM     22  C   UNL     1      23.964  38.409  -4.790  1.00  0.00     0.047 A 
ATOM     23  C   UNL     1      21.612  38.865  -4.447  1.00  0.00     0.001 A 
ATOM     24  C   UNL     1      25.326  35.191  -9.770  1.00  0.00     0.004 A 
ATOM     25  C   UNL     1      22.934  38.924  -3.999  1.00  0.00     0.004 A 
ENDBRANCH  10  12
ENDBRANCH   9  10
ENDBRANCH   1   9
TORSDOF 7
ENDMDL
MODEL 15
REMARK VINA RESULT:    -6.960      1.900      2.807
REMARK INTER + INTRA:         -10.698
REMARK INTER:                  -9.905
REMARK INTRA:                  -0.793
REMARK UNBOUND:                -0.890
REMARK SMILES CC[N+](C)(CC)CCOC(=O)C1c2ccccc2Oc2ccccc21
REMARK SMILES IDX 8 1 7 2 3 3 4 4 2 5 1 6 5 7 6 8 9 9 10 10 11 11 12 12 13 13
REMARK SMILES IDX 25 14 14 15 18 16 20 17 24 18 15 19 17 20 19 21 21 22 23 23
REMARK SMILES IDX 16 24 22 25
REMARK H PARENT
REMARK Flexibility Score: inf
ROOT
ATOM      1  C   UNL     1      20.308  39.168 -10.650  1.00  0.00     0.294 C 
ENDROOT
BRANCH   1   2
ATOM      2  C   UNL     1      20.538  39.738 -12.065  1.00  0.00     0.305 C 
BRANCH   2   3
ATOM      3  N   UNL     1      20.746  38.720 -13.150  1.00  0.00    -0.324 N 
ATOM      4  C   UNL     1      19.817  38.989 -14.283  1.00  0.00     0.334 C 
BRANCH   3   5
ATOM      5  C   UNL     1      22.168  38.793 -13.627  1.00  0.00     0.260 C 
ATOM      6  C   UNL     1      22.676  40.202 -13.990  1.00  0.00     0.071 C 
ENDBRANCH   3   5
BRANCH   3   7
ATOM      7  C   UNL     1      20.486  37.349 -12.591  1.00  0.00     0.260 C 
ATOM      8  C   UNL     1      21.720  36.436 -12.470  1.00  0.00     0.071 C 
ENDBRANCH   3   7
ENDBRANCH   2   3
ENDBRANCH   1   2
BRANCH   1   9
ATOM      9  O   UNL     1      21.569  38.947 -10.026  1.00  0.00    -0.459 OA
BRANCH   9  10
ATOM     10  C   UNL     1      21.720  38.137  -8.897  1.00  0.00     0.318 C 
ATOM     11  O   UNL     1      21.108  37.036  -8.810  1.00  0.00    -0.251 OA
BRANCH  10  12
ATOM     12  C   UNL     1      22.621  38.588  -7.782  1.00  0.00     0.167 C 
ATOM     13  C   UNL     1      21.784  39.115  -6.636  1.00  0.00     0.014 A 
ATOM     14  C   UNL     1      23.540  37.452  -7.382  1.00  0.00     0.014 A 
ATOM     15  C   UNL     1      21.058  40.310  -6.789  1.00  0.00     0.009 A 
ATOM     16  C   UNL     1      21.673  38.392  -5.432  1.00  0.00     0.131 A 
ATOM     17  C   UNL     1      23.367  36.785  -6.153  1.00  0.00     0.131 A 
ATOM     18  C   UNL     1      24.538  37.013  -8.268  1.00  0.00     0.009 A 
ATOM     19  C   UNL     1      20.230  40.770  -5.761  1.00  0.00     0.001 A 
ATOM     20  C   UNL     1      20.832  38.852  -4.412  1.00  0.00     0.047 A 
ATOM     21  O   UNL     1      22.411  37.223  -5.235  1.00  0.00    -0.457 OA
ATOM     22  C   UNL     1      24.173  35.686  -5.833  1.00  0.00     0.047 A 
ATOM     23  C   UNL     1      25.346  35.922  -7.937  1.00  0.00     0.001 A 
ATOM     24  C   UNL     1      20.113  40.039  -4.576  1.00  0.00     0.004 A 
ATOM     25  C   UNL     1      25.160  35.256  -6.722  1.00  0.00     0.004 A 
ENDBRANCH  10  12
ENDBRANCH   9  10
ENDBRANCH   1   9
TORSDOF 7
ENDMDL
