MODEL 1
REMARK VINA RESULT:    -9.152      0.000      0.000
REMARK INTER + INTRA:          -9.687
REMARK INTER:                  -9.687
REMARK INTRA:                   0.000
REMARK UNBOUND:                 0.000
REMARK SMILES C[C@]12CC[C@@H]3c4ccc(O)cc4CC[C@H]3[C@@H]1CC[C@@H]2O
REMARK SMILES IDX 16 1 17 2 18 3 19 4 2 5 1 6 3 7 4 8 5 9 6 10 12 11 13 12
REMARK SMILES IDX 14 13 15 14 11 15 9 16 8 17 7 18 20 19 10 21
REMARK H PARENT 20 20 10 22
REMARK Flexibility Score: inf
ROOT
ATOM      1  C   UNL     1      15.834  79.738  -6.530  1.00  0.00     0.001 C 
ATOM      2  C   UNL     1      17.026  78.943  -7.049  1.00  0.00     0.007 C 
ATOM      3  C   UNL     1      17.896  79.998  -7.757  1.00  0.00     0.032 C 
ATOM      4  C   UNL     1      17.282  81.377  -7.421  1.00  0.00     0.120 C 
ATOM      5  C   UNL     1      16.412  81.115  -6.176  1.00  0.00    -0.003 C 
ATOM      6  C   UNL     1      17.311  81.122  -4.898  1.00  0.00     0.014 C 
ATOM      7  C   UNL     1      15.231  82.092  -5.994  1.00  0.00     0.010 C 
ATOM      8  C   UNL     1      14.235  81.586  -4.919  1.00  0.00     0.009 C 
ATOM      9  C   UNL     1      13.766  80.116  -5.155  1.00  0.00     0.023 C 
ATOM     10  C   UNL     1      12.853  79.563  -4.058  1.00  0.00    -0.041 A 
ATOM     11  C   UNL     1      12.789  78.162  -3.821  1.00  0.00    -0.041 A 
ATOM     12  C   UNL     1      13.719  77.180  -4.501  1.00  0.00     0.036 C 
ATOM     13  C   UNL     1      14.440  77.762  -5.720  1.00  0.00     0.009 C 
ATOM     14  C   UNL     1      14.974  79.161  -5.390  1.00  0.00     0.000 C 
ATOM     15  C   UNL     1      11.894  77.657  -2.863  1.00  0.00     0.050 A 
ATOM     16  C   UNL     1      11.030  78.511  -2.173  1.00  0.00     0.115 A 
ATOM     17  C   UNL     1      11.055  79.879  -2.435  1.00  0.00     0.046 A 
ATOM     18  C   UNL     1      11.945  80.401  -3.376  1.00  0.00     0.008 A 
ENDROOT
BRANCH   4  19
ATOM     19  O   UNL     1      18.274  82.344  -7.189  1.00  0.00    -0.393 OA
ATOM     20  H   UNL     1      17.838  83.228  -7.306  1.00  0.00     0.210 HD
ENDBRANCH   4  19
BRANCH  16  21
ATOM     21  O   UNL     1      10.140  78.009  -1.226  1.00  0.00    -0.508 OA
ATOM     22  H   UNL     1       9.774  77.066  -1.289  1.00  0.00     0.293 HD
ENDBRANCH  16  21
TORSDOF 2
ENDMDL
MODEL 2
REMARK VINA RESULT:    -8.837      0.913      6.694
REMARK INTER + INTRA:          -9.354
REMARK INTER:                  -9.354
REMARK INTRA:                   0.000
REMARK UNBOUND:                 0.000
REMARK SMILES C[C@]12CC[C@@H]3c4ccc(O)cc4CC[C@H]3[C@@H]1CC[C@@H]2O
REMARK SMILES IDX 16 1 17 2 18 3 19 4 2 5 1 6 3 7 4 8 5 9 6 10 12 11 13 12
REMARK SMILES IDX 14 13 15 14 11 15 9 16 8 17 7 18 20 19 10 21
REMARK H PARENT 20 20 10 22
REMARK Flexibility Score: inf
ROOT
ATOM      1  C   UNL     1      12.470  79.574  -3.900  1.00  0.00     0.001 C 
ATOM      2  C   UNL     1      11.683  80.478  -2.960  1.00  0.00     0.007 C 
ATOM      3  C   UNL     1      10.727  79.515  -2.232  1.00  0.00     0.032 C 
ATOM      4  C   UNL     1      11.160  78.082  -2.621  1.00  0.00     0.120 C 
ATOM      5  C   UNL     1      12.602  78.247  -3.141  1.00  0.00    -0.003 C 
ATOM      6  C   UNL     1      13.592  78.298  -1.932  1.00  0.00     0.014 C 
ATOM      7  C   UNL     1      13.055  77.168  -4.147  1.00  0.00     0.010 C 
ATOM      8  C   UNL     1      14.376  77.567  -4.854  1.00  0.00     0.009 C 
ATOM      9  C   UNL     1      14.331  78.995  -5.485  1.00  0.00     0.023 C 
ATOM     10  C   UNL     1      15.653  79.448  -6.109  1.00  0.00    -0.041 A 
ATOM     11  C   UNL     1      15.953  80.834  -6.219  1.00  0.00    -0.041 A 
ATOM     12  C   UNL     1      15.088  81.904  -5.588  1.00  0.00     0.036 C 
ATOM     13  C   UNL     1      13.699  81.408  -5.178  1.00  0.00     0.009 C 
ATOM     14  C   UNL     1      13.819  80.056  -4.465  1.00  0.00     0.000 C 
ATOM     15  C   UNL     1      17.134  81.243  -6.860  1.00  0.00     0.050 A 
ATOM     16  C   UNL     1      17.996  80.306  -7.435  1.00  0.00     0.115 A 
ATOM     17  C   UNL     1      17.683  78.950  -7.372  1.00  0.00     0.046 A 
ATOM     18  C   UNL     1      16.520  78.523  -6.730  1.00  0.00     0.008 A 
ENDROOT
BRANCH   4  19
ATOM     19  O   UNL     1      11.082  77.203  -1.528  1.00  0.00    -0.393 OA
ATOM     20  H   UNL     1      11.074  76.285  -1.907  1.00  0.00     0.210 HD
ENDBRANCH   4  19
BRANCH  16  21
ATOM     21  O   UNL     1      19.165  80.713  -8.074  1.00  0.00    -0.508 OA
ATOM     22  H   UNL     1      19.957  81.071  -7.553  1.00  0.00     0.293 HD
ENDBRANCH  16  21
TORSDOF 2
ENDMDL
MODEL 3
REMARK VINA RESULT:    -8.761      3.346      8.625
REMARK INTER + INTRA:          -9.273
REMARK INTER:                  -9.273
REMARK INTRA:                   0.000
REMARK UNBOUND:                 0.000
REMARK SMILES C[C@]12CC[C@@H]3c4ccc(O)cc4CC[C@H]3[C@@H]1CC[C@@H]2O
REMARK SMILES IDX 16 1 17 2 18 3 19 4 2 5 1 6 3 7 4 8 5 9 6 10 12 11 13 12
REMARK SMILES IDX 14 13 15 14 11 15 9 16 8 17 7 18 20 19 10 21
REMARK H PARENT 20 20 10 22
REMARK Flexibility Score: inf
ROOT
ATOM      1  C   UNL     1       8.382  77.349  -1.176  1.00  0.00     0.001 C 
ATOM      2  C   UNL     1       7.500  77.756  -0.002  1.00  0.00     0.007 C 
ATOM      3  C   UNL     1       6.447  76.635   0.078  1.00  0.00     0.032 C 
ATOM      4  C   UNL     1       6.902  75.530  -0.903  1.00  0.00     0.120 C 
ATOM      5  C   UNL     1       8.399  75.815  -1.134  1.00  0.00    -0.003 C 
ATOM      6  C   UNL     1       9.234  75.217   0.044  1.00  0.00     0.014 C 
ATOM      7  C   UNL     1       8.954  75.310  -2.482  1.00  0.00     0.010 C 
ATOM      8  C   UNL     1      10.358  75.899  -2.776  1.00  0.00     0.009 C 
ATOM      9  C   UNL     1      10.414  77.454  -2.649  1.00  0.00     0.023 C 
ATOM     10  C   UNL     1      11.809  78.051  -2.845  1.00  0.00    -0.041 A 
ATOM     11  C   UNL     1      12.143  79.299  -2.249  1.00  0.00    -0.041 A 
ATOM     12  C   UNL     1      11.225  80.003  -1.273  1.00  0.00     0.036 C 
ATOM     13  C   UNL     1       9.788  79.474  -1.291  1.00  0.00     0.009 C 
ATOM     14  C   UNL     1       9.798  77.941  -1.303  1.00  0.00     0.000 C 
ATOM     15  C   UNL     1      13.400  79.875  -2.494  1.00  0.00     0.050 A 
ATOM     16  C   UNL     1      14.311  79.261  -3.358  1.00  0.00     0.115 A 
ATOM     17  C   UNL     1      13.971  78.063  -3.982  1.00  0.00     0.046 A 
ATOM     18  C   UNL     1      12.731  77.469  -3.742  1.00  0.00     0.008 A 
ENDROOT
BRANCH   4  19
ATOM     19  O   UNL     1       6.675  74.246  -0.378  1.00  0.00    -0.393 OA
ATOM     20  H   UNL     1       7.449  74.042   0.209  1.00  0.00     0.210 HD
ENDBRANCH   4  19
BRANCH  16  21
ATOM     21  O   UNL     1      15.556  79.835  -3.604  1.00  0.00    -0.508 OA
ATOM     22  H   UNL     1      16.213  79.419  -4.254  1.00  0.00     0.293 HD
ENDBRANCH  16  21
TORSDOF 2
ENDMDL
MODEL 4
REMARK VINA RESULT:    -8.689      3.827      6.438
REMARK INTER + INTRA:          -9.197
REMARK INTER:                  -9.197
REMARK INTRA:                   0.000
REMARK UNBOUND:                 0.000
REMARK SMILES C[C@]12CC[C@@H]3c4ccc(O)cc4CC[C@H]3[C@@H]1CC[C@@H]2O
REMARK SMILES IDX 16 1 17 2 18 3 19 4 2 5 1 6 3 7 4 8 5 9 6 10 12 11 13 12
REMARK SMILES IDX 14 13 15 14 11 15 9 16 8 17 7 18 20 19 10 21
REMARK H PARENT 20 20 10 22
REMARK Flexibility Score: inf
ROOT
ATOM      1  C   UNL     1      11.177  78.334  -2.620  1.00  0.00     0.001 C 
ATOM      2  C   UNL     1      12.384  77.743  -3.336  1.00  0.00     0.007 C 
ATOM      3  C   UNL     1      13.365  78.925  -3.449  1.00  0.00     0.032 C 
ATOM      4  C   UNL     1      12.773  80.074  -2.601  1.00  0.00     0.120 C 
ATOM      5  C   UNL     1      11.767  79.378  -1.663  1.00  0.00    -0.003 C 
ATOM      6  C   UNL     1      12.527  78.768  -0.440  1.00  0.00     0.014 C 
ATOM      7  C   UNL     1      10.613  80.276  -1.170  1.00  0.00     0.010 C 
ATOM      8  C   UNL     1       9.490  79.443  -0.500  1.00  0.00     0.009 C 
ATOM      9  C   UNL     1       8.991  78.256  -1.384  1.00  0.00     0.023 C 
ATOM     10  C   UNL     1       7.948  77.364  -0.708  1.00  0.00    -0.041 A 
ATOM     11  C   UNL     1       7.803  76.006  -1.105  1.00  0.00    -0.041 A 
ATOM     12  C   UNL     1       8.761  75.336  -2.067  1.00  0.00     0.036 C 
ATOM     13  C   UNL     1       9.628  76.321  -2.855  1.00  0.00     0.009 C 
ATOM     14  C   UNL     1      10.180  77.398  -1.913  1.00  0.00     0.000 C 
ATOM     15  C   UNL     1       6.794  75.215  -0.532  1.00  0.00     0.050 A 
ATOM     16  C   UNL     1       5.896  75.761   0.389  1.00  0.00     0.115 A 
ATOM     17  C   UNL     1       6.002  77.103   0.746  1.00  0.00     0.046 A 
ATOM     18  C   UNL     1       7.006  77.902   0.196  1.00  0.00     0.008 A 
ENDROOT
BRANCH   4  19
ATOM     19  O   UNL     1      13.773  80.766  -1.897  1.00  0.00    -0.393 OA
ATOM     20  H   UNL     1      13.802  81.682  -2.278  1.00  0.00     0.210 HD
ENDBRANCH   4  19
BRANCH  16  21
ATOM     21  O   UNL     1       4.892  74.977   0.954  1.00  0.00    -0.508 OA
ATOM     22  H   UNL     1       3.933  75.301   1.008  1.00  0.00     0.293 HD
ENDBRANCH  16  21
TORSDOF 2
ENDMDL
MODEL 5
REMARK VINA RESULT:    -8.571      1.271      6.485
REMARK INTER + INTRA:          -9.072
REMARK INTER:                  -9.072
REMARK INTRA:                   0.000
REMARK UNBOUND:                 0.000
REMARK SMILES C[C@]12CC[C@@H]3c4ccc(O)cc4CC[C@H]3[C@@H]1CC[C@@H]2O
REMARK SMILES IDX 16 1 17 2 18 3 19 4 2 5 1 6 3 7 4 8 5 9 6 10 12 11 13 12
REMARK SMILES IDX 14 13 15 14 11 15 9 16 8 17 7 18 20 19 10 21
REMARK H PARENT 20 20 10 22
REMARK Flexibility Score: inf
ROOT
ATOM      1  C   UNL     1      12.261  78.225  -2.607  1.00  0.00     0.001 C 
ATOM      2  C   UNL     1      11.015  77.375  -2.822  1.00  0.00     0.007 C 
ATOM      3  C   UNL     1      10.188  77.599  -1.543  1.00  0.00     0.032 C 
ATOM      4  C   UNL     1      10.885  78.734  -0.756  1.00  0.00     0.120 C 
ATOM      5  C   UNL     1      11.770  79.437  -1.805  1.00  0.00    -0.003 C 
ATOM      6  C   UNL     1      10.903  80.442  -2.631  1.00  0.00     0.014 C 
ATOM      7  C   UNL     1      13.007  80.158  -1.230  1.00  0.00     0.010 C 
ATOM      8  C   UNL     1      13.999  80.566  -2.349  1.00  0.00     0.009 C 
ATOM      9  C   UNL     1      14.380  79.385  -3.297  1.00  0.00     0.023 C 
ATOM     10  C   UNL     1      15.287  79.782  -4.463  1.00  0.00    -0.041 A 
ATOM     11  C   UNL     1      15.280  79.021  -5.665  1.00  0.00    -0.041 A 
ATOM     12  C   UNL     1      14.280  77.913  -5.917  1.00  0.00     0.036 C 
ATOM     13  C   UNL     1      13.563  77.434  -4.653  1.00  0.00     0.009 C 
ATOM     14  C   UNL     1      13.115  78.640  -3.820  1.00  0.00     0.000 C 
ATOM     15  C   UNL     1      16.168  79.348  -6.703  1.00  0.00     0.050 A 
ATOM     16  C   UNL     1      17.095  80.383  -6.550  1.00  0.00     0.115 A 
ATOM     17  C   UNL     1      17.139  81.100  -5.357  1.00  0.00     0.046 A 
ATOM     18  C   UNL     1      16.257  80.798  -4.319  1.00  0.00     0.008 A 
ENDROOT
BRANCH   4  19
ATOM     19  O   UNL     1       9.954  79.605  -0.168  1.00  0.00    -0.393 OA
ATOM     20  H   UNL     1       9.648  80.217  -0.887  1.00  0.00     0.210 HD
ENDBRANCH   4  19
BRANCH  16  21
ATOM     21  O   UNL     1      17.978  80.703  -7.578  1.00  0.00    -0.508 OA
ATOM     22  H   UNL     1      17.876  81.555  -8.119  1.00  0.00     0.293 HD
ENDBRANCH  16  21
TORSDOF 2
ENDMDL
MODEL 6
REMARK VINA RESULT:    -8.164      5.430      8.472
REMARK INTER + INTRA:          -8.641
REMARK INTER:                  -8.641
REMARK INTRA:                   0.000
REMARK UNBOUND:                 0.000
REMARK SMILES C[C@]12CC[C@@H]3c4ccc(O)cc4CC[C@H]3[C@@H]1CC[C@@H]2O
REMARK SMILES IDX 16 1 17 2 18 3 19 4 2 5 1 6 3 7 4 8 5 9 6 10 12 11 13 12
REMARK SMILES IDX 14 13 15 14 11 15 9 16 8 17 7 18 20 19 10 21
REMARK H PARENT 20 20 10 22
REMARK Flexibility Score: inf
ROOT
ATOM      1  C   UNL     1       9.194  76.441  -2.193  1.00  0.00     0.001 C 
ATOM      2  C   UNL     1       7.915  76.794  -2.942  1.00  0.00     0.007 C 
ATOM      3  C   UNL     1       7.094  75.491  -2.908  1.00  0.00     0.032 C 
ATOM      4  C   UNL     1       7.835  74.524  -1.957  1.00  0.00     0.120 C 
ATOM      5  C   UNL     1       8.750  75.439  -1.119  1.00  0.00    -0.003 C 
ATOM      6  C   UNL     1       7.928  76.076   0.048  1.00  0.00     0.014 C 
ATOM      7  C   UNL     1      10.014  74.754  -0.559  1.00  0.00     0.010 C 
ATOM      8  C   UNL     1      11.025  75.791  -0.005  1.00  0.00     0.009 C 
ATOM      9  C   UNL     1      11.360  76.930  -1.019  1.00  0.00     0.023 C 
ATOM     10  C   UNL     1      12.285  78.014  -0.464  1.00  0.00    -0.041 A 
ATOM     11  C   UNL     1      12.250  79.329  -1.005  1.00  0.00    -0.041 A 
ATOM     12  C   UNL     1      11.207  79.765  -2.011  1.00  0.00     0.036 C 
ATOM     13  C   UNL     1      10.468  78.599  -2.672  1.00  0.00     0.009 C 
ATOM     14  C   UNL     1      10.067  77.568  -1.610  1.00  0.00     0.000 C 
ATOM     15  C   UNL     1      13.154  80.299  -0.540  1.00  0.00     0.050 A 
ATOM     16  C   UNL     1      14.121  79.975   0.415  1.00  0.00     0.115 A 
ATOM     17  C   UNL     1      14.192  78.676   0.913  1.00  0.00     0.046 A 
ATOM     18  C   UNL     1      13.296  77.701   0.472  1.00  0.00     0.008 A 
ENDROOT
BRANCH   4  19
ATOM     19  O   UNL     1       6.939  73.790  -1.162  1.00  0.00    -0.393 OA
ATOM     20  H   UNL     1       6.054  73.851  -1.607  1.00  0.00     0.210 HD
ENDBRANCH   4  19
BRANCH  16  21
ATOM     21  O   UNL     1      15.020  80.936   0.872  1.00  0.00    -0.508 OA
ATOM     22  H   UNL     1      14.987  81.283   1.824  1.00  0.00     0.293 HD
ENDBRANCH  16  21
TORSDOF 2
ENDMDL
MODEL 7
REMARK VINA RESULT:    -8.088      2.797      7.900
REMARK INTER + INTRA:          -8.561
REMARK INTER:                  -8.561
REMARK INTRA:                   0.000
REMARK UNBOUND:                 0.000
REMARK SMILES C[C@]12CC[C@@H]3c4ccc(O)cc4CC[C@H]3[C@@H]1CC[C@@H]2O
REMARK SMILES IDX 16 1 17 2 18 3 19 4 2 5 1 6 3 7 4 8 5 9 6 10 12 11 13 12
REMARK SMILES IDX 14 13 15 14 11 15 9 16 8 17 7 18 20 19 10 21
REMARK H PARENT 20 20 10 22
REMARK Flexibility Score: inf
ROOT
ATOM      1  C   UNL     1       8.990  77.939  -0.966  1.00  0.00     0.001 C 
ATOM      2  C   UNL     1       7.883  76.898  -1.071  1.00  0.00     0.007 C 
ATOM      3  C   UNL     1       6.769  77.447  -0.159  1.00  0.00     0.032 C 
ATOM      4  C   UNL     1       7.195  78.876   0.249  1.00  0.00     0.120 C 
ATOM      5  C   UNL     1       8.252  79.274  -0.800  1.00  0.00    -0.003 C 
ATOM      6  C   UNL     1       7.540  79.777  -2.097  1.00  0.00     0.014 C 
ATOM      7  C   UNL     1       9.276  80.325  -0.320  1.00  0.00     0.010 C 
ATOM      8  C   UNL     1      10.473  80.441  -1.299  1.00  0.00     0.009 C 
ATOM      9  C   UNL     1      11.135  79.066  -1.629  1.00  0.00     0.023 C 
ATOM     10  C   UNL     1      12.261  79.142  -2.663  1.00  0.00    -0.041 A 
ATOM     11  C   UNL     1      12.579  78.007  -3.458  1.00  0.00    -0.041 A 
ATOM     12  C   UNL     1      11.735  76.750  -3.452  1.00  0.00     0.036 C 
ATOM     13  C   UNL     1      10.777  76.661  -2.262  1.00  0.00     0.009 C 
ATOM     14  C   UNL     1      10.074  78.008  -2.058  1.00  0.00     0.000 C 
ATOM     15  C   UNL     1      13.661  78.062  -4.352  1.00  0.00     0.050 A 
ATOM     16  C   UNL     1      14.461  79.205  -4.434  1.00  0.00     0.115 A 
ATOM     17  C   UNL     1      14.184  80.302  -3.623  1.00  0.00     0.046 A 
ATOM     18  C   UNL     1      13.106  80.271  -2.737  1.00  0.00     0.008 A 
ENDROOT
BRANCH   4  19
ATOM     19  O   UNL     1       6.101  79.757   0.269  1.00  0.00    -0.393 OA
ATOM     20  H   UNL     1       5.734  79.730   1.191  1.00  0.00     0.210 HD
ENDBRANCH   4  19
BRANCH  16  21
ATOM     21  O   UNL     1      15.537  79.257  -5.318  1.00  0.00    -0.508 OA
ATOM     22  H   UNL     1      15.859  78.432  -5.811  1.00  0.00     0.293 HD
ENDBRANCH  16  21
TORSDOF 2
ENDMDL
MODEL 8
REMARK VINA RESULT:    -7.848      5.553      8.073
REMARK INTER + INTRA:          -8.307
REMARK INTER:                  -8.307
REMARK INTRA:                   0.000
REMARK UNBOUND:                 0.000
REMARK SMILES C[C@]12CC[C@@H]3c4ccc(O)cc4CC[C@H]3[C@@H]1CC[C@@H]2O
REMARK SMILES IDX 16 1 17 2 18 3 19 4 2 5 1 6 3 7 4 8 5 9 6 10 12 11 13 12
REMARK SMILES IDX 14 13 15 14 11 15 9 16 8 17 7 18 20 19 10 21
REMARK H PARENT 20 20 10 22
REMARK Flexibility Score: inf
ROOT
ATOM      1  C   UNL     1       8.685  78.153  -1.674  1.00  0.00     0.001 C 
ATOM      2  C   UNL     1       7.952  79.363  -2.240  1.00  0.00     0.007 C 
ATOM      3  C   UNL     1       8.481  80.542  -1.402  1.00  0.00     0.032 C 
ATOM      4  C   UNL     1       9.648  79.993  -0.550  1.00  0.00     0.120 C 
ATOM      5  C   UNL     1      10.062  78.691  -1.264  1.00  0.00    -0.003 C 
ATOM      6  C   UNL     1      11.001  79.029  -2.468  1.00  0.00     0.014 C 
ATOM      7  C   UNL     1      10.731  77.638  -0.355  1.00  0.00     0.010 C 
ATOM      8  C   UNL     1      10.830  76.260  -1.059  1.00  0.00     0.009 C 
ATOM      9  C   UNL     1       9.471  75.767  -1.647  1.00  0.00     0.023 C 
ATOM     10  C   UNL     1       9.562  74.453  -2.425  1.00  0.00    -0.041 A 
ATOM     11  C   UNL     1       8.613  74.158  -3.443  1.00  0.00    -0.041 A 
ATOM     12  C   UNL     1       7.594  75.171  -3.921  1.00  0.00     0.036 C 
ATOM     13  C   UNL     1       7.419  76.359  -2.972  1.00  0.00     0.009 C 
ATOM     14  C   UNL     1       8.791  76.868  -2.516  1.00  0.00     0.000 C 
ATOM     15  C   UNL     1       8.659  72.918  -4.102  1.00  0.00     0.050 A 
ATOM     16  C   UNL     1       9.596  71.949  -3.735  1.00  0.00     0.115 A 
ATOM     17  C   UNL     1      10.497  72.214  -2.706  1.00  0.00     0.046 A 
ATOM     18  C   UNL     1      10.475  73.445  -2.047  1.00  0.00     0.008 A 
ENDROOT
BRANCH   4  19
ATOM     19  O   UNL     1      10.705  80.915  -0.462  1.00  0.00    -0.393 OA
ATOM     20  H   UNL     1      10.320  81.747  -0.081  1.00  0.00     0.210 HD
ENDBRANCH   4  19
BRANCH  16  21
ATOM     21  O   UNL     1       9.639  70.718  -4.385  1.00  0.00    -0.508 OA
ATOM     22  H   UNL     1       9.339  70.616  -5.348  1.00  0.00     0.293 HD
ENDBRANCH  16  21
TORSDOF 2
ENDMDL
MODEL 9
REMARK VINA RESULT:    -7.774      3.287      5.515
REMARK INTER + INTRA:          -8.228
REMARK INTER:                  -8.228
REMARK INTRA:                   0.000
REMARK UNBOUND:                 0.000
REMARK SMILES C[C@]12CC[C@@H]3c4ccc(O)cc4CC[C@H]3[C@@H]1CC[C@@H]2O
REMARK SMILES IDX 16 1 17 2 18 3 19 4 2 5 1 6 3 7 4 8 5 9 6 10 12 11 13 12
REMARK SMILES IDX 14 13 15 14 11 15 9 16 8 17 7 18 20 19 10 21
REMARK H PARENT 20 20 10 22
REMARK Flexibility Score: inf
ROOT
ATOM      1  C   UNL     1      11.735  78.184  -3.252  1.00  0.00     0.001 C 
ATOM      2  C   UNL     1      12.956  77.387  -3.691  1.00  0.00     0.007 C 
ATOM      3  C   UNL     1      13.900  78.449  -4.284  1.00  0.00     0.032 C 
ATOM      4  C   UNL     1      13.278  79.827  -3.957  1.00  0.00     0.120 C 
ATOM      5  C   UNL     1      12.298  79.539  -2.802  1.00  0.00    -0.003 C 
ATOM      6  C   UNL     1      13.081  79.489  -1.450  1.00  0.00     0.014 C 
ATOM      7  C   UNL     1      11.120  80.529  -2.691  1.00  0.00     0.010 C 
ATOM      8  C   UNL     1      10.025  80.006  -1.726  1.00  0.00     0.009 C 
ATOM      9  C   UNL     1       9.558  78.552  -2.052  1.00  0.00     0.023 C 
ATOM     10  C   UNL     1       8.545  77.979  -1.059  1.00  0.00    -0.041 A 
ATOM     11  C   UNL     1       8.440  76.572  -0.877  1.00  0.00    -0.041 A 
ATOM     12  C   UNL     1       9.413  75.598  -1.506  1.00  0.00     0.036 C 
ATOM     13  C   UNL     1      10.246  76.206  -2.635  1.00  0.00     0.009 C 
ATOM     14  C   UNL     1      10.769  77.585  -2.212  1.00  0.00     0.000 C 
ATOM     15  C   UNL     1       7.457  76.052  -0.018  1.00  0.00     0.050 A 
ATOM     16  C   UNL     1       6.548  76.897   0.622  1.00  0.00     0.115 A 
ATOM     17  C   UNL     1       6.615  78.272   0.409  1.00  0.00     0.046 A 
ATOM     18  C   UNL     1       7.591  78.810  -0.431  1.00  0.00     0.008 A 
ENDROOT
BRANCH   4  19
ATOM     19  O   UNL     1      14.259  80.768  -3.605  1.00  0.00    -0.393 OA
ATOM     20  H   UNL     1      13.795  81.642  -3.524  1.00  0.00     0.210 HD
ENDBRANCH   4  19
BRANCH  16  21
ATOM     21  O   UNL     1       5.570  76.380   1.469  1.00  0.00    -0.508 OA
ATOM     22  H   UNL     1       5.310  75.400   1.443  1.00  0.00     0.293 HD
ENDBRANCH  16  21
TORSDOF 2
ENDMDL
MODEL 10
REMARK VINA RESULT:    -7.724      2.015      6.703
REMARK INTER + INTRA:          -8.176
REMARK INTER:                  -8.176
REMARK INTRA:                   0.000
REMARK UNBOUND:                 0.000
REMARK SMILES C[C@]12CC[C@@H]3c4ccc(O)cc4CC[C@H]3[C@@H]1CC[C@@H]2O
REMARK SMILES IDX 16 1 17 2 18 3 19 4 2 5 1 6 3 7 4 8 5 9 6 10 12 11 13 12
REMARK SMILES IDX 14 13 15 14 11 15 9 16 8 17 7 18 20 19 10 21
REMARK H PARENT 20 20 10 22
REMARK Flexibility Score: inf
ROOT
ATOM      1  C   UNL     1      12.831  79.591  -2.394  1.00  0.00     0.001 C 
ATOM      2  C   UNL     1      11.418  80.062  -2.071  1.00  0.00     0.007 C 
ATOM      3  C   UNL     1      11.106  79.399  -0.717  1.00  0.00     0.032 C 
ATOM      4  C   UNL     1      12.425  78.764  -0.219  1.00  0.00     0.120 C 
ATOM      5  C   UNL     1      13.524  79.482  -1.029  1.00  0.00    -0.003 C 
ATOM      6  C   UNL     1      13.850  80.858  -0.365  1.00  0.00     0.014 C 
ATOM      7  C   UNL     1      14.822  78.669  -1.221  1.00  0.00     0.010 C 
ATOM      8  C   UNL     1      15.742  79.312  -2.290  1.00  0.00     0.009 C 
ATOM      9  C   UNL     1      15.012  79.602  -3.639  1.00  0.00     0.023 C 
ATOM     10  C   UNL     1      15.875  80.319  -4.680  1.00  0.00    -0.041 A 
ATOM     11  C   UNL     1      15.266  81.119  -5.685  1.00  0.00    -0.041 A 
ATOM     12  C   UNL     1      13.786  81.439  -5.681  1.00  0.00     0.036 C 
ATOM     13  C   UNL     1      12.965  80.532  -4.761  1.00  0.00     0.009 C 
ATOM     14  C   UNL     1      13.679  80.375  -3.413  1.00  0.00     0.000 C 
ATOM     15  C   UNL     1      16.059  81.714  -6.680  1.00  0.00     0.050 A 
ATOM     16  C   UNL     1      17.438  81.489  -6.723  1.00  0.00     0.115 A 
ATOM     17  C   UNL     1      18.034  80.667  -5.769  1.00  0.00     0.046 A 
ATOM     18  C   UNL     1      17.264  80.077  -4.766  1.00  0.00     0.008 A 
ENDROOT
BRANCH   4  19
ATOM     19  O   UNL     1      12.589  78.926   1.166  1.00  0.00    -0.393 OA
ATOM     20  H   UNL     1      13.154  78.171   1.473  1.00  0.00     0.210 HD
ENDBRANCH   4  19
BRANCH  16  21
ATOM     21  O   UNL     1      18.223  82.075  -7.713  1.00  0.00    -0.508 OA
ATOM     22  H   UNL     1      17.914  82.122  -8.677  1.00  0.00     0.293 HD
ENDBRANCH  16  21
TORSDOF 2
ENDMDL
MODEL 11
REMARK VINA RESULT:    -7.583      4.893      6.726
REMARK INTER + INTRA:          -8.026
REMARK INTER:                  -8.026
REMARK INTRA:                   0.000
REMARK UNBOUND:                 0.000
REMARK SMILES C[C@]12CC[C@@H]3c4ccc(O)cc4CC[C@H]3[C@@H]1CC[C@@H]2O
REMARK SMILES IDX 16 1 17 2 18 3 19 4 2 5 1 6 3 7 4 8 5 9 6 10 12 11 13 12
REMARK SMILES IDX 14 13 15 14 11 15 9 16 8 17 7 18 20 19 10 21
REMARK H PARENT 20 20 10 22
REMARK Flexibility Score: inf
ROOT
ATOM      1  C   UNL     1      11.915  79.366  -0.263  1.00  0.00     0.001 C 
ATOM      2  C   UNL     1      12.320  80.826  -0.415  1.00  0.00     0.007 C 
ATOM      3  C   UNL     1      13.683  80.910   0.296  1.00  0.00     0.032 C 
ATOM      4  C   UNL     1      14.100  79.458   0.626  1.00  0.00     0.120 C 
ATOM      5  C   UNL     1      13.238  78.590  -0.311  1.00  0.00    -0.003 C 
ATOM      6  C   UNL     1      13.896  78.535  -1.727  1.00  0.00     0.014 C 
ATOM      7  C   UNL     1      12.967  77.159   0.199  1.00  0.00     0.010 C 
ATOM      8  C   UNL     1      11.854  76.462  -0.625  1.00  0.00     0.009 C 
ATOM      9  C   UNL     1      10.550  77.312  -0.746  1.00  0.00     0.023 C 
ATOM     10  C   UNL     1       9.470  76.686  -1.631  1.00  0.00    -0.041 A 
ATOM     11  C   UNL     1       8.508  77.511  -2.276  1.00  0.00    -0.041 A 
ATOM     12  C   UNL     1       8.597  79.022  -2.265  1.00  0.00     0.036 C 
ATOM     13  C   UNL     1       9.552  79.573  -1.203  1.00  0.00     0.009 C 
ATOM     14  C   UNL     1      10.858  78.768  -1.210  1.00  0.00     0.000 C 
ATOM     15  C   UNL     1       7.476  76.923  -3.026  1.00  0.00     0.050 A 
ATOM     16  C   UNL     1       7.354  75.534  -3.107  1.00  0.00     0.115 A 
ATOM     17  C   UNL     1       8.266  74.721  -2.438  1.00  0.00     0.046 A 
ATOM     18  C   UNL     1       9.305  75.286  -1.697  1.00  0.00     0.008 A 
ENDROOT
BRANCH   4  19
ATOM     19  O   UNL     1      15.476  79.256   0.429  1.00  0.00    -0.393 OA
ATOM     20  H   UNL     1      15.831  80.098   0.040  1.00  0.00     0.210 HD
ENDBRANCH   4  19
BRANCH  16  21
ATOM     21  O   UNL     1       6.328  74.952  -3.848  1.00  0.00    -0.508 OA
ATOM     22  H   UNL     1       5.354  75.143  -3.645  1.00  0.00     0.293 HD
ENDBRANCH  16  21
TORSDOF 2
ENDMDL
MODEL 12
REMARK VINA RESULT:    -7.542      4.867      6.413
REMARK INTER + INTRA:          -7.983
REMARK INTER:                  -7.983
REMARK INTRA:                   0.000
REMARK UNBOUND:                 0.000
REMARK SMILES C[C@]12CC[C@@H]3c4ccc(O)cc4CC[C@H]3[C@@H]1CC[C@@H]2O
REMARK SMILES IDX 16 1 17 2 18 3 19 4 2 5 1 6 3 7 4 8 5 9 6 10 12 11 13 12
REMARK SMILES IDX 14 13 15 14 11 15 9 16 8 17 7 18 20 19 10 21
REMARK H PARENT 20 20 10 22
REMARK Flexibility Score: inf
ROOT
ATOM      1  C   UNL     1      12.831  77.903  -0.396  1.00  0.00     0.001 C 
ATOM      2  C   UNL     1      13.658  77.853   0.882  1.00  0.00     0.007 C 
ATOM      3  C   UNL     1      14.674  78.998   0.712  1.00  0.00     0.032 C 
ATOM      4  C   UNL     1      14.244  79.789  -0.545  1.00  0.00     0.120 C 
ATOM      5  C   UNL     1      12.769  79.392  -0.760  1.00  0.00    -0.003 C 
ATOM      6  C   UNL     1      11.855  80.243   0.180  1.00  0.00     0.014 C 
ATOM      7  C   UNL     1      12.275  79.504  -2.217  1.00  0.00     0.010 C 
ATOM      8  C   UNL     1      10.906  78.802  -2.409  1.00  0.00     0.009 C 
ATOM      9  C   UNL     1      10.885  77.334  -1.880  1.00  0.00     0.023 C 
ATOM     10  C   UNL     1       9.520  76.650  -1.975  1.00  0.00    -0.041 A 
ATOM     11  C   UNL     1       9.188  75.589  -1.087  1.00  0.00    -0.041 A 
ATOM     12  C   UNL     1      10.071  75.202   0.080  1.00  0.00     0.036 C 
ATOM     13  C   UNL     1      11.491  75.766  -0.012  1.00  0.00     0.009 C 
ATOM     14  C   UNL     1      11.440  77.241  -0.427  1.00  0.00     0.000 C 
ATOM     15  C   UNL     1       7.962  74.918  -1.229  1.00  0.00     0.050 A 
ATOM     16  C   UNL     1       7.084  75.248  -2.264  1.00  0.00     0.115 A 
ATOM     17  C   UNL     1       7.424  76.253  -3.166  1.00  0.00     0.046 A 
ATOM     18  C   UNL     1       8.633  76.939  -3.035  1.00  0.00     0.008 A 
ENDROOT
BRANCH   4  19
ATOM     19  O   UNL     1      14.406  81.173  -0.366  1.00  0.00    -0.393 OA
ATOM     20  H   UNL     1      13.868  81.419   0.430  1.00  0.00     0.210 HD
ENDBRANCH   4  19
BRANCH  16  21
ATOM     21  O   UNL     1       5.870  74.579  -2.407  1.00  0.00    -0.508 OA
ATOM     22  H   UNL     1       5.307  74.674  -3.244  1.00  0.00     0.293 HD
ENDBRANCH  16  21
TORSDOF 2
ENDMDL
MODEL 13
REMARK VINA RESULT:    -7.417      1.919      2.662
REMARK INTER + INTRA:          -7.850
REMARK INTER:                  -7.850
REMARK INTRA:                   0.000
REMARK UNBOUND:                 0.000
REMARK SMILES C[C@]12CC[C@@H]3c4ccc(O)cc4CC[C@H]3[C@@H]1CC[C@@H]2O
REMARK SMILES IDX 16 1 17 2 18 3 19 4 2 5 1 6 3 7 4 8 5 9 6 10 12 11 13 12
REMARK SMILES IDX 14 13 15 14 11 15 9 16 8 17 7 18 20 19 10 21
REMARK H PARENT 20 20 10 22
REMARK Flexibility Score: inf
ROOT
ATOM      1  C   UNL     1      15.769  80.074  -4.494  1.00  0.00     0.001 C 
ATOM      2  C   UNL     1      17.245  80.443  -4.415  1.00  0.00     0.007 C 
ATOM      3  C   UNL     1      17.695  80.488  -5.887  1.00  0.00     0.032 C 
ATOM      4  C   UNL     1      16.415  80.364  -6.747  1.00  0.00     0.120 C 
ATOM      5  C   UNL     1      15.271  80.740  -5.784  1.00  0.00    -0.003 C 
ATOM      6  C   UNL     1      15.150  82.296  -5.695  1.00  0.00     0.014 C 
ATOM      7  C   UNL     1      13.900  80.125  -6.137  1.00  0.00     0.010 C 
ATOM      8  C   UNL     1      12.889  80.285  -4.973  1.00  0.00     0.009 C 
ATOM      9  C   UNL     1      13.439  79.777  -3.603  1.00  0.00     0.023 C 
ATOM     10  C   UNL     1      12.494  80.008  -2.422  1.00  0.00    -0.041 A 
ATOM     11  C   UNL     1      13.013  80.123  -1.102  1.00  0.00    -0.041 A 
ATOM     12  C   UNL     1      14.498  80.197  -0.819  1.00  0.00     0.036 C 
ATOM     13  C   UNL     1      15.370  79.750  -1.995  1.00  0.00     0.009 C 
ATOM     14  C   UNL     1      14.847  80.371  -3.296  1.00  0.00     0.000 C 
ATOM     15  C   UNL     1      12.134  80.261  -0.016  1.00  0.00     0.050 A 
ATOM     16  C   UNL     1      10.750  80.236  -0.209  1.00  0.00     0.115 A 
ATOM     17  C   UNL     1      10.235  80.074  -1.494  1.00  0.00     0.046 A 
ATOM     18  C   UNL     1      11.093  79.947  -2.587  1.00  0.00     0.008 A 
ENDROOT
BRANCH   4  19
ATOM     19  O   UNL     1      16.465  81.202  -7.873  1.00  0.00    -0.393 OA
ATOM     20  H   UNL     1      16.252  82.117  -7.553  1.00  0.00     0.210 HD
ENDBRANCH   4  19
BRANCH  16  21
ATOM     21  O   UNL     1       9.879  80.367   0.869  1.00  0.00    -0.508 OA
ATOM     22  H   UNL     1       9.743  81.257   1.336  1.00  0.00     0.293 HD
ENDBRANCH  16  21
TORSDOF 2
ENDMDL
MODEL 14
REMARK VINA RESULT:    -7.266      6.184      8.201
REMARK INTER + INTRA:          -7.690
REMARK INTER:                  -7.690
REMARK INTRA:                   0.000
REMARK UNBOUND:                 0.000
REMARK SMILES C[C@]12CC[C@@H]3c4ccc(O)cc4CC[C@H]3[C@@H]1CC[C@@H]2O
REMARK SMILES IDX 16 1 17 2 18 3 19 4 2 5 1 6 3 7 4 8 5 9 6 10 12 11 13 12
REMARK SMILES IDX 14 13 15 14 11 15 9 16 8 17 7 18 20 19 10 21
REMARK H PARENT 20 20 10 22
REMARK Flexibility Score: inf
ROOT
ATOM      1  C   UNL     1       8.414  76.533  -2.964  1.00  0.00     0.001 C 
ATOM      2  C   UNL     1       6.994  76.033  -3.203  1.00  0.00     0.007 C 
ATOM      3  C   UNL     1       7.192  74.652  -3.855  1.00  0.00     0.032 C 
ATOM      4  C   UNL     1       8.701  74.328  -3.758  1.00  0.00     0.120 C 
ATOM      5  C   UNL     1       9.224  75.267  -2.653  1.00  0.00    -0.003 C 
ATOM      6  C   UNL     1       8.924  74.645  -1.251  1.00  0.00     0.014 C 
ATOM      7  C   UNL     1      10.721  75.624  -2.761  1.00  0.00     0.010 C 
ATOM      8  C   UNL     1      11.095  76.799  -1.821  1.00  0.00     0.009 C 
ATOM      9  C   UNL     1      10.168  78.044  -1.990  1.00  0.00     0.023 C 
ATOM     10  C   UNL     1      10.460  79.182  -1.010  1.00  0.00    -0.041 A 
ATOM     11  C   UNL     1       9.433  80.100  -0.655  1.00  0.00    -0.041 A 
ATOM     12  C   UNL     1       7.992  79.908  -1.077  1.00  0.00     0.036 C 
ATOM     13  C   UNL     1       7.814  78.895  -2.210  1.00  0.00     0.009 C 
ATOM     14  C   UNL     1       8.662  77.648  -1.931  1.00  0.00     0.000 C 
ATOM     15  C   UNL     1       9.728  81.185   0.187  1.00  0.00     0.050 A 
ATOM     16  C   UNL     1      11.031  81.403   0.642  1.00  0.00     0.115 A 
ATOM     17  C   UNL     1      12.051  80.535   0.258  1.00  0.00     0.046 A 
ATOM     18  C   UNL     1      11.775  79.445  -0.569  1.00  0.00     0.008 A 
ENDROOT
BRANCH   4  19
ATOM     19  O   UNL     1       8.922  72.973  -3.459  1.00  0.00    -0.393 OA
ATOM     20  H   UNL     1       9.899  72.823  -3.541  1.00  0.00     0.210 HD
ENDBRANCH   4  19
BRANCH  16  21
ATOM     21  O   UNL     1      11.324  82.482   1.473  1.00  0.00    -0.508 OA
ATOM     22  H   UNL     1      12.173  82.511   2.025  1.00  0.00     0.293 HD
ENDBRANCH  16  21
TORSDOF 2
ENDMDL
MODEL 15
REMARK VINA RESULT:    -7.238      3.332      5.572
REMARK INTER + INTRA:          -7.662
REMARK INTER:                  -7.662
REMARK INTRA:                   0.000
REMARK UNBOUND:                 0.000
REMARK SMILES C[C@]12CC[C@@H]3c4ccc(O)cc4CC[C@H]3[C@@H]1CC[C@@H]2O
REMARK SMILES IDX 16 1 17 2 18 3 19 4 2 5 1 6 3 7 4 8 5 9 6 10 12 11 13 12
REMARK SMILES IDX 14 13 15 14 11 15 9 16 8 17 7 18 20 19 10 21
REMARK H PARENT 20 20 10 22
REMARK Flexibility Score: inf
ROOT
ATOM      1  C   UNL     1      13.079  79.645  -1.620  1.00  0.00     0.001 C 
ATOM      2  C   UNL     1      14.100  80.773  -1.539  1.00  0.00     0.007 C 
ATOM      3  C   UNL     1      15.263  80.285  -2.422  1.00  0.00     0.032 C 
ATOM      4  C   UNL     1      14.768  79.010  -3.143  1.00  0.00     0.120 C 
ATOM      5  C   UNL     1      13.231  79.086  -3.041  1.00  0.00    -0.003 C 
ATOM      6  C   UNL     1      12.677  80.025  -4.161  1.00  0.00     0.014 C 
ATOM      7  C   UNL     1      12.511  77.722  -3.093  1.00  0.00     0.010 C 
ATOM      8  C   UNL     1      11.023  77.848  -2.675  1.00  0.00     0.009 C 
ATOM      9  C   UNL     1      10.826  78.578  -1.309  1.00  0.00     0.023 C 
ATOM     10  C   UNL     1       9.362  78.796  -0.918  1.00  0.00    -0.041 A 
ATOM     11  C   UNL     1       9.005  79.867  -0.053  1.00  0.00    -0.041 A 
ATOM     12  C   UNL     1       9.997  80.926   0.379  1.00  0.00     0.036 C 
ATOM     13  C   UNL     1      11.457  80.534   0.137  1.00  0.00     0.009 C 
ATOM     14  C   UNL     1      11.607  79.926  -1.263  1.00  0.00     0.000 C 
ATOM     15  C   UNL     1       7.671  80.015   0.360  1.00  0.00     0.050 A 
ATOM     16  C   UNL     1       6.696  79.093  -0.030  1.00  0.00     0.115 A 
ATOM     17  C   UNL     1       7.050  78.015  -0.838  1.00  0.00     0.046 A 
ATOM     18  C   UNL     1       8.368  77.857  -1.268  1.00  0.00     0.008 A 
ENDROOT
BRANCH   4  19
ATOM     19  O   UNL     1      15.214  78.961  -4.474  1.00  0.00    -0.393 OA
ATOM     20  H   UNL     1      16.042  78.413  -4.473  1.00  0.00     0.210 HD
ENDBRANCH   4  19
BRANCH  16  21
ATOM     21  O   UNL     1       5.374  79.238   0.383  1.00  0.00    -0.508 OA
ATOM     22  H   UNL     1       4.693  79.732  -0.182  1.00  0.00     0.293 HD
ENDBRANCH  16  21
TORSDOF 2
ENDMDL
