MODEL 1
REMARK VINA RESULT:    -9.370      0.000      0.000
REMARK INTER + INTRA:         -18.590
REMARK INTER:                 -16.218
REMARK INTRA:                  -2.373
REMARK UNBOUND:                -2.373
REMARK SMILES Cc1c(C)c2c(c(C)c1O)CC[C@@](C)(CCC[C@H](C)CCC[C@H](C)CCCC(C)C)O2
REMARK SMILES IDX 21 1 22 2 23 3 24 4 25 5 26 6 27 7 28 8 29 9 30 10 20 11
REMARK SMILES IDX 18 12 19 13 17 14 16 15 15 16 13 17 14 18 12 19 31 20 11 21
REMARK SMILES IDX 5 22 6 23 3 24 7 25 4 26 2 27 9 28 8 29 1 30 10 31
REMARK H PARENT 10 32
REMARK Flexibility Score: inf
ROOT
ATOM      1  C   UNL     1      13.087  78.520  -3.259  1.00  0.00     0.001 C 
ENDROOT
BRANCH   1   2
ATOM      2  C   UNL     1      13.038  79.910  -3.928  1.00  0.00     0.003 C 
BRANCH   2   3
ATOM      3  C   UNL     1      13.818  80.090  -5.259  1.00  0.00    -0.014 C 
ATOM      4  C   UNL     1      14.193  78.749  -5.907  1.00  0.00     0.007 C 
BRANCH   3   5
ATOM      5  C   UNL     1      15.052  81.024  -5.122  1.00  0.00     0.003 C 
BRANCH   5   6
ATOM      6  C   UNL     1      16.387  80.254  -5.120  1.00  0.00     0.001 C 
BRANCH   6   7
ATOM      7  C   UNL     1      17.542  81.046  -5.777  1.00  0.00     0.003 C 
BRANCH   7   8
ATOM      8  C   UNL     1      17.960  80.498  -7.161  1.00  0.00    -0.017 C 
ATOM      9  C   UNL     1      17.334  81.296  -8.313  1.00  0.00     0.007 C 
ATOM     10  C   UNL     1      17.570  79.019  -7.281  1.00  0.00     0.007 C 
ENDBRANCH   7   8
ENDBRANCH   6   7
ENDBRANCH   5   6
ENDBRANCH   3   5
ENDBRANCH   2   3
ENDBRANCH   1   2
BRANCH   1  11
ATOM     11  C   UNL     1      13.801  78.518  -1.898  1.00  0.00     0.003 C 
BRANCH  11  12
ATOM     12  C   UNL     1      12.849  78.779  -0.705  1.00  0.00    -0.014 C 
ATOM     13  C   UNL     1      13.096  77.740   0.401  1.00  0.00     0.007 C 
BRANCH  12  14
ATOM     14  C   UNL     1      12.901  80.223  -0.135  1.00  0.00     0.003 C 
BRANCH  14  15
ATOM     15  C   UNL     1      11.641  81.068  -0.413  1.00  0.00     0.004 C 
BRANCH  15  16
ATOM     16  C   UNL     1      10.329  80.270  -0.220  1.00  0.00     0.048 C 
BRANCH  16  17
ATOM     17  C   UNL     1       9.394  80.157  -1.464  1.00  0.00     0.107 C 
ATOM     18  C   UNL     1       9.848  81.115  -2.575  1.00  0.00     0.056 C 
ATOM     19  C   UNL     1       7.901  80.410  -1.144  1.00  0.00     0.053 C 
ATOM     20  O   UNL     1       9.511  78.827  -1.974  1.00  0.00    -0.487 OA
ATOM     21  C   UNL     1       7.343  79.358  -0.181  1.00  0.00     0.044 C 
ATOM     22  C   UNL     1       8.800  77.731  -1.461  1.00  0.00     0.127 A 
ATOM     23  C   UNL     1       7.726  77.941  -0.570  1.00  0.00     0.001 A 
ATOM     24  C   UNL     1       9.158  76.428  -1.860  1.00  0.00    -0.002 A 
ATOM     25  C   UNL     1       7.055  76.831  -0.010  1.00  0.00    -0.002 A 
ATOM     26  C   UNL     1      10.316  76.237  -2.816  1.00  0.00     0.049 C 
ATOM     27  C   UNL     1       8.417  75.318  -1.379  1.00  0.00    -0.002 A 
ATOM     28  C   UNL     1       7.388  75.527  -0.427  1.00  0.00     0.122 A 
ATOM     29  C   UNL     1       5.938  77.035   0.991  1.00  0.00     0.049 C 
ATOM     30  C   UNL     1       8.719  73.907  -1.838  1.00  0.00     0.049 C 
BRANCH  28  31
ATOM     31  O   UNL     1       6.681  74.449   0.122  1.00  0.00    -0.507 OA
ATOM     32  H   UNL     1       6.921  74.001   0.996  1.00  0.00     0.293 HD
ENDBRANCH  28  31
ENDBRANCH  16  17
ENDBRANCH  15  16
ENDBRANCH  14  15
ENDBRANCH  12  14
ENDBRANCH  11  12
ENDBRANCH   1  11
TORSDOF 13
ENDMDL
MODEL 2
REMARK VINA RESULT:    -9.154      2.620      7.537
REMARK INTER + INTRA:         -18.216
REMARK INTER:                 -15.786
REMARK INTRA:                  -2.430
REMARK UNBOUND:                -2.373
REMARK SMILES Cc1c(C)c2c(c(C)c1O)CC[C@@](C)(CCC[C@H](C)CCC[C@H](C)CCCC(C)C)O2
REMARK SMILES IDX 21 1 22 2 23 3 24 4 25 5 26 6 27 7 28 8 29 9 30 10 20 11
REMARK SMILES IDX 18 12 19 13 17 14 16 15 15 16 13 17 14 18 12 19 31 20 11 21
REMARK SMILES IDX 5 22 6 23 3 24 7 25 4 26 2 27 9 28 8 29 1 30 10 31
REMARK H PARENT 10 32
REMARK Flexibility Score: inf
ROOT
ATOM      1  C   UNL     1       6.894  74.826  -2.756  1.00  0.00     0.001 C 
ENDROOT
BRANCH   1   2
ATOM      2  C   UNL     1       8.317  74.570  -3.298  1.00  0.00     0.003 C 
BRANCH   2   3
ATOM      3  C   UNL     1       9.493  74.668  -2.288  1.00  0.00    -0.014 C 
ATOM      4  C   UNL     1      10.535  75.720  -2.697  1.00  0.00     0.007 C 
BRANCH   3   5
ATOM      5  C   UNL     1      10.154  73.295  -1.986  1.00  0.00     0.003 C 
BRANCH   5   6
ATOM      6  C   UNL     1       9.564  72.149  -2.831  1.00  0.00     0.001 C 
BRANCH   6   7
ATOM      7  C   UNL     1      10.640  71.363  -3.618  1.00  0.00     0.003 C 
BRANCH   7   8
ATOM      8  C   UNL     1      10.739  71.771  -5.106  1.00  0.00    -0.017 C 
ATOM      9  C   UNL     1      11.713  72.937  -5.323  1.00  0.00     0.007 C 
ATOM     10  C   UNL     1       9.352  72.146  -5.643  1.00  0.00     0.007 C 
ENDBRANCH   7   8
ENDBRANCH   6   7
ENDBRANCH   5   6
ENDBRANCH   3   5
ENDBRANCH   2   3
ENDBRANCH   1   2
BRANCH   1  11
ATOM     11  C   UNL     1       6.751  74.552  -1.251  1.00  0.00     0.003 C 
BRANCH  11  12
ATOM     12  C   UNL     1       6.317  75.798  -0.440  1.00  0.00    -0.014 C 
ATOM     13  C   UNL     1       5.473  75.368   0.772  1.00  0.00     0.007 C 
BRANCH  12  14
ATOM     14  C   UNL     1       7.482  76.729  -0.004  1.00  0.00     0.003 C 
BRANCH  14  15
ATOM     15  C   UNL     1       7.586  78.044  -0.805  1.00  0.00     0.004 C 
BRANCH  15  16
ATOM     16  C   UNL     1       9.044  78.407  -1.175  1.00  0.00     0.048 C 
BRANCH  16  17
ATOM     17  C   UNL     1       9.523  79.840  -0.787  1.00  0.00     0.107 C 
ATOM     18  C   UNL     1       8.602  80.453   0.279  1.00  0.00     0.056 C 
ATOM     19  C   UNL     1       9.631  80.807  -1.991  1.00  0.00     0.053 C 
ATOM     20  O   UNL     1      10.824  79.719  -0.207  1.00  0.00    -0.487 OA
ATOM     21  C   UNL     1      10.684  80.338  -3.000  1.00  0.00     0.044 C 
ATOM     22  C   UNL     1      12.006  79.632  -0.960  1.00  0.00     0.127 A 
ATOM     23  C   UNL     1      11.987  79.923  -2.340  1.00  0.00     0.001 A 
ATOM     24  C   UNL     1      13.208  79.272  -0.317  1.00  0.00    -0.002 A 
ATOM     25  C   UNL     1      13.168  79.774  -3.102  1.00  0.00    -0.002 A 
ATOM     26  C   UNL     1      13.194  78.965   1.164  1.00  0.00     0.049 C 
ATOM     27  C   UNL     1      14.414  79.223  -1.062  1.00  0.00    -0.002 A 
ATOM     28  C   UNL     1      14.378  79.443  -2.461  1.00  0.00     0.122 A 
ATOM     29  C   UNL     1      13.154  80.027  -4.595  1.00  0.00     0.049 C 
ATOM     30  C   UNL     1      15.740  78.913  -0.399  1.00  0.00     0.049 C 
BRANCH  28  31
ATOM     31  O   UNL     1      15.538  79.335  -3.241  1.00  0.00    -0.507 OA
ATOM     32  H   UNL     1      16.394  79.840  -3.055  1.00  0.00     0.293 HD
ENDBRANCH  28  31
ENDBRANCH  16  17
ENDBRANCH  15  16
ENDBRANCH  14  15
ENDBRANCH  12  14
ENDBRANCH  11  12
ENDBRANCH   1  11
TORSDOF 13
ENDMDL
MODEL 3
REMARK VINA RESULT:    -8.815      3.174      7.539
REMARK INTER + INTRA:         -17.628
REMARK INTER:                 -15.391
REMARK INTRA:                  -2.238
REMARK UNBOUND:                -2.373
REMARK SMILES Cc1c(C)c2c(c(C)c1O)CC[C@@](C)(CCC[C@H](C)CCC[C@H](C)CCCC(C)C)O2
REMARK SMILES IDX 21 1 22 2 23 3 24 4 25 5 26 6 27 7 28 8 29 9 30 10 20 11
REMARK SMILES IDX 18 12 19 13 17 14 16 15 15 16 13 17 14 18 12 19 31 20 11 21
REMARK SMILES IDX 5 22 6 23 3 24 7 25 4 26 2 27 9 28 8 29 1 30 10 31
REMARK H PARENT 10 32
REMARK Flexibility Score: inf
ROOT
ATOM      1  C   UNL     1      10.051  74.349  -1.590  1.00  0.00     0.001 C 
ENDROOT
BRANCH   1   2
ATOM      2  C   UNL     1      10.474  72.877  -1.396  1.00  0.00     0.003 C 
BRANCH   2   3
ATOM      3  C   UNL     1      10.395  71.942  -2.634  1.00  0.00    -0.014 C 
ATOM      4  C   UNL     1       9.891  70.535  -2.277  1.00  0.00     0.007 C 
BRANCH   3   5
ATOM      5  C   UNL     1      11.718  71.888  -3.445  1.00  0.00     0.003 C 
BRANCH   5   6
ATOM      6  C   UNL     1      11.794  72.972  -4.537  1.00  0.00     0.001 C 
BRANCH   6   7
ATOM      7  C   UNL     1      10.953  72.628  -5.789  1.00  0.00     0.003 C 
BRANCH   7   8
ATOM      8  C   UNL     1       9.523  72.140  -5.460  1.00  0.00    -0.017 C 
ATOM      9  C   UNL     1       9.256  70.726  -5.994  1.00  0.00     0.007 C 
ATOM     10  C   UNL     1       8.489  73.117  -6.034  1.00  0.00     0.007 C 
ENDBRANCH   7   8
ENDBRANCH   6   7
ENDBRANCH   5   6
ENDBRANCH   3   5
ENDBRANCH   2   3
ENDBRANCH   1   2
BRANCH   1  11
ATOM     11  C   UNL     1       9.107  74.565  -2.784  1.00  0.00     0.003 C 
BRANCH  11  12
ATOM     12  C   UNL     1       7.868  75.427  -2.438  1.00  0.00    -0.014 C 
ATOM     13  C   UNL     1       6.775  75.224  -3.500  1.00  0.00     0.007 C 
BRANCH  12  14
ATOM     14  C   UNL     1       7.302  75.209  -1.008  1.00  0.00     0.003 C 
BRANCH  14  15
ATOM     15  C   UNL     1       7.192  76.493  -0.159  1.00  0.00     0.004 C 
BRANCH  15  16
ATOM     16  C   UNL     1       8.517  77.291  -0.105  1.00  0.00     0.048 C 
BRANCH  16  17
ATOM     17  C   UNL     1       8.504  78.705  -0.761  1.00  0.00     0.107 C 
ATOM     18  C   UNL     1       7.214  79.459  -0.406  1.00  0.00     0.056 C 
ATOM     19  C   UNL     1       8.677  78.678  -2.299  1.00  0.00     0.053 C 
ATOM     20  O   UNL     1       9.596  79.447  -0.213  1.00  0.00    -0.487 OA
ATOM     21  C   UNL     1      10.039  78.107  -2.705  1.00  0.00     0.044 C 
ATOM     22  C   UNL     1      10.916  79.348  -0.681  1.00  0.00     0.127 A 
ATOM     23  C   UNL     1      11.186  78.693  -1.901  1.00  0.00     0.001 A 
ATOM     24  C   UNL     1      11.959  79.925   0.072  1.00  0.00    -0.002 A 
ATOM     25  C   UNL     1      12.523  78.544  -2.333  1.00  0.00    -0.002 A 
ATOM     26  C   UNL     1      11.636  80.618   1.377  1.00  0.00     0.049 C 
ATOM     27  C   UNL     1      13.291  79.866  -0.415  1.00  0.00    -0.002 A 
ATOM     28  C   UNL     1      13.567  79.144  -1.602  1.00  0.00     0.122 A 
ATOM     29  C   UNL     1      12.837  77.796  -3.611  1.00  0.00     0.049 C 
ATOM     30  C   UNL     1      14.431  80.535   0.323  1.00  0.00     0.049 C 
BRANCH  28  31
ATOM     31  O   UNL     1      14.879  79.006  -2.076  1.00  0.00    -0.507 OA
ATOM     32  H   UNL     1      15.114  78.701  -3.011  1.00  0.00     0.293 HD
ENDBRANCH  28  31
ENDBRANCH  16  17
ENDBRANCH  15  16
ENDBRANCH  14  15
ENDBRANCH  12  14
ENDBRANCH  11  12
ENDBRANCH   1  11
TORSDOF 13
ENDMDL
MODEL 4
REMARK VINA RESULT:    -8.779      2.514      7.713
REMARK INTER + INTRA:         -17.568
REMARK INTER:                 -15.910
REMARK INTRA:                  -1.658
REMARK UNBOUND:                -2.373
REMARK SMILES Cc1c(C)c2c(c(C)c1O)CC[C@@](C)(CCC[C@H](C)CCC[C@H](C)CCCC(C)C)O2
REMARK SMILES IDX 21 1 22 2 23 3 24 4 25 5 26 6 27 7 28 8 29 9 30 10 20 11
REMARK SMILES IDX 18 12 19 13 17 14 16 15 15 16 13 17 14 18 12 19 31 20 11 21
REMARK SMILES IDX 5 22 6 23 3 24 7 25 4 26 2 27 9 28 8 29 1 30 10 31
REMARK H PARENT 10 32
REMARK Flexibility Score: inf
ROOT
ATOM      1  C   UNL     1       5.770  75.684  -0.200  1.00  0.00     0.001 C 
ENDROOT
BRANCH   1   2
ATOM      2  C   UNL     1       6.377  74.469  -0.932  1.00  0.00     0.003 C 
BRANCH   2   3
ATOM      3  C   UNL     1       7.410  74.756  -2.056  1.00  0.00    -0.014 C 
ATOM      4  C   UNL     1       6.765  74.797  -3.451  1.00  0.00     0.007 C 
BRANCH   3   5
ATOM      5  C   UNL     1       8.634  73.800  -2.020  1.00  0.00     0.003 C 
BRANCH   5   6
ATOM      6  C   UNL     1       8.974  73.212  -3.403  1.00  0.00     0.001 C 
BRANCH   6   7
ATOM      7  C   UNL     1      10.056  72.108  -3.341  1.00  0.00     0.003 C 
BRANCH   7   8
ATOM      8  C   UNL     1      10.556  71.652  -4.731  1.00  0.00    -0.017 C 
ATOM      9  C   UNL     1      11.575  72.631  -5.330  1.00  0.00     0.007 C 
ATOM     10  C   UNL     1       9.369  71.487  -5.689  1.00  0.00     0.007 C 
ENDBRANCH   7   8
ENDBRANCH   6   7
ENDBRANCH   5   6
ENDBRANCH   3   5
ENDBRANCH   2   3
ENDBRANCH   1   2
BRANCH   1  11
ATOM     11  C   UNL     1       6.821  76.683   0.311  1.00  0.00     0.003 C 
BRANCH  11  12
ATOM     12  C   UNL     1       6.228  78.068   0.668  1.00  0.00    -0.014 C 
ATOM     13  C   UNL     1       5.793  78.088   2.142  1.00  0.00     0.007 C 
BRANCH  12  14
ATOM     14  C   UNL     1       7.152  79.274   0.344  1.00  0.00     0.003 C 
BRANCH  14  15
ATOM     15  C   UNL     1       7.730  79.272  -1.087  1.00  0.00     0.004 C 
BRANCH  15  16
ATOM     16  C   UNL     1       9.270  79.120  -1.111  1.00  0.00     0.048 C 
BRANCH  16  17
ATOM     17  C   UNL     1       9.839  77.933  -1.949  1.00  0.00     0.107 C 
ATOM     18  C   UNL     1       8.801  77.439  -2.967  1.00  0.00     0.056 C 
ATOM     19  C   UNL     1      10.323  76.741  -1.088  1.00  0.00     0.053 C 
ATOM     20  O   UNL     1      10.960  78.422  -2.686  1.00  0.00    -0.487 OA
ATOM     21  C   UNL     1      11.495  77.135  -0.185  1.00  0.00     0.044 C 
ATOM     22  C   UNL     1      12.254  78.537  -2.151  1.00  0.00     0.127 A 
ATOM     23  C   UNL     1      12.564  77.924  -0.919  1.00  0.00     0.001 A 
ATOM     24  C   UNL     1      13.235  79.252  -2.867  1.00  0.00    -0.002 A 
ATOM     25  C   UNL     1      13.850  78.097  -0.358  1.00  0.00    -0.002 A 
ATOM     26  C   UNL     1      12.868  79.899  -4.185  1.00  0.00     0.049 C 
ATOM     27  C   UNL     1      14.555  79.337  -2.353  1.00  0.00    -0.002 A 
ATOM     28  C   UNL     1      14.844  78.785  -1.081  1.00  0.00     0.122 A 
ATOM     29  C   UNL     1      14.185  77.494   0.990  1.00  0.00     0.049 C 
ATOM     30  C   UNL     1      15.659  80.031  -3.123  1.00  0.00     0.049 C 
BRANCH  28  31
ATOM     31  O   UNL     1      16.119  78.909  -0.511  1.00  0.00    -0.507 OA
ATOM     32  H   UNL     1      16.925  79.272  -1.001  1.00  0.00     0.293 HD
ENDBRANCH  28  31
ENDBRANCH  16  17
ENDBRANCH  15  16
ENDBRANCH  14  15
ENDBRANCH  12  14
ENDBRANCH  11  12
ENDBRANCH   1  11
TORSDOF 13
ENDMDL
MODEL 5
REMARK VINA RESULT:    -8.666      3.501      7.149
REMARK INTER + INTRA:         -17.371
REMARK INTER:                 -14.555
REMARK INTRA:                  -2.816
REMARK UNBOUND:                -2.373
REMARK SMILES Cc1c(C)c2c(c(C)c1O)CC[C@@](C)(CCC[C@H](C)CCC[C@H](C)CCCC(C)C)O2
REMARK SMILES IDX 21 1 22 2 23 3 24 4 25 5 26 6 27 7 28 8 29 9 30 10 20 11
REMARK SMILES IDX 18 12 19 13 17 14 16 15 15 16 13 17 14 18 12 19 31 20 11 21
REMARK SMILES IDX 5 22 6 23 3 24 7 25 4 26 2 27 9 28 8 29 1 30 10 31
REMARK H PARENT 10 32
REMARK Flexibility Score: inf
ROOT
ATOM      1  C   UNL     1       9.376  75.697  -0.614  1.00  0.00     0.001 C 
ENDROOT
BRANCH   1   2
ATOM      2  C   UNL     1      10.152  74.409  -0.964  1.00  0.00     0.003 C 
BRANCH   2   3
ATOM      3  C   UNL     1       9.796  73.703  -2.300  1.00  0.00    -0.014 C 
ATOM      4  C   UNL     1       8.798  74.509  -3.146  1.00  0.00     0.007 C 
BRANCH   3   5
ATOM      5  C   UNL     1       9.328  72.234  -2.109  1.00  0.00     0.003 C 
BRANCH   5   6
ATOM      6  C   UNL     1      10.134  71.235  -2.962  1.00  0.00     0.001 C 
BRANCH   6   7
ATOM      7  C   UNL     1      11.405  71.860  -3.585  1.00  0.00     0.003 C 
BRANCH   7   8
ATOM      8  C   UNL     1      11.377  71.908  -5.130  1.00  0.00    -0.017 C 
ATOM      9  C   UNL     1      12.155  73.110  -5.686  1.00  0.00     0.007 C 
ATOM     10  C   UNL     1       9.928  71.952  -5.630  1.00  0.00     0.007 C 
ENDBRANCH   7   8
ENDBRANCH   6   7
ENDBRANCH   5   6
ENDBRANCH   3   5
ENDBRANCH   2   3
ENDBRANCH   1   2
BRANCH   1  11
ATOM     11  C   UNL     1       8.236  75.474   0.392  1.00  0.00     0.003 C 
BRANCH  11  12
ATOM     12  C   UNL     1       6.863  75.983  -0.112  1.00  0.00    -0.014 C 
ATOM     13  C   UNL     1       5.974  74.791  -0.504  1.00  0.00     0.007 C 
BRANCH  12  14
ATOM     14  C   UNL     1       6.121  76.933   0.867  1.00  0.00     0.003 C 
BRANCH  14  15
ATOM     15  C   UNL     1       6.163  78.423   0.469  1.00  0.00     0.004 C 
BRANCH  15  16
ATOM     16  C   UNL     1       7.605  78.949   0.265  1.00  0.00     0.048 C 
BRANCH  16  17
ATOM     17  C   UNL     1       7.818  79.958  -0.905  1.00  0.00     0.107 C 
ATOM     18  C   UNL     1       6.737  81.048  -0.888  1.00  0.00     0.056 C 
ATOM     19  C   UNL     1       7.854  79.291  -2.301  1.00  0.00     0.053 C 
ATOM     20  O   UNL     1       9.077  80.602  -0.697  1.00  0.00    -0.487 OA
ATOM     21  C   UNL     1       9.039  78.329  -2.438  1.00  0.00     0.044 C 
ATOM     22  C   UNL     1      10.308  80.047  -1.079  1.00  0.00     0.127 A 
ATOM     23  C   UNL     1      10.341  78.923  -1.932  1.00  0.00     0.001 A 
ATOM     24  C   UNL     1      11.504  80.635  -0.618  1.00  0.00    -0.002 A 
ATOM     25  C   UNL     1      11.582  78.333  -2.263  1.00  0.00    -0.002 A 
ATOM     26  C   UNL     1      11.433  81.838   0.297  1.00  0.00     0.049 C 
ATOM     27  C   UNL     1      12.752  80.105  -1.035  1.00  0.00    -0.002 A 
ATOM     28  C   UNL     1      12.781  78.933  -1.830  1.00  0.00     0.122 A 
ATOM     29  C   UNL     1      11.634  77.094  -3.131  1.00  0.00     0.049 C 
ATOM     30  C   UNL     1      14.059  80.749  -0.624  1.00  0.00     0.049 C 
BRANCH  28  31
ATOM     31  O   UNL     1      13.996  78.342  -2.203  1.00  0.00    -0.507 OA
ATOM     32  H   UNL     1      14.887  78.818  -2.184  1.00  0.00     0.293 HD
ENDBRANCH  28  31
ENDBRANCH  16  17
ENDBRANCH  15  16
ENDBRANCH  14  15
ENDBRANCH  12  14
ENDBRANCH  11  12
ENDBRANCH   1  11
TORSDOF 13
ENDMDL
MODEL 6
REMARK VINA RESULT:    -8.573      2.693      7.310
REMARK INTER + INTRA:         -17.210
REMARK INTER:                 -14.455
REMARK INTRA:                  -2.756
REMARK UNBOUND:                -2.373
REMARK SMILES Cc1c(C)c2c(c(C)c1O)CC[C@@](C)(CCC[C@H](C)CCC[C@H](C)CCCC(C)C)O2
REMARK SMILES IDX 21 1 22 2 23 3 24 4 25 5 26 6 27 7 28 8 29 9 30 10 20 11
REMARK SMILES IDX 18 12 19 13 17 14 16 15 15 16 13 17 14 18 12 19 31 20 11 21
REMARK SMILES IDX 5 22 6 23 3 24 7 25 4 26 2 27 9 28 8 29 1 30 10 31
REMARK H PARENT 10 32
REMARK Flexibility Score: inf
ROOT
ATOM      1  C   UNL     1       8.239  76.935  -1.072  1.00  0.00     0.001 C 
ENDROOT
BRANCH   1   2
ATOM      2  C   UNL     1       7.447  75.735  -1.634  1.00  0.00     0.003 C 
BRANCH   2   3
ATOM      3  C   UNL     1       8.083  74.948  -2.812  1.00  0.00    -0.014 C 
ATOM      4  C   UNL     1       7.156  74.866  -4.035  1.00  0.00     0.007 C 
BRANCH   3   5
ATOM      5  C   UNL     1       8.608  73.546  -2.397  1.00  0.00     0.003 C 
BRANCH   5   6
ATOM      6  C   UNL     1      10.035  73.268  -2.906  1.00  0.00     0.001 C 
BRANCH   6   7
ATOM      7  C   UNL     1      10.220  71.822  -3.425  1.00  0.00     0.003 C 
BRANCH   7   8
ATOM      8  C   UNL     1      10.481  71.739  -4.946  1.00  0.00    -0.017 C 
ATOM      9  C   UNL     1      11.666  72.614  -5.380  1.00  0.00     0.007 C 
ATOM     10  C   UNL     1       9.221  72.150  -5.720  1.00  0.00     0.007 C 
ENDBRANCH   7   8
ENDBRANCH   6   7
ENDBRANCH   5   6
ENDBRANCH   3   5
ENDBRANCH   2   3
ENDBRANCH   1   2
BRANCH   1  11
ATOM     11  C   UNL     1       9.498  77.275  -1.885  1.00  0.00     0.003 C 
BRANCH  11  12
ATOM     12  C   UNL     1      10.816  77.000  -1.120  1.00  0.00    -0.014 C 
ATOM     13  C   UNL     1      10.639  75.788  -0.190  1.00  0.00     0.007 C 
BRANCH  12  14
ATOM     14  C   UNL     1      12.069  76.830  -2.024  1.00  0.00     0.003 C 
BRANCH  14  15
ATOM     15  C   UNL     1      11.924  77.426  -3.439  1.00  0.00     0.004 C 
BRANCH  15  16
ATOM     16  C   UNL     1      13.270  77.916  -4.024  1.00  0.00     0.048 C 
BRANCH  16  17
ATOM     17  C   UNL     1      13.504  79.458  -4.035  1.00  0.00     0.107 C 
ATOM     18  C   UNL     1      13.506  79.999  -5.472  1.00  0.00     0.056 C 
ATOM     19  C   UNL     1      14.805  79.895  -3.319  1.00  0.00     0.053 C 
ATOM     20  O   UNL     1      12.405  80.067  -3.352  1.00  0.00    -0.487 OA
ATOM     21  C   UNL     1      14.773  79.549  -1.827  1.00  0.00     0.044 C 
ATOM     22  C   UNL     1      12.326  80.186  -1.956  1.00  0.00     0.127 A 
ATOM     23  C   UNL     1      13.465  79.936  -1.161  1.00  0.00     0.001 A 
ATOM     24  C   UNL     1      11.107  80.575  -1.364  1.00  0.00    -0.002 A 
ATOM     25  C   UNL     1      13.361  79.998   0.248  1.00  0.00    -0.002 A 
ATOM     26  C   UNL     1       9.905  80.833  -2.246  1.00  0.00     0.049 C 
ATOM     27  C   UNL     1      11.031  80.738   0.043  1.00  0.00    -0.002 A 
ATOM     28  C   UNL     1      12.154  80.415   0.844  1.00  0.00     0.122 A 
ATOM     29  C   UNL     1      14.557  79.679   1.119  1.00  0.00     0.049 C 
ATOM     30  C   UNL     1       9.764  81.225   0.714  1.00  0.00     0.049 C 
BRANCH  28  31
ATOM     31  O   UNL     1      12.094  80.498   2.241  1.00  0.00    -0.507 OA
ATOM     32  H   UNL     1      12.488  79.808   2.867  1.00  0.00     0.293 HD
ENDBRANCH  28  31
ENDBRANCH  16  17
ENDBRANCH  15  16
ENDBRANCH  14  15
ENDBRANCH  12  14
ENDBRANCH  11  12
ENDBRANCH   1  11
TORSDOF 13
ENDMDL
MODEL 7
REMARK VINA RESULT:    -8.398      2.510      7.258
REMARK INTER + INTRA:         -16.908
REMARK INTER:                 -14.757
REMARK INTRA:                  -2.152
REMARK UNBOUND:                -2.373
REMARK SMILES Cc1c(C)c2c(c(C)c1O)CC[C@@](C)(CCC[C@H](C)CCC[C@H](C)CCCC(C)C)O2
REMARK SMILES IDX 21 1 22 2 23 3 24 4 25 5 26 6 27 7 28 8 29 9 30 10 20 11
REMARK SMILES IDX 18 12 19 13 17 14 16 15 15 16 13 17 14 18 12 19 31 20 11 21
REMARK SMILES IDX 5 22 6 23 3 24 7 25 4 26 2 27 9 28 8 29 1 30 10 31
REMARK H PARENT 10 32
REMARK Flexibility Score: inf
ROOT
ATOM      1  C   UNL     1       7.513  77.671  -1.921  1.00  0.00     0.001 C 
ENDROOT
BRANCH   1   2
ATOM      2  C   UNL     1       7.931  76.704  -3.048  1.00  0.00     0.003 C 
BRANCH   2   3
ATOM      3  C   UNL     1       7.643  75.193  -2.836  1.00  0.00    -0.014 C 
ATOM      4  C   UNL     1       7.417  74.839  -1.357  1.00  0.00     0.007 C 
BRANCH   3   5
ATOM      5  C   UNL     1       8.708  74.270  -3.488  1.00  0.00     0.003 C 
BRANCH   5   6
ATOM      6  C   UNL     1       9.210  73.169  -2.534  1.00  0.00     0.001 C 
BRANCH   6   7
ATOM      7  C   UNL     1       9.915  72.006  -3.271  1.00  0.00     0.003 C 
BRANCH   7   8
ATOM      8  C   UNL     1      10.114  72.262  -4.783  1.00  0.00    -0.017 C 
ATOM      9  C   UNL     1       9.538  71.127  -5.643  1.00  0.00     0.007 C 
ATOM     10  C   UNL     1      11.605  72.443  -5.095  1.00  0.00     0.007 C 
ENDBRANCH   7   8
ENDBRANCH   6   7
ENDBRANCH   5   6
ENDBRANCH   3   5
ENDBRANCH   2   3
ENDBRANCH   1   2
BRANCH   1  11
ATOM     11  C   UNL     1       8.253  79.018  -1.960  1.00  0.00     0.003 C 
BRANCH  11  12
ATOM     12  C   UNL     1       7.812  79.994  -0.842  1.00  0.00    -0.014 C 
ATOM     13  C   UNL     1       6.788  79.309   0.078  1.00  0.00     0.007 C 
BRANCH  12  14
ATOM     14  C   UNL     1       8.977  80.608  -0.018  1.00  0.00     0.003 C 
BRANCH  14  15
ATOM     15  C   UNL     1      10.155  81.133  -0.866  1.00  0.00     0.004 C 
BRANCH  15  16
ATOM     16  C   UNL     1      11.313  81.691  -0.003  1.00  0.00     0.048 C 
BRANCH  16  17
ATOM     17  C   UNL     1      12.321  80.646   0.567  1.00  0.00     0.107 C 
ATOM     18  C   UNL     1      12.170  80.519   2.091  1.00  0.00     0.056 C 
ATOM     19  C   UNL     1      13.798  80.955   0.221  1.00  0.00     0.053 C 
ATOM     20  O   UNL     1      11.996  79.376  -0.001  1.00  0.00    -0.487 OA
ATOM     21  C   UNL     1      14.046  80.904  -1.290  1.00  0.00     0.044 C 
ATOM     22  C   UNL     1      12.429  78.957  -1.269  1.00  0.00     0.127 A 
ATOM     23  C   UNL     1      13.433  79.680  -1.946  1.00  0.00     0.001 A 
ATOM     24  C   UNL     1      11.863  77.801  -1.844  1.00  0.00    -0.002 A 
ATOM     25  C   UNL     1      13.819  79.288  -3.248  1.00  0.00    -0.002 A 
ATOM     26  C   UNL     1      10.786  77.050  -1.092  1.00  0.00     0.049 C 
ATOM     27  C   UNL     1      12.325  77.348  -3.106  1.00  0.00    -0.002 A 
ATOM     28  C   UNL     1      13.280  78.117  -3.816  1.00  0.00     0.122 A 
ATOM     29  C   UNL     1      14.855  80.084  -4.013  1.00  0.00     0.049 C 
ATOM     30  C   UNL     1      11.798  76.071  -3.728  1.00  0.00     0.049 C 
BRANCH  28  31
ATOM     31  O   UNL     1      13.708  77.737  -5.095  1.00  0.00    -0.507 OA
ATOM     32  H   UNL     1      13.407  76.895  -5.567  1.00  0.00     0.293 HD
ENDBRANCH  28  31
ENDBRANCH  16  17
ENDBRANCH  15  16
ENDBRANCH  14  15
ENDBRANCH  12  14
ENDBRANCH  11  12
ENDBRANCH   1  11
TORSDOF 13
ENDMDL
MODEL 8
REMARK VINA RESULT:    -8.215      2.284      5.039
REMARK INTER + INTRA:         -16.590
REMARK INTER:                 -14.258
REMARK INTRA:                  -2.333
REMARK UNBOUND:                -2.373
REMARK SMILES Cc1c(C)c2c(c(C)c1O)CC[C@@](C)(CCC[C@H](C)CCC[C@H](C)CCCC(C)C)O2
REMARK SMILES IDX 21 1 22 2 23 3 24 4 25 5 26 6 27 7 28 8 29 9 30 10 20 11
REMARK SMILES IDX 18 12 19 13 17 14 16 15 15 16 13 17 14 18 12 19 31 20 11 21
REMARK SMILES IDX 5 22 6 23 3 24 7 25 4 26 2 27 9 28 8 29 1 30 10 31
REMARK H PARENT 10 32
REMARK Flexibility Score: inf
ROOT
ATOM      1  C   UNL     1      11.379  80.771   1.083  1.00  0.00     0.001 C 
ENDROOT
BRANCH   1   2
ATOM      2  C   UNL     1      12.743  80.058   0.971  1.00  0.00     0.003 C 
BRANCH   2   3
ATOM      3  C   UNL     1      12.897  78.980  -0.136  1.00  0.00    -0.014 C 
ATOM      4  C   UNL     1      13.479  77.663   0.400  1.00  0.00     0.007 C 
BRANCH   3   5
ATOM      5  C   UNL     1      13.679  79.487  -1.379  1.00  0.00     0.003 C 
BRANCH   5   6
ATOM      6  C   UNL     1      12.860  79.391  -2.680  1.00  0.00     0.001 C 
BRANCH   6   7
ATOM      7  C   UNL     1      13.497  78.447  -3.727  1.00  0.00     0.003 C 
BRANCH   7   8
ATOM      8  C   UNL     1      14.191  79.192  -4.891  1.00  0.00    -0.017 C 
ATOM      9  C   UNL     1      13.512  80.532  -5.207  1.00  0.00     0.007 C 
ATOM     10  C   UNL     1      14.206  78.308  -6.146  1.00  0.00     0.007 C 
ENDBRANCH   7   8
ENDBRANCH   6   7
ENDBRANCH   5   6
ENDBRANCH   3   5
ENDBRANCH   2   3
ENDBRANCH   1   2
BRANCH   1  11
ATOM     11  C   UNL     1      10.939  81.463  -0.216  1.00  0.00     0.003 C 
BRANCH  11  12
ATOM     12  C   UNL     1       9.665  80.843  -0.841  1.00  0.00    -0.014 C 
ATOM     13  C   UNL     1       9.718  80.966  -2.373  1.00  0.00     0.007 C 
BRANCH  12  14
ATOM     14  C   UNL     1       9.375  79.379  -0.410  1.00  0.00     0.003 C 
BRANCH  14  15
ATOM     15  C   UNL     1       9.318  78.367  -1.573  1.00  0.00     0.004 C 
BRANCH  15  16
ATOM     16  C   UNL     1       9.892  76.981  -1.191  1.00  0.00     0.048 C 
BRANCH  16  17
ATOM     17  C   UNL     1       8.858  75.895  -0.761  1.00  0.00     0.107 C 
ATOM     18  C   UNL     1       7.748  76.511   0.103  1.00  0.00     0.056 C 
ATOM     19  C   UNL     1       9.491  74.699  -0.009  1.00  0.00     0.053 C 
ATOM     20  O   UNL     1       8.243  75.389  -1.947  1.00  0.00    -0.487 OA
ATOM     21  C   UNL     1      10.471  73.927  -0.898  1.00  0.00     0.044 C 
ATOM     22  C   UNL     1       8.812  74.389  -2.753  1.00  0.00     0.127 A 
ATOM     23  C   UNL     1       9.914  73.645  -2.282  1.00  0.00     0.001 A 
ATOM     24  C   UNL     1       8.258  74.129  -4.023  1.00  0.00    -0.002 A 
ATOM     25  C   UNL     1      10.520  72.684  -3.123  1.00  0.00    -0.002 A 
ATOM     26  C   UNL     1       7.077  74.946  -4.499  1.00  0.00     0.049 C 
ATOM     27  C   UNL     1       8.801  73.092  -4.825  1.00  0.00    -0.002 A 
ATOM     28  C   UNL     1       9.953  72.398  -4.381  1.00  0.00     0.122 A 
ATOM     29  C   UNL     1      11.738  71.916  -2.657  1.00  0.00     0.049 C 
ATOM     30  C   UNL     1       8.192  72.729  -6.163  1.00  0.00     0.049 C 
BRANCH  28  31
ATOM     31  O   UNL     1      10.558  71.416  -5.177  1.00  0.00    -0.507 OA
ATOM     32  H   UNL     1      11.442  71.537  -5.653  1.00  0.00     0.293 HD
ENDBRANCH  28  31
ENDBRANCH  16  17
ENDBRANCH  15  16
ENDBRANCH  14  15
ENDBRANCH  12  14
ENDBRANCH  11  12
ENDBRANCH   1  11
TORSDOF 13
ENDMDL
MODEL 9
REMARK VINA RESULT:    -8.179      3.832      7.433
REMARK INTER + INTRA:         -16.528
REMARK INTER:                 -14.889
REMARK INTRA:                  -1.639
REMARK UNBOUND:                -2.373
REMARK SMILES Cc1c(C)c2c(c(C)c1O)CC[C@@](C)(CCC[C@H](C)CCC[C@H](C)CCCC(C)C)O2
REMARK SMILES IDX 21 1 22 2 23 3 24 4 25 5 26 6 27 7 28 8 29 9 30 10 20 11
REMARK SMILES IDX 18 12 19 13 17 14 16 15 15 16 13 17 14 18 12 19 31 20 11 21
REMARK SMILES IDX 5 22 6 23 3 24 7 25 4 26 2 27 9 28 8 29 1 30 10 31
REMARK H PARENT 10 32
REMARK Flexibility Score: inf
ROOT
ATOM      1  C   UNL     1       5.870  75.230   0.119  1.00  0.00     0.001 C 
ENDROOT
BRANCH   1   2
ATOM      2  C   UNL     1       6.316  74.431  -1.125  1.00  0.00     0.003 C 
BRANCH   2   3
ATOM      3  C   UNL     1       7.459  75.032  -1.987  1.00  0.00    -0.014 C 
ATOM      4  C   UNL     1       7.017  75.324  -3.430  1.00  0.00     0.007 C 
BRANCH   3   5
ATOM      5  C   UNL     1       8.763  74.189  -1.949  1.00  0.00     0.003 C 
BRANCH   5   6
ATOM      6  C   UNL     1       9.186  73.680  -3.340  1.00  0.00     0.001 C 
BRANCH   6   7
ATOM      7  C   UNL     1      10.557  72.963  -3.329  1.00  0.00     0.003 C 
BRANCH   7   8
ATOM      8  C   UNL     1      10.473  71.461  -3.687  1.00  0.00    -0.017 C 
ATOM      9  C   UNL     1       9.551  71.203  -4.887  1.00  0.00     0.007 C 
ATOM     10  C   UNL     1       9.986  70.657  -2.475  1.00  0.00     0.007 C 
ENDBRANCH   7   8
ENDBRANCH   6   7
ENDBRANCH   5   6
ENDBRANCH   3   5
ENDBRANCH   2   3
ENDBRANCH   1   2
BRANCH   1  11
ATOM     11  C   UNL     1       6.697  76.502   0.361  1.00  0.00     0.003 C 
BRANCH  11  12
ATOM     12  C   UNL     1       5.841  77.717   0.798  1.00  0.00    -0.014 C 
ATOM     13  C   UNL     1       5.680  77.723   2.327  1.00  0.00     0.007 C 
BRANCH  12  14
ATOM     14  C   UNL     1       6.353  79.091   0.286  1.00  0.00     0.003 C 
BRANCH  14  15
ATOM     15  C   UNL     1       7.888  79.244   0.287  1.00  0.00     0.004 C 
BRANCH  15  16
ATOM     16  C   UNL     1       8.367  80.489  -0.498  1.00  0.00     0.048 C 
BRANCH  16  17
ATOM     17  C   UNL     1       9.106  80.221  -1.845  1.00  0.00     0.107 C 
ATOM     18  C   UNL     1       8.602  81.172  -2.941  1.00  0.00     0.056 C 
ATOM     19  C   UNL     1       8.987  78.759  -2.338  1.00  0.00     0.053 C 
ATOM     20  O   UNL     1      10.492  80.502  -1.642  1.00  0.00    -0.487 OA
ATOM     21  C   UNL     1       9.650  77.778  -1.366  1.00  0.00     0.044 C 
ATOM     22  C   UNL     1      11.396  79.588  -1.077  1.00  0.00     0.127 A 
ATOM     23  C   UNL     1      11.026  78.236  -0.916  1.00  0.00     0.001 A 
ATOM     24  C   UNL     1      12.677  80.034  -0.692  1.00  0.00    -0.002 A 
ATOM     25  C   UNL     1      11.918  77.337  -0.289  1.00  0.00    -0.002 A 
ATOM     26  C   UNL     1      13.042  81.490  -0.877  1.00  0.00     0.049 C 
ATOM     27  C   UNL     1      13.611  79.108  -0.159  1.00  0.00    -0.002 A 
ATOM     28  C   UNL     1      13.211  77.768   0.070  1.00  0.00     0.122 A 
ATOM     29  C   UNL     1      11.517  75.896  -0.057  1.00  0.00     0.049 C 
ATOM     30  C   UNL     1      15.022  79.526   0.198  1.00  0.00     0.049 C 
BRANCH  28  31
ATOM     31  O   UNL     1      14.083  76.843   0.658  1.00  0.00    -0.507 OA
ATOM     32  H   UNL     1      14.176  76.707   1.656  1.00  0.00     0.293 HD
ENDBRANCH  28  31
ENDBRANCH  16  17
ENDBRANCH  15  16
ENDBRANCH  14  15
ENDBRANCH  12  14
ENDBRANCH  11  12
ENDBRANCH   1  11
TORSDOF 13
ENDMDL
MODEL 10
REMARK VINA RESULT:    -8.036      2.433      5.653
REMARK INTER + INTRA:         -16.282
REMARK INTER:                 -13.954
REMARK INTRA:                  -2.327
REMARK UNBOUND:                -2.373
REMARK SMILES Cc1c(C)c2c(c(C)c1O)CC[C@@](C)(CCC[C@H](C)CCC[C@H](C)CCCC(C)C)O2
REMARK SMILES IDX 21 1 22 2 23 3 24 4 25 5 26 6 27 7 28 8 29 9 30 10 20 11
REMARK SMILES IDX 18 12 19 13 17 14 16 15 15 16 13 17 14 18 12 19 31 20 11 21
REMARK SMILES IDX 5 22 6 23 3 24 7 25 4 26 2 27 9 28 8 29 1 30 10 31
REMARK H PARENT 10 32
REMARK Flexibility Score: inf
ROOT
ATOM      1  C   UNL     1      11.135  76.615  -2.200  1.00  0.00     0.001 C 
ENDROOT
BRANCH   1   2
ATOM      2  C   UNL     1      10.598  75.256  -2.699  1.00  0.00     0.003 C 
BRANCH   2   3
ATOM      3  C   UNL     1       9.926  74.327  -1.652  1.00  0.00    -0.014 C 
ATOM      4  C   UNL     1      10.143  74.810  -0.210  1.00  0.00     0.007 C 
BRANCH   3   5
ATOM      5  C   UNL     1      10.318  72.833  -1.820  1.00  0.00     0.003 C 
BRANCH   5   6
ATOM      6  C   UNL     1       9.394  72.079  -2.796  1.00  0.00     0.001 C 
BRANCH   6   7
ATOM      7  C   UNL     1      10.162  71.117  -3.734  1.00  0.00     0.003 C 
BRANCH   7   8
ATOM      8  C   UNL     1      10.356  71.671  -5.164  1.00  0.00    -0.017 C 
ATOM      9  C   UNL     1      11.628  72.521  -5.289  1.00  0.00     0.007 C 
ATOM     10  C   UNL     1       9.133  72.501  -5.577  1.00  0.00     0.007 C 
ENDBRANCH   7   8
ENDBRANCH   6   7
ENDBRANCH   5   6
ENDBRANCH   3   5
ENDBRANCH   2   3
ENDBRANCH   1   2
BRANCH   1  11
ATOM     11  C   UNL     1      11.772  77.469  -3.308  1.00  0.00     0.003 C 
BRANCH  11  12
ATOM     12  C   UNL     1      12.937  78.357  -2.805  1.00  0.00    -0.014 C 
ATOM     13  C   UNL     1      13.494  79.197  -3.966  1.00  0.00     0.007 C 
BRANCH  12  14
ATOM     14  C   UNL     1      12.592  79.253  -1.584  1.00  0.00     0.003 C 
BRANCH  14  15
ATOM     15  C   UNL     1      11.426  80.237  -1.820  1.00  0.00     0.004 C 
BRANCH  15  16
ATOM     16  C   UNL     1      10.161  79.873  -1.007  1.00  0.00     0.048 C 
BRANCH  16  17
ATOM     17  C   UNL     1       8.788  80.181  -1.680  1.00  0.00     0.107 C 
ATOM     18  C   UNL     1       8.967  81.137  -2.869  1.00  0.00     0.056 C 
ATOM     19  C   UNL     1       7.735  80.762  -0.707  1.00  0.00     0.053 C 
ATOM     20  O   UNL     1       8.274  78.952  -2.197  1.00  0.00    -0.487 OA
ATOM     21  C   UNL     1       7.374  79.764   0.398  1.00  0.00     0.044 C 
ATOM     22  C   UNL     1       7.573  78.014  -1.421  1.00  0.00     0.127 A 
ATOM     23  C   UNL     1       7.113  78.366  -0.134  1.00  0.00     0.001 A 
ATOM     24  C   UNL     1       7.320  76.733  -1.950  1.00  0.00    -0.002 A 
ATOM     25  C   UNL     1       6.463  77.398   0.664  1.00  0.00    -0.002 A 
ATOM     26  C   UNL     1       7.829  76.387  -3.332  1.00  0.00     0.049 C 
ATOM     27  C   UNL     1       6.576  75.795  -1.189  1.00  0.00    -0.002 A 
ATOM     28  C   UNL     1       6.181  76.125   0.131  1.00  0.00     0.122 A 
ATOM     29  C   UNL     1       6.013  77.740   2.069  1.00  0.00     0.049 C 
ATOM     30  C   UNL     1       6.218  74.433  -1.746  1.00  0.00     0.049 C 
BRANCH  28  31
ATOM     31  O   UNL     1       5.505  75.199   0.937  1.00  0.00    -0.507 OA
ATOM     32  H   UNL     1       4.621  75.383   1.392  1.00  0.00     0.293 HD
ENDBRANCH  28  31
ENDBRANCH  16  17
ENDBRANCH  15  16
ENDBRANCH  14  15
ENDBRANCH  12  14
ENDBRANCH  11  12
ENDBRANCH   1  11
TORSDOF 13
ENDMDL
MODEL 11
REMARK VINA RESULT:    -8.029      2.230      3.931
REMARK INTER + INTRA:         -16.269
REMARK INTER:                 -14.582
REMARK INTRA:                  -1.687
REMARK UNBOUND:                -2.373
REMARK SMILES Cc1c(C)c2c(c(C)c1O)CC[C@@](C)(CCC[C@H](C)CCC[C@H](C)CCCC(C)C)O2
REMARK SMILES IDX 21 1 22 2 23 3 24 4 25 5 26 6 27 7 28 8 29 9 30 10 20 11
REMARK SMILES IDX 18 12 19 13 17 14 16 15 15 16 13 17 14 18 12 19 31 20 11 21
REMARK SMILES IDX 5 22 6 23 3 24 7 25 4 26 2 27 9 28 8 29 1 30 10 31
REMARK H PARENT 10 32
REMARK Flexibility Score: inf
ROOT
ATOM      1  C   UNL     1      13.827  80.109  -1.534  1.00  0.00     0.001 C 
ENDROOT
BRANCH   1   2
ATOM      2  C   UNL     1      14.538  79.551  -2.785  1.00  0.00     0.003 C 
BRANCH   2   3
ATOM      3  C   UNL     1      13.664  79.267  -4.036  1.00  0.00    -0.014 C 
ATOM      4  C   UNL     1      13.502  77.765  -4.314  1.00  0.00     0.007 C 
BRANCH   3   5
ATOM      5  C   UNL     1      14.139  80.034  -5.301  1.00  0.00     0.003 C 
BRANCH   5   6
ATOM      6  C   UNL     1      15.375  79.392  -5.959  1.00  0.00     0.001 C 
BRANCH   6   7
ATOM      7  C   UNL     1      16.668  80.215  -5.748  1.00  0.00     0.003 C 
BRANCH   7   8
ATOM      8  C   UNL     1      17.687  80.076  -6.903  1.00  0.00    -0.017 C 
ATOM      9  C   UNL     1      17.454  81.116  -8.008  1.00  0.00     0.007 C 
ATOM     10  C   UNL     1      17.620  78.663  -7.497  1.00  0.00     0.007 C 
ENDBRANCH   7   8
ENDBRANCH   6   7
ENDBRANCH   5   6
ENDBRANCH   3   5
ENDBRANCH   2   3
ENDBRANCH   1   2
BRANCH   1  11
ATOM     11  C   UNL     1      12.899  79.092  -0.849  1.00  0.00     0.003 C 
BRANCH  11  12
ATOM     12  C   UNL     1      11.418  79.540  -0.813  1.00  0.00    -0.014 C 
ATOM     13  C   UNL     1      11.321  80.996  -0.329  1.00  0.00     0.007 C 
BRANCH  12  14
ATOM     14  C   UNL     1      10.646  79.345  -2.148  1.00  0.00     0.003 C 
BRANCH  14  15
ATOM     15  C   UNL     1       9.639  78.177  -2.141  1.00  0.00     0.004 C 
BRANCH  15  16
ATOM     16  C   UNL     1       9.962  77.113  -1.064  1.00  0.00     0.048 C 
BRANCH  16  17
ATOM     17  C   UNL     1       8.806  76.139  -0.679  1.00  0.00     0.107 C 
ATOM     18  C   UNL     1       7.707  76.878   0.098  1.00  0.00     0.056 C 
ATOM     19  C   UNL     1       9.275  74.910   0.137  1.00  0.00     0.053 C 
ATOM     20  O   UNL     1       8.222  75.660  -1.892  1.00  0.00    -0.487 OA
ATOM     21  C   UNL     1      10.232  74.027  -0.670  1.00  0.00     0.044 C 
ATOM     22  C   UNL     1       8.744  74.592  -2.639  1.00  0.00     0.127 A 
ATOM     23  C   UNL     1       9.739  73.762  -2.082  1.00  0.00     0.001 A 
ATOM     24  C   UNL     1       8.248  74.350  -3.936  1.00  0.00    -0.002 A 
ATOM     25  C   UNL     1      10.303  72.727  -2.862  1.00  0.00    -0.002 A 
ATOM     26  C   UNL     1       7.182  75.260  -4.504  1.00  0.00     0.049 C 
ATOM     27  C   UNL     1       8.741  73.247  -4.680  1.00  0.00    -0.002 A 
ATOM     28  C   UNL     1       9.792  72.461  -4.148  1.00  0.00     0.122 A 
ATOM     29  C   UNL     1      11.412  71.861  -2.302  1.00  0.00     0.049 C 
ATOM     30  C   UNL     1       8.185  72.905  -6.047  1.00  0.00     0.049 C 
BRANCH  28  31
ATOM     31  O   UNL     1      10.350  71.406  -4.882  1.00  0.00    -0.507 OA
ATOM     32  H   UNL     1      10.847  71.524  -5.755  1.00  0.00     0.293 HD
ENDBRANCH  28  31
ENDBRANCH  16  17
ENDBRANCH  15  16
ENDBRANCH  14  15
ENDBRANCH  12  14
ENDBRANCH  11  12
ENDBRANCH   1  11
TORSDOF 13
ENDMDL
MODEL 12
REMARK VINA RESULT:    -7.936      1.037      2.361
REMARK INTER + INTRA:         -16.108
REMARK INTER:                 -13.774
REMARK INTRA:                  -2.333
REMARK UNBOUND:                -2.373
REMARK SMILES Cc1c(C)c2c(c(C)c1O)CC[C@@](C)(CCC[C@H](C)CCC[C@H](C)CCCC(C)C)O2
REMARK SMILES IDX 21 1 22 2 23 3 24 4 25 5 26 6 27 7 28 8 29 9 30 10 20 11
REMARK SMILES IDX 18 12 19 13 17 14 16 15 15 16 13 17 14 18 12 19 31 20 11 21
REMARK SMILES IDX 5 22 6 23 3 24 7 25 4 26 2 27 9 28 8 29 1 30 10 31
REMARK H PARENT 10 32
REMARK Flexibility Score: inf
ROOT
ATOM      1  C   UNL     1      12.524  78.378  -0.369  1.00  0.00     0.001 C 
ENDROOT
BRANCH   1   2
ATOM      2  C   UNL     1      13.777  78.074  -1.217  1.00  0.00     0.003 C 
BRANCH   2   3
ATOM      3  C   UNL     1      14.539  79.284  -1.824  1.00  0.00    -0.014 C 
ATOM      4  C   UNL     1      15.207  80.157  -0.751  1.00  0.00     0.007 C 
BRANCH   3   5
ATOM      5  C   UNL     1      13.667  80.132  -2.791  1.00  0.00     0.003 C 
BRANCH   5   6
ATOM      6  C   UNL     1      13.111  79.310  -3.970  1.00  0.00     0.001 C 
BRANCH   6   7
ATOM      7  C   UNL     1      13.884  79.547  -5.289  1.00  0.00     0.003 C 
BRANCH   7   8
ATOM      8  C   UNL     1      14.982  80.630  -5.177  1.00  0.00    -0.017 C 
ATOM      9  C   UNL     1      14.486  82.007  -5.639  1.00  0.00     0.007 C 
ATOM     10  C   UNL     1      16.212  80.218  -5.997  1.00  0.00     0.007 C 
ENDBRANCH   7   8
ENDBRANCH   6   7
ENDBRANCH   5   6
ENDBRANCH   3   5
ENDBRANCH   2   3
ENDBRANCH   1   2
BRANCH   1  11
ATOM     11  C   UNL     1      12.830  79.146   0.927  1.00  0.00     0.003 C 
BRANCH  11  12
ATOM     12  C   UNL     1      11.868  80.334   1.178  1.00  0.00    -0.014 C 
ATOM     13  C   UNL     1      11.948  80.771   2.650  1.00  0.00     0.007 C 
BRANCH  12  14
ATOM     14  C   UNL     1      12.067  81.545   0.226  1.00  0.00     0.003 C 
BRANCH  14  15
ATOM     15  C   UNL     1      10.963  81.711  -0.838  1.00  0.00     0.004 C 
BRANCH  15  16
ATOM     16  C   UNL     1       9.716  80.841  -0.549  1.00  0.00     0.048 C 
BRANCH  16  17
ATOM     17  C   UNL     1       8.837  80.455  -1.779  1.00  0.00     0.107 C 
ATOM     18  C   UNL     1       9.141  81.370  -2.974  1.00  0.00     0.056 C 
ATOM     19  C   UNL     1       7.316  80.478  -1.487  1.00  0.00     0.053 C 
ATOM     20  O   UNL     1       9.187  79.124  -2.161  1.00  0.00    -0.487 OA
ATOM     21  C   UNL     1       6.928  79.440  -0.430  1.00  0.00     0.044 C 
ATOM     22  C   UNL     1       8.663  77.974  -1.548  1.00  0.00     0.127 A 
ATOM     23  C   UNL     1       7.553  78.080  -0.683  1.00  0.00     0.001 A 
ATOM     24  C   UNL     1       9.245  76.720  -1.821  1.00  0.00    -0.002 A 
ATOM     25  C   UNL     1       7.071  76.928  -0.022  1.00  0.00    -0.002 A 
ATOM     26  C   UNL     1      10.436  76.642  -2.752  1.00  0.00     0.049 C 
ATOM     27  C   UNL     1       8.695  75.550  -1.239  1.00  0.00    -0.002 A 
ATOM     28  C   UNL     1       7.628  75.667  -0.314  1.00  0.00     0.122 A 
ATOM     29  C   UNL     1       5.917  77.030   0.952  1.00  0.00     0.049 C 
ATOM     30  C   UNL     1       9.241  74.175  -1.562  1.00  0.00     0.049 C 
BRANCH  28  31
ATOM     31  O   UNL     1       7.104  74.540   0.334  1.00  0.00    -0.507 OA
ATOM     32  H   UNL     1       7.414  74.211   1.239  1.00  0.00     0.293 HD
ENDBRANCH  28  31
ENDBRANCH  16  17
ENDBRANCH  15  16
ENDBRANCH  14  15
ENDBRANCH  12  14
ENDBRANCH  11  12
ENDBRANCH   1  11
TORSDOF 13
ENDMDL
MODEL 13
REMARK VINA RESULT:    -7.930      1.460      3.893
REMARK INTER + INTRA:         -16.098
REMARK INTER:                 -13.901
REMARK INTRA:                  -2.197
REMARK UNBOUND:                -2.373
REMARK SMILES Cc1c(C)c2c(c(C)c1O)CC[C@@](C)(CCC[C@H](C)CCC[C@H](C)CCCC(C)C)O2
REMARK SMILES IDX 21 1 22 2 23 3 24 4 25 5 26 6 27 7 28 8 29 9 30 10 20 11
REMARK SMILES IDX 18 12 19 13 17 14 16 15 15 16 13 17 14 18 12 19 31 20 11 21
REMARK SMILES IDX 5 22 6 23 3 24 7 25 4 26 2 27 9 28 8 29 1 30 10 31
REMARK H PARENT 10 32
REMARK Flexibility Score: inf
ROOT
ATOM      1  C   UNL     1      14.712  79.818  -0.940  1.00  0.00     0.001 C 
ENDROOT
BRANCH   1   2
ATOM      2  C   UNL     1      14.756  78.957  -2.220  1.00  0.00     0.003 C 
BRANCH   2   3
ATOM      3  C   UNL     1      13.477  78.922  -3.100  1.00  0.00    -0.014 C 
ATOM      4  C   UNL     1      13.518  77.804  -4.154  1.00  0.00     0.007 C 
BRANCH   3   5
ATOM      5  C   UNL     1      13.136  80.297  -3.738  1.00  0.00     0.003 C 
BRANCH   5   6
ATOM      6  C   UNL     1      13.449  80.350  -5.246  1.00  0.00     0.001 C 
BRANCH   6   7
ATOM      7  C   UNL     1      14.506  81.421  -5.605  1.00  0.00     0.003 C 
BRANCH   7   8
ATOM      8  C   UNL     1      15.909  80.836  -5.887  1.00  0.00    -0.017 C 
ATOM      9  C   UNL     1      16.662  81.630  -6.963  1.00  0.00     0.007 C 
ATOM     10  C   UNL     1      15.791  79.367  -6.313  1.00  0.00     0.007 C 
ENDBRANCH   7   8
ENDBRANCH   6   7
ENDBRANCH   5   6
ENDBRANCH   3   5
ENDBRANCH   2   3
ENDBRANCH   1   2
BRANCH   1  11
ATOM     11  C   UNL     1      14.779  78.995   0.357  1.00  0.00     0.003 C 
BRANCH  11  12
ATOM     12  C   UNL     1      13.386  78.590   0.899  1.00  0.00    -0.014 C 
ATOM     13  C   UNL     1      12.300  79.481   0.273  1.00  0.00     0.007 C 
BRANCH  12  14
ATOM     14  C   UNL     1      13.036  77.086   0.734  1.00  0.00     0.003 C 
BRANCH  14  15
ATOM     15  C   UNL     1      12.170  76.761  -0.501  1.00  0.00     0.004 C 
BRANCH  15  16
ATOM     16  C   UNL     1      11.163  75.615  -0.243  1.00  0.00     0.048 C 
BRANCH  16  17
ATOM     17  C   UNL     1      10.075  75.385  -1.336  1.00  0.00     0.107 C 
ATOM     18  C   UNL     1       9.949  73.892  -1.674  1.00  0.00     0.056 C 
ATOM     19  C   UNL     1      10.322  76.187  -2.637  1.00  0.00     0.053 C 
ATOM     20  O   UNL     1       8.821  75.807  -0.795  1.00  0.00    -0.487 OA
ATOM     21  C   UNL     1      10.266  77.698  -2.389  1.00  0.00     0.044 C 
ATOM     22  C   UNL     1       8.389  77.143  -0.783  1.00  0.00     0.127 A 
ATOM     23  C   UNL     1       9.071  78.112  -1.549  1.00  0.00     0.001 A 
ATOM     24  C   UNL     1       7.260  77.495  -0.017  1.00  0.00    -0.002 A 
ATOM     25  C   UNL     1       8.667  79.465  -1.483  1.00  0.00    -0.002 A 
ATOM     26  C   UNL     1       6.552  76.431   0.794  1.00  0.00     0.049 C 
ATOM     27  C   UNL     1       6.792  78.834  -0.033  1.00  0.00    -0.002 A 
ATOM     28  C   UNL     1       7.522  79.819  -0.742  1.00  0.00     0.122 A 
ATOM     29  C   UNL     1       9.421  80.528  -2.252  1.00  0.00     0.049 C 
ATOM     30  C   UNL     1       5.540  79.242   0.716  1.00  0.00     0.049 C 
BRANCH  28  31
ATOM     31  O   UNL     1       7.129  81.164  -0.725  1.00  0.00    -0.507 OA
ATOM     32  H   UNL     1       7.282  81.809  -1.488  1.00  0.00     0.293 HD
ENDBRANCH  28  31
ENDBRANCH  16  17
ENDBRANCH  15  16
ENDBRANCH  14  15
ENDBRANCH  12  14
ENDBRANCH  11  12
ENDBRANCH   1  11
TORSDOF 13
ENDMDL
MODEL 14
REMARK VINA RESULT:    -7.836      2.862      6.079
REMARK INTER + INTRA:         -15.935
REMARK INTER:                 -13.331
REMARK INTRA:                  -2.604
REMARK UNBOUND:                -2.373
REMARK SMILES Cc1c(C)c2c(c(C)c1O)CC[C@@](C)(CCC[C@H](C)CCC[C@H](C)CCCC(C)C)O2
REMARK SMILES IDX 21 1 22 2 23 3 24 4 25 5 26 6 27 7 28 8 29 9 30 10 20 11
REMARK SMILES IDX 18 12 19 13 17 14 16 15 15 16 13 17 14 18 12 19 31 20 11 21
REMARK SMILES IDX 5 22 6 23 3 24 7 25 4 26 2 27 9 28 8 29 1 30 10 31
REMARK H PARENT 10 32
REMARK Flexibility Score: inf
ROOT
ATOM      1  C   UNL     1      14.715  78.857  -1.821  1.00  0.00     0.001 C 
ENDROOT
BRANCH   1   2
ATOM      2  C   UNL     1      14.022  79.435  -0.570  1.00  0.00     0.003 C 
BRANCH   2   3
ATOM      3  C   UNL     1      13.987  78.545   0.702  1.00  0.00    -0.014 C 
ATOM      4  C   UNL     1      13.513  77.114   0.407  1.00  0.00     0.007 C 
BRANCH   3   5
ATOM      5  C   UNL     1      13.188  79.182   1.872  1.00  0.00     0.003 C 
BRANCH   5   6
ATOM      6  C   UNL     1      12.717  80.617   1.563  1.00  0.00     0.001 C 
BRANCH   6   7
ATOM      7  C   UNL     1      11.223  80.845   1.889  1.00  0.00     0.003 C 
BRANCH   7   8
ATOM      8  C   UNL     1      10.432  81.512   0.739  1.00  0.00    -0.017 C 
ATOM      9  C   UNL     1       9.438  80.544   0.083  1.00  0.00     0.007 C 
ATOM     10  C   UNL     1      11.401  82.058  -0.318  1.00  0.00     0.007 C 
ENDBRANCH   7   8
ENDBRANCH   6   7
ENDBRANCH   5   6
ENDBRANCH   3   5
ENDBRANCH   2   3
ENDBRANCH   1   2
BRANCH   1  11
ATOM     11  C   UNL     1      13.753  78.592  -2.990  1.00  0.00     0.003 C 
BRANCH  11  12
ATOM     12  C   UNL     1      12.260  78.672  -2.587  1.00  0.00    -0.014 C 
ATOM     13  C   UNL     1      11.644  79.980  -3.110  1.00  0.00     0.007 C 
BRANCH  12  14
ATOM     14  C   UNL     1      11.405  77.446  -3.011  1.00  0.00     0.003 C 
BRANCH  14  15
ATOM     15  C   UNL     1       9.954  77.464  -2.487  1.00  0.00     0.004 C 
BRANCH  15  16
ATOM     16  C   UNL     1       9.854  77.095  -0.987  1.00  0.00     0.048 C 
BRANCH  16  17
ATOM     17  C   UNL     1       8.767  76.046  -0.600  1.00  0.00     0.107 C 
ATOM     18  C   UNL     1       7.657  76.696   0.240  1.00  0.00     0.056 C 
ATOM     19  C   UNL     1       9.330  74.818   0.156  1.00  0.00     0.053 C 
ATOM     20  O   UNL     1       8.168  75.577  -1.809  1.00  0.00    -0.487 OA
ATOM     21  C   UNL     1      10.305  74.018  -0.713  1.00  0.00     0.044 C 
ATOM     22  C   UNL     1       8.721  74.565  -2.610  1.00  0.00     0.127 A 
ATOM     23  C   UNL     1       9.779  73.773  -2.116  1.00  0.00     0.001 A 
ATOM     24  C   UNL     1       8.195  74.341  -3.899  1.00  0.00    -0.002 A 
ATOM     25  C   UNL     1      10.371  72.799  -2.952  1.00  0.00    -0.002 A 
ATOM     26  C   UNL     1       7.061  75.210  -4.399  1.00  0.00     0.049 C 
ATOM     27  C   UNL     1       8.720  73.293  -4.698  1.00  0.00    -0.002 A 
ATOM     28  C   UNL     1       9.831  72.549  -4.229  1.00  0.00     0.122 A 
ATOM     29  C   UNL     1      11.543  71.978  -2.459  1.00  0.00     0.049 C 
ATOM     30  C   UNL     1       8.137  72.968  -6.057  1.00  0.00     0.049 C 
BRANCH  28  31
ATOM     31  O   UNL     1      10.420  71.552  -5.019  1.00  0.00    -0.507 OA
ATOM     32  H   UNL     1      11.065  71.737  -5.775  1.00  0.00     0.293 HD
ENDBRANCH  28  31
ENDBRANCH  16  17
ENDBRANCH  15  16
ENDBRANCH  14  15
ENDBRANCH  12  14
ENDBRANCH  11  12
ENDBRANCH   1  11
TORSDOF 13
ENDMDL
MODEL 15
REMARK VINA RESULT:    -7.726      2.806      7.250
REMARK INTER + INTRA:         -15.745
REMARK INTER:                 -13.861
REMARK INTRA:                  -1.884
REMARK UNBOUND:                -2.373
REMARK SMILES Cc1c(C)c2c(c(C)c1O)CC[C@@](C)(CCC[C@H](C)CCC[C@H](C)CCCC(C)C)O2
REMARK SMILES IDX 21 1 22 2 23 3 24 4 25 5 26 6 27 7 28 8 29 9 30 10 20 11
REMARK SMILES IDX 18 12 19 13 17 14 16 15 15 16 13 17 14 18 12 19 31 20 11 21
REMARK SMILES IDX 5 22 6 23 3 24 7 25 4 26 2 27 9 28 8 29 1 30 10 31
REMARK H PARENT 10 32
REMARK Flexibility Score: inf
ROOT
ATOM      1  C   UNL     1       8.562  75.236   0.014  1.00  0.00     0.001 C 
ENDROOT
BRANCH   1   2
ATOM      2  C   UNL     1       7.843  74.501  -1.138  1.00  0.00     0.003 C 
BRANCH   2   3
ATOM      3  C   UNL     1       8.700  74.083  -2.363  1.00  0.00    -0.014 C 
ATOM      4  C   UNL     1       8.038  74.455  -3.699  1.00  0.00     0.007 C 
BRANCH   3   5
ATOM      5  C   UNL     1       9.125  72.590  -2.332  1.00  0.00     0.003 C 
BRANCH   5   6
ATOM      6  C   UNL     1      10.649  72.404  -2.197  1.00  0.00     0.001 C 
BRANCH   6   7
ATOM      7  C   UNL     1      11.284  71.709  -3.424  1.00  0.00     0.003 C 
BRANCH   7   8
ATOM      8  C   UNL     1      10.901  72.362  -4.772  1.00  0.00    -0.017 C 
ATOM      9  C   UNL     1      10.010  71.448  -5.626  1.00  0.00     0.007 C 
ATOM     10  C   UNL     1      12.166  72.733  -5.556  1.00  0.00     0.007 C 
ENDBRANCH   7   8
ENDBRANCH   6   7
ENDBRANCH   5   6
ENDBRANCH   3   5
ENDBRANCH   2   3
ENDBRANCH   1   2
BRANCH   1  11
ATOM     11  C   UNL     1      10.093  75.231  -0.115  1.00  0.00     0.003 C 
BRANCH  11  12
ATOM     12  C   UNL     1      10.682  76.611  -0.496  1.00  0.00    -0.014 C 
ATOM     13  C   UNL     1      12.163  76.681  -0.088  1.00  0.00     0.007 C 
BRANCH  12  14
ATOM     14  C   UNL     1      10.496  77.008  -1.987  1.00  0.00     0.003 C 
BRANCH  14  15
ATOM     15  C   UNL     1       9.239  77.855  -2.272  1.00  0.00     0.004 C 
BRANCH  15  16
ATOM     16  C   UNL     1       8.711  78.587  -1.015  1.00  0.00     0.048 C 
BRANCH  16  17
ATOM     17  C   UNL     1       8.931  80.130  -0.964  1.00  0.00     0.107 C 
ATOM     18  C   UNL     1       7.735  80.829  -0.301  1.00  0.00     0.056 C 
ATOM     19  C   UNL     1       9.193  80.766  -2.351  1.00  0.00     0.053 C 
ATOM     20  O   UNL     1      10.076  80.377  -0.148  1.00  0.00    -0.487 OA
ATOM     21  C   UNL     1      10.488  80.240  -2.978  1.00  0.00     0.044 C 
ATOM     22  C   UNL     1      11.398  80.301  -0.616  1.00  0.00     0.127 A 
ATOM     23  C   UNL     1      11.651  80.228  -2.002  1.00  0.00     0.001 A 
ATOM     24  C   UNL     1      12.461  80.320   0.309  1.00  0.00    -0.002 A 
ATOM     25  C   UNL     1      12.981  80.089  -2.463  1.00  0.00    -0.002 A 
ATOM     26  C   UNL     1      12.154  80.398   1.789  1.00  0.00     0.049 C 
ATOM     27  C   UNL     1      13.799  80.286  -0.159  1.00  0.00    -0.002 A 
ATOM     28  C   UNL     1      14.049  80.137  -1.546  1.00  0.00     0.122 A 
ATOM     29  C   UNL     1      13.269  79.952  -3.943  1.00  0.00     0.049 C 
ATOM     30  C   UNL     1      14.972  80.378   0.794  1.00  0.00     0.049 C 
BRANCH  28  31
ATOM     31  O   UNL     1      15.357  80.031  -2.038  1.00  0.00    -0.507 OA
ATOM     32  H   UNL     1      16.031  79.352  -1.712  1.00  0.00     0.293 HD
ENDBRANCH  28  31
ENDBRANCH  16  17
ENDBRANCH  15  16
ENDBRANCH  14  15
ENDBRANCH  12  14
ENDBRANCH  11  12
ENDBRANCH   1  11
TORSDOF 13
ENDMDL
