MODEL 1
REMARK VINA RESULT:    -6.282      0.000      0.000
REMARK INTER + INTRA:          -9.886
REMARK INTER:                  -8.852
REMARK INTRA:                  -1.033
REMARK UNBOUND:                -1.033
REMARK SMILES CCC(=O)C(CC(C)N(C)C)(c1ccccc1)c1ccccc1
REMARK SMILES IDX 6 1 5 2 3 3 4 4 2 5 1 6 12 7 13 8 17 9 14 10 16 11 15 12
REMARK SMILES IDX 18 13 19 14 23 15 20 16 22 17 21 18 7 19 8 20 9 21 10 22
REMARK SMILES IDX 11 23
REMARK H PARENT
REMARK Flexibility Score: inf
ROOT
ATOM      1  C   UNL     1      26.403  17.808  30.982  1.00  0.00     0.043 C 
ENDROOT
BRANCH   1   2
ATOM      2  C   UNL     1      27.660  18.647  31.431  1.00  0.00     0.080 C 
BRANCH   2   3
ATOM      3  C   UNL     1      27.362  19.405  32.739  1.00  0.00     0.147 C 
ATOM      4  O   UNL     1      26.445  19.039  33.462  1.00  0.00    -0.298 OA
BRANCH   3   5
ATOM      5  C   UNL     1      28.091  20.684  33.094  1.00  0.00     0.073 C 
ATOM      6  C   UNL     1      27.136  21.859  33.303  1.00  0.00     0.012 C 
ENDBRANCH   3   5
ENDBRANCH   2   3
BRANCH   2   7
ATOM      7  C   UNL     1      28.836  17.654  31.570  1.00  0.00    -0.030 A 
ATOM      8  C   UNL     1      29.298  17.296  32.858  1.00  0.00     0.005 A 
ATOM      9  C   UNL     1      29.560  17.177  30.453  1.00  0.00     0.005 A 
ATOM     10  C   UNL     1      30.389  16.438  33.017  1.00  0.00     0.000 A 
ATOM     11  C   UNL     1      30.651  16.320  30.619  1.00  0.00     0.000 A 
ATOM     12  C   UNL     1      31.061  15.944  31.899  1.00  0.00     0.000 A 
ENDBRANCH   2   7
BRANCH   2  13
ATOM     13  C   UNL     1      28.000  19.741  30.383  1.00  0.00    -0.030 A 
ATOM     14  C   UNL     1      26.966  20.421  29.689  1.00  0.00     0.005 A 
ATOM     15  C   UNL     1      29.333  20.004  29.977  1.00  0.00     0.005 A 
ATOM     16  C   UNL     1      27.255  21.366  28.703  1.00  0.00     0.000 A 
ATOM     17  C   UNL     1      29.612  20.952  28.988  1.00  0.00     0.000 A 
ATOM     18  C   UNL     1      28.576  21.638  28.357  1.00  0.00     0.000 A 
ENDBRANCH   2  13
ENDBRANCH   1   2
BRANCH   1  19
ATOM     19  C   UNL     1      26.457  16.277  31.290  1.00  0.00     0.054 C 
ATOM     20  C   UNL     1      26.284  15.426  30.010  1.00  0.00     0.024 C 
BRANCH  19  21
ATOM     21  N   UNL     1      25.464  15.939  32.349  1.00  0.00    -0.307 NA
ATOM     22  C   UNL     1      26.099  15.522  33.610  1.00  0.00     0.105 C 
ATOM     23  C   UNL     1      24.445  14.961  31.929  1.00  0.00     0.105 C 
ENDBRANCH  19  21
ENDBRANCH   1  19
TORSDOF 7
ENDMDL
MODEL 2
REMARK VINA RESULT:    -6.182      1.489      2.259
REMARK INTER + INTRA:          -9.746
REMARK INTER:                  -8.780
REMARK INTRA:                  -0.966
REMARK UNBOUND:                -1.033
REMARK SMILES CCC(=O)C(CC(C)N(C)C)(c1ccccc1)c1ccccc1
REMARK SMILES IDX 6 1 5 2 3 3 4 4 2 5 1 6 12 7 13 8 17 9 14 10 16 11 15 12
REMARK SMILES IDX 18 13 19 14 23 15 20 16 22 17 21 18 7 19 8 20 9 21 10 22
REMARK SMILES IDX 11 23
REMARK H PARENT
REMARK Flexibility Score: inf
ROOT
ATOM      1  C   UNL     1      26.677  18.038  30.532  1.00  0.00     0.043 C 
ENDROOT
BRANCH   1   2
ATOM      2  C   UNL     1      27.869  18.842  31.174  1.00  0.00     0.080 C 
BRANCH   2   3
ATOM      3  C   UNL     1      27.847  18.705  32.709  1.00  0.00     0.147 C 
ATOM      4  O   UNL     1      28.867  18.392  33.309  1.00  0.00    -0.298 OA
BRANCH   3   5
ATOM      5  C   UNL     1      26.556  18.814  33.493  1.00  0.00     0.073 C 
ATOM      6  C   UNL     1      26.341  20.214  34.068  1.00  0.00     0.012 C 
ENDBRANCH   3   5
ENDBRANCH   2   3
BRANCH   2   7
ATOM      7  C   UNL     1      29.170  18.295  30.545  1.00  0.00    -0.030 A 
ATOM      8  C   UNL     1      29.593  18.779  29.285  1.00  0.00     0.005 A 
ATOM      9  C   UNL     1      29.902  17.231  31.121  1.00  0.00     0.005 A 
ATOM     10  C   UNL     1      30.739  18.271  28.667  1.00  0.00     0.000 A 
ATOM     11  C   UNL     1      31.046  16.727  30.497  1.00  0.00     0.000 A 
ATOM     12  C   UNL     1      31.469  17.252  29.276  1.00  0.00     0.000 A 
ENDBRANCH   2   7
BRANCH   2  13
ATOM     13  C   UNL     1      27.732  20.363  30.889  1.00  0.00    -0.030 A 
ATOM     14  C   UNL     1      28.544  21.301  31.576  1.00  0.00     0.005 A 
ATOM     15  C   UNL     1      26.710  20.881  30.053  1.00  0.00     0.005 A 
ATOM     16  C   UNL     1      28.394  22.674  31.375  1.00  0.00     0.000 A 
ATOM     17  C   UNL     1      26.568  22.258  29.857  1.00  0.00     0.000 A 
ATOM     18  C   UNL     1      27.412  23.153  30.510  1.00  0.00     0.000 A 
ENDBRANCH   2  13
ENDBRANCH   1   2
BRANCH   1  19
ATOM     19  C   UNL     1      26.794  16.480  30.586  1.00  0.00     0.054 C 
ATOM     20  C   UNL     1      26.915  15.862  29.174  1.00  0.00     0.024 C 
BRANCH  19  21
ATOM     21  N   UNL     1      25.658  15.916  31.370  1.00  0.00    -0.307 NA
ATOM     22  C   UNL     1      26.097  15.258  32.612  1.00  0.00     0.105 C 
ATOM     23  C   UNL     1      24.773  15.029  30.594  1.00  0.00     0.105 C 
ENDBRANCH  19  21
ENDBRANCH   1  19
TORSDOF 7
ENDMDL
MODEL 3
REMARK VINA RESULT:    -6.092      1.821      5.401
REMARK INTER + INTRA:          -9.619
REMARK INTER:                  -9.001
REMARK INTRA:                  -0.618
REMARK UNBOUND:                -1.033
REMARK SMILES CCC(=O)C(CC(C)N(C)C)(c1ccccc1)c1ccccc1
REMARK SMILES IDX 6 1 5 2 3 3 4 4 2 5 1 6 12 7 13 8 17 9 14 10 16 11 15 12
REMARK SMILES IDX 18 13 19 14 23 15 20 16 22 17 21 18 7 19 8 20 9 21 10 22
REMARK SMILES IDX 11 23
REMARK H PARENT
REMARK Flexibility Score: inf
ROOT
ATOM      1  C   UNL     1      26.967  19.311  32.418  1.00  0.00     0.043 C 
ENDROOT
BRANCH   1   2
ATOM      2  C   UNL     1      27.657  18.597  31.195  1.00  0.00     0.080 C 
BRANCH   2   3
ATOM      3  C   UNL     1      26.717  17.537  30.590  1.00  0.00     0.147 C 
ATOM      4  O   UNL     1      25.803  17.076  31.261  1.00  0.00    -0.298 OA
BRANCH   3   5
ATOM      5  C   UNL     1      26.975  16.941  29.222  1.00  0.00     0.073 C 
ATOM      6  C   UNL     1      27.265  15.441  29.285  1.00  0.00     0.012 C 
ENDBRANCH   3   5
ENDBRANCH   2   3
BRANCH   2   7
ATOM      7  C   UNL     1      28.037  19.704  30.186  1.00  0.00    -0.030 A 
ATOM      8  C   UNL     1      27.017  20.447  29.548  1.00  0.00     0.005 A 
ATOM      9  C   UNL     1      29.372  19.926  29.773  1.00  0.00     0.005 A 
ATOM     10  C   UNL     1      27.326  21.422  28.595  1.00  0.00     0.000 A 
ATOM     11  C   UNL     1      29.673  20.902  28.818  1.00  0.00     0.000 A 
ATOM     12  C   UNL     1      28.653  21.655  28.237  1.00  0.00     0.000 A 
ENDBRANCH   2   7
BRANCH   2  13
ATOM     13  C   UNL     1      28.925  17.822  31.647  1.00  0.00    -0.030 A 
ATOM     14  C   UNL     1      29.965  17.542  30.725  1.00  0.00     0.005 A 
ATOM     15  C   UNL     1      29.033  17.247  32.938  1.00  0.00     0.005 A 
ATOM     16  C   UNL     1      31.084  16.797  31.099  1.00  0.00     0.000 A 
ATOM     17  C   UNL     1      30.158  16.502  33.304  1.00  0.00     0.000 A 
ATOM     18  C   UNL     1      31.186  16.284  32.390  1.00  0.00     0.000 A 
ENDBRANCH   2  13
ENDBRANCH   1   2
BRANCH   1  19
ATOM     19  C   UNL     1      27.412  20.785  32.691  1.00  0.00     0.054 C 
ATOM     20  C   UNL     1      28.594  20.854  33.685  1.00  0.00     0.024 C 
BRANCH  19  21
ATOM     21  N   UNL     1      26.239  21.593  33.129  1.00  0.00    -0.307 NA
ATOM     22  C   UNL     1      26.164  22.898  32.452  1.00  0.00     0.105 C 
ATOM     23  C   UNL     1      26.131  21.757  34.590  1.00  0.00     0.105 C 
ENDBRANCH  19  21
ENDBRANCH   1  19
TORSDOF 7
ENDMDL
MODEL 4
REMARK VINA RESULT:    -5.999      1.704      4.425
REMARK INTER + INTRA:          -9.487
REMARK INTER:                  -8.794
REMARK INTRA:                  -0.694
REMARK UNBOUND:                -1.033
REMARK SMILES CCC(=O)C(CC(C)N(C)C)(c1ccccc1)c1ccccc1
REMARK SMILES IDX 6 1 5 2 3 3 4 4 2 5 1 6 12 7 13 8 17 9 14 10 16 11 15 12
REMARK SMILES IDX 18 13 19 14 23 15 20 16 22 17 21 18 7 19 8 20 9 21 10 22
REMARK SMILES IDX 11 23
REMARK H PARENT
REMARK Flexibility Score: inf
ROOT
ATOM      1  C   UNL     1      28.792  17.638  32.755  1.00  0.00     0.043 C 
ENDROOT
BRANCH   1   2
ATOM      2  C   UNL     1      28.112  18.385  31.545  1.00  0.00     0.080 C 
BRANCH   2   3
ATOM      3  C   UNL     1      26.990  17.519  30.940  1.00  0.00     0.147 C 
ATOM      4  O   UNL     1      25.981  17.282  31.591  1.00  0.00    -0.298 OA
BRANCH   3   5
ATOM      5  C   UNL     1      27.158  16.830  29.601  1.00  0.00     0.073 C 
ATOM      6  C   UNL     1      26.536  15.434  29.582  1.00  0.00     0.012 C 
ENDBRANCH   3   5
ENDBRANCH   2   3
BRANCH   2   7
ATOM      7  C   UNL     1      27.596  19.737  32.085  1.00  0.00    -0.030 A 
ATOM      8  C   UNL     1      27.942  20.144  33.395  1.00  0.00     0.005 A 
ATOM      9  C   UNL     1      26.680  20.541  31.366  1.00  0.00     0.005 A 
ATOM     10  C   UNL     1      27.453  21.339  33.930  1.00  0.00     0.000 A 
ATOM     11  C   UNL     1      26.195  21.734  31.908  1.00  0.00     0.000 A 
ATOM     12  C   UNL     1      26.587  22.137  33.184  1.00  0.00     0.000 A 
ENDBRANCH   2   7
BRANCH   2  13
ATOM     13  C   UNL     1      29.127  18.617  30.394  1.00  0.00    -0.030 A 
ATOM     14  C   UNL     1      30.079  17.620  30.060  1.00  0.00     0.005 A 
ATOM     15  C   UNL     1      29.240  19.866  29.732  1.00  0.00     0.005 A 
ATOM     16  C   UNL     1      31.036  17.835  29.067  1.00  0.00     0.000 A 
ATOM     17  C   UNL     1      30.202  20.072  28.739  1.00  0.00     0.000 A 
ATOM     18  C   UNL     1      31.093  19.056  28.401  1.00  0.00     0.000 A 
ENDBRANCH   2  13
ENDBRANCH   1   2
BRANCH   1  19
ATOM     19  C   UNL     1      28.379  16.144  32.957  1.00  0.00     0.054 C 
ATOM     20  C   UNL     1      27.646  15.926  34.301  1.00  0.00     0.024 C 
BRANCH  19  21
ATOM     21  N   UNL     1      29.573  15.266  32.798  1.00  0.00    -0.307 NA
ATOM     22  C   UNL     1      29.457  14.009  33.556  1.00  0.00     0.105 C 
ATOM     23  C   UNL     1      30.855  15.932  33.088  1.00  0.00     0.105 C 
ENDBRANCH  19  21
ENDBRANCH   1  19
TORSDOF 7
ENDMDL
MODEL 5
REMARK VINA RESULT:    -5.958      1.362      3.022
REMARK INTER + INTRA:          -9.430
REMARK INTER:                  -8.727
REMARK INTRA:                  -0.703
REMARK UNBOUND:                -1.033
REMARK SMILES CCC(=O)C(CC(C)N(C)C)(c1ccccc1)c1ccccc1
REMARK SMILES IDX 6 1 5 2 3 3 4 4 2 5 1 6 12 7 13 8 17 9 14 10 16 11 15 12
REMARK SMILES IDX 18 13 19 14 23 15 20 16 22 17 21 18 7 19 8 20 9 21 10 22
REMARK SMILES IDX 11 23
REMARK H PARENT
REMARK Flexibility Score: inf
ROOT
ATOM      1  C   UNL     1      26.566  17.766  30.479  1.00  0.00     0.043 C 
ENDROOT
BRANCH   1   2
ATOM      2  C   UNL     1      27.667  18.550  31.289  1.00  0.00     0.080 C 
BRANCH   2   3
ATOM      3  C   UNL     1      27.869  17.914  32.678  1.00  0.00     0.147 C 
ATOM      4  O   UNL     1      26.937  17.870  33.471  1.00  0.00    -0.298 OA
BRANCH   3   5
ATOM      5  C   UNL     1      29.234  17.459  33.149  1.00  0.00     0.073 C 
ATOM      6  C   UNL     1      29.224  16.017  33.657  1.00  0.00     0.012 C 
ENDBRANCH   3   5
ENDBRANCH   2   3
BRANCH   2   7
ATOM      7  C   UNL     1      28.953  18.531  30.432  1.00  0.00    -0.030 A 
ATOM      8  C   UNL     1      29.285  19.660  29.648  1.00  0.00     0.005 A 
ATOM      9  C   UNL     1      29.758  17.375  30.298  1.00  0.00     0.005 A 
ATOM     10  C   UNL     1      30.416  19.657  28.826  1.00  0.00     0.000 A 
ATOM     11  C   UNL     1      30.886  17.379  29.474  1.00  0.00     0.000 A 
ATOM     12  C   UNL     1      31.220  18.521  28.745  1.00  0.00     0.000 A 
ENDBRANCH   2   7
BRANCH   2  13
ATOM     13  C   UNL     1      27.223  20.013  31.560  1.00  0.00    -0.030 A 
ATOM     14  C   UNL     1      27.740  20.728  32.670  1.00  0.00     0.005 A 
ATOM     15  C   UNL     1      26.194  20.637  30.810  1.00  0.00     0.005 A 
ATOM     16  C   UNL     1      27.308  22.023  32.962  1.00  0.00     0.000 A 
ATOM     17  C   UNL     1      25.769  21.934  31.110  1.00  0.00     0.000 A 
ATOM     18  C   UNL     1      26.329  22.630  32.179  1.00  0.00     0.000 A 
ENDBRANCH   2  13
ENDBRANCH   1   2
BRANCH   1  19
ATOM     19  C   UNL     1      26.657  16.207  30.531  1.00  0.00     0.054 C 
ATOM     20  C   UNL     1      26.898  15.597  29.130  1.00  0.00     0.024 C 
BRANCH  19  21
ATOM     21  N   UNL     1      25.448  15.653  31.203  1.00  0.00    -0.307 NA
ATOM     22  C   UNL     1      25.781  14.765  32.330  1.00  0.00     0.105 C 
ATOM     23  C   UNL     1      24.495  14.999  30.288  1.00  0.00     0.105 C 
ENDBRANCH  19  21
ENDBRANCH   1  19
TORSDOF 7
ENDMDL
MODEL 6
REMARK VINA RESULT:    -5.897     15.970     18.434
REMARK INTER + INTRA:          -9.343
REMARK INTER:                  -8.357
REMARK INTRA:                  -0.986
REMARK UNBOUND:                -1.033
REMARK SMILES CCC(=O)C(CC(C)N(C)C)(c1ccccc1)c1ccccc1
REMARK SMILES IDX 6 1 5 2 3 3 4 4 2 5 1 6 12 7 13 8 17 9 14 10 16 11 15 12
REMARK SMILES IDX 18 13 19 14 23 15 20 16 22 17 21 18 7 19 8 20 9 21 10 22
REMARK SMILES IDX 11 23
REMARK H PARENT
REMARK Flexibility Score: inf
ROOT
ATOM      1  C   UNL     1      10.427  19.390  34.758  1.00  0.00     0.043 C 
ENDROOT
BRANCH   1   2
ATOM      2  C   UNL     1      10.507  19.506  36.327  1.00  0.00     0.080 C 
BRANCH   2   3
ATOM      3  C   UNL     1       9.278  20.258  36.875  1.00  0.00     0.147 C 
ATOM      4  O   UNL     1       9.141  21.452  36.645  1.00  0.00    -0.298 OA
BRANCH   3   5
ATOM      5  C   UNL     1       8.296  19.590  37.814  1.00  0.00     0.073 C 
ATOM      6  C   UNL     1       8.524  19.985  39.273  1.00  0.00     0.012 C 
ENDBRANCH   3   5
ENDBRANCH   2   3
BRANCH   2   7
ATOM      7  C   UNL     1      10.620  18.067  36.879  1.00  0.00    -0.030 A 
ATOM      8  C   UNL     1      11.849  17.620  37.417  1.00  0.00     0.005 A 
ATOM      9  C   UNL     1       9.573  17.124  36.756  1.00  0.00     0.005 A 
ATOM     10  C   UNL     1      11.998  16.310  37.881  1.00  0.00     0.000 A 
ATOM     11  C   UNL     1       9.729  15.815  37.221  1.00  0.00     0.000 A 
ATOM     12  C   UNL     1      10.936  15.411  37.790  1.00  0.00     0.000 A 
ENDBRANCH   2   7
BRANCH   2  13
ATOM     13  C   UNL     1      11.738  20.346  36.760  1.00  0.00    -0.030 A 
ATOM     14  C   UNL     1      11.854  20.822  38.092  1.00  0.00     0.005 A 
ATOM     15  C   UNL     1      12.712  20.788  35.829  1.00  0.00     0.005 A 
ATOM     16  C   UNL     1      12.925  21.627  38.483  1.00  0.00     0.000 A 
ATOM     17  C   UNL     1      13.781  21.594  36.230  1.00  0.00     0.000 A 
ATOM     18  C   UNL     1      13.893  22.007  37.556  1.00  0.00     0.000 A 
ENDBRANCH   2  13
ENDBRANCH   1   2
BRANCH   1  19
ATOM     19  C   UNL     1       8.997  19.498  34.136  1.00  0.00     0.054 C 
ATOM     20  C   UNL     1       8.565  18.180  33.451  1.00  0.00     0.024 C 
BRANCH  19  21
ATOM     21  N   UNL     1       8.932  20.674  33.222  1.00  0.00    -0.307 NA
ATOM     22  C   UNL     1       8.646  20.294  31.828  1.00  0.00     0.105 C 
ATOM     23  C   UNL     1      10.111  21.556  33.291  1.00  0.00     0.105 C 
ENDBRANCH  19  21
ENDBRANCH   1  19
TORSDOF 7
ENDMDL
MODEL 7
REMARK VINA RESULT:    -5.882      2.139      4.517
REMARK INTER + INTRA:          -9.322
REMARK INTER:                  -8.455
REMARK INTRA:                  -0.867
REMARK UNBOUND:                -1.033
REMARK SMILES CCC(=O)C(CC(C)N(C)C)(c1ccccc1)c1ccccc1
REMARK SMILES IDX 6 1 5 2 3 3 4 4 2 5 1 6 12 7 13 8 17 9 14 10 16 11 15 12
REMARK SMILES IDX 18 13 19 14 23 15 20 16 22 17 21 18 7 19 8 20 9 21 10 22
REMARK SMILES IDX 11 23
REMARK H PARENT
REMARK Flexibility Score: inf
ROOT
ATOM      1  C   UNL     1      29.252  18.606  31.078  1.00  0.00     0.043 C 
ENDROOT
BRANCH   1   2
ATOM      2  C   UNL     1      27.847  18.392  31.758  1.00  0.00     0.080 C 
BRANCH   2   3
ATOM      3  C   UNL     1      26.750  18.232  30.688  1.00  0.00     0.147 C 
ATOM      4  O   UNL     1      26.626  17.169  30.094  1.00  0.00    -0.298 OA
BRANCH   3   5
ATOM      5  C   UNL     1      25.898  19.405  30.247  1.00  0.00     0.073 C 
ATOM      6  C   UNL     1      26.607  20.283  29.216  1.00  0.00     0.012 C 
ENDBRANCH   3   5
ENDBRANCH   2   3
BRANCH   2   7
ATOM      7  C   UNL     1      27.974  17.153  32.672  1.00  0.00    -0.030 A 
ATOM      8  C   UNL     1      26.807  16.474  33.093  1.00  0.00     0.005 A 
ATOM      9  C   UNL     1      29.212  16.736  33.215  1.00  0.00     0.005 A 
ATOM     10  C   UNL     1      26.886  15.379  33.958  1.00  0.00     0.000 A 
ATOM     11  C   UNL     1      29.283  15.641  34.080  1.00  0.00     0.000 A 
ATOM     12  C   UNL     1      28.122  14.958  34.445  1.00  0.00     0.000 A 
ENDBRANCH   2   7
BRANCH   2  13
ATOM     13  C   UNL     1      27.438  19.637  32.591  1.00  0.00    -0.030 A 
ATOM     14  C   UNL     1      28.090  20.881  32.396  1.00  0.00     0.005 A 
ATOM     15  C   UNL     1      26.513  19.553  33.663  1.00  0.00     0.005 A 
ATOM     16  C   UNL     1      27.776  21.995  33.177  1.00  0.00     0.000 A 
ATOM     17  C   UNL     1      26.204  20.674  34.438  1.00  0.00     0.000 A 
ATOM     18  C   UNL     1      26.828  21.895  34.192  1.00  0.00     0.000 A 
ENDBRANCH   2  13
ENDBRANCH   1   2
BRANCH   1  19
ATOM     19  C   UNL     1      29.441  17.945  29.674  1.00  0.00     0.054 C 
ATOM     20  C   UNL     1      30.289  16.654  29.755  1.00  0.00     0.024 C 
BRANCH  19  21
ATOM     21  N   UNL     1      29.996  18.943  28.716  1.00  0.00    -0.307 NA
ATOM     22  C   UNL     1      31.239  18.484  28.075  1.00  0.00     0.105 C 
ATOM     23  C   UNL     1      30.170  20.291  29.285  1.00  0.00     0.105 C 
ENDBRANCH  19  21
ENDBRANCH   1  19
TORSDOF 7
ENDMDL
MODEL 8
REMARK VINA RESULT:    -5.882      2.100      4.639
REMARK INTER + INTRA:          -9.322
REMARK INTER:                  -8.726
REMARK INTRA:                  -0.596
REMARK UNBOUND:                -1.033
REMARK SMILES CCC(=O)C(CC(C)N(C)C)(c1ccccc1)c1ccccc1
REMARK SMILES IDX 6 1 5 2 3 3 4 4 2 5 1 6 12 7 13 8 17 9 14 10 16 11 15 12
REMARK SMILES IDX 18 13 19 14 23 15 20 16 22 17 21 18 7 19 8 20 9 21 10 22
REMARK SMILES IDX 11 23
REMARK H PARENT
REMARK Flexibility Score: inf
ROOT
ATOM      1  C   UNL     1      29.245  18.551  31.128  1.00  0.00     0.043 C 
ENDROOT
BRANCH   1   2
ATOM      2  C   UNL     1      27.845  18.365  31.826  1.00  0.00     0.080 C 
BRANCH   2   3
ATOM      3  C   UNL     1      26.762  18.034  30.781  1.00  0.00     0.147 C 
ATOM      4  O   UNL     1      26.332  18.913  30.047  1.00  0.00    -0.298 OA
BRANCH   3   5
ATOM      5  C   UNL     1      26.108  16.669  30.726  1.00  0.00     0.073 C 
ATOM      6  C   UNL     1      26.598  15.836  29.541  1.00  0.00     0.012 C 
ENDBRANCH   3   5
ENDBRANCH   2   3
BRANCH   2   7
ATOM      7  C   UNL     1      28.015  17.250  32.883  1.00  0.00    -0.030 A 
ATOM      8  C   UNL     1      29.291  16.679  33.096  1.00  0.00     0.005 A 
ATOM      9  C   UNL     1      26.916  16.683  33.569  1.00  0.00     0.005 A 
ATOM     10  C   UNL     1      29.469  15.638  34.010  1.00  0.00     0.000 A 
ATOM     11  C   UNL     1      27.101  15.641  34.481  1.00  0.00     0.000 A 
ATOM     12  C   UNL     1      28.377  15.124  34.708  1.00  0.00     0.000 A 
ENDBRANCH   2   7
BRANCH   2  13
ATOM     13  C   UNL     1      27.382  19.683  32.503  1.00  0.00    -0.030 A 
ATOM     14  C   UNL     1      27.813  20.939  32.005  1.00  0.00     0.005 A 
ATOM     15  C   UNL     1      26.640  19.687  33.712  1.00  0.00     0.005 A 
ATOM     16  C   UNL     1      27.454  22.131  32.636  1.00  0.00     0.000 A 
ATOM     17  C   UNL     1      26.285  20.886  34.336  1.00  0.00     0.000 A 
ATOM     18  C   UNL     1      26.684  22.107  33.796  1.00  0.00     0.000 A 
ENDBRANCH   2  13
ENDBRANCH   1   2
BRANCH   1  19
ATOM     19  C   UNL     1      29.396  17.905  29.712  1.00  0.00     0.054 C 
ATOM     20  C   UNL     1      30.269  16.629  29.752  1.00  0.00     0.024 C 
BRANCH  19  21
ATOM     21  N   UNL     1      29.898  18.921  28.745  1.00  0.00    -0.307 NA
ATOM     22  C   UNL     1      31.150  18.509  28.088  1.00  0.00     0.105 C 
ATOM     23  C   UNL     1      30.026  20.277  29.307  1.00  0.00     0.105 C 
ENDBRANCH  19  21
ENDBRANCH   1  19
TORSDOF 7
ENDMDL
MODEL 9
REMARK VINA RESULT:    -5.815     15.331     18.389
REMARK INTER + INTRA:          -9.228
REMARK INTER:                  -8.249
REMARK INTRA:                  -0.979
REMARK UNBOUND:                -1.033
REMARK SMILES CCC(=O)C(CC(C)N(C)C)(c1ccccc1)c1ccccc1
REMARK SMILES IDX 6 1 5 2 3 3 4 4 2 5 1 6 12 7 13 8 17 9 14 10 16 11 15 12
REMARK SMILES IDX 18 13 19 14 23 15 20 16 22 17 21 18 7 19 8 20 9 21 10 22
REMARK SMILES IDX 11 23
REMARK H PARENT
REMARK Flexibility Score: inf
ROOT
ATOM      1  C   UNL     1      12.658  19.335  36.573  1.00  0.00     0.043 C 
ENDROOT
BRANCH   1   2
ATOM      2  C   UNL     1      11.111  19.099  36.755  1.00  0.00     0.080 C 
BRANCH   2   3
ATOM      3  C   UNL     1      10.566  19.960  37.911  1.00  0.00     0.147 C 
ATOM      4  O   UNL     1      10.543  19.511  39.049  1.00  0.00    -0.298 OA
BRANCH   3   5
ATOM      5  C   UNL     1       9.927  21.310  37.658  1.00  0.00     0.073 C 
ATOM      6  C   UNL     1      10.298  22.339  38.725  1.00  0.00     0.012 C 
ENDBRANCH   3   5
ENDBRANCH   2   3
BRANCH   2   7
ATOM      7  C   UNL     1      10.444  19.427  35.401  1.00  0.00    -0.030 A 
ATOM      8  C   UNL     1       9.041  19.594  35.336  1.00  0.00     0.005 A 
ATOM      9  C   UNL     1      11.167  19.447  34.185  1.00  0.00     0.005 A 
ATOM     10  C   UNL     1       8.402  19.845  34.118  1.00  0.00     0.000 A 
ATOM     11  C   UNL     1      10.522  19.698  32.971  1.00  0.00     0.000 A 
ATOM     12  C   UNL     1       9.142  19.905  32.938  1.00  0.00     0.000 A 
ENDBRANCH   2   7
BRANCH   2  13
ATOM     13  C   UNL     1      10.817  17.628  37.157  1.00  0.00    -0.030 A 
ATOM     14  C   UNL     1      11.856  16.791  37.638  1.00  0.00     0.005 A 
ATOM     15  C   UNL     1       9.553  17.025  36.931  1.00  0.00     0.005 A 
ATOM     16  C   UNL     1      11.621  15.450  37.948  1.00  0.00     0.000 A 
ATOM     17  C   UNL     1       9.328  15.682  37.245  1.00  0.00     0.000 A 
ATOM     18  C   UNL     1      10.357  14.897  37.760  1.00  0.00     0.000 A 
ENDBRANCH   2  13
ENDBRANCH   1   2
BRANCH   1  19
ATOM     19  C   UNL     1      13.205  20.708  37.083  1.00  0.00     0.054 C 
ATOM     20  C   UNL     1      13.694  21.600  35.918  1.00  0.00     0.024 C 
BRANCH  19  21
ATOM     21  N   UNL     1      14.253  20.480  38.118  1.00  0.00    -0.307 NA
ATOM     22  C   UNL     1      14.716  19.084  38.160  1.00  0.00     0.105 C 
ATOM     23  C   UNL     1      13.880  20.946  39.466  1.00  0.00     0.105 C 
ENDBRANCH  19  21
ENDBRANCH   1  19
TORSDOF 7
ENDMDL
MODEL 10
REMARK VINA RESULT:    -5.783      1.979      4.468
REMARK INTER + INTRA:          -9.183
REMARK INTER:                  -8.464
REMARK INTRA:                  -0.718
REMARK UNBOUND:                -1.033
REMARK SMILES CCC(=O)C(CC(C)N(C)C)(c1ccccc1)c1ccccc1
REMARK SMILES IDX 6 1 5 2 3 3 4 4 2 5 1 6 12 7 13 8 17 9 14 10 16 11 15 12
REMARK SMILES IDX 18 13 19 14 23 15 20 16 22 17 21 18 7 19 8 20 9 21 10 22
REMARK SMILES IDX 11 23
REMARK H PARENT
REMARK Flexibility Score: inf
ROOT
ATOM      1  C   UNL     1      29.681  18.358  31.123  1.00  0.00     0.043 C 
ENDROOT
BRANCH   1   2
ATOM      2  C   UNL     1      28.248  18.827  30.666  1.00  0.00     0.080 C 
BRANCH   2   3
ATOM      3  C   UNL     1      27.496  17.671  29.980  1.00  0.00     0.147 C 
ATOM      4  O   UNL     1      27.845  17.288  28.871  1.00  0.00    -0.298 OA
BRANCH   3   5
ATOM      5  C   UNL     1      26.239  17.078  30.582  1.00  0.00     0.073 C 
ATOM      6  C   UNL     1      26.296  15.552  30.662  1.00  0.00     0.012 C 
ENDBRANCH   3   5
ENDBRANCH   2   3
BRANCH   2   7
ATOM      7  C   UNL     1      27.522  19.346  31.928  1.00  0.00    -0.030 A 
ATOM      8  C   UNL     1      27.661  20.702  32.305  1.00  0.00     0.005 A 
ATOM      9  C   UNL     1      26.816  18.487  32.802  1.00  0.00     0.005 A 
ATOM     10  C   UNL     1      27.056  21.191  33.466  1.00  0.00     0.000 A 
ATOM     11  C   UNL     1      26.214  18.983  33.962  1.00  0.00     0.000 A 
ATOM     12  C   UNL     1      26.327  20.334  34.290  1.00  0.00     0.000 A 
ENDBRANCH   2   7
BRANCH   2  13
ATOM     13  C   UNL     1      28.345  19.953  29.601  1.00  0.00    -0.030 A 
ATOM     14  C   UNL     1      29.608  20.370  29.107  1.00  0.00     0.005 A 
ATOM     15  C   UNL     1      27.211  20.697  29.188  1.00  0.00     0.005 A 
ATOM     16  C   UNL     1      29.718  21.420  28.193  1.00  0.00     0.000 A 
ATOM     17  C   UNL     1      27.331  21.745  28.272  1.00  0.00     0.000 A 
ATOM     18  C   UNL     1      28.580  22.102  27.768  1.00  0.00     0.000 A 
ENDBRANCH   2  13
ENDBRANCH   1   2
BRANCH   1  19
ATOM     19  C   UNL     1      29.834  16.834  31.438  1.00  0.00     0.054 C 
ATOM     20  C   UNL     1      29.829  16.558  32.960  1.00  0.00     0.024 C 
BRANCH  19  21
ATOM     21  N   UNL     1      31.046  16.297  30.756  1.00  0.00    -0.307 NA
ATOM     22  C   UNL     1      31.334  16.985  29.487  1.00  0.00     0.105 C 
ATOM     23  C   UNL     1      31.033  14.836  30.567  1.00  0.00     0.105 C 
ENDBRANCH  19  21
ENDBRANCH   1  19
TORSDOF 7
ENDMDL
MODEL 11
REMARK VINA RESULT:    -5.764     15.469     18.635
REMARK INTER + INTRA:          -9.157
REMARK INTER:                  -8.120
REMARK INTRA:                  -1.037
REMARK UNBOUND:                -1.033
REMARK SMILES CCC(=O)C(CC(C)N(C)C)(c1ccccc1)c1ccccc1
REMARK SMILES IDX 6 1 5 2 3 3 4 4 2 5 1 6 12 7 13 8 17 9 14 10 16 11 15 12
REMARK SMILES IDX 18 13 19 14 23 15 20 16 22 17 21 18 7 19 8 20 9 21 10 22
REMARK SMILES IDX 11 23
REMARK H PARENT
REMARK Flexibility Score: inf
ROOT
ATOM      1  C   UNL     1       9.779  19.725  35.524  1.00  0.00     0.043 C 
ENDROOT
BRANCH   1   2
ATOM      2  C   UNL     1      10.914  19.424  36.575  1.00  0.00     0.080 C 
BRANCH   2   3
ATOM      3  C   UNL     1      12.302  19.686  35.959  1.00  0.00     0.147 C 
ATOM      4  O   UNL     1      12.705  18.985  35.041  1.00  0.00    -0.298 OA
BRANCH   3   5
ATOM      5  C   UNL     1      13.250  20.708  36.552  1.00  0.00     0.073 C 
ATOM      6  C   UNL     1      14.380  20.058  37.351  1.00  0.00     0.012 C 
ENDBRANCH   3   5
ENDBRANCH   2   3
BRANCH   2   7
ATOM      7  C   UNL     1      10.631  20.312  37.808  1.00  0.00    -0.030 A 
ATOM      8  C   UNL     1      10.085  21.604  37.626  1.00  0.00     0.005 A 
ATOM      9  C   UNL     1      11.011  19.935  39.117  1.00  0.00     0.005 A 
ATOM     10  C   UNL     1       9.862  22.450  38.716  1.00  0.00     0.000 A 
ATOM     11  C   UNL     1      10.785  20.785  40.202  1.00  0.00     0.000 A 
ATOM     12  C   UNL     1      10.204  22.038  40.004  1.00  0.00     0.000 A 
ENDBRANCH   2   7
BRANCH   2  13
ATOM     13  C   UNL     1      10.913  17.925  36.980  1.00  0.00    -0.030 A 
ATOM     14  C   UNL     1       9.723  17.158  36.900  1.00  0.00     0.005 A 
ATOM     15  C   UNL     1      12.043  17.306  37.572  1.00  0.00     0.005 A 
ATOM     16  C   UNL     1       9.690  15.825  37.314  1.00  0.00     0.000 A 
ATOM     17  C   UNL     1      12.001  15.971  37.984  1.00  0.00     0.000 A 
ATOM     18  C   UNL     1      10.829  15.228  37.848  1.00  0.00     0.000 A 
ENDBRANCH   2  13
ENDBRANCH   1   2
BRANCH   1  19
ATOM     19  C   UNL     1      10.262  20.131  34.094  1.00  0.00     0.054 C 
ATOM     20  C   UNL     1      10.111  21.650  33.846  1.00  0.00     0.024 C 
BRANCH  19  21
ATOM     21  N   UNL     1       9.560  19.305  33.071  1.00  0.00    -0.307 NA
ATOM     22  C   UNL     1       8.830  20.120  32.086  1.00  0.00     0.105 C 
ATOM     23  C   UNL     1       8.685  18.262  33.635  1.00  0.00     0.105 C 
ENDBRANCH  19  21
ENDBRANCH   1  19
TORSDOF 7
ENDMDL
MODEL 12
REMARK VINA RESULT:    -5.757      1.617      4.719
REMARK INTER + INTRA:          -9.147
REMARK INTER:                  -8.445
REMARK INTRA:                  -0.701
REMARK UNBOUND:                -1.033
REMARK SMILES CCC(=O)C(CC(C)N(C)C)(c1ccccc1)c1ccccc1
REMARK SMILES IDX 6 1 5 2 3 3 4 4 2 5 1 6 12 7 13 8 17 9 14 10 16 11 15 12
REMARK SMILES IDX 18 13 19 14 23 15 20 16 22 17 21 18 7 19 8 20 9 21 10 22
REMARK SMILES IDX 11 23
REMARK H PARENT
REMARK Flexibility Score: inf
ROOT
ATOM      1  C   UNL     1      26.633  17.545  30.367  1.00  0.00     0.043 C 
ENDROOT
BRANCH   1   2
ATOM      2  C   UNL     1      27.941  18.253  30.886  1.00  0.00     0.080 C 
BRANCH   2   3
ATOM      3  C   UNL     1      28.946  18.441  29.733  1.00  0.00     0.147 C 
ATOM      4  O   UNL     1      28.995  17.621  28.826  1.00  0.00    -0.298 OA
BRANCH   3   5
ATOM      5  C   UNL     1      29.979  19.548  29.757  1.00  0.00     0.073 C 
ATOM      6  C   UNL     1      29.657  20.667  28.767  1.00  0.00     0.012 C 
ENDBRANCH   3   5
ENDBRANCH   2   3
BRANCH   2   7
ATOM      7  C   UNL     1      27.505  19.593  31.522  1.00  0.00    -0.030 A 
ATOM      8  C   UNL     1      26.528  20.386  30.875  1.00  0.00     0.005 A 
ATOM      9  C   UNL     1      28.134  20.127  32.670  1.00  0.00     0.005 A 
ATOM     10  C   UNL     1      26.146  21.624  31.399  1.00  0.00     0.000 A 
ATOM     11  C   UNL     1      27.747  21.366  33.188  1.00  0.00     0.000 A 
ATOM     12  C   UNL     1      26.749  22.110  32.558  1.00  0.00     0.000 A 
ENDBRANCH   2   7
BRANCH   2  13
ATOM     13  C   UNL     1      28.671  17.372  31.936  1.00  0.00    -0.030 A 
ATOM     14  C   UNL     1      29.960  16.848  31.665  1.00  0.00     0.005 A 
ATOM     15  C   UNL     1      28.036  16.943  33.129  1.00  0.00     0.005 A 
ATOM     16  C   UNL     1      30.607  16.006  32.573  1.00  0.00     0.000 A 
ATOM     17  C   UNL     1      28.691  16.102  34.033  1.00  0.00     0.000 A 
ATOM     18  C   UNL     1      29.977  15.640  33.760  1.00  0.00     0.000 A 
ENDBRANCH   2  13
ENDBRANCH   1   2
BRANCH   1  19
ATOM     19  C   UNL     1      26.588  15.990  30.525  1.00  0.00     0.054 C 
ATOM     20  C   UNL     1      26.929  15.268  29.201  1.00  0.00     0.024 C 
BRANCH  19  21
ATOM     21  N   UNL     1      25.270  15.578  31.087  1.00  0.00    -0.307 NA
ATOM     22  C   UNL     1      25.403  14.669  32.237  1.00  0.00     0.105 C 
ATOM     23  C   UNL     1      24.336  15.025  30.090  1.00  0.00     0.105 C 
ENDBRANCH  19  21
ENDBRANCH   1  19
TORSDOF 7
ENDMDL
MODEL 13
REMARK VINA RESULT:    -5.756      1.641      4.840
REMARK INTER + INTRA:          -9.145
REMARK INTER:                  -8.370
REMARK INTRA:                  -0.775
REMARK UNBOUND:                -1.033
REMARK SMILES CCC(=O)C(CC(C)N(C)C)(c1ccccc1)c1ccccc1
REMARK SMILES IDX 6 1 5 2 3 3 4 4 2 5 1 6 12 7 13 8 17 9 14 10 16 11 15 12
REMARK SMILES IDX 18 13 19 14 23 15 20 16 22 17 21 18 7 19 8 20 9 21 10 22
REMARK SMILES IDX 11 23
REMARK H PARENT
REMARK Flexibility Score: inf
ROOT
ATOM      1  C   UNL     1      30.047  17.652  30.927  1.00  0.00     0.043 C 
ENDROOT
BRANCH   1   2
ATOM      2  C   UNL     1      28.586  18.211  31.116  1.00  0.00     0.080 C 
BRANCH   2   3
ATOM      3  C   UNL     1      28.349  18.613  32.585  1.00  0.00     0.147 C 
ATOM      4  O   UNL     1      28.177  17.749  33.435  1.00  0.00    -0.298 OA
BRANCH   3   5
ATOM      5  C   UNL     1      28.184  20.063  32.991  1.00  0.00     0.073 C 
ATOM      6  C   UNL     1      26.834  20.331  33.656  1.00  0.00     0.012 C 
ENDBRANCH   3   5
ENDBRANCH   2   3
BRANCH   2   7
ATOM      7  C   UNL     1      28.430  19.398  30.140  1.00  0.00    -0.030 A 
ATOM      8  C   UNL     1      29.580  19.979  29.557  1.00  0.00     0.005 A 
ATOM      9  C   UNL     1      27.182  20.018  29.894  1.00  0.00     0.005 A 
ATOM     10  C   UNL     1      29.476  21.084  28.708  1.00  0.00     0.000 A 
ATOM     11  C   UNL     1      27.086  21.123  29.044  1.00  0.00     0.000 A 
ATOM     12  C   UNL     1      28.230  21.650  28.445  1.00  0.00     0.000 A 
ENDBRANCH   2   7
BRANCH   2  13
ATOM     13  C   UNL     1      27.528  17.117  30.807  1.00  0.00    -0.030 A 
ATOM     14  C   UNL     1      27.523  16.454  29.553  1.00  0.00     0.005 A 
ATOM     15  C   UNL     1      26.455  16.839  31.691  1.00  0.00     0.005 A 
ATOM     16  C   UNL     1      26.544  15.510  29.237  1.00  0.00     0.000 A 
ATOM     17  C   UNL     1      25.480  15.891  31.365  1.00  0.00     0.000 A 
ATOM     18  C   UNL     1      25.528  15.222  30.144  1.00  0.00     0.000 A 
ENDBRANCH   2  13
ENDBRANCH   1   2
BRANCH   1  19
ATOM     19  C   UNL     1      30.306  16.213  31.479  1.00  0.00     0.054 C 
ATOM     20  C   UNL     1      31.109  16.239  32.801  1.00  0.00     0.024 C 
BRANCH  19  21
ATOM     21  N   UNL     1      30.951  15.377  30.427  1.00  0.00    -0.307 NA
ATOM     22  C   UNL     1      31.185  16.120  29.177  1.00  0.00     0.105 C 
ATOM     23  C   UNL     1      30.255  14.107  30.155  1.00  0.00     0.105 C 
ENDBRANCH  19  21
ENDBRANCH   1  19
TORSDOF 7
ENDMDL
MODEL 14
REMARK VINA RESULT:    -5.711      1.417      2.245
REMARK INTER + INTRA:          -9.081
REMARK INTER:                  -8.701
REMARK INTRA:                  -0.380
REMARK UNBOUND:                -1.033
REMARK SMILES CCC(=O)C(CC(C)N(C)C)(c1ccccc1)c1ccccc1
REMARK SMILES IDX 6 1 5 2 3 3 4 4 2 5 1 6 12 7 13 8 17 9 14 10 16 11 15 12
REMARK SMILES IDX 18 13 19 14 23 15 20 16 22 17 21 18 7 19 8 20 9 21 10 22
REMARK SMILES IDX 11 23
REMARK H PARENT
REMARK Flexibility Score: inf
ROOT
ATOM      1  C   UNL     1      26.522  17.690  30.570  1.00  0.00     0.043 C 
ENDROOT
BRANCH   1   2
ATOM      2  C   UNL     1      27.744  18.300  31.357  1.00  0.00     0.080 C 
BRANCH   2   3
ATOM      3  C   UNL     1      27.373  19.675  31.945  1.00  0.00     0.147 C 
ATOM      4  O   UNL     1      26.427  20.301  31.486  1.00  0.00    -0.298 OA
BRANCH   3   5
ATOM      5  C   UNL     1      28.237  20.345  32.993  1.00  0.00     0.073 C 
ATOM      6  C   UNL     1      27.410  21.088  34.042  1.00  0.00     0.012 C 
ENDBRANCH   3   5
ENDBRANCH   2   3
BRANCH   2   7
ATOM      7  C   UNL     1      28.136  17.273  32.443  1.00  0.00    -0.030 A 
ATOM      8  C   UNL     1      27.197  16.917  33.439  1.00  0.00     0.005 A 
ATOM      9  C   UNL     1      29.448  16.758  32.560  1.00  0.00     0.005 A 
ATOM     10  C   UNL     1      27.536  16.028  34.462  1.00  0.00     0.000 A 
ATOM     11  C   UNL     1      29.781  15.869  33.586  1.00  0.00     0.000 A 
ATOM     12  C   UNL     1      28.824  15.498  34.531  1.00  0.00     0.000 A 
ENDBRANCH   2   7
BRANCH   2  13
ATOM     13  C   UNL     1      28.943  18.562  30.405  1.00  0.00    -0.030 A 
ATOM     14  C   UNL     1      29.084  19.813  29.753  1.00  0.00     0.005 A 
ATOM     15  C   UNL     1      29.851  17.536  30.042  1.00  0.00     0.005 A 
ATOM     16  C   UNL     1      30.123  20.046  28.850  1.00  0.00     0.000 A 
ATOM     17  C   UNL     1      30.889  17.778  29.137  1.00  0.00     0.000 A 
ATOM     18  C   UNL     1      31.030  19.033  28.547  1.00  0.00     0.000 A 
ENDBRANCH   2  13
ENDBRANCH   1   2
BRANCH   1  19
ATOM     19  C   UNL     1      26.518  16.135  30.410  1.00  0.00     0.054 C 
ATOM     20  C   UNL     1      27.019  15.700  29.013  1.00  0.00     0.024 C 
BRANCH  19  21
ATOM     21  N   UNL     1      25.167  15.597  30.735  1.00  0.00    -0.307 NA
ATOM     22  C   UNL     1      25.219  14.451  31.658  1.00  0.00     0.105 C 
ATOM     23  C   UNL     1      24.345  15.279  29.554  1.00  0.00     0.105 C 
ENDBRANCH  19  21
ENDBRANCH   1  19
TORSDOF 7
ENDMDL
MODEL 15
REMARK VINA RESULT:    -5.659     15.616     18.602
REMARK INTER + INTRA:          -9.008
REMARK INTER:                  -8.452
REMARK INTRA:                  -0.556
REMARK UNBOUND:                -1.033
REMARK SMILES CCC(=O)C(CC(C)N(C)C)(c1ccccc1)c1ccccc1
REMARK SMILES IDX 6 1 5 2 3 3 4 4 2 5 1 6 12 7 13 8 17 9 14 10 16 11 15 12
REMARK SMILES IDX 18 13 19 14 23 15 20 16 22 17 21 18 7 19 8 20 9 21 10 22
REMARK SMILES IDX 11 23
REMARK H PARENT
REMARK Flexibility Score: inf
ROOT
ATOM      1  C   UNL     1       9.716  20.994  36.146  1.00  0.00     0.043 C 
ENDROOT
BRANCH   1   2
ATOM      2  C   UNL     1      10.623  19.832  35.589  1.00  0.00     0.080 C 
BRANCH   2   3
ATOM      3  C   UNL     1      10.703  19.901  34.052  1.00  0.00     0.147 C 
ATOM      4  O   UNL     1      11.411  19.111  33.441  1.00  0.00    -0.298 OA
BRANCH   3   5
ATOM      5  C   UNL     1      10.033  21.015  33.274  1.00  0.00     0.073 C 
ATOM      6  C   UNL     1       9.149  20.486  32.145  1.00  0.00     0.012 C 
ENDBRANCH   3   5
ENDBRANCH   2   3
BRANCH   2   7
ATOM      7  C   UNL     1      12.004  19.977  36.266  1.00  0.00    -0.030 A 
ATOM      8  C   UNL     1      12.802  21.111  35.989  1.00  0.00     0.005 A 
ATOM      9  C   UNL     1      12.567  18.954  37.065  1.00  0.00     0.005 A 
ATOM     10  C   UNL     1      14.075  21.249  36.547  1.00  0.00     0.000 A 
ATOM     11  C   UNL     1      13.842  19.098  37.620  1.00  0.00     0.000 A 
ATOM     12  C   UNL     1      14.592  20.247  37.368  1.00  0.00     0.000 A 
ENDBRANCH   2   7
BRANCH   2  13
ATOM     13  C   UNL     1      10.008  18.443  35.913  1.00  0.00    -0.030 A 
ATOM     14  C   UNL     1       8.893  17.961  35.180  1.00  0.00     0.005 A 
ATOM     15  C   UNL     1      10.433  17.674  37.026  1.00  0.00     0.005 A 
ATOM     16  C   UNL     1       8.291  16.741  35.496  1.00  0.00     0.000 A 
ATOM     17  C   UNL     1       9.824  16.454  37.334  1.00  0.00     0.000 A 
ATOM     18  C   UNL     1       8.761  15.984  36.566  1.00  0.00     0.000 A 
ENDBRANCH   2  13
ENDBRANCH   1   2
BRANCH   1  19
ATOM     19  C   UNL     1       9.592  21.080  37.702  1.00  0.00     0.054 C 
ATOM     20  C   UNL     1       8.187  20.660  38.192  1.00  0.00     0.024 C 
BRANCH  19  21
ATOM     21  N   UNL     1       9.984  22.442  38.165  1.00  0.00    -0.307 NA
ATOM     22  C   UNL     1      11.228  22.438  38.951  1.00  0.00     0.105 C 
ATOM     23  C   UNL     1       8.917  23.166  38.879  1.00  0.00     0.105 C 
ENDBRANCH  19  21
ENDBRANCH   1  19
TORSDOF 7
ENDMDL
