MODEL 1
REMARK VINA RESULT:    -7.570      0.000      0.000
REMARK INTER + INTRA:         -11.648
REMARK INTER:                 -10.004
REMARK INTRA:                  -1.645
REMARK UNBOUND:                -1.645
REMARK SMILES C[N@+]12CC[C@H](CC1)C(OC(=O)C(O)(c1ccccc1)c1ccccc1)C2
REMARK SMILES IDX 10 1 11 2 9 3 8 4 1 5 2 6 7 7 3 8 26 9 6 10 4 11 5 12 12 13
REMARK SMILES IDX 13 14 14 16 15 17 19 18 16 19 18 20 17 21 20 22 21 23 25 24
REMARK SMILES IDX 22 25 24 26 23 27
REMARK H PARENT 13 15
REMARK Flexibility Score: inf
ROOT
ATOM      1  C   UNL     1      20.913  33.142  12.727  1.00  0.00     0.348 C 
ATOM      2  O   UNL     1      21.376  32.140  12.114  1.00  0.00    -0.248 OA
ENDROOT
BRANCH   1   3
ATOM      3  O   UNL     1      21.650  34.332  12.789  1.00  0.00    -0.453 OA
BRANCH   3   4
ATOM      4  C   UNL     1      23.008  34.396  13.228  1.00  0.00     0.235 C 
ATOM      5  C   UNL     1      25.270  37.174  11.906  1.00  0.00     0.334 C 
ATOM      6  N   UNL     1      24.482  36.403  12.891  1.00  0.00    -0.323 N 
ATOM      7  C   UNL     1      25.379  35.916  13.980  1.00  0.00     0.264 C 
ATOM      8  C   UNL     1      23.422  37.272  13.477  1.00  0.00     0.264 C 
ATOM      9  C   UNL     1      23.843  35.235  12.220  1.00  0.00     0.309 C 
ATOM     10  C   UNL     1      24.586  35.096  15.030  1.00  0.00     0.069 C 
ATOM     11  C   UNL     1      22.588  36.500  14.530  1.00  0.00     0.069 C 
ATOM     12  C   UNL     1      23.102  35.050  14.625  1.00  0.00     0.047 C 
ENDBRANCH   3   4
ENDBRANCH   1   3
BRANCH   1  13
ATOM     13  C   UNL     1      19.604  33.029  13.495  1.00  0.00     0.213 C 
BRANCH  13  14
ATOM     14  O   UNL     1      19.505  31.690  13.929  1.00  0.00    -0.370 OA
ATOM     15  H   UNL     1      20.274  31.502  14.528  1.00  0.00     0.213 HD
ENDBRANCH  13  14
BRANCH  13  16
ATOM     16  C   UNL     1      19.595  33.949  14.716  1.00  0.00    -0.001 A 
ATOM     17  C   UNL     1      19.071  35.260  14.638  1.00  0.00     0.008 A 
ATOM     18  C   UNL     1      19.994  33.465  15.981  1.00  0.00     0.008 A 
ATOM     19  C   UNL     1      19.013  36.073  15.773  1.00  0.00     0.000 A 
ATOM     20  C   UNL     1      19.935  34.284  17.113  1.00  0.00     0.000 A 
ATOM     21  C   UNL     1      19.449  35.588  17.007  1.00  0.00     0.000 A 
ENDBRANCH  13  16
BRANCH  13  22
ATOM     22  C   UNL     1      18.393  33.407  12.634  1.00  0.00    -0.001 A 
ATOM     23  C   UNL     1      17.084  33.339  13.163  1.00  0.00     0.008 A 
ATOM     24  C   UNL     1      18.563  33.947  11.340  1.00  0.00     0.008 A 
ATOM     25  C   UNL     1      15.985  33.738  12.399  1.00  0.00     0.000 A 
ATOM     26  C   UNL     1      17.459  34.347  10.582  1.00  0.00     0.000 A 
ATOM     27  C   UNL     1      16.171  34.235  11.107  1.00  0.00     0.000 A 
ENDBRANCH  13  22
ENDBRANCH   1  13
TORSDOF 6
ENDMDL
MODEL 2
REMARK VINA RESULT:    -7.473      2.184      3.479
REMARK INTER + INTRA:         -11.521
REMARK INTER:                 -10.264
REMARK INTRA:                  -1.256
REMARK UNBOUND:                -1.645
REMARK SMILES C[N@+]12CC[C@H](CC1)C(OC(=O)C(O)(c1ccccc1)c1ccccc1)C2
REMARK SMILES IDX 10 1 11 2 9 3 8 4 1 5 2 6 7 7 3 8 26 9 6 10 4 11 5 12 12 13
REMARK SMILES IDX 13 14 14 16 15 17 19 18 16 19 18 20 17 21 20 22 21 23 25 24
REMARK SMILES IDX 22 25 24 26 23 27
REMARK H PARENT 13 15
REMARK Flexibility Score: inf
ROOT
ATOM      1  C   UNL     1      20.172  36.374  15.889  1.00  0.00     0.348 C 
ATOM      2  O   UNL     1      19.546  37.425  15.576  1.00  0.00    -0.248 OA
ENDROOT
BRANCH   1   3
ATOM      3  O   UNL     1      21.557  36.296  15.698  1.00  0.00    -0.453 OA
BRANCH   3   4
ATOM      4  C   UNL     1      22.187  36.440  14.425  1.00  0.00     0.235 C 
ATOM      5  C   UNL     1      25.985  36.126  14.172  1.00  0.00     0.334 C 
ATOM      6  N   UNL     1      24.565  35.767  13.968  1.00  0.00    -0.323 N 
ATOM      7  C   UNL     1      24.263  35.724  12.508  1.00  0.00     0.264 C 
ATOM      8  C   UNL     1      24.294  34.429  14.567  1.00  0.00     0.264 C 
ATOM      9  C   UNL     1      23.690  36.782  14.622  1.00  0.00     0.309 C 
ATOM     10  C   UNL     1      22.778  35.357  12.255  1.00  0.00     0.069 C 
ATOM     11  C   UNL     1      22.817  34.012  14.354  1.00  0.00     0.069 C 
ATOM     12  C   UNL     1      22.073  35.135  13.605  1.00  0.00     0.047 C 
ENDBRANCH   3   4
ENDBRANCH   1   3
BRANCH   1  13
ATOM     13  C   UNL     1      19.409  35.148  16.372  1.00  0.00     0.213 C 
BRANCH  13  14
ATOM     14  O   UNL     1      20.255  34.477  17.279  1.00  0.00    -0.370 OA
ATOM     15  H   UNL     1      21.033  35.065  17.469  1.00  0.00     0.213 HD
ENDBRANCH  13  14
BRANCH  13  16
ATOM     16  C   UNL     1      18.120  35.545  17.094  1.00  0.00    -0.001 A 
ATOM     17  C   UNL     1      16.875  34.989  16.723  1.00  0.00     0.008 A 
ATOM     18  C   UNL     1      18.166  36.380  18.231  1.00  0.00     0.008 A 
ATOM     19  C   UNL     1      15.712  35.312  17.426  1.00  0.00     0.000 A 
ATOM     20  C   UNL     1      16.998  36.701  18.930  1.00  0.00     0.000 A 
ATOM     21  C   UNL     1      15.772  36.171  18.526  1.00  0.00     0.000 A 
ENDBRANCH  13  16
BRANCH  13  22
ATOM     22  C   UNL     1      19.013  34.220  15.217  1.00  0.00    -0.001 A 
ATOM     23  C   UNL     1      18.326  34.724  14.091  1.00  0.00     0.008 A 
ATOM     24  C   UNL     1      19.430  32.870  15.197  1.00  0.00     0.008 A 
ATOM     25  C   UNL     1      18.015  33.891  13.013  1.00  0.00     0.000 A 
ATOM     26  C   UNL     1      19.118  32.043  14.115  1.00  0.00     0.000 A 
ATOM     27  C   UNL     1      18.404  32.550  13.028  1.00  0.00     0.000 A 
ENDBRANCH  13  22
ENDBRANCH   1  13
TORSDOF 6
ENDMDL
MODEL 3
REMARK VINA RESULT:    -7.441      2.305      3.626
REMARK INTER + INTRA:         -11.478
REMARK INTER:                 -10.108
REMARK INTRA:                  -1.370
REMARK UNBOUND:                -1.645
REMARK SMILES C[N@+]12CC[C@H](CC1)C(OC(=O)C(O)(c1ccccc1)c1ccccc1)C2
REMARK SMILES IDX 10 1 11 2 9 3 8 4 1 5 2 6 7 7 3 8 26 9 6 10 4 11 5 12 12 13
REMARK SMILES IDX 13 14 14 16 15 17 19 18 16 19 18 20 17 21 20 22 21 23 25 24
REMARK SMILES IDX 22 25 24 26 23 27
REMARK H PARENT 13 15
REMARK Flexibility Score: inf
ROOT
ATOM      1  C   UNL     1      19.310  35.510  15.824  1.00  0.00     0.348 C 
ATOM      2  O   UNL     1      18.650  36.559  15.585  1.00  0.00    -0.248 OA
ENDROOT
BRANCH   1   3
ATOM      3  O   UNL     1      20.671  35.592  16.146  1.00  0.00    -0.453 OA
BRANCH   3   4
ATOM      4  C   UNL     1      21.596  36.432  15.454  1.00  0.00     0.235 C 
ATOM      5  C   UNL     1      25.328  36.111  16.195  1.00  0.00     0.334 C 
ATOM      6  N   UNL     1      24.076  36.028  15.414  1.00  0.00    -0.323 N 
ATOM      7  C   UNL     1      24.186  36.884  14.196  1.00  0.00     0.264 C 
ATOM      8  C   UNL     1      23.832  34.615  15.003  1.00  0.00     0.264 C 
ATOM      9  C   UNL     1      22.931  36.500  16.245  1.00  0.00     0.309 C 
ATOM     10  C   UNL     1      22.886  36.827  13.354  1.00  0.00     0.069 C 
ATOM     11  C   UNL     1      22.536  34.496  14.164  1.00  0.00     0.069 C 
ATOM     12  C   UNL     1      21.879  35.884  14.037  1.00  0.00     0.047 C 
ENDBRANCH   3   4
ENDBRANCH   1   3
BRANCH   1  13
ATOM     13  C   UNL     1      18.660  34.144  15.654  1.00  0.00     0.213 C 
BRANCH  13  14
ATOM     14  O   UNL     1      19.123  33.341  16.717  1.00  0.00    -0.370 OA
ATOM     15  H   UNL     1      20.031  33.654  16.968  1.00  0.00     0.213 HD
ENDBRANCH  13  14
BRANCH  13  16
ATOM     16  C   UNL     1      17.135  34.242  15.733  1.00  0.00    -0.001 A 
ATOM     17  C   UNL     1      16.340  34.211  14.565  1.00  0.00     0.008 A 
ATOM     18  C   UNL     1      16.482  34.238  16.985  1.00  0.00     0.008 A 
ATOM     19  C   UNL     1      14.946  34.241  14.650  1.00  0.00     0.000 A 
ATOM     20  C   UNL     1      15.086  34.270  17.063  1.00  0.00     0.000 A 
ATOM     21  C   UNL     1      14.320  34.275  15.897  1.00  0.00     0.000 A 
ENDBRANCH  13  16
BRANCH  13  22
ATOM     22  C   UNL     1      19.002  33.502  14.304  1.00  0.00    -0.001 A 
ATOM     23  C   UNL     1      18.907  34.247  13.108  1.00  0.00     0.008 A 
ATOM     24  C   UNL     1      19.535  32.195  14.238  1.00  0.00     0.008 A 
ATOM     25  C   UNL     1      19.273  33.680  11.884  1.00  0.00     0.000 A 
ATOM     26  C   UNL     1      19.901  31.636  13.011  1.00  0.00     0.000 A 
ATOM     27  C   UNL     1      19.764  32.374  11.834  1.00  0.00     0.000 A 
ENDBRANCH  13  22
ENDBRANCH   1  13
TORSDOF 6
ENDMDL
MODEL 4
REMARK VINA RESULT:    -7.283      2.226      5.939
REMARK INTER + INTRA:         -11.269
REMARK INTER:                 -10.042
REMARK INTRA:                  -1.227
REMARK UNBOUND:                -1.645
REMARK SMILES C[N@+]12CC[C@H](CC1)C(OC(=O)C(O)(c1ccccc1)c1ccccc1)C2
REMARK SMILES IDX 10 1 11 2 9 3 8 4 1 5 2 6 7 7 3 8 26 9 6 10 4 11 5 12 12 13
REMARK SMILES IDX 13 14 14 16 15 17 19 18 16 19 18 20 17 21 20 22 21 23 25 24
REMARK SMILES IDX 22 25 24 26 23 27
REMARK H PARENT 13 15
REMARK Flexibility Score: inf
ROOT
ATOM      1  C   UNL     1      20.533  32.518  12.708  1.00  0.00     0.348 C 
ATOM      2  O   UNL     1      21.324  32.027  11.856  1.00  0.00    -0.248 OA
ENDROOT
BRANCH   1   3
ATOM      3  O   UNL     1      19.165  32.613  12.427  1.00  0.00    -0.453 OA
BRANCH   3   4
ATOM      4  C   UNL     1      18.630  33.416  11.374  1.00  0.00     0.235 C 
ATOM      5  C   UNL     1      16.487  31.774   8.673  1.00  0.00     0.334 C 
ATOM      6  N   UNL     1      16.808  32.643   9.826  1.00  0.00    -0.323 N 
ATOM      7  C   UNL     1      16.510  34.064   9.481  1.00  0.00     0.264 C 
ATOM      8  C   UNL     1      15.988  32.239  11.004  1.00  0.00     0.264 C 
ATOM      9  C   UNL     1      18.254  32.512  10.168  1.00  0.00     0.309 C 
ATOM     10  C   UNL     1      16.841  35.007  10.667  1.00  0.00     0.069 C 
ATOM     11  C   UNL     1      16.286  33.143  12.226  1.00  0.00     0.069 C 
ATOM     12  C   UNL     1      17.368  34.173  11.848  1.00  0.00     0.047 C 
ENDBRANCH   3   4
ENDBRANCH   1   3
BRANCH   1  13
ATOM     13  C   UNL     1      21.078  33.109  14.001  1.00  0.00     0.213 C 
BRANCH  13  14
ATOM     14  O   UNL     1      21.628  32.038  14.736  1.00  0.00    -0.370 OA
ATOM     15  H   UNL     1      21.030  31.852  15.506  1.00  0.00     0.213 HD
ENDBRANCH  13  14
BRANCH  13  16
ATOM     16  C   UNL     1      22.177  34.137  13.722  1.00  0.00    -0.001 A 
ATOM     17  C   UNL     1      23.252  34.317  14.621  1.00  0.00     0.008 A 
ATOM     18  C   UNL     1      22.207  34.837  12.497  1.00  0.00     0.008 A 
ATOM     19  C   UNL     1      24.282  35.214  14.330  1.00  0.00     0.000 A 
ATOM     20  C   UNL     1      23.240  35.736  12.211  1.00  0.00     0.000 A 
ATOM     21  C   UNL     1      24.274  35.927  13.129  1.00  0.00     0.000 A 
ENDBRANCH  13  16
BRANCH  13  22
ATOM     22  C   UNL     1      19.991  33.820  14.816  1.00  0.00    -0.001 A 
ATOM     23  C   UNL     1      19.424  33.202  15.953  1.00  0.00     0.008 A 
ATOM     24  C   UNL     1      19.621  35.152  14.525  1.00  0.00     0.008 A 
ATOM     25  C   UNL     1      18.475  33.872  16.730  1.00  0.00     0.000 A 
ATOM     26  C   UNL     1      18.673  35.817  15.308  1.00  0.00     0.000 A 
ATOM     27  C   UNL     1      18.095  35.176  16.404  1.00  0.00     0.000 A 
ENDBRANCH  13  22
ENDBRANCH   1  13
TORSDOF 6
ENDMDL
MODEL 5
REMARK VINA RESULT:    -7.281      1.693      2.417
REMARK INTER + INTRA:         -11.267
REMARK INTER:                 -10.511
REMARK INTRA:                  -0.756
REMARK UNBOUND:                -1.645
REMARK SMILES C[N@+]12CC[C@H](CC1)C(OC(=O)C(O)(c1ccccc1)c1ccccc1)C2
REMARK SMILES IDX 10 1 11 2 9 3 8 4 1 5 2 6 7 7 3 8 26 9 6 10 4 11 5 12 12 13
REMARK SMILES IDX 13 14 14 16 15 17 19 18 16 19 18 20 17 21 20 22 21 23 25 24
REMARK SMILES IDX 22 25 24 26 23 27
REMARK H PARENT 13 15
REMARK Flexibility Score: inf
ROOT
ATOM      1  C   UNL     1      20.772  33.658  12.892  1.00  0.00     0.348 C 
ATOM      2  O   UNL     1      21.172  34.241  11.845  1.00  0.00    -0.248 OA
ENDROOT
BRANCH   1   3
ATOM      3  O   UNL     1      21.684  33.318  13.899  1.00  0.00    -0.453 OA
BRANCH   3   4
ATOM      4  C   UNL     1      23.043  33.757  13.914  1.00  0.00     0.235 C 
ATOM      5  C   UNL     1      23.992  36.825  15.981  1.00  0.00     0.334 C 
ATOM      6  N   UNL     1      23.951  35.401  15.584  1.00  0.00    -0.323 N 
ATOM      7  C   UNL     1      25.334  34.923  15.289  1.00  0.00     0.264 C 
ATOM      8  C   UNL     1      23.373  34.587  16.691  1.00  0.00     0.264 C 
ATOM      9  C   UNL     1      23.106  35.243  14.366  1.00  0.00     0.309 C 
ATOM     10  C   UNL     1      25.329  33.433  14.862  1.00  0.00     0.069 C 
ATOM     11  C   UNL     1      23.334  33.085  16.315  1.00  0.00     0.069 C 
ATOM     12  C   UNL     1      23.885  32.901  14.887  1.00  0.00     0.047 C 
ENDBRANCH   3   4
ENDBRANCH   1   3
BRANCH   1  13
ATOM     13  C   UNL     1      19.319  33.225  13.016  1.00  0.00     0.213 C 
BRANCH  13  14
ATOM     14  O   UNL     1      19.330  31.910  13.525  1.00  0.00    -0.370 OA
ATOM     15  H   UNL     1      19.508  31.958  14.501  1.00  0.00     0.213 HD
ENDBRANCH  13  14
BRANCH  13  16
ATOM     16  C   UNL     1      18.552  34.127  13.985  1.00  0.00    -0.001 A 
ATOM     17  C   UNL     1      17.251  33.787  14.423  1.00  0.00     0.008 A 
ATOM     18  C   UNL     1      19.177  35.253  14.563  1.00  0.00     0.008 A 
ATOM     19  C   UNL     1      16.581  34.585  15.354  1.00  0.00     0.000 A 
ATOM     20  C   UNL     1      18.501  36.048  15.493  1.00  0.00     0.000 A 
ATOM     21  C   UNL     1      17.203  35.717  15.884  1.00  0.00     0.000 A 
ENDBRANCH  13  16
BRANCH  13  22
ATOM     22  C   UNL     1      18.582  33.276  11.672  1.00  0.00    -0.001 A 
ATOM     23  C   UNL     1      18.693  32.213  10.749  1.00  0.00     0.008 A 
ATOM     24  C   UNL     1      17.681  34.325  11.379  1.00  0.00     0.008 A 
ATOM     25  C   UNL     1      17.977  32.232   9.550  1.00  0.00     0.000 A 
ATOM     26  C   UNL     1      16.966  34.336  10.178  1.00  0.00     0.000 A 
ATOM     27  C   UNL     1      17.119  33.296   9.261  1.00  0.00     0.000 A 
ENDBRANCH  13  22
ENDBRANCH   1  13
TORSDOF 6
ENDMDL
MODEL 6
REMARK VINA RESULT:    -7.236      2.467      4.334
REMARK INTER + INTRA:         -11.207
REMARK INTER:                 -10.515
REMARK INTRA:                  -0.692
REMARK UNBOUND:                -1.645
REMARK SMILES C[N@+]12CC[C@H](CC1)C(OC(=O)C(O)(c1ccccc1)c1ccccc1)C2
REMARK SMILES IDX 10 1 11 2 9 3 8 4 1 5 2 6 7 7 3 8 26 9 6 10 4 11 5 12 12 13
REMARK SMILES IDX 13 14 14 16 15 17 19 18 16 19 18 20 17 21 20 22 21 23 25 24
REMARK SMILES IDX 22 25 24 26 23 27
REMARK H PARENT 13 15
REMARK Flexibility Score: inf
ROOT
ATOM      1  C   UNL     1      19.359  34.103  16.215  1.00  0.00     0.348 C 
ATOM      2  O   UNL     1      19.090  33.225  17.082  1.00  0.00    -0.248 OA
ENDROOT
BRANCH   1   3
ATOM      3  O   UNL     1      20.692  34.400  15.905  1.00  0.00    -0.453 OA
BRANCH   3   4
ATOM      4  C   UNL     1      21.489  33.617  15.015  1.00  0.00     0.235 C 
ATOM      5  C   UNL     1      23.315  35.336  12.136  1.00  0.00     0.334 C 
ATOM      6  N   UNL     1      23.151  34.600  13.408  1.00  0.00    -0.323 N 
ATOM      7  C   UNL     1      23.831  33.276  13.313  1.00  0.00     0.264 C 
ATOM      8  C   UNL     1      23.754  35.385  14.524  1.00  0.00     0.264 C 
ATOM      9  C   UNL     1      21.701  34.392  13.685  1.00  0.00     0.309 C 
ATOM     10  C   UNL     1      23.674  32.472  14.630  1.00  0.00     0.069 C 
ATOM     11  C   UNL     1      23.617  34.634  15.871  1.00  0.00     0.069 C 
ATOM     12  C   UNL     1      22.867  33.307  15.642  1.00  0.00     0.047 C 
ENDBRANCH   3   4
ENDBRANCH   1   3
BRANCH   1  13
ATOM     13  C   UNL     1      18.241  34.919  15.583  1.00  0.00     0.213 C 
BRANCH  13  14
ATOM     14  O   UNL     1      18.817  36.135  15.160  1.00  0.00    -0.370 OA
ATOM     15  H   UNL     1      18.652  36.817  15.863  1.00  0.00     0.213 HD
ENDBRANCH  13  14
BRANCH  13  16
ATOM     16  C   UNL     1      17.647  34.201  14.370  1.00  0.00    -0.001 A 
ATOM     17  C   UNL     1      16.639  34.807  13.585  1.00  0.00     0.008 A 
ATOM     18  C   UNL     1      18.183  32.971  13.933  1.00  0.00     0.008 A 
ATOM     19  C   UNL     1      16.144  34.170  12.445  1.00  0.00     0.000 A 
ATOM     20  C   UNL     1      17.683  32.337  12.791  1.00  0.00     0.000 A 
ATOM     21  C   UNL     1      16.662  32.934  12.051  1.00  0.00     0.000 A 
ENDBRANCH  13  16
BRANCH  13  22
ATOM     22  C   UNL     1      17.090  35.180  16.562  1.00  0.00    -0.001 A 
ATOM     23  C   UNL     1      17.243  36.095  17.627  1.00  0.00     0.008 A 
ATOM     24  C   UNL     1      15.815  34.608  16.351  1.00  0.00     0.008 A 
ATOM     25  C   UNL     1      16.177  36.376  18.485  1.00  0.00     0.000 A 
ATOM     26  C   UNL     1      14.752  34.896  17.211  1.00  0.00     0.000 A 
ATOM     27  C   UNL     1      14.934  35.773  18.282  1.00  0.00     0.000 A 
ENDBRANCH  13  22
ENDBRANCH   1  13
TORSDOF 6
ENDMDL
MODEL 7
REMARK VINA RESULT:    -7.223      0.954      1.228
REMARK INTER + INTRA:         -11.190
REMARK INTER:                  -9.775
REMARK INTRA:                  -1.415
REMARK UNBOUND:                -1.645
REMARK SMILES C[N@+]12CC[C@H](CC1)C(OC(=O)C(O)(c1ccccc1)c1ccccc1)C2
REMARK SMILES IDX 10 1 11 2 9 3 8 4 1 5 2 6 7 7 3 8 26 9 6 10 4 11 5 12 12 13
REMARK SMILES IDX 13 14 14 16 15 17 19 18 16 19 18 20 17 21 20 22 21 23 25 24
REMARK SMILES IDX 22 25 24 26 23 27
REMARK H PARENT 13 15
REMARK Flexibility Score: inf
ROOT
ATOM      1  C   UNL     1      20.998  32.947  12.748  1.00  0.00     0.348 C 
ATOM      2  O   UNL     1      21.175  32.002  11.929  1.00  0.00    -0.248 OA
ENDROOT
BRANCH   1   3
ATOM      3  O   UNL     1      21.970  33.945  12.891  1.00  0.00    -0.453 OA
BRANCH   3   4
ATOM      4  C   UNL     1      23.375  33.693  12.827  1.00  0.00     0.235 C 
ATOM      5  C   UNL     1      25.818  36.575  13.380  1.00  0.00     0.334 C 
ATOM      6  N   UNL     1      25.114  35.305  13.658  1.00  0.00    -0.323 N 
ATOM      7  C   UNL     1      26.102  34.189  13.730  1.00  0.00     0.264 C 
ATOM      8  C   UNL     1      24.389  35.406  14.958  1.00  0.00     0.264 C 
ATOM      9  C   UNL     1      24.133  35.025  12.571  1.00  0.00     0.309 C 
ATOM     10  C   UNL     1      25.397  32.837  14.015  1.00  0.00     0.069 C 
ATOM     11  C   UNL     1      23.655  34.084  15.290  1.00  0.00     0.069 C 
ATOM     12  C   UNL     1      23.882  33.073  14.149  1.00  0.00     0.047 C 
ENDBRANCH   3   4
ENDBRANCH   1   3
BRANCH   1  13
ATOM     13  C   UNL     1      19.780  32.947  13.660  1.00  0.00     0.213 C 
BRANCH  13  14
ATOM     14  O   UNL     1      19.665  31.642  14.182  1.00  0.00    -0.370 OA
ATOM     15  H   UNL     1      18.785  31.566  14.635  1.00  0.00     0.213 HD
ENDBRANCH  13  14
BRANCH  13  16
ATOM     16  C   UNL     1      19.955  33.931  14.819  1.00  0.00    -0.001 A 
ATOM     17  C   UNL     1      19.850  35.326  14.613  1.00  0.00     0.008 A 
ATOM     18  C   UNL     1      20.099  33.461  16.142  1.00  0.00     0.008 A 
ATOM     19  C   UNL     1      19.951  36.214  15.687  1.00  0.00     0.000 A 
ATOM     20  C   UNL     1      20.202  34.355  17.212  1.00  0.00     0.000 A 
ATOM     21  C   UNL     1      20.132  35.729  16.984  1.00  0.00     0.000 A 
ENDBRANCH  13  16
BRANCH  13  22
ATOM     22  C   UNL     1      18.499  33.345  12.918  1.00  0.00    -0.001 A 
ATOM     23  C   UNL     1      17.255  33.362  13.586  1.00  0.00     0.008 A 
ATOM     24  C   UNL     1      18.550  33.821  11.589  1.00  0.00     0.008 A 
ATOM     25  C   UNL     1      16.096  33.779  12.926  1.00  0.00     0.000 A 
ATOM     26  C   UNL     1      17.387  34.239  10.935  1.00  0.00     0.000 A 
ATOM     27  C   UNL     1      16.161  34.211  11.600  1.00  0.00     0.000 A 
ENDBRANCH  13  22
ENDBRANCH   1  13
TORSDOF 6
ENDMDL
MODEL 8
REMARK VINA RESULT:    -7.142      2.573      6.457
REMARK INTER + INTRA:         -11.083
REMARK INTER:                  -9.897
REMARK INTRA:                  -1.186
REMARK UNBOUND:                -1.645
REMARK SMILES C[N@+]12CC[C@H](CC1)C(OC(=O)C(O)(c1ccccc1)c1ccccc1)C2
REMARK SMILES IDX 10 1 11 2 9 3 8 4 1 5 2 6 7 7 3 8 26 9 6 10 4 11 5 12 12 13
REMARK SMILES IDX 13 14 14 16 15 17 19 18 16 19 18 20 17 21 20 22 21 23 25 24
REMARK SMILES IDX 22 25 24 26 23 27
REMARK H PARENT 13 15
REMARK Flexibility Score: inf
ROOT
ATOM      1  C   UNL     1      23.035  33.002  14.420  1.00  0.00     0.348 C 
ATOM      2  O   UNL     1      23.603  31.987  14.913  1.00  0.00    -0.248 OA
ENDROOT
BRANCH   1   3
ATOM      3  O   UNL     1      22.019  33.654  15.129  1.00  0.00    -0.453 OA
BRANCH   3   4
ATOM      4  C   UNL     1      20.631  33.351  14.977  1.00  0.00     0.235 C 
ATOM      5  C   UNL     1      18.217  34.166  17.820  1.00  0.00     0.334 C 
ATOM      6  N   UNL     1      18.838  34.262  16.482  1.00  0.00    -0.323 N 
ATOM      7  C   UNL     1      17.819  33.965  15.434  1.00  0.00     0.264 C 
ATOM      8  C   UNL     1      19.372  35.639  16.274  1.00  0.00     0.264 C 
ATOM      9  C   UNL     1      19.956  33.282  16.374  1.00  0.00     0.309 C 
ATOM     10  C   UNL     1      18.437  34.050  14.014  1.00  0.00     0.069 C 
ATOM     11  C   UNL     1      20.013  35.781  14.871  1.00  0.00     0.069 C 
ATOM     12  C   UNL     1      19.923  34.432  14.129  1.00  0.00     0.047 C 
ENDBRANCH   3   4
ENDBRANCH   1   3
BRANCH   1  13
ATOM     13  C   UNL     1      23.376  33.455  13.007  1.00  0.00     0.213 C 
BRANCH  13  14
ATOM     14  O   UNL     1      22.387  32.914  12.159  1.00  0.00    -0.370 OA
ATOM     15  H   UNL     1      21.601  33.521  12.174  1.00  0.00     0.213 HD
ENDBRANCH  13  14
BRANCH  13  16
ATOM     16  C   UNL     1      23.349  34.980  12.892  1.00  0.00    -0.001 A 
ATOM     17  C   UNL     1      23.573  35.801  14.021  1.00  0.00     0.008 A 
ATOM     18  C   UNL     1      23.226  35.600  11.630  1.00  0.00     0.008 A 
ATOM     19  C   UNL     1      23.606  37.192  13.895  1.00  0.00     0.000 A 
ATOM     20  C   UNL     1      23.258  36.993  11.511  1.00  0.00     0.000 A 
ATOM     21  C   UNL     1      23.443  37.788  12.642  1.00  0.00     0.000 A 
ENDBRANCH  13  16
BRANCH  13  22
ATOM     22  C   UNL     1      24.771  32.993  12.571  1.00  0.00    -0.001 A 
ATOM     23  C   UNL     1      24.926  32.060  11.521  1.00  0.00     0.008 A 
ATOM     24  C   UNL     1      25.934  33.578  13.121  1.00  0.00     0.008 A 
ATOM     25  C   UNL     1      26.198  31.681  11.085  1.00  0.00     0.000 A 
ATOM     26  C   UNL     1      27.203  33.196  12.678  1.00  0.00     0.000 A 
ATOM     27  C   UNL     1      27.336  32.244  11.667  1.00  0.00     0.000 A 
ENDBRANCH  13  22
ENDBRANCH   1  13
TORSDOF 6
ENDMDL
MODEL 9
REMARK VINA RESULT:    -7.089      1.866      2.750
REMARK INTER + INTRA:         -11.012
REMARK INTER:                  -9.377
REMARK INTRA:                  -1.636
REMARK UNBOUND:                -1.645
REMARK SMILES C[N@+]12CC[C@H](CC1)C(OC(=O)C(O)(c1ccccc1)c1ccccc1)C2
REMARK SMILES IDX 10 1 11 2 9 3 8 4 1 5 2 6 7 7 3 8 26 9 6 10 4 11 5 12 12 13
REMARK SMILES IDX 13 14 14 16 15 17 19 18 16 19 18 20 17 21 20 22 21 23 25 24
REMARK SMILES IDX 22 25 24 26 23 27
REMARK H PARENT 13 15
REMARK Flexibility Score: inf
ROOT
ATOM      1  C   UNL     1      19.927  33.829  14.431  1.00  0.00     0.348 C 
ATOM      2  O   UNL     1      19.635  32.919  13.606  1.00  0.00    -0.248 OA
ENDROOT
BRANCH   1   3
ATOM      3  O   UNL     1      20.846  34.827  14.082  1.00  0.00    -0.453 OA
BRANCH   3   4
ATOM      4  C   UNL     1      22.222  34.568  13.799  1.00  0.00     0.235 C 
ATOM      5  C   UNL     1      23.970  36.550  11.043  1.00  0.00     0.334 C 
ATOM      6  N   UNL     1      23.665  36.089  12.415  1.00  0.00    -0.323 N 
ATOM      7  C   UNL     1      24.881  35.469  13.017  1.00  0.00     0.264 C 
ATOM      8  C   UNL     1      23.236  37.246  13.251  1.00  0.00     0.264 C 
ATOM      9  C   UNL     1      22.567  35.081  12.374  1.00  0.00     0.309 C 
ATOM     10  C   UNL     1      24.597  34.966  14.456  1.00  0.00     0.069 C 
ATOM     11  C   UNL     1      22.927  36.800  14.702  1.00  0.00     0.069 C 
ATOM     12  C   UNL     1      23.135  35.278  14.824  1.00  0.00     0.047 C 
ENDBRANCH   3   4
ENDBRANCH   1   3
BRANCH   1  13
ATOM     13  C   UNL     1      19.366  33.785  15.845  1.00  0.00     0.213 C 
BRANCH  13  14
ATOM     14  O   UNL     1      19.556  32.469  16.314  1.00  0.00    -0.370 OA
ATOM     15  H   UNL     1      20.277  32.484  16.996  1.00  0.00     0.213 HD
ENDBRANCH  13  14
BRANCH  13  16
ATOM     16  C   UNL     1      20.109  34.753  16.768  1.00  0.00    -0.001 A 
ATOM     17  C   UNL     1      19.723  36.110  16.865  1.00  0.00     0.008 A 
ATOM     18  C   UNL     1      21.117  34.282  17.637  1.00  0.00     0.008 A 
ATOM     19  C   UNL     1      20.369  36.972  17.753  1.00  0.00     0.000 A 
ATOM     20  C   UNL     1      21.761  35.151  18.523  1.00  0.00     0.000 A 
ATOM     21  C   UNL     1      21.390  36.495  18.578  1.00  0.00     0.000 A 
ENDBRANCH  13  16
BRANCH  13  22
ATOM     22  C   UNL     1      17.881  34.165  15.892  1.00  0.00    -0.001 A 
ATOM     23  C   UNL     1      17.225  34.650  14.739  1.00  0.00     0.008 A 
ATOM     24  C   UNL     1      17.109  33.926  17.050  1.00  0.00     0.008 A 
ATOM     25  C   UNL     1      15.859  34.943  14.766  1.00  0.00     0.000 A 
ATOM     26  C   UNL     1      15.742  34.219  17.070  1.00  0.00     0.000 A 
ATOM     27  C   UNL     1      15.119  34.734  15.932  1.00  0.00     0.000 A 
ENDBRANCH  13  22
ENDBRANCH   1  13
TORSDOF 6
ENDMDL
MODEL 10
REMARK VINA RESULT:    -7.047      2.721      4.241
REMARK INTER + INTRA:         -10.958
REMARK INTER:                 -10.017
REMARK INTRA:                  -0.941
REMARK UNBOUND:                -1.645
REMARK SMILES C[N@+]12CC[C@H](CC1)C(OC(=O)C(O)(c1ccccc1)c1ccccc1)C2
REMARK SMILES IDX 10 1 11 2 9 3 8 4 1 5 2 6 7 7 3 8 26 9 6 10 4 11 5 12 12 13
REMARK SMILES IDX 13 14 14 16 15 17 19 18 16 19 18 20 17 21 20 22 21 23 25 24
REMARK SMILES IDX 22 25 24 26 23 27
REMARK H PARENT 13 15
REMARK Flexibility Score: inf
ROOT
ATOM      1  C   UNL     1      19.453  35.912  15.645  1.00  0.00     0.348 C 
ATOM      2  O   UNL     1      19.499  37.173  15.600  1.00  0.00    -0.248 OA
ENDROOT
BRANCH   1   3
ATOM      3  O   UNL     1      19.969  35.150  14.589  1.00  0.00    -0.453 OA
BRANCH   3   4
ATOM      4  C   UNL     1      21.321  35.244  14.136  1.00  0.00     0.235 C 
ATOM      5  C   UNL     1      24.090  33.566  16.160  1.00  0.00     0.334 C 
ATOM      6  N   UNL     1      23.183  33.805  15.017  1.00  0.00    -0.323 N 
ATOM      7  C   UNL     1      23.984  34.107  13.796  1.00  0.00     0.264 C 
ATOM      8  C   UNL     1      22.351  32.591  14.774  1.00  0.00     0.264 C 
ATOM      9  C   UNL     1      22.288  34.959  15.319  1.00  0.00     0.309 C 
ATOM     10  C   UNL     1      23.063  34.370  12.576  1.00  0.00     0.069 C 
ATOM     11  C   UNL     1      21.401  32.800  13.569  1.00  0.00     0.069 C 
ATOM     12  C   UNL     1      21.593  34.223  13.008  1.00  0.00     0.047 C 
ENDBRANCH   3   4
ENDBRANCH   1   3
BRANCH   1  13
ATOM     13  C   UNL     1      18.739  35.216  16.794  1.00  0.00     0.213 C 
BRANCH  13  14
ATOM     14  O   UNL     1      19.446  34.021  17.046  1.00  0.00    -0.370 OA
ATOM     15  H   UNL     1      19.790  34.056  17.977  1.00  0.00     0.213 HD
ENDBRANCH  13  14
BRANCH  13  16
ATOM     16  C   UNL     1      18.752  36.076  18.059  1.00  0.00    -0.001 A 
ATOM     17  C   UNL     1      17.630  36.856  18.422  1.00  0.00     0.008 A 
ATOM     18  C   UNL     1      19.838  36.012  18.957  1.00  0.00     0.008 A 
ATOM     19  C   UNL     1      17.628  37.593  19.609  1.00  0.00     0.000 A 
ATOM     20  C   UNL     1      19.832  36.753  20.143  1.00  0.00     0.000 A 
ATOM     21  C   UNL     1      18.730  37.545  20.466  1.00  0.00     0.000 A 
ENDBRANCH  13  16
BRANCH  13  22
ATOM     22  C   UNL     1      17.271  34.914  16.468  1.00  0.00    -0.001 A 
ATOM     23  C   UNL     1      16.714  35.304  15.229  1.00  0.00     0.008 A 
ATOM     24  C   UNL     1      16.480  34.136  17.341  1.00  0.00     0.008 A 
ATOM     25  C   UNL     1      15.394  34.980  14.908  1.00  0.00     0.000 A 
ATOM     26  C   UNL     1      15.160  33.813  17.012  1.00  0.00     0.000 A 
ATOM     27  C   UNL     1      14.615  34.241  15.801  1.00  0.00     0.000 A 
ENDBRANCH  13  22
ENDBRANCH   1  13
TORSDOF 6
ENDMDL
MODEL 11
REMARK VINA RESULT:    -6.988      2.054      3.302
REMARK INTER + INTRA:         -10.880
REMARK INTER:                 -10.282
REMARK INTRA:                  -0.598
REMARK UNBOUND:                -1.645
REMARK SMILES C[N@+]12CC[C@H](CC1)C(OC(=O)C(O)(c1ccccc1)c1ccccc1)C2
REMARK SMILES IDX 10 1 11 2 9 3 8 4 1 5 2 6 7 7 3 8 26 9 6 10 4 11 5 12 12 13
REMARK SMILES IDX 13 14 14 16 15 17 19 18 16 19 18 20 17 21 20 22 21 23 25 24
REMARK SMILES IDX 22 25 24 26 23 27
REMARK H PARENT 13 15
REMARK Flexibility Score: inf
ROOT
ATOM      1  C   UNL     1      19.229  34.782  14.781  1.00  0.00     0.348 C 
ATOM      2  O   UNL     1      18.840  35.981  14.839  1.00  0.00    -0.248 OA
ENDROOT
BRANCH   1   3
ATOM      3  O   UNL     1      20.577  34.468  14.993  1.00  0.00    -0.453 OA
BRANCH   3   4
ATOM      4  C   UNL     1      21.652  35.085  14.284  1.00  0.00     0.235 C 
ATOM      5  C   UNL     1      25.212  33.803  14.799  1.00  0.00     0.334 C 
ATOM      6  N   UNL     1      23.946  34.078  14.087  1.00  0.00    -0.323 N 
ATOM      7  C   UNL     1      24.214  34.943  12.901  1.00  0.00     0.264 C 
ATOM      8  C   UNL     1      23.336  32.795  13.633  1.00  0.00     0.264 C 
ATOM      9  C   UNL     1      22.996  34.775  15.000  1.00  0.00     0.309 C 
ATOM     10  C   UNL     1      22.905  35.257  12.132  1.00  0.00     0.069 C 
ATOM     11  C   UNL     1      22.015  33.048  12.865  1.00  0.00     0.069 C 
ATOM     12  C   UNL     1      21.724  34.561  12.832  1.00  0.00     0.047 C 
ENDBRANCH   3   4
ENDBRANCH   1   3
BRANCH   1  13
ATOM     13  C   UNL     1      18.257  33.684  14.371  1.00  0.00     0.213 C 
BRANCH  13  14
ATOM     14  O   UNL     1      18.782  32.473  14.868  1.00  0.00    -0.370 OA
ATOM     15  H   UNL     1      18.414  32.327  15.779  1.00  0.00     0.213 HD
ENDBRANCH  13  14
BRANCH  13  16
ATOM     16  C   UNL     1      16.873  33.913  14.981  1.00  0.00    -0.001 A 
ATOM     17  C   UNL     1      16.718  34.173  16.362  1.00  0.00     0.008 A 
ATOM     18  C   UNL     1      15.732  33.994  14.155  1.00  0.00     0.008 A 
ATOM     19  C   UNL     1      15.456  34.439  16.900  1.00  0.00     0.000 A 
ATOM     20  C   UNL     1      14.471  34.258  14.699  1.00  0.00     0.000 A 
ATOM     21  C   UNL     1      14.333  34.476  16.070  1.00  0.00     0.000 A 
ENDBRANCH  13  16
BRANCH  13  22
ATOM     22  C   UNL     1      18.075  33.609  12.851  1.00  0.00    -0.001 A 
ATOM     23  C   UNL     1      18.507  32.474  12.129  1.00  0.00     0.008 A 
ATOM     24  C   UNL     1      17.364  34.612  12.156  1.00  0.00     0.008 A 
ATOM     25  C   UNL     1      18.290  32.380  10.752  1.00  0.00     0.000 A 
ATOM     26  C   UNL     1      17.148  34.510  10.779  1.00  0.00     0.000 A 
ATOM     27  C   UNL     1      17.617  33.400  10.076  1.00  0.00     0.000 A 
ENDBRANCH  13  22
ENDBRANCH   1  13
TORSDOF 6
ENDMDL
MODEL 12
REMARK VINA RESULT:    -6.944      2.860      7.116
REMARK INTER + INTRA:         -10.821
REMARK INTER:                  -9.442
REMARK INTRA:                  -1.379
REMARK UNBOUND:                -1.645
REMARK SMILES C[N@+]12CC[C@H](CC1)C(OC(=O)C(O)(c1ccccc1)c1ccccc1)C2
REMARK SMILES IDX 10 1 11 2 9 3 8 4 1 5 2 6 7 7 3 8 26 9 6 10 4 11 5 12 12 13
REMARK SMILES IDX 13 14 14 16 15 17 19 18 16 19 18 20 17 21 20 22 21 23 25 24
REMARK SMILES IDX 22 25 24 26 23 27
REMARK H PARENT 13 15
REMARK Flexibility Score: inf
ROOT
ATOM      1  C   UNL     1      23.610  33.521  12.223  1.00  0.00     0.348 C 
ATOM      2  O   UNL     1      24.016  34.419  11.434  1.00  0.00    -0.248 OA
ENDROOT
BRANCH   1   3
ATOM      3  O   UNL     1      22.251  33.186  12.269  1.00  0.00    -0.453 OA
BRANCH   3   4
ATOM      4  C   UNL     1      21.231  34.086  12.705  1.00  0.00     0.235 C 
ATOM      5  C   UNL     1      17.652  32.812  13.089  1.00  0.00     0.334 C 
ATOM      6  N   UNL     1      18.969  33.339  13.505  1.00  0.00    -0.323 N 
ATOM      7  C   UNL     1      18.790  34.650  14.195  1.00  0.00     0.264 C 
ATOM      8  C   UNL     1      19.624  32.377  14.437  1.00  0.00     0.264 C 
ATOM      9  C   UNL     1      19.837  33.527  12.307  1.00  0.00     0.309 C 
ATOM     10  C   UNL     1      20.154  35.237  14.641  1.00  0.00     0.069 C 
ATOM     11  C   UNL     1      21.000  32.908  14.909  1.00  0.00     0.069 C 
ATOM     12  C   UNL     1      21.280  34.268  14.239  1.00  0.00     0.047 C 
ENDBRANCH   3   4
ENDBRANCH   1   3
BRANCH   1  13
ATOM     13  C   UNL     1      24.577  32.875  13.205  1.00  0.00     0.213 C 
BRANCH  13  14
ATOM     14  O   UNL     1      24.018  31.630  13.564  1.00  0.00    -0.370 OA
ATOM     15  H   UNL     1      24.581  30.914  13.168  1.00  0.00     0.213 HD
ENDBRANCH  13  14
BRANCH  13  16
ATOM     16  C   UNL     1      25.945  32.639  12.564  1.00  0.00    -0.001 A 
ATOM     17  C   UNL     1      27.102  33.287  13.054  1.00  0.00     0.008 A 
ATOM     18  C   UNL     1      26.103  31.672  11.548  1.00  0.00     0.008 A 
ATOM     19  C   UNL     1      28.357  33.021  12.501  1.00  0.00     0.000 A 
ATOM     20  C   UNL     1      27.361  31.411  10.997  1.00  0.00     0.000 A 
ATOM     21  C   UNL     1      28.486  32.088  11.470  1.00  0.00     0.000 A 
ENDBRANCH  13  16
BRANCH  13  22
ATOM     22  C   UNL     1      24.804  33.742  14.450  1.00  0.00    -0.001 A 
ATOM     23  C   UNL     1      24.846  35.150  14.349  1.00  0.00     0.008 A 
ATOM     24  C   UNL     1      24.853  33.162  15.737  1.00  0.00     0.008 A 
ATOM     25  C   UNL     1      24.996  35.943  15.489  1.00  0.00     0.000 A 
ATOM     26  C   UNL     1      25.001  33.961  16.874  1.00  0.00     0.000 A 
ATOM     27  C   UNL     1      25.080  35.349  16.751  1.00  0.00     0.000 A 
ENDBRANCH  13  22
ENDBRANCH   1  13
TORSDOF 6
ENDMDL
MODEL 13
REMARK VINA RESULT:    -6.941      0.795      2.167
REMARK INTER + INTRA:         -10.817
REMARK INTER:                 -10.212
REMARK INTRA:                  -0.605
REMARK UNBOUND:                -1.645
REMARK SMILES C[N@+]12CC[C@H](CC1)C(OC(=O)C(O)(c1ccccc1)c1ccccc1)C2
REMARK SMILES IDX 10 1 11 2 9 3 8 4 1 5 2 6 7 7 3 8 26 9 6 10 4 11 5 12 12 13
REMARK SMILES IDX 13 14 14 16 15 17 19 18 16 19 18 20 17 21 20 22 21 23 25 24
REMARK SMILES IDX 22 25 24 26 23 27
REMARK H PARENT 13 15
REMARK Flexibility Score: inf
ROOT
ATOM      1  C   UNL     1      21.057  33.010  12.950  1.00  0.00     0.348 C 
ATOM      2  O   UNL     1      21.111  32.410  11.841  1.00  0.00    -0.248 OA
ENDROOT
BRANCH   1   3
ATOM      3  O   UNL     1      22.215  33.568  13.505  1.00  0.00    -0.453 OA
BRANCH   3   4
ATOM      4  C   UNL     1      22.713  34.861  13.156  1.00  0.00     0.235 C 
ATOM      5  C   UNL     1      25.838  36.193  14.901  1.00  0.00     0.334 C 
ATOM      6  N   UNL     1      25.000  35.686  13.793  1.00  0.00    -0.323 N 
ATOM      7  C   UNL     1      24.921  36.712  12.713  1.00  0.00     0.264 C 
ATOM      8  C   UNL     1      25.597  34.435  13.243  1.00  0.00     0.264 C 
ATOM      9  C   UNL     1      23.627  35.393  14.296  1.00  0.00     0.309 C 
ATOM     10  C   UNL     1      24.043  36.216  11.535  1.00  0.00     0.069 C 
ATOM     11  C   UNL     1      24.753  33.886  12.066  1.00  0.00     0.069 C 
ATOM     12  C   UNL     1      23.530  34.798  11.846  1.00  0.00     0.047 C 
ENDBRANCH   3   4
ENDBRANCH   1   3
BRANCH   1  13
ATOM     13  C   UNL     1      19.757  33.035  13.741  1.00  0.00     0.213 C 
BRANCH  13  14
ATOM     14  O   UNL     1      19.553  31.726  14.224  1.00  0.00    -0.370 OA
ATOM     15  H   UNL     1      19.087  31.788  15.099  1.00  0.00     0.213 HD
ENDBRANCH  13  14
BRANCH  13  16
ATOM     16  C   UNL     1      19.848  33.995  14.929  1.00  0.00    -0.001 A 
ATOM     17  C   UNL     1      20.234  33.536  16.209  1.00  0.00     0.008 A 
ATOM     18  C   UNL     1      19.670  35.382  14.743  1.00  0.00     0.008 A 
ATOM     19  C   UNL     1      20.372  34.429  17.274  1.00  0.00     0.000 A 
ATOM     20  C   UNL     1      19.808  36.271  15.814  1.00  0.00     0.000 A 
ATOM     21  C   UNL     1      20.154  35.794  17.079  1.00  0.00     0.000 A 
ENDBRANCH  13  16
BRANCH  13  22
ATOM     22  C   UNL     1      18.567  33.485  12.886  1.00  0.00    -0.001 A 
ATOM     23  C   UNL     1      18.756  33.900  11.549  1.00  0.00     0.008 A 
ATOM     24  C   UNL     1      17.244  33.380  13.373  1.00  0.00     0.008 A 
ATOM     25  C   UNL     1      17.665  34.256  10.752  1.00  0.00     0.000 A 
ATOM     26  C   UNL     1      16.158  33.736  12.569  1.00  0.00     0.000 A 
ATOM     27  C   UNL     1      16.368  34.181  11.263  1.00  0.00     0.000 A 
ENDBRANCH  13  22
ENDBRANCH   1  13
TORSDOF 6
ENDMDL
