MODEL 1
REMARK VINA RESULT:    -7.773      0.000      0.000
REMARK INTER + INTRA:          -8.952
REMARK INTER:                  -8.682
REMARK INTRA:                  -0.270
REMARK UNBOUND:                -0.270
REMARK SMILES CCN1C(=O)NC(c2ccccc2)C1=O
REMARK SMILES IDX 3 1 4 2 5 3 6 4 7 5 14 6 15 7 2 9 1 10 8 11 9 12 13 13 10 14
REMARK SMILES IDX 12 15 11 16
REMARK H PARENT 6 8
REMARK Flexibility Score: inf
ROOT
ATOM      1  N   UNL     1      17.655  81.130  -7.098  1.00  0.00    -0.263 N 
ATOM      2  C   UNL     1      16.540  81.997  -7.214  1.00  0.00     0.325 C 
ATOM      3  O   UNL     1      16.352  82.767  -8.193  1.00  0.00    -0.248 OA
ATOM      4  N   UNL     1      15.664  81.928  -6.098  1.00  0.00    -0.322 N 
ATOM      5  C   UNL     1      16.233  80.989  -5.132  1.00  0.00     0.204 C 
ATOM      6  C   UNL     1      17.495  80.540  -5.812  1.00  0.00     0.257 C 
ATOM      7  O   UNL     1      18.343  79.762  -5.297  1.00  0.00    -0.272 OA
ATOM      8  H   UNL     1      14.801  82.501  -5.961  1.00  0.00     0.166 HD
ENDROOT
BRANCH   1   9
ATOM      9  C   UNL     1      18.889  81.191  -7.878  1.00  0.00     0.127 C 
ATOM     10  C   UNL     1      19.643  82.482  -7.584  1.00  0.00     0.028 C 
ENDBRANCH   1   9
BRANCH   5  11
ATOM     11  C   UNL     1      15.294  79.832  -4.886  1.00  0.00    -0.016 A 
ATOM     12  C   UNL     1      14.788  79.601  -3.595  1.00  0.00     0.006 A 
ATOM     13  C   UNL     1      14.933  78.959  -5.929  1.00  0.00     0.006 A 
ATOM     14  C   UNL     1      13.928  78.524  -3.357  1.00  0.00     0.000 A 
ATOM     15  C   UNL     1      14.073  77.884  -5.686  1.00  0.00     0.000 A 
ATOM     16  C   UNL     1      13.570  77.667  -4.401  1.00  0.00     0.000 A 
ENDBRANCH   5  11
TORSDOF 2
ENDMDL
MODEL 2
REMARK VINA RESULT:    -7.738     10.075     11.483
REMARK INTER + INTRA:          -8.913
REMARK INTER:                  -8.653
REMARK INTRA:                  -0.259
REMARK UNBOUND:                -0.270
REMARK SMILES CCN1C(=O)NC(c2ccccc2)C1=O
REMARK SMILES IDX 3 1 4 2 5 3 6 4 7 5 14 6 15 7 2 9 1 10 8 11 9 12 13 13 10 14
REMARK SMILES IDX 12 15 11 16
REMARK H PARENT 6 8
REMARK Flexibility Score: inf
ROOT
ATOM      1  N   UNL     1       7.572  75.181  -1.187  1.00  0.00    -0.263 N 
ATOM      2  C   UNL     1       8.910  75.118  -0.722  1.00  0.00     0.325 C 
ATOM      3  O   UNL     1       9.243  75.318   0.476  1.00  0.00    -0.248 OA
ATOM      4  N   UNL     1       9.843  74.830  -1.753  1.00  0.00    -0.322 N 
ATOM      5  C   UNL     1       9.110  74.731  -3.015  1.00  0.00     0.204 C 
ATOM      6  C   UNL     1       7.690  74.985  -2.592  1.00  0.00     0.257 C 
ATOM      7  O   UNL     1       6.714  75.056  -3.386  1.00  0.00    -0.272 OA
ATOM      8  H   UNL     1      10.880  74.768  -1.640  1.00  0.00     0.166 HD
ENDROOT
BRANCH   1   9
ATOM      9  C   UNL     1       6.434  75.770  -0.485  1.00  0.00     0.127 C 
ATOM     10  C   UNL     1       5.744  74.726   0.384  1.00  0.00     0.028 C 
ENDBRANCH   1   9
BRANCH   5  11
ATOM     11  C   UNL     1       9.270  73.361  -3.628  1.00  0.00    -0.016 A 
ATOM     12  C   UNL     1       9.657  72.274  -2.826  1.00  0.00     0.006 A 
ATOM     13  C   UNL     1       9.062  73.156  -5.005  1.00  0.00     0.006 A 
ATOM     14  C   UNL     1       9.820  71.004  -3.389  1.00  0.00     0.000 A 
ATOM     15  C   UNL     1       9.227  71.885  -5.563  1.00  0.00     0.000 A 
ATOM     16  C   UNL     1       9.605  70.809  -4.756  1.00  0.00     0.000 A 
ENDBRANCH   5  11
TORSDOF 2
ENDMDL
MODEL 3
REMARK VINA RESULT:    -7.480      9.391     11.003
REMARK INTER + INTRA:          -8.625
REMARK INTER:                  -8.353
REMARK INTRA:                  -0.272
REMARK UNBOUND:                -0.270
REMARK SMILES CCN1C(=O)NC(c2ccccc2)C1=O
REMARK SMILES IDX 3 1 4 2 5 3 6 4 7 5 14 6 15 7 2 9 1 10 8 11 9 12 13 13 10 14
REMARK SMILES IDX 12 15 11 16
REMARK H PARENT 6 8
REMARK Flexibility Score: inf
ROOT
ATOM      1  N   UNL     1       8.263  75.718  -0.799  1.00  0.00    -0.263 N 
ATOM      2  C   UNL     1       9.486  76.195  -1.334  1.00  0.00     0.325 C 
ATOM      3  O   UNL     1      10.252  76.989  -0.727  1.00  0.00    -0.248 OA
ATOM      4  N   UNL     1       9.751  75.703  -2.640  1.00  0.00    -0.322 N 
ATOM      5  C   UNL     1       8.619  74.871  -3.049  1.00  0.00     0.204 C 
ATOM      6  C   UNL     1       7.709  74.940  -1.855  1.00  0.00     0.257 C 
ATOM      7  O   UNL     1       6.568  74.409  -1.799  1.00  0.00    -0.272 OA
ATOM      8  H   UNL     1      10.576  75.949  -3.231  1.00  0.00     0.166 HD
ENDROOT
BRANCH   1   9
ATOM      9  C   UNL     1       7.540  76.270   0.344  1.00  0.00     0.127 C 
ATOM     10  C   UNL     1       7.002  77.658   0.015  1.00  0.00     0.028 C 
ENDBRANCH   1   9
BRANCH   5  11
ATOM     11  C   UNL     1       9.063  73.454  -3.327  1.00  0.00    -0.016 A 
ATOM     12  C   UNL     1       9.037  72.955  -4.640  1.00  0.00     0.006 A 
ATOM     13  C   UNL     1       9.482  72.610  -2.281  1.00  0.00     0.006 A 
ATOM     14  C   UNL     1       9.435  71.640  -4.903  1.00  0.00     0.000 A 
ATOM     15  C   UNL     1       9.878  71.296  -2.550  1.00  0.00     0.000 A 
ATOM     16  C   UNL     1       9.855  70.812  -3.860  1.00  0.00     0.000 A 
ENDBRANCH   5  11
TORSDOF 2
ENDMDL
MODEL 4
REMARK VINA RESULT:    -7.389      7.921     10.064
REMARK INTER + INTRA:          -8.523
REMARK INTER:                  -8.308
REMARK INTRA:                  -0.216
REMARK UNBOUND:                -0.270
REMARK SMILES CCN1C(=O)NC(c2ccccc2)C1=O
REMARK SMILES IDX 3 1 4 2 5 3 6 4 7 5 14 6 15 7 2 9 1 10 8 11 9 12 13 13 10 14
REMARK SMILES IDX 12 15 11 16
REMARK H PARENT 6 8
REMARK Flexibility Score: inf
ROOT
ATOM      1  N   UNL     1       9.564  76.373  -1.747  1.00  0.00    -0.263 N 
ATOM      2  C   UNL     1       8.358  76.451  -2.488  1.00  0.00     0.325 C 
ATOM      3  O   UNL     1       7.887  77.525  -2.945  1.00  0.00    -0.248 OA
ATOM      4  N   UNL     1       7.719  75.192  -2.642  1.00  0.00    -0.322 N 
ATOM      5  C   UNL     1       8.509  74.191  -1.926  1.00  0.00     0.204 C 
ATOM      6  C   UNL     1       9.643  75.003  -1.367  1.00  0.00     0.257 C 
ATOM      7  O   UNL     1      10.543  74.543  -0.615  1.00  0.00    -0.272 OA
ATOM      8  H   UNL     1       6.807  75.023  -3.124  1.00  0.00     0.166 HD
ENDROOT
BRANCH   1   9
ATOM      9  C   UNL     1      10.279  77.487  -1.130  1.00  0.00     0.127 C 
ATOM     10  C   UNL     1      11.329  78.042  -2.085  1.00  0.00     0.028 C 
ENDBRANCH   1   9
BRANCH   5  11
ATOM     11  C   UNL     1       9.005  73.119  -2.867  1.00  0.00    -0.016 A 
ATOM     12  C   UNL     1       8.895  73.299  -4.256  1.00  0.00     0.006 A 
ATOM     13  C   UNL     1       9.557  71.922  -2.373  1.00  0.00     0.006 A 
ATOM     14  C   UNL     1       9.341  72.305  -5.134  1.00  0.00     0.000 A 
ATOM     15  C   UNL     1      10.000  70.932  -3.254  1.00  0.00     0.000 A 
ATOM     16  C   UNL     1       9.894  71.124  -4.634  1.00  0.00     0.000 A 
ENDBRANCH   5  11
TORSDOF 2
ENDMDL
MODEL 5
REMARK VINA RESULT:    -7.109      9.377     10.692
REMARK INTER + INTRA:          -8.210
REMARK INTER:                  -8.010
REMARK INTRA:                  -0.201
REMARK UNBOUND:                -0.270
REMARK SMILES CCN1C(=O)NC(c2ccccc2)C1=O
REMARK SMILES IDX 3 1 4 2 5 3 6 4 7 5 14 6 15 7 2 9 1 10 8 11 9 12 13 13 10 14
REMARK SMILES IDX 12 15 11 16
REMARK H PARENT 6 8
REMARK Flexibility Score: inf
ROOT
ATOM      1  N   UNL     1       8.286  76.113  -2.300  1.00  0.00    -0.263 N 
ATOM      2  C   UNL     1       7.404  75.226  -1.633  1.00  0.00     0.325 C 
ATOM      3  O   UNL     1       6.282  75.569  -1.175  1.00  0.00    -0.248 OA
ATOM      4  N   UNL     1       7.927  73.911  -1.512  1.00  0.00    -0.322 N 
ATOM      5  C   UNL     1       9.270  73.901  -2.091  1.00  0.00     0.204 C 
ATOM      6  C   UNL     1       9.443  75.321  -2.548  1.00  0.00     0.257 C 
ATOM      7  O   UNL     1      10.501  75.781  -3.057  1.00  0.00    -0.272 OA
ATOM      8  H   UNL     1       7.461  73.109  -1.031  1.00  0.00     0.166 HD
ENDROOT
BRANCH   1   9
ATOM      9  C   UNL     1       8.217  77.572  -2.299  1.00  0.00     0.127 C 
ATOM     10  C   UNL     1       8.640  78.126  -0.944  1.00  0.00     0.028 C 
ENDBRANCH   1   9
BRANCH   5  11
ATOM     11  C   UNL     1       9.353  72.932  -3.246  1.00  0.00    -0.016 A 
ATOM     12  C   UNL     1       9.811  71.621  -3.031  1.00  0.00     0.006 A 
ATOM     13  C   UNL     1       9.001  73.329  -4.550  1.00  0.00     0.006 A 
ATOM     14  C   UNL     1       9.902  70.722  -4.099  1.00  0.00     0.000 A 
ATOM     15  C   UNL     1       9.095  72.427  -5.613  1.00  0.00     0.000 A 
ATOM     16  C   UNL     1       9.544  71.124  -5.388  1.00  0.00     0.000 A 
ENDBRANCH   5  11
TORSDOF 2
ENDMDL
MODEL 6
REMARK VINA RESULT:    -6.969     10.194     11.230
REMARK INTER + INTRA:          -8.054
REMARK INTER:                  -7.777
REMARK INTRA:                  -0.277
REMARK UNBOUND:                -0.270
REMARK SMILES CCN1C(=O)NC(c2ccccc2)C1=O
REMARK SMILES IDX 3 1 4 2 5 3 6 4 7 5 14 6 15 7 2 9 1 10 8 11 9 12 13 13 10 14
REMARK SMILES IDX 12 15 11 16
REMARK H PARENT 6 8
REMARK Flexibility Score: inf
ROOT
ATOM      1  N   UNL     1       9.736  73.180  -2.449  1.00  0.00    -0.263 N 
ATOM      2  C   UNL     1       8.965  73.669  -3.534  1.00  0.00     0.325 C 
ATOM      3  O   UNL     1       8.825  73.055  -4.624  1.00  0.00    -0.248 OA
ATOM      4  N   UNL     1       8.385  74.939  -3.275  1.00  0.00    -0.322 N 
ATOM      5  C   UNL     1       8.817  75.374  -1.947  1.00  0.00     0.204 C 
ATOM      6  C   UNL     1       9.682  74.233  -1.491  1.00  0.00     0.257 C 
ATOM      7  O   UNL     1      10.323  74.215  -0.407  1.00  0.00    -0.272 OA
ATOM      8  H   UNL     1       7.807  75.496  -3.944  1.00  0.00     0.166 HD
ENDROOT
BRANCH   1   9
ATOM      9  C   UNL     1      10.717  72.099  -2.496  1.00  0.00     0.127 C 
ATOM     10  C   UNL     1      10.029  70.747  -2.354  1.00  0.00     0.028 C 
ENDBRANCH   1   9
BRANCH   5  11
ATOM     11  C   UNL     1       7.633  75.572  -1.031  1.00  0.00    -0.016 A 
ATOM     12  C   UNL     1       7.609  76.658  -0.140  1.00  0.00     0.006 A 
ATOM     13  C   UNL     1       6.555  74.667  -1.037  1.00  0.00     0.006 A 
ATOM     14  C   UNL     1       6.521  76.842   0.720  1.00  0.00     0.000 A 
ATOM     15  C   UNL     1       5.471  74.855  -0.175  1.00  0.00     0.000 A 
ATOM     16  C   UNL     1       5.453  75.942   0.703  1.00  0.00     0.000 A 
ENDBRANCH   5  11
TORSDOF 2
ENDMDL
MODEL 7
REMARK VINA RESULT:    -6.888      1.865      2.893
REMARK INTER + INTRA:          -7.963
REMARK INTER:                  -7.780
REMARK INTRA:                  -0.183
REMARK UNBOUND:                -0.270
REMARK SMILES CCN1C(=O)NC(c2ccccc2)C1=O
REMARK SMILES IDX 3 1 4 2 5 3 6 4 7 5 14 6 15 7 2 9 1 10 8 11 9 12 13 13 10 14
REMARK SMILES IDX 12 15 11 16
REMARK H PARENT 6 8
REMARK Flexibility Score: inf
ROOT
ATOM      1  N   UNL     1      16.606  80.262  -6.496  1.00  0.00    -0.263 N 
ATOM      2  C   UNL     1      16.551  78.856  -6.668  1.00  0.00     0.325 C 
ATOM      3  O   UNL     1      17.456  78.184  -7.229  1.00  0.00    -0.248 OA
ATOM      4  N   UNL     1      15.354  78.281  -6.162  1.00  0.00    -0.322 N 
ATOM      5  C   UNL     1      14.513  79.363  -5.650  1.00  0.00     0.204 C 
ATOM      6  C   UNL     1      15.349  80.583  -5.911  1.00  0.00     0.257 C 
ATOM      7  O   UNL     1      14.975  81.764  -5.680  1.00  0.00    -0.272 OA
ATOM      8  H   UNL     1      15.092  77.271  -6.210  1.00  0.00     0.166 HD
ENDROOT
BRANCH   1   9
ATOM      9  C   UNL     1      17.507  81.187  -7.180  1.00  0.00     0.127 C 
ATOM     10  C   UNL     1      18.719  81.493  -6.308  1.00  0.00     0.028 C 
ENDBRANCH   1   9
BRANCH   5  11
ATOM     11  C   UNL     1      14.239  79.182  -4.176  1.00  0.00    -0.016 A 
ATOM     12  C   UNL     1      13.101  78.474  -3.754  1.00  0.00     0.006 A 
ATOM     13  C   UNL     1      15.098  79.737  -3.208  1.00  0.00     0.006 A 
ATOM     14  C   UNL     1      12.834  78.314  -2.390  1.00  0.00     0.000 A 
ATOM     15  C   UNL     1      14.826  79.575  -1.846  1.00  0.00     0.000 A 
ATOM     16  C   UNL     1      13.696  78.863  -1.437  1.00  0.00     0.000 A 
ENDBRANCH   5  11
TORSDOF 2
ENDMDL
MODEL 8
REMARK VINA RESULT:    -6.720      8.498     10.932
REMARK INTER + INTRA:          -7.776
REMARK INTER:                  -7.510
REMARK INTRA:                  -0.266
REMARK UNBOUND:                -0.270
REMARK SMILES CCN1C(=O)NC(c2ccccc2)C1=O
REMARK SMILES IDX 3 1 4 2 5 3 6 4 7 5 14 6 15 7 2 9 1 10 8 11 9 12 13 13 10 14
REMARK SMILES IDX 12 15 11 16
REMARK H PARENT 6 8
REMARK Flexibility Score: inf
ROOT
ATOM      1  N   UNL     1       6.939  75.350  -1.427  1.00  0.00    -0.263 N 
ATOM      2  C   UNL     1       6.971  75.400  -2.844  1.00  0.00     0.325 C 
ATOM      3  O   UNL     1       6.091  74.882  -3.581  1.00  0.00    -0.248 OA
ATOM      4  N   UNL     1       8.114  76.074  -3.350  1.00  0.00    -0.322 N 
ATOM      5  C   UNL     1       8.944  76.476  -2.215  1.00  0.00     0.204 C 
ATOM      6  C   UNL     1       8.160  75.971  -1.037  1.00  0.00     0.257 C 
ATOM      7  O   UNL     1       8.546  76.046   0.160  1.00  0.00    -0.272 OA
ATOM      8  H   UNL     1       8.353  76.199  -4.359  1.00  0.00     0.166 HD
ENDROOT
BRANCH   1   9
ATOM      9  C   UNL     1       6.112  74.469  -0.606  1.00  0.00     0.127 C 
ATOM     10  C   UNL     1       5.256  75.285   0.356  1.00  0.00     0.028 C 
ENDBRANCH   1   9
BRANCH   5  11
ATOM     11  C   UNL     1       9.108  77.976  -2.170  1.00  0.00    -0.016 A 
ATOM     12  C   UNL     1      10.394  78.541  -2.129  1.00  0.00     0.006 A 
ATOM     13  C   UNL     1       7.986  78.826  -2.144  1.00  0.00     0.006 A 
ATOM     14  C   UNL     1      10.554  79.929  -2.074  1.00  0.00     0.000 A 
ATOM     15  C   UNL     1       8.151  80.213  -2.089  1.00  0.00     0.000 A 
ATOM     16  C   UNL     1       9.434  80.765  -2.055  1.00  0.00     0.000 A 
ENDBRANCH   5  11
TORSDOF 2
ENDMDL
MODEL 9
REMARK VINA RESULT:    -6.700      8.430     10.070
REMARK INTER + INTRA:          -7.754
REMARK INTER:                  -7.509
REMARK INTRA:                  -0.245
REMARK UNBOUND:                -0.270
REMARK SMILES CCN1C(=O)NC(c2ccccc2)C1=O
REMARK SMILES IDX 3 1 4 2 5 3 6 4 7 5 14 6 15 7 2 9 1 10 8 11 9 12 13 13 10 14
REMARK SMILES IDX 12 15 11 16
REMARK H PARENT 6 8
REMARK Flexibility Score: inf
ROOT
ATOM      1  N   UNL     1       8.927  74.778  -2.530  1.00  0.00    -0.263 N 
ATOM      2  C   UNL     1       9.334  74.890  -1.177  1.00  0.00     0.325 C 
ATOM      3  O   UNL     1      10.032  74.026  -0.583  1.00  0.00    -0.248 OA
ATOM      4  N   UNL     1       8.854  76.069  -0.548  1.00  0.00    -0.322 N 
ATOM      5  C   UNL     1       8.027  76.794  -1.513  1.00  0.00     0.204 C 
ATOM      6  C   UNL     1       8.097  75.917  -2.731  1.00  0.00     0.257 C 
ATOM      7  O   UNL     1       7.465  76.133  -3.800  1.00  0.00    -0.272 OA
ATOM      8  H   UNL     1       9.007  76.337   0.450  1.00  0.00     0.166 HD
ENDROOT
BRANCH   1   9
ATOM      9  C   UNL     1       8.957  73.569  -3.350  1.00  0.00     0.127 C 
ATOM     10  C   UNL     1      10.366  73.312  -3.871  1.00  0.00     0.028 C 
ENDBRANCH   1   9
BRANCH   5  11
ATOM     11  C   UNL     1       8.593  78.167  -1.785  1.00  0.00    -0.016 A 
ATOM     12  C   UNL     1       7.727  79.248  -2.027  1.00  0.00     0.006 A 
ATOM     13  C   UNL     1       9.983  78.382  -1.826  1.00  0.00     0.006 A 
ATOM     14  C   UNL     1       8.244  80.520  -2.292  1.00  0.00     0.000 A 
ATOM     15  C   UNL     1      10.494  79.655  -2.092  1.00  0.00     0.000 A 
ATOM     16  C   UNL     1       9.625  80.724  -2.324  1.00  0.00     0.000 A 
ENDBRANCH   5  11
TORSDOF 2
ENDMDL
MODEL 10
REMARK VINA RESULT:    -6.697      4.845      6.989
REMARK INTER + INTRA:          -7.751
REMARK INTER:                  -7.504
REMARK INTRA:                  -0.246
REMARK UNBOUND:                -0.270
REMARK SMILES CCN1C(=O)NC(c2ccccc2)C1=O
REMARK SMILES IDX 3 1 4 2 5 3 6 4 7 5 14 6 15 7 2 9 1 10 8 11 9 12 13 13 10 14
REMARK SMILES IDX 12 15 11 16
REMARK H PARENT 6 8
REMARK Flexibility Score: inf
ROOT
ATOM      1  N   UNL     1      11.354  80.811  -0.947  1.00  0.00    -0.263 N 
ATOM      2  C   UNL     1      10.290  80.112  -1.572  1.00  0.00     0.325 C 
ATOM      3  O   UNL     1       9.083  80.465  -1.498  1.00  0.00    -0.248 OA
ATOM      4  N   UNL     1      10.722  78.955  -2.273  1.00  0.00    -0.322 N 
ATOM      5  C   UNL     1      12.166  78.822  -2.083  1.00  0.00     0.204 C 
ATOM      6  C   UNL     1      12.496  80.007  -1.221  1.00  0.00     0.257 C 
ATOM      7  O   UNL     1      13.642  80.251  -0.757  1.00  0.00    -0.272 OA
ATOM      8  H   UNL     1      10.105  78.280  -2.777  1.00  0.00     0.166 HD
ENDROOT
BRANCH   1   9
ATOM      9  C   UNL     1      11.233  81.819   0.103  1.00  0.00     0.127 C 
ATOM     10  C   UNL     1      11.114  81.155   1.470  1.00  0.00     0.028 C 
ENDBRANCH   1   9
BRANCH   5  11
ATOM     11  C   UNL     1      12.892  78.877  -3.406  1.00  0.00    -0.016 A 
ATOM     12  C   UNL     1      13.111  80.113  -4.035  1.00  0.00     0.006 A 
ATOM     13  C   UNL     1      13.336  77.699  -4.036  1.00  0.00     0.006 A 
ATOM     14  C   UNL     1      13.773  80.171  -5.267  1.00  0.00     0.000 A 
ATOM     15  C   UNL     1      13.996  77.762  -5.267  1.00  0.00     0.000 A 
ATOM     16  C   UNL     1      14.215  78.997  -5.882  1.00  0.00     0.000 A 
ENDBRANCH   5  11
TORSDOF 2
ENDMDL
MODEL 11
REMARK VINA RESULT:    -6.516      4.192      6.624
REMARK INTER + INTRA:          -7.549
REMARK INTER:                  -7.248
REMARK INTRA:                  -0.301
REMARK UNBOUND:                -0.270
REMARK SMILES CCN1C(=O)NC(c2ccccc2)C1=O
REMARK SMILES IDX 3 1 4 2 5 3 6 4 7 5 14 6 15 7 2 9 1 10 8 11 9 12 13 13 10 14
REMARK SMILES IDX 12 15 11 16
REMARK H PARENT 6 8
REMARK Flexibility Score: inf
ROOT
ATOM      1  N   UNL     1      13.299  79.321  -0.185  1.00  0.00    -0.263 N 
ATOM      2  C   UNL     1      14.639  78.871  -0.076  1.00  0.00     0.325 C 
ATOM      3  O   UNL     1      15.079  78.215   0.904  1.00  0.00    -0.248 OA
ATOM      4  N   UNL     1      15.447  79.259  -1.179  1.00  0.00    -0.322 N 
ATOM      5  C   UNL     1      14.624  80.063  -2.083  1.00  0.00     0.204 C 
ATOM      6  C   UNL     1      13.292  80.082  -1.388  1.00  0.00     0.257 C 
ATOM      7  O   UNL     1      12.288  80.726  -1.794  1.00  0.00    -0.272 OA
ATOM      8  H   UNL     1      16.466  79.062  -1.290  1.00  0.00     0.166 HD
ENDROOT
BRANCH   1   9
ATOM      9  C   UNL     1      12.315  79.390   0.892  1.00  0.00     0.127 C 
ATOM     10  C   UNL     1      12.468  80.691   1.672  1.00  0.00     0.028 C 
ENDBRANCH   1   9
BRANCH   5  11
ATOM     11  C   UNL     1      14.531  79.418  -3.445  1.00  0.00    -0.016 A 
ATOM     12  C   UNL     1      15.130  80.035  -4.557  1.00  0.00     0.006 A 
ATOM     13  C   UNL     1      13.827  78.213  -3.628  1.00  0.00     0.006 A 
ATOM     14  C   UNL     1      15.037  79.451  -5.824  1.00  0.00     0.000 A 
ATOM     15  C   UNL     1      13.736  77.633  -4.897  1.00  0.00     0.000 A 
ATOM     16  C   UNL     1      14.342  78.251  -5.994  1.00  0.00     0.000 A 
ENDBRANCH   5  11
TORSDOF 2
ENDMDL
MODEL 12
REMARK VINA RESULT:    -6.450      4.965      7.445
REMARK INTER + INTRA:          -7.474
REMARK INTER:                  -7.197
REMARK INTRA:                  -0.277
REMARK UNBOUND:                -0.270
REMARK SMILES CCN1C(=O)NC(c2ccccc2)C1=O
REMARK SMILES IDX 3 1 4 2 5 3 6 4 7 5 14 6 15 7 2 9 1 10 8 11 9 12 13 13 10 14
REMARK SMILES IDX 12 15 11 16
REMARK H PARENT 6 8
REMARK Flexibility Score: inf
ROOT
ATOM      1  N   UNL     1      10.206  79.407  -1.693  1.00  0.00    -0.263 N 
ATOM      2  C   UNL     1      10.404  78.142  -2.303  1.00  0.00     0.325 C 
ATOM      3  O   UNL     1       9.467  77.353  -2.595  1.00  0.00    -0.248 OA
ATOM      4  N   UNL     1      11.773  77.844  -2.531  1.00  0.00    -0.322 N 
ATOM      5  C   UNL     1      12.572  78.950  -2.006  1.00  0.00     0.204 C 
ATOM      6  C   UNL     1      11.527  79.889  -1.473  1.00  0.00     0.257 C 
ATOM      7  O   UNL     1      11.779  80.963  -0.864  1.00  0.00    -0.272 OA
ATOM      8  H   UNL     1      12.147  76.958  -2.939  1.00  0.00     0.166 HD
ENDROOT
BRANCH   1   9
ATOM      9  C   UNL     1       8.990  79.872  -1.030  1.00  0.00     0.127 C 
ATOM     10  C   UNL     1       8.001  80.419  -2.052  1.00  0.00     0.028 C 
ENDBRANCH   1   9
BRANCH   5  11
ATOM     11  C   UNL     1      13.390  79.594  -3.100  1.00  0.00    -0.016 A 
ATOM     12  C   UNL     1      12.748  80.191  -4.198  1.00  0.00     0.006 A 
ATOM     13  C   UNL     1      14.797  79.585  -3.052  1.00  0.00     0.006 A 
ATOM     14  C   UNL     1      13.499  80.777  -5.222  1.00  0.00     0.000 A 
ATOM     15  C   UNL     1      15.543  80.172  -4.078  1.00  0.00     0.000 A 
ATOM     16  C   UNL     1      14.894  80.769  -5.162  1.00  0.00     0.000 A 
ENDBRANCH   5  11
TORSDOF 2
ENDMDL
MODEL 13
REMARK VINA RESULT:    -6.335      7.994     10.600
REMARK INTER + INTRA:          -7.346
REMARK INTER:                  -7.144
REMARK INTRA:                  -0.201
REMARK UNBOUND:                -0.270
REMARK SMILES CCN1C(=O)NC(c2ccccc2)C1=O
REMARK SMILES IDX 3 1 4 2 5 3 6 4 7 5 14 6 15 7 2 9 1 10 8 11 9 12 13 13 10 14
REMARK SMILES IDX 12 15 11 16
REMARK H PARENT 6 8
REMARK Flexibility Score: inf
ROOT
ATOM      1  N   UNL     1       7.440  77.187  -0.021  1.00  0.00    -0.263 N 
ATOM      2  C   UNL     1       6.668  78.374   0.051  1.00  0.00     0.325 C 
ATOM      3  O   UNL     1       5.610  78.480   0.727  1.00  0.00    -0.248 OA
ATOM      4  N   UNL     1       7.196  79.429  -0.738  1.00  0.00    -0.322 N 
ATOM      5  C   UNL     1       8.381  78.927  -1.433  1.00  0.00     0.204 C 
ATOM      6  C   UNL     1       8.465  77.505  -0.956  1.00  0.00     0.257 C 
ATOM      7  O   UNL     1       9.317  76.668  -1.359  1.00  0.00    -0.272 OA
ATOM      8  H   UNL     1       6.773  80.377  -0.856  1.00  0.00     0.166 HD
ENDROOT
BRANCH   1   9
ATOM      9  C   UNL     1       7.016  75.848   0.382  1.00  0.00     0.127 C 
ATOM     10  C   UNL     1       6.344  75.128  -0.781  1.00  0.00     0.028 C 
ENDBRANCH   1   9
BRANCH   5  11
ATOM     11  C   UNL     1       9.609  79.716  -1.047  1.00  0.00    -0.016 A 
ATOM     12  C   UNL     1       9.569  80.582   0.058  1.00  0.00     0.006 A 
ATOM     13  C   UNL     1      10.797  79.616  -1.796  1.00  0.00     0.006 A 
ATOM     14  C   UNL     1      10.699  81.326   0.414  1.00  0.00     0.000 A 
ATOM     15  C   UNL     1      11.924  80.361  -1.436  1.00  0.00     0.000 A 
ATOM     16  C   UNL     1      11.875  81.215  -0.331  1.00  0.00     0.000 A 
ENDBRANCH   5  11
TORSDOF 2
ENDMDL
MODEL 14
REMARK VINA RESULT:    -6.323      4.632      6.423
REMARK INTER + INTRA:          -7.332
REMARK INTER:                  -7.069
REMARK INTRA:                  -0.263
REMARK UNBOUND:                -0.270
REMARK SMILES CCN1C(=O)NC(c2ccccc2)C1=O
REMARK SMILES IDX 3 1 4 2 5 3 6 4 7 5 14 6 15 7 2 9 1 10 8 11 9 12 13 13 10 14
REMARK SMILES IDX 12 15 11 16
REMARK H PARENT 6 8
REMARK Flexibility Score: inf
ROOT
ATOM      1  N   UNL     1      13.857  79.509  -2.504  1.00  0.00    -0.263 N 
ATOM      2  C   UNL     1      13.719  79.896  -1.147  1.00  0.00     0.325 C 
ATOM      3  O   UNL     1      14.503  80.692  -0.564  1.00  0.00    -0.248 OA
ATOM      4  N   UNL     1      12.617  79.274  -0.502  1.00  0.00    -0.322 N 
ATOM      5  C   UNL     1      11.982  78.369  -1.459  1.00  0.00     0.204 C 
ATOM      6  C   UNL     1      12.824  78.547  -2.690  1.00  0.00     0.257 C 
ATOM      7  O   UNL     1      12.668  77.897  -3.759  1.00  0.00    -0.272 OA
ATOM      8  H   UNL     1      12.350  79.392   0.501  1.00  0.00     0.166 HD
ENDROOT
BRANCH   1   9
ATOM      9  C   UNL     1      15.040  79.687  -3.343  1.00  0.00     0.127 C 
ATOM     10  C   UNL     1      14.702  80.523  -4.572  1.00  0.00     0.028 C 
ENDBRANCH   1   9
BRANCH   5  11
ATOM     11  C   UNL     1      10.546  78.764  -1.706  1.00  0.00    -0.016 A 
ATOM     12  C   UNL     1       9.573  77.774  -1.923  1.00  0.00     0.006 A 
ATOM     13  C   UNL     1      10.166  80.119  -1.748  1.00  0.00     0.006 A 
ATOM     14  C   UNL     1       8.243  78.134  -2.165  1.00  0.00     0.000 A 
ATOM     15  C   UNL     1       8.836  80.473  -1.991  1.00  0.00     0.000 A 
ATOM     16  C   UNL     1       7.874  79.481  -2.198  1.00  0.00     0.000 A 
ENDBRANCH   5  11
TORSDOF 2
ENDMDL
MODEL 15
REMARK VINA RESULT:    -6.304      7.996      9.917
REMARK INTER + INTRA:          -7.311
REMARK INTER:                  -7.123
REMARK INTRA:                  -0.188
REMARK UNBOUND:                -0.270
REMARK SMILES CCN1C(=O)NC(c2ccccc2)C1=O
REMARK SMILES IDX 3 1 4 2 5 3 6 4 7 5 14 6 15 7 2 9 1 10 8 11 9 12 13 13 10 14
REMARK SMILES IDX 12 15 11 16
REMARK H PARENT 6 8
REMARK Flexibility Score: inf
ROOT
ATOM      1  N   UNL     1       9.799  79.273  -1.222  1.00  0.00    -0.263 N 
ATOM      2  C   UNL     1      10.653  78.143  -1.148  1.00  0.00     0.325 C 
ATOM      3  O   UNL     1      11.846  78.194  -0.747  1.00  0.00    -0.248 OA
ATOM      4  N   UNL     1      10.032  76.947  -1.596  1.00  0.00    -0.322 N 
ATOM      5  C   UNL     1       8.682  77.279  -2.048  1.00  0.00     0.204 C 
ATOM      6  C   UNL     1       8.607  78.760  -1.808  1.00  0.00     0.257 C 
ATOM      7  O   UNL     1       7.623  79.483  -2.120  1.00  0.00    -0.272 OA
ATOM      8  H   UNL     1      10.485  76.008  -1.656  1.00  0.00     0.166 HD
ENDROOT
BRANCH   1   9
ATOM      9  C   UNL     1      10.205  80.675  -1.164  1.00  0.00     0.127 C 
ATOM     10  C   UNL     1      10.170  81.182   0.273  1.00  0.00     0.028 C 
ENDBRANCH   1   9
BRANCH   5  11
ATOM     11  C   UNL     1       7.644  76.533  -1.245  1.00  0.00    -0.016 A 
ATOM     12  C   UNL     1       7.160  75.295  -1.700  1.00  0.00     0.006 A 
ATOM     13  C   UNL     1       7.130  77.072  -0.050  1.00  0.00     0.006 A 
ATOM     14  C   UNL     1       6.189  74.604  -0.967  1.00  0.00     0.000 A 
ATOM     15  C   UNL     1       6.159  76.377   0.678  1.00  0.00     0.000 A 
ATOM     16  C   UNL     1       5.690  75.144   0.220  1.00  0.00     0.000 A 
ENDBRANCH   5  11
TORSDOF 2
ENDMDL
