MODEL 1
REMARK VINA RESULT:   -11.831      0.000      0.000
REMARK INTER + INTRA:         -16.832
REMARK INTER:                 -16.673
REMARK INTRA:                  -0.159
REMARK UNBOUND:                -0.159
REMARK SMILES Cc1ccc(NC(=O)c2ccc(CN3CCN(C)CC3)cc2)cc1Nc1nccc(-c2cccnc2)n1
REMARK SMILES IDX 5 1 23 2 24 3 2 4 1 5 3 6 4 7 6 8 7 9 8 10 9 12 12 13 11 14
REMARK SMILES IDX 21 15 10 16 22 17 13 18 14 19 18 20 17 21 16 22 19 23 15 24
REMARK SMILES IDX 20 25 25 26 26 28 27 29 37 30 28 31 30 32 29 33 31 34 36 35
REMARK SMILES IDX 32 36 35 37 33 38 34 39
REMARK H PARENT 6 11 25 27
REMARK Flexibility Score: inf
ROOT
ATOM      1  C   UNL     1      24.358  22.690  37.942  1.00  0.00     0.043 A 
ATOM      2  C   UNL     1      23.005  23.033  38.093  1.00  0.00     0.052 A 
ATOM      3  C   UNL     1      22.510  23.502  39.324  1.00  0.00     0.046 A 
ATOM      4  C   UNL     1      23.382  23.578  40.434  1.00  0.00    -0.027 A 
ATOM      5  C   UNL     1      22.894  24.053  41.775  1.00  0.00     0.046 C 
ATOM      6  C   UNL     1      24.722  23.185  40.288  1.00  0.00     0.008 A 
ATOM      7  C   UNL     1      25.205  22.748  39.055  1.00  0.00     0.026 A 
ENDROOT
BRANCH   1   8
ATOM      8  N   UNL     1      24.875  22.234  36.681  1.00  0.00    -0.322 N 
ATOM      9  C   UNL     1      25.794  22.998  35.880  1.00  0.00     0.255 C 
ATOM     10  O   UNL     1      26.403  23.977  36.390  1.00  0.00    -0.269 OA
ATOM     11  H   UNL     1      24.693  21.241  36.409  1.00  0.00     0.170 HD
BRANCH   9  12
ATOM     12  C   UNL     1      26.079  22.619  34.477  1.00  0.00     0.040 A 
ATOM     13  C   UNL     1      26.626  21.914  31.802  1.00  0.00    -0.034 A 
ATOM     14  C   UNL     1      26.529  20.923  32.790  1.00  0.00     0.006 A 
ATOM     15  C   UNL     1      26.434  23.258  32.155  1.00  0.00     0.006 A 
ATOM     16  C   UNL     1      26.261  21.272  34.117  1.00  0.00     0.014 A 
ATOM     17  C   UNL     1      26.157  23.607  33.479  1.00  0.00     0.014 A 
BRANCH  13  18
ATOM     18  C   UNL     1      26.911  21.528  30.374  1.00  0.00     0.120 C 
BRANCH  18  19
ATOM     19  N   UNL     1      28.361  21.602  30.090  1.00  0.00    -0.297 NA
ATOM     20  C   UNL     1      28.349  18.081  29.094  1.00  0.00     0.105 C 
ATOM     21  N   UNL     1      29.435  18.943  29.589  1.00  0.00    -0.304 NA
ATOM     22  C   UNL     1      29.187  19.407  30.977  1.00  0.00     0.099 C 
ATOM     23  C   UNL     1      29.737  20.037  28.643  1.00  0.00     0.099 C 
ATOM     24  C   UNL     1      29.183  20.939  31.128  1.00  0.00     0.100 C 
ATOM     25  C   UNL     1      28.688  21.163  28.707  1.00  0.00     0.100 C 
ENDBRANCH  18  19
ENDBRANCH  13  18
ENDBRANCH   9  12
ENDBRANCH   1   8
BRANCH   3  26
ATOM     26  N   UNL     1      21.116  23.837  39.466  1.00  0.00    -0.324 N 
ATOM     27  H   UNL     1      20.409  23.069  39.431  1.00  0.00     0.170 HD
BRANCH  26  28
ATOM     28  C   UNL     1      20.630  25.167  39.708  1.00  0.00     0.227 A 
ATOM     29  N   UNL     1      21.455  26.228  39.509  1.00  0.00    -0.221 NA
ATOM     30  N   UNL     1      19.348  25.379  40.109  1.00  0.00    -0.213 NA
ATOM     31  C   UNL     1      21.024  27.498  39.719  1.00  0.00     0.117 A 
ATOM     32  C   UNL     1      18.870  26.630  40.351  1.00  0.00     0.077 A 
ATOM     33  C   UNL     1      19.718  27.730  40.149  1.00  0.00     0.049 A 
BRANCH  32  34
ATOM     34  C   UNL     1      17.473  26.793  40.826  1.00  0.00     0.019 A 
ATOM     35  C   UNL     1      16.520  25.768  40.679  1.00  0.00     0.121 A 
ATOM     36  C   UNL     1      17.059  28.009  41.395  1.00  0.00     0.013 A 
ATOM     37  N   UNL     1      15.236  25.963  41.083  1.00  0.00    -0.264 NA
ATOM     38  C   UNL     1      15.735  28.180  41.804  1.00  0.00     0.021 A 
ATOM     39  C   UNL     1      14.829  27.134  41.639  1.00  0.00     0.111 A 
ENDBRANCH  32  34
ENDBRANCH  26  28
ENDBRANCH   3  26
TORSDOF 7
ENDMDL
MODEL 2
REMARK VINA RESULT:   -10.733      2.220     13.023
REMARK INTER + INTRA:         -15.283
REMARK INTER:                 -14.752
REMARK INTRA:                  -0.531
REMARK UNBOUND:                -0.159
REMARK SMILES Cc1ccc(NC(=O)c2ccc(CN3CCN(C)CC3)cc2)cc1Nc1nccc(-c2cccnc2)n1
REMARK SMILES IDX 5 1 23 2 24 3 2 4 1 5 3 6 4 7 6 8 7 9 8 10 9 12 12 13 11 14
REMARK SMILES IDX 21 15 10 16 22 17 13 18 14 19 18 20 17 21 16 22 19 23 15 24
REMARK SMILES IDX 20 25 25 26 26 28 27 29 37 30 28 31 30 32 29 33 31 34 36 35
REMARK SMILES IDX 32 36 35 37 33 38 34 39
REMARK H PARENT 6 11 25 27
REMARK Flexibility Score: inf
ROOT
ATOM      1  C   UNL     1      22.442  24.085  39.363  1.00  0.00     0.043 A 
ATOM      2  C   UNL     1      23.188  24.321  38.197  1.00  0.00     0.052 A 
ATOM      3  C   UNL     1      24.518  23.874  38.086  1.00  0.00     0.046 A 
ATOM      4  C   UNL     1      25.121  23.225  39.189  1.00  0.00    -0.027 A 
ATOM      5  C   UNL     1      26.547  22.749  39.125  1.00  0.00     0.046 C 
ATOM      6  C   UNL     1      24.385  23.039  40.369  1.00  0.00     0.008 A 
ATOM      7  C   UNL     1      23.059  23.463  40.455  1.00  0.00     0.026 A 
ENDROOT
BRANCH   1   8
ATOM      8  N   UNL     1      21.076  24.518  39.472  1.00  0.00    -0.322 N 
ATOM      9  C   UNL     1      20.697  25.862  39.819  1.00  0.00     0.255 C 
ATOM     10  O   UNL     1      21.553  26.787  39.764  1.00  0.00    -0.269 OA
ATOM     11  H   UNL     1      20.330  23.867  39.136  1.00  0.00     0.170 HD
BRANCH   9  12
ATOM     12  C   UNL     1      19.301  26.188  40.188  1.00  0.00     0.040 A 
ATOM     13  C   UNL     1      16.644  26.827  40.884  1.00  0.00    -0.034 A 
ATOM     14  C   UNL     1      17.063  25.489  40.841  1.00  0.00     0.006 A 
ATOM     15  C   UNL     1      17.563  27.845  40.590  1.00  0.00     0.006 A 
ATOM     16  C   UNL     1      18.379  25.172  40.493  1.00  0.00     0.014 A 
ATOM     17  C   UNL     1      18.881  27.529  40.252  1.00  0.00     0.014 A 
BRANCH  13  18
ATOM     18  C   UNL     1      15.224  27.160  41.263  1.00  0.00     0.120 C 
BRANCH  18  19
ATOM     19  N   UNL     1      14.363  25.960  41.178  1.00  0.00    -0.297 NA
ATOM     20  C   UNL     1      11.493  28.073  40.348  1.00  0.00     0.105 C 
ATOM     21  N   UNL     1      11.565  26.730  40.949  1.00  0.00    -0.304 NA
ATOM     22  C   UNL     1      12.246  26.749  42.268  1.00  0.00     0.099 C 
ATOM     23  C   UNL     1      12.124  25.740  40.006  1.00  0.00     0.099 C 
ATOM     24  C   UNL     1      13.467  25.813  42.348  1.00  0.00     0.100 C 
ATOM     25  C   UNL     1      13.654  25.866  39.875  1.00  0.00     0.100 C 
ENDBRANCH  18  19
ENDBRANCH  13  18
ENDBRANCH   9  12
ENDBRANCH   1   8
BRANCH   3  26
ATOM     26  N   UNL     1      25.275  24.134  36.888  1.00  0.00    -0.324 N 
ATOM     27  H   UNL     1      25.704  25.077  36.761  1.00  0.00     0.170 HD
BRANCH  26  28
ATOM     28  C   UNL     1      25.526  23.154  35.869  1.00  0.00     0.227 A 
ATOM     29  N   UNL     1      25.545  21.835  36.196  1.00  0.00    -0.221 NA
ATOM     30  N   UNL     1      25.721  23.528  34.575  1.00  0.00    -0.213 NA
ATOM     31  C   UNL     1      25.770  20.884  35.254  1.00  0.00     0.117 A 
ATOM     32  C   UNL     1      25.968  22.617  33.595  1.00  0.00     0.077 A 
ATOM     33  C   UNL     1      25.990  21.254  33.928  1.00  0.00     0.049 A 
BRANCH  32  34
ATOM     34  C   UNL     1      26.213  23.091  32.210  1.00  0.00     0.019 A 
ATOM     35  C   UNL     1      26.383  22.190  31.142  1.00  0.00     0.121 A 
ATOM     36  C   UNL     1      26.331  24.465  31.945  1.00  0.00     0.013 A 
ATOM     37  N   UNL     1      26.650  22.653  29.891  1.00  0.00    -0.264 NA
ATOM     38  C   UNL     1      26.603  24.913  30.651  1.00  0.00     0.021 A 
ATOM     39  C   UNL     1      26.760  23.981  29.626  1.00  0.00     0.111 A 
ENDBRANCH  32  34
ENDBRANCH  26  28
ENDBRANCH   3  26
TORSDOF 7
ENDMDL
MODEL 3
REMARK VINA RESULT:   -10.401      5.881     12.102
REMARK INTER + INTRA:         -14.817
REMARK INTER:                 -14.020
REMARK INTRA:                  -0.796
REMARK UNBOUND:                -0.159
REMARK SMILES Cc1ccc(NC(=O)c2ccc(CN3CCN(C)CC3)cc2)cc1Nc1nccc(-c2cccnc2)n1
REMARK SMILES IDX 5 1 23 2 24 3 2 4 1 5 3 6 4 7 6 8 7 9 8 10 9 12 12 13 11 14
REMARK SMILES IDX 21 15 10 16 22 17 13 18 14 19 18 20 17 21 16 22 19 23 15 24
REMARK SMILES IDX 20 25 25 26 26 28 27 29 37 30 28 31 30 32 29 33 31 34 36 35
REMARK SMILES IDX 32 36 35 37 33 38 34 39
REMARK H PARENT 6 11 25 27
REMARK Flexibility Score: inf
ROOT
ATOM      1  C   UNL     1      13.975  28.865  42.002  1.00  0.00     0.043 A 
ATOM      2  C   UNL     1      12.725  28.527  41.459  1.00  0.00     0.052 A 
ATOM      3  C   UNL     1      11.531  28.959  42.067  1.00  0.00     0.046 A 
ATOM      4  C   UNL     1      11.598  29.700  43.269  1.00  0.00    -0.027 A 
ATOM      5  C   UNL     1      10.349  30.165  43.967  1.00  0.00     0.046 C 
ATOM      6  C   UNL     1      12.851  29.989  43.834  1.00  0.00     0.008 A 
ATOM      7  C   UNL     1      14.026  29.578  43.205  1.00  0.00     0.026 A 
ENDROOT
BRANCH   1   8
ATOM      8  N   UNL     1      15.197  28.448  41.372  1.00  0.00    -0.322 N 
ATOM      9  C   UNL     1      15.635  27.078  41.325  1.00  0.00     0.255 C 
ATOM     10  O   UNL     1      14.820  26.152  41.589  1.00  0.00    -0.269 OA
ATOM     11  H   UNL     1      15.712  29.149  40.793  1.00  0.00     0.170 HD
BRANCH   9  12
ATOM     12  C   UNL     1      17.016  26.734  40.917  1.00  0.00     0.040 A 
ATOM     13  C   UNL     1      19.640  26.060  40.137  1.00  0.00    -0.034 A 
ATOM     14  C   UNL     1      19.244  27.404  40.203  1.00  0.00     0.006 A 
ATOM     15  C   UNL     1      18.723  25.055  40.475  1.00  0.00     0.006 A 
ATOM     16  C   UNL     1      17.942  27.738  40.586  1.00  0.00     0.014 A 
ATOM     17  C   UNL     1      17.424  25.389  40.869  1.00  0.00     0.014 A 
BRANCH  13  18
ATOM     18  C   UNL     1      21.047  25.709  39.725  1.00  0.00     0.120 C 
BRANCH  18  19
ATOM     19  N   UNL     1      21.314  24.270  39.941  1.00  0.00    -0.297 NA
ATOM     20  C   UNL     1      24.334  24.519  37.890  1.00  0.00     0.105 C 
ATOM     21  N   UNL     1      23.475  23.367  38.213  1.00  0.00    -0.304 NA
ATOM     22  C   UNL     1      22.101  23.533  37.677  1.00  0.00     0.099 C 
ATOM     23  C   UNL     1      23.515  23.043  39.654  1.00  0.00     0.099 C 
ATOM     24  C   UNL     1      21.002  23.445  38.752  1.00  0.00     0.100 C 
ATOM     25  C   UNL     1      22.674  24.025  40.490  1.00  0.00     0.100 C 
ENDBRANCH  18  19
ENDBRANCH  13  18
ENDBRANCH   9  12
ENDBRANCH   1   8
BRANCH   3  26
ATOM     26  N   UNL     1      10.256  28.594  41.504  1.00  0.00    -0.324 N 
ATOM     27  H   UNL     1       9.699  27.842  41.969  1.00  0.00     0.170 HD
BRANCH  26  28
ATOM     28  C   UNL     1       9.667  29.238  40.364  1.00  0.00     0.227 A 
ATOM     29  N   UNL     1       9.508  28.541  39.208  1.00  0.00    -0.221 NA
ATOM     30  N   UNL     1       9.243  30.529  40.434  1.00  0.00    -0.213 NA
ATOM     31  C   UNL     1       8.946  29.118  38.115  1.00  0.00     0.117 A 
ATOM     32  C   UNL     1       8.689  31.160  39.363  1.00  0.00     0.077 A 
ATOM     33  C   UNL     1       8.524  30.446  38.166  1.00  0.00     0.049 A 
BRANCH  32  34
ATOM     34  C   UNL     1       8.283  32.582  39.491  1.00  0.00     0.019 A 
ATOM     35  C   UNL     1       8.662  33.361  40.600  1.00  0.00     0.121 A 
ATOM     36  C   UNL     1       7.460  33.171  38.516  1.00  0.00     0.013 A 
ATOM     37  N   UNL     1       8.238  34.648  40.712  1.00  0.00    -0.264 NA
ATOM     38  C   UNL     1       7.042  34.496  38.655  1.00  0.00     0.021 A 
ATOM     39  C   UNL     1       7.446  35.226  39.771  1.00  0.00     0.111 A 
ENDBRANCH  32  34
ENDBRANCH  26  28
ENDBRANCH   3  26
TORSDOF 7
ENDMDL
MODEL 4
REMARK VINA RESULT:   -10.267      5.065     10.112
REMARK INTER + INTRA:         -14.627
REMARK INTER:                 -14.393
REMARK INTRA:                  -0.234
REMARK UNBOUND:                -0.159
REMARK SMILES Cc1ccc(NC(=O)c2ccc(CN3CCN(C)CC3)cc2)cc1Nc1nccc(-c2cccnc2)n1
REMARK SMILES IDX 5 1 23 2 24 3 2 4 1 5 3 6 4 7 6 8 7 9 8 10 9 12 12 13 11 14
REMARK SMILES IDX 21 15 10 16 22 17 13 18 14 19 18 20 17 21 16 22 19 23 15 24
REMARK SMILES IDX 20 25 25 26 26 28 27 29 37 30 28 31 30 32 29 33 31 34 36 35
REMARK SMILES IDX 32 36 35 37 33 38 34 39
REMARK H PARENT 6 11 25 27
REMARK Flexibility Score: inf
ROOT
ATOM      1  C   UNL     1      15.123  26.774  41.201  1.00  0.00     0.043 A 
ATOM      2  C   UNL     1      14.007  26.035  40.777  1.00  0.00     0.052 A 
ATOM      3  C   UNL     1      12.700  26.502  41.006  1.00  0.00     0.046 A 
ATOM      4  C   UNL     1      12.514  27.708  41.720  1.00  0.00    -0.027 A 
ATOM      5  C   UNL     1      11.135  28.237  42.008  1.00  0.00     0.046 C 
ATOM      6  C   UNL     1      13.634  28.416  42.186  1.00  0.00     0.008 A 
ATOM      7  C   UNL     1      14.925  27.954  41.927  1.00  0.00     0.026 A 
ENDROOT
BRANCH   1   8
ATOM      8  N   UNL     1      16.461  26.315  40.948  1.00  0.00    -0.322 N 
ATOM      9  C   UNL     1      17.591  27.197  40.829  1.00  0.00     0.255 C 
ATOM     10  O   UNL     1      17.497  28.391  41.224  1.00  0.00    -0.269 OA
ATOM     11  H   UNL     1      16.643  25.287  41.005  1.00  0.00     0.170 HD
BRANCH   9  12
ATOM     12  C   UNL     1      18.885  26.710  40.298  1.00  0.00     0.040 A 
ATOM     13  C   UNL     1      21.340  25.765  39.283  1.00  0.00    -0.034 A 
ATOM     14  C   UNL     1      21.163  27.131  39.551  1.00  0.00     0.006 A 
ATOM     15  C   UNL     1      20.289  24.872  39.537  1.00  0.00     0.006 A 
ATOM     16  C   UNL     1      19.945  27.600  40.052  1.00  0.00     0.014 A 
ATOM     17  C   UNL     1      19.075  25.339  40.047  1.00  0.00     0.014 A 
BRANCH  13  18
ATOM     18  C   UNL     1      22.658  25.268  38.747  1.00  0.00     0.120 C 
BRANCH  18  19
ATOM     19  N   UNL     1      22.817  23.820  39.005  1.00  0.00    -0.297 NA
ATOM     20  C   UNL     1      26.113  23.896  37.419  1.00  0.00     0.105 C 
ATOM     21  N   UNL     1      25.159  22.791  37.617  1.00  0.00    -0.304 NA
ATOM     22  C   UNL     1      23.888  23.019  36.884  1.00  0.00     0.099 C 
ATOM     23  C   UNL     1      24.972  22.483  39.049  1.00  0.00     0.099 C 
ATOM     24  C   UNL     1      22.641  22.998  37.787  1.00  0.00     0.100 C 
ATOM     25  C   UNL     1      24.068  23.514  39.749  1.00  0.00     0.100 C 
ENDBRANCH  18  19
ENDBRANCH  13  18
ENDBRANCH   9  12
ENDBRANCH   1   8
BRANCH   3  26
ATOM     26  N   UNL     1      11.565  25.726  40.575  1.00  0.00    -0.324 N 
ATOM     27  H   UNL     1      10.772  26.216  40.104  1.00  0.00     0.170 HD
BRANCH  26  28
ATOM     28  C   UNL     1      11.472  24.299  40.704  1.00  0.00     0.227 A 
ATOM     29  N   UNL     1      10.640  23.762  41.636  1.00  0.00    -0.221 NA
ATOM     30  N   UNL     1      12.187  23.477  39.889  1.00  0.00    -0.213 NA
ATOM     31  C   UNL     1      10.523  22.418  41.777  1.00  0.00     0.117 A 
ATOM     32  C   UNL     1      12.119  22.122  40.000  1.00  0.00     0.077 A 
ATOM     33  C   UNL     1      11.263  21.563  40.961  1.00  0.00     0.049 A 
BRANCH  32  34
ATOM     34  C   UNL     1      12.955  21.280  39.107  1.00  0.00     0.019 A 
ATOM     35  C   UNL     1      13.367  19.989  39.486  1.00  0.00     0.121 A 
ATOM     36  C   UNL     1      13.396  21.783  37.872  1.00  0.00     0.013 A 
ATOM     37  N   UNL     1      14.170  19.257  38.666  1.00  0.00    -0.264 NA
ATOM     38  C   UNL     1      14.217  21.009  37.050  1.00  0.00     0.021 A 
ATOM     39  C   UNL     1      14.596  19.735  37.468  1.00  0.00     0.111 A 
ENDBRANCH  32  34
ENDBRANCH  26  28
ENDBRANCH   3  26
TORSDOF 7
ENDMDL
MODEL 5
REMARK VINA RESULT:   -10.248      6.755     12.820
REMARK INTER + INTRA:         -14.601
REMARK INTER:                 -14.778
REMARK INTRA:                   0.177
REMARK UNBOUND:                -0.159
REMARK SMILES Cc1ccc(NC(=O)c2ccc(CN3CCN(C)CC3)cc2)cc1Nc1nccc(-c2cccnc2)n1
REMARK SMILES IDX 5 1 23 2 24 3 2 4 1 5 3 6 4 7 6 8 7 9 8 10 9 12 12 13 11 14
REMARK SMILES IDX 21 15 10 16 22 17 13 18 14 19 18 20 17 21 16 22 19 23 15 24
REMARK SMILES IDX 20 25 25 26 26 28 27 29 37 30 28 31 30 32 29 33 31 34 36 35
REMARK SMILES IDX 32 36 35 37 33 38 34 39
REMARK H PARENT 6 11 25 27
REMARK Flexibility Score: inf
ROOT
ATOM      1  C   UNL     1      14.796  25.009  40.519  1.00  0.00     0.043 A 
ATOM      2  C   UNL     1      16.006  25.574  40.955  1.00  0.00     0.052 A 
ATOM      3  C   UNL     1      16.051  26.885  41.464  1.00  0.00     0.046 A 
ATOM      4  C   UNL     1      14.866  27.657  41.486  1.00  0.00    -0.027 A 
ATOM      5  C   UNL     1      14.869  29.071  42.001  1.00  0.00     0.046 C 
ATOM      6  C   UNL     1      13.671  27.103  41.001  1.00  0.00     0.008 A 
ATOM      7  C   UNL     1      13.636  25.792  40.524  1.00  0.00     0.026 A 
ENDROOT
BRANCH   1   8
ATOM      8  N   UNL     1      14.740  23.663  40.021  1.00  0.00    -0.322 N 
ATOM      9  C   UNL     1      13.622  23.138  39.283  1.00  0.00     0.255 C 
ATOM     10  O   UNL     1      12.766  23.928  38.800  1.00  0.00    -0.269 OA
ATOM     11  H   UNL     1      15.613  23.089  40.065  1.00  0.00     0.170 HD
BRANCH   9  12
ATOM     12  C   UNL     1      13.488  21.685  39.035  1.00  0.00     0.040 A 
ATOM     13  C   UNL     1      13.221  18.915  38.577  1.00  0.00    -0.034 A 
ATOM     14  C   UNL     1      13.761  19.748  37.586  1.00  0.00     0.006 A 
ATOM     15  C   UNL     1      12.827  19.471  39.803  1.00  0.00     0.006 A 
ATOM     16  C   UNL     1      13.891  21.122  37.811  1.00  0.00     0.014 A 
ATOM     17  C   UNL     1      12.966  20.842  40.033  1.00  0.00     0.014 A 
BRANCH  13  18
ATOM     18  C   UNL     1      13.089  17.435  38.326  1.00  0.00     0.120 C 
BRANCH  18  19
ATOM     19  N   UNL     1      11.848  17.138  37.576  1.00  0.00    -0.297 NA
ATOM     20  C   UNL     1       9.954  17.124  40.707  1.00  0.00     0.105 C 
ATOM     21  N   UNL     1       9.684  16.482  39.410  1.00  0.00    -0.304 NA
ATOM     22  C   UNL     1      10.715  15.470  39.067  1.00  0.00     0.099 C 
ATOM     23  C   UNL     1       9.455  17.479  38.344  1.00  0.00     0.099 C 
ATOM     24  C   UNL     1      11.415  15.730  37.720  1.00  0.00     0.100 C 
ATOM     25  C   UNL     1      10.769  18.121  37.860  1.00  0.00     0.100 C 
ENDBRANCH  18  19
ENDBRANCH  13  18
ENDBRANCH   9  12
ENDBRANCH   1   8
BRANCH   3  26
ATOM     26  N   UNL     1      17.302  27.455  41.895  1.00  0.00    -0.324 N 
ATOM     27  H   UNL     1      17.372  27.833  42.867  1.00  0.00     0.170 HD
BRANCH  26  28
ATOM     28  C   UNL     1      18.489  27.491  41.089  1.00  0.00     0.227 A 
ATOM     29  N   UNL     1      19.030  28.689  40.745  1.00  0.00    -0.221 NA
ATOM     30  N   UNL     1      19.093  26.341  40.684  1.00  0.00    -0.213 NA
ATOM     31  C   UNL     1      20.157  28.758  39.992  1.00  0.00     0.117 A 
ATOM     32  C   UNL     1      20.214  26.353  39.913  1.00  0.00     0.077 A 
ATOM     33  C   UNL     1      20.776  27.588  39.554  1.00  0.00     0.049 A 
BRANCH  32  34
ATOM     34  C   UNL     1      20.803  25.064  39.471  1.00  0.00     0.019 A 
ATOM     35  C   UNL     1      21.879  24.471  40.157  1.00  0.00     0.121 A 
ATOM     36  C   UNL     1      20.322  24.429  38.314  1.00  0.00     0.013 A 
ATOM     37  N   UNL     1      22.427  23.312  39.702  1.00  0.00    -0.264 NA
ATOM     38  C   UNL     1      20.902  23.239  37.871  1.00  0.00     0.021 A 
ATOM     39  C   UNL     1      21.964  22.689  38.587  1.00  0.00     0.111 A 
ENDBRANCH  32  34
ENDBRANCH  26  28
ENDBRANCH   3  26
TORSDOF 7
ENDMDL
MODEL 6
REMARK VINA RESULT:   -10.242      3.080      6.167
REMARK INTER + INTRA:         -14.592
REMARK INTER:                 -13.691
REMARK INTRA:                  -0.901
REMARK UNBOUND:                -0.159
REMARK SMILES Cc1ccc(NC(=O)c2ccc(CN3CCN(C)CC3)cc2)cc1Nc1nccc(-c2cccnc2)n1
REMARK SMILES IDX 5 1 23 2 24 3 2 4 1 5 3 6 4 7 6 8 7 9 8 10 9 12 12 13 11 14
REMARK SMILES IDX 21 15 10 16 22 17 13 18 14 19 18 20 17 21 16 22 19 23 15 24
REMARK SMILES IDX 20 25 25 26 26 28 27 29 37 30 28 31 30 32 29 33 31 34 36 35
REMARK SMILES IDX 32 36 35 37 33 38 34 39
REMARK H PARENT 6 11 25 27
REMARK Flexibility Score: inf
ROOT
ATOM      1  C   UNL     1      19.725  25.852  39.587  1.00  0.00     0.043 A 
ATOM      2  C   UNL     1      18.572  25.269  40.137  1.00  0.00     0.052 A 
ATOM      3  C   UNL     1      17.623  26.050  40.822  1.00  0.00     0.046 A 
ATOM      4  C   UNL     1      17.865  27.432  40.998  1.00  0.00    -0.027 A 
ATOM      5  C   UNL     1      16.889  28.303  41.741  1.00  0.00     0.046 C 
ATOM      6  C   UNL     1      19.045  27.998  40.490  1.00  0.00     0.008 A 
ATOM      7  C   UNL     1      19.964  27.216  39.789  1.00  0.00     0.026 A 
ENDROOT
BRANCH   1   8
ATOM      8  N   UNL     1      20.686  25.064  38.866  1.00  0.00    -0.322 N 
ATOM      9  C   UNL     1      21.926  24.610  39.439  1.00  0.00     0.255 C 
ATOM     10  O   UNL     1      22.089  24.649  40.689  1.00  0.00    -0.269 OA
ATOM     11  H   UNL     1      20.402  24.676  37.938  1.00  0.00     0.170 HD
BRANCH   9  12
ATOM     12  C   UNL     1      22.997  24.045  38.586  1.00  0.00     0.040 A 
ATOM     13  C   UNL     1      25.028  22.979  36.947  1.00  0.00    -0.034 A 
ATOM     14  C   UNL     1      25.175  22.987  38.342  1.00  0.00     0.006 A 
ATOM     15  C   UNL     1      23.856  23.494  36.376  1.00  0.00     0.006 A 
ATOM     16  C   UNL     1      24.170  23.518  39.155  1.00  0.00     0.014 A 
ATOM     17  C   UNL     1      22.846  24.016  37.188  1.00  0.00     0.014 A 
BRANCH  13  18
ATOM     18  C   UNL     1      26.116  22.401  36.079  1.00  0.00     0.120 C 
BRANCH  18  19
ATOM     19  N   UNL     1      25.564  21.927  34.790  1.00  0.00    -0.297 NA
ATOM     20  C   UNL     1      28.900  20.840  33.754  1.00  0.00     0.105 C 
ATOM     21  N   UNL     1      27.714  21.210  32.964  1.00  0.00    -0.304 NA
ATOM     22  C   UNL     1      27.336  22.632  33.163  1.00  0.00     0.099 C 
ATOM     23  C   UNL     1      26.599  20.265  33.179  1.00  0.00     0.099 C 
ATOM     24  C   UNL     1      25.892  22.826  33.661  1.00  0.00     0.100 C 
ATOM     25  C   UNL     1      25.892  20.501  34.526  1.00  0.00     0.100 C 
ENDBRANCH  18  19
ENDBRANCH  13  18
ENDBRANCH   9  12
ENDBRANCH   1   8
BRANCH   3  26
ATOM     26  N   UNL     1      16.451  25.435  41.391  1.00  0.00    -0.324 N 
ATOM     27  H   UNL     1      16.480  25.130  42.389  1.00  0.00     0.170 HD
BRANCH  26  28
ATOM     28  C   UNL     1      15.212  25.259  40.686  1.00  0.00     0.227 A 
ATOM     29  N   UNL     1      14.323  26.286  40.626  1.00  0.00    -0.221 NA
ATOM     30  N   UNL     1      14.929  24.087  40.055  1.00  0.00    -0.213 NA
ATOM     31  C   UNL     1      13.148  26.155  39.959  1.00  0.00     0.117 A 
ATOM     32  C   UNL     1      13.758  23.898  39.388  1.00  0.00     0.077 A 
ATOM     33  C   UNL     1      12.836  24.954  39.324  1.00  0.00     0.049 A 
BRANCH  32  34
ATOM     34  C   UNL     1      13.490  22.582  38.755  1.00  0.00     0.019 A 
ATOM     35  C   UNL     1      12.903  21.524  39.473  1.00  0.00     0.121 A 
ATOM     36  C   UNL     1      13.869  22.350  37.422  1.00  0.00     0.013 A 
ATOM     37  N   UNL     1      12.710  20.315  38.879  1.00  0.00    -0.264 NA
ATOM     38  C   UNL     1      13.657  21.101  36.837  1.00  0.00     0.021 A 
ATOM     39  C   UNL     1      13.069  20.085  37.590  1.00  0.00     0.111 A 
ENDBRANCH  32  34
ENDBRANCH  26  28
ENDBRANCH   3  26
TORSDOF 7
ENDMDL
MODEL 7
REMARK VINA RESULT:   -10.157      5.834     11.442
REMARK INTER + INTRA:         -14.472
REMARK INTER:                 -13.862
REMARK INTRA:                  -0.611
REMARK UNBOUND:                -0.159
REMARK SMILES Cc1ccc(NC(=O)c2ccc(CN3CCN(C)CC3)cc2)cc1Nc1nccc(-c2cccnc2)n1
REMARK SMILES IDX 5 1 23 2 24 3 2 4 1 5 3 6 4 7 6 8 7 9 8 10 9 12 12 13 11 14
REMARK SMILES IDX 21 15 10 16 22 17 13 18 14 19 18 20 17 21 16 22 19 23 15 24
REMARK SMILES IDX 20 25 25 26 26 28 27 29 37 30 28 31 30 32 29 33 31 34 36 35
REMARK SMILES IDX 32 36 35 37 33 38 34 39
REMARK H PARENT 6 11 25 27
REMARK Flexibility Score: inf
ROOT
ATOM      1  C   UNL     1      13.347  26.130  41.610  1.00  0.00     0.043 A 
ATOM      2  C   UNL     1      12.473  25.699  40.599  1.00  0.00     0.052 A 
ATOM      3  C   UNL     1      11.089  25.941  40.687  1.00  0.00     0.046 A 
ATOM      4  C   UNL     1      10.574  26.583  41.837  1.00  0.00    -0.027 A 
ATOM      5  C   UNL     1       9.099  26.845  41.985  1.00  0.00     0.046 C 
ATOM      6  C   UNL     1      11.448  26.964  42.867  1.00  0.00     0.008 A 
ATOM      7  C   UNL     1      12.820  26.742  42.753  1.00  0.00     0.026 A 
ENDROOT
BRANCH   1   8
ATOM      8  N   UNL     1      14.763  25.907  41.515  1.00  0.00    -0.322 N 
ATOM      9  C   UNL     1      15.709  26.948  41.211  1.00  0.00     0.255 C 
ATOM     10  O   UNL     1      15.357  28.156  41.295  1.00  0.00    -0.269 OA
ATOM     11  H   UNL     1      15.135  24.982  41.830  1.00  0.00     0.170 HD
BRANCH   9  12
ATOM     12  C   UNL     1      17.109  26.624  40.852  1.00  0.00     0.040 A 
ATOM     13  C   UNL     1      19.769  25.989  40.166  1.00  0.00    -0.034 A 
ATOM     14  C   UNL     1      19.347  27.326  40.202  1.00  0.00     0.006 A 
ATOM     15  C   UNL     1      18.859  24.971  40.489  1.00  0.00     0.006 A 
ATOM     16  C   UNL     1      18.027  27.641  40.539  1.00  0.00     0.014 A 
ATOM     17  C   UNL     1      17.543  25.286  40.835  1.00  0.00     0.014 A 
BRANCH  13  18
ATOM     18  C   UNL     1      21.194  25.659  39.806  1.00  0.00     0.120 C 
BRANCH  18  19
ATOM     19  N   UNL     1      21.461  24.214  39.986  1.00  0.00    -0.297 NA
ATOM     20  C   UNL     1      24.452  24.501  37.898  1.00  0.00     0.105 C 
ATOM     21  N   UNL     1      23.595  23.344  38.208  1.00  0.00    -0.304 NA
ATOM     22  C   UNL     1      22.213  23.524  37.696  1.00  0.00     0.099 C 
ATOM     23  C   UNL     1      23.655  22.989  39.641  1.00  0.00     0.099 C 
ATOM     24  C   UNL     1      21.130  23.416  38.785  1.00  0.00     0.100 C 
ATOM     25  C   UNL     1      22.828  23.955  40.511  1.00  0.00     0.100 C 
ENDBRANCH  18  19
ENDBRANCH  13  18
ENDBRANCH   9  12
ENDBRANCH   1   8
BRANCH   3  26
ATOM     26  N   UNL     1      10.204  25.483  39.647  1.00  0.00    -0.324 N 
ATOM     27  H   UNL     1       9.634  26.187  39.127  1.00  0.00     0.170 HD
BRANCH  26  28
ATOM     28  C   UNL     1      10.089  24.111  39.237  1.00  0.00     0.227 A 
ATOM     29  N   UNL     1       8.864  23.523  39.201  1.00  0.00    -0.221 NA
ATOM     30  N   UNL     1      11.187  23.401  38.861  1.00  0.00    -0.213 NA
ATOM     31  C   UNL     1       8.720  22.232  38.809  1.00  0.00     0.117 A 
ATOM     32  C   UNL     1      11.101  22.099  38.477  1.00  0.00     0.077 A 
ATOM     33  C   UNL     1       9.839  21.486  38.439  1.00  0.00     0.049 A 
BRANCH  32  34
ATOM     34  C   UNL     1      12.341  21.366  38.117  1.00  0.00     0.019 A 
ATOM     35  C   UNL     1      12.745  21.216  36.777  1.00  0.00     0.121 A 
ATOM     36  C   UNL     1      13.117  20.759  39.117  1.00  0.00     0.013 A 
ATOM     37  N   UNL     1      13.863  20.501  36.475  1.00  0.00    -0.264 NA
ATOM     38  C   UNL     1      14.261  20.033  38.779  1.00  0.00     0.021 A 
ATOM     39  C   UNL     1      14.621  19.915  37.437  1.00  0.00     0.111 A 
ENDBRANCH  32  34
ENDBRANCH  26  28
ENDBRANCH   3  26
TORSDOF 7
ENDMDL
MODEL 8
REMARK VINA RESULT:   -10.113      2.304      5.485
REMARK INTER + INTRA:         -14.410
REMARK INTER:                 -13.911
REMARK INTRA:                  -0.499
REMARK UNBOUND:                -0.159
REMARK SMILES Cc1ccc(NC(=O)c2ccc(CN3CCN(C)CC3)cc2)cc1Nc1nccc(-c2cccnc2)n1
REMARK SMILES IDX 5 1 23 2 24 3 2 4 1 5 3 6 4 7 6 8 7 9 8 10 9 12 12 13 11 14
REMARK SMILES IDX 21 15 10 16 22 17 13 18 14 19 18 20 17 21 16 22 19 23 15 24
REMARK SMILES IDX 20 25 25 26 26 28 27 29 37 30 28 31 30 32 29 33 31 34 36 35
REMARK SMILES IDX 32 36 35 37 33 38 34 39
REMARK H PARENT 6 11 25 27
REMARK Flexibility Score: inf
ROOT
ATOM      1  C   UNL     1      20.099  25.822  39.477  1.00  0.00     0.043 A 
ATOM      2  C   UNL     1      18.944  25.245  40.030  1.00  0.00     0.052 A 
ATOM      3  C   UNL     1      18.026  26.023  40.760  1.00  0.00     0.046 A 
ATOM      4  C   UNL     1      18.303  27.392  40.980  1.00  0.00    -0.027 A 
ATOM      5  C   UNL     1      17.363  28.258  41.772  1.00  0.00     0.046 C 
ATOM      6  C   UNL     1      19.486  27.949  40.467  1.00  0.00     0.008 A 
ATOM      7  C   UNL     1      20.373  27.172  39.722  1.00  0.00     0.026 A 
ENDROOT
BRANCH   1   8
ATOM      8  N   UNL     1      21.027  25.038  38.709  1.00  0.00    -0.322 N 
ATOM      9  C   UNL     1      22.221  24.458  39.265  1.00  0.00     0.255 C 
ATOM     10  O   UNL     1      22.354  24.379  40.516  1.00  0.00    -0.269 OA
ATOM     11  H   UNL     1      20.743  24.750  37.745  1.00  0.00     0.170 HD
BRANCH   9  12
ATOM     12  C   UNL     1      23.276  23.901  38.388  1.00  0.00     0.040 A 
ATOM     13  C   UNL     1      25.277  22.849  36.702  1.00  0.00    -0.034 A 
ATOM     14  C   UNL     1      25.484  22.921  38.087  1.00  0.00     0.006 A 
ATOM     15  C   UNL     1      24.059  23.292  36.165  1.00  0.00     0.006 A 
ATOM     16  C   UNL     1      24.494  23.446  38.923  1.00  0.00     0.014 A 
ATOM     17  C   UNL     1      23.066  23.808  37.000  1.00  0.00     0.014 A 
BRANCH  13  18
ATOM     18  C   UNL     1      26.348  22.278  35.809  1.00  0.00     0.120 C 
BRANCH  18  19
ATOM     19  N   UNL     1      25.756  21.687  34.589  1.00  0.00    -0.297 NA
ATOM     20  C   UNL     1      29.085  20.673  33.458  1.00  0.00     0.105 C 
ATOM     21  N   UNL     1      27.844  20.931  32.708  1.00  0.00    -0.304 NA
ATOM     22  C   UNL     1      27.410  22.346  32.824  1.00  0.00     0.099 C 
ATOM     23  C   UNL     1      26.788  19.957  33.048  1.00  0.00     0.099 C 
ATOM     24  C   UNL     1      25.985  22.513  33.382  1.00  0.00     0.100 C 
ATOM     25  C   UNL     1      26.138  20.261  34.411  1.00  0.00     0.100 C 
ENDBRANCH  18  19
ENDBRANCH  13  18
ENDBRANCH   9  12
ENDBRANCH   1   8
BRANCH   3  26
ATOM     26  N   UNL     1      16.851  25.415  41.332  1.00  0.00    -0.324 N 
ATOM     27  H   UNL     1      16.965  24.782  42.155  1.00  0.00     0.170 HD
BRANCH  26  28
ATOM     28  C   UNL     1      15.514  25.665  40.874  1.00  0.00     0.227 A 
ATOM     29  N   UNL     1      14.963  24.849  39.936  1.00  0.00    -0.221 NA
ATOM     30  N   UNL     1      14.782  26.692  41.384  1.00  0.00    -0.213 NA
ATOM     31  C   UNL     1      13.697  25.052  39.489  1.00  0.00     0.117 A 
ATOM     32  C   UNL     1      13.515  26.951  40.958  1.00  0.00     0.077 A 
ATOM     33  C   UNL     1      12.942  26.113  39.989  1.00  0.00     0.049 A 
BRANCH  32  34
ATOM     34  C   UNL     1      12.784  28.111  41.525  1.00  0.00     0.019 A 
ATOM     35  C   UNL     1      11.629  28.628  40.907  1.00  0.00     0.121 A 
ATOM     36  C   UNL     1      13.265  28.755  42.677  1.00  0.00     0.013 A 
ATOM     37  N   UNL     1      11.005  29.720  41.425  1.00  0.00    -0.264 NA
ATOM     38  C   UNL     1      12.603  29.873  43.188  1.00  0.00     0.021 A 
ATOM     39  C   UNL     1      11.462  30.345  42.541  1.00  0.00     0.111 A 
ENDBRANCH  32  34
ENDBRANCH  26  28
ENDBRANCH   3  26
TORSDOF 7
ENDMDL
MODEL 9
REMARK VINA RESULT:   -10.091      5.945     11.696
REMARK INTER + INTRA:         -14.379
REMARK INTER:                 -13.419
REMARK INTRA:                  -0.960
REMARK UNBOUND:                -0.159
REMARK SMILES Cc1ccc(NC(=O)c2ccc(CN3CCN(C)CC3)cc2)cc1Nc1nccc(-c2cccnc2)n1
REMARK SMILES IDX 5 1 23 2 24 3 2 4 1 5 3 6 4 7 6 8 7 9 8 10 9 12 12 13 11 14
REMARK SMILES IDX 21 15 10 16 22 17 13 18 14 19 18 20 17 21 16 22 19 23 15 24
REMARK SMILES IDX 20 25 25 26 26 28 27 29 37 30 28 31 30 32 29 33 31 34 36 35
REMARK SMILES IDX 32 36 35 37 33 38 34 39
REMARK H PARENT 6 11 25 27
REMARK Flexibility Score: inf
ROOT
ATOM      1  C   UNL     1      14.197  29.344  42.516  1.00  0.00     0.043 A 
ATOM      2  C   UNL     1      13.141  29.953  41.818  1.00  0.00     0.052 A 
ATOM      3  C   UNL     1      11.980  30.380  42.489  1.00  0.00     0.046 A 
ATOM      4  C   UNL     1      11.861  30.143  43.878  1.00  0.00    -0.027 A 
ATOM      5  C   UNL     1      10.630  30.563  44.635  1.00  0.00     0.046 C 
ATOM      6  C   UNL     1      12.899  29.488  44.560  1.00  0.00     0.008 A 
ATOM      7  C   UNL     1      14.055  29.095  43.886  1.00  0.00     0.026 A 
ENDROOT
BRANCH   1   8
ATOM      8  N   UNL     1      15.394  28.928  41.840  1.00  0.00    -0.322 N 
ATOM      9  C   UNL     1      15.629  27.576  41.407  1.00  0.00     0.255 C 
ATOM     10  O   UNL     1      14.668  26.761  41.353  1.00  0.00    -0.269 OA
ATOM     11  H   UNL     1      16.054  29.670  41.514  1.00  0.00     0.170 HD
BRANCH   9  12
ATOM     12  C   UNL     1      16.975  27.139  40.970  1.00  0.00     0.040 A 
ATOM     13  C   UNL     1      19.544  26.326  40.141  1.00  0.00    -0.034 A 
ATOM     14  C   UNL     1      18.552  25.371  40.413  1.00  0.00     0.006 A 
ATOM     15  C   UNL     1      19.242  27.689  40.273  1.00  0.00     0.006 A 
ATOM     16  C   UNL     1      17.279  25.774  40.826  1.00  0.00     0.014 A 
ATOM     17  C   UNL     1      17.967  28.093  40.676  1.00  0.00     0.014 A 
BRANCH  13  18
ATOM     18  C   UNL     1      20.913  25.882  39.692  1.00  0.00     0.120 C 
BRANCH  18  19
ATOM     19  N   UNL     1      21.103  24.435  39.938  1.00  0.00    -0.297 NA
ATOM     20  C   UNL     1      24.144  24.485  37.904  1.00  0.00     0.105 C 
ATOM     21  N   UNL     1      23.224  23.386  38.243  1.00  0.00    -0.304 NA
ATOM     22  C   UNL     1      21.863  23.612  37.695  1.00  0.00     0.099 C 
ATOM     23  C   UNL     1      23.238  23.090  39.691  1.00  0.00     0.099 C 
ATOM     24  C   UNL     1      20.755  23.604  38.764  1.00  0.00     0.100 C 
ATOM     25  C   UNL     1      22.445  24.131  40.502  1.00  0.00     0.100 C 
ENDBRANCH  18  19
ENDBRANCH  13  18
ENDBRANCH   9  12
ENDBRANCH   1   8
BRANCH   3  26
ATOM     26  N   UNL     1      10.901  30.992  41.757  1.00  0.00    -0.324 N 
ATOM     27  H   UNL     1      10.690  32.001  41.925  1.00  0.00     0.170 HD
BRANCH  26  28
ATOM     28  C   UNL     1      10.120  30.314  40.761  1.00  0.00     0.227 A 
ATOM     29  N   UNL     1       9.373  31.038  39.886  1.00  0.00    -0.221 NA
ATOM     30  N   UNL     1      10.137  28.957  40.666  1.00  0.00    -0.213 NA
ATOM     31  C   UNL     1       8.632  30.428  38.927  1.00  0.00     0.117 A 
ATOM     32  C   UNL     1       9.399  28.294  39.734  1.00  0.00     0.077 A 
ATOM     33  C   UNL     1       8.625  29.037  38.830  1.00  0.00     0.049 A 
BRANCH  32  34
ATOM     34  C   UNL     1       9.429  26.810  39.708  1.00  0.00     0.019 A 
ATOM     35  C   UNL     1      10.414  26.105  38.991  1.00  0.00     0.121 A 
ATOM     36  C   UNL     1       8.431  26.072  40.366  1.00  0.00     0.013 A 
ATOM     37  N   UNL     1      10.390  24.746  38.948  1.00  0.00    -0.264 NA
ATOM     38  C   UNL     1       8.432  24.677  40.308  1.00  0.00     0.021 A 
ATOM     39  C   UNL     1       9.432  24.025  39.587  1.00  0.00     0.111 A 
ENDBRANCH  32  34
ENDBRANCH  26  28
ENDBRANCH   3  26
TORSDOF 7
ENDMDL
MODEL 10
REMARK VINA RESULT:    -9.850      6.269     11.717
REMARK INTER + INTRA:         -14.040
REMARK INTER:                 -13.492
REMARK INTRA:                  -0.548
REMARK UNBOUND:                -0.159
REMARK SMILES Cc1ccc(NC(=O)c2ccc(CN3CCN(C)CC3)cc2)cc1Nc1nccc(-c2cccnc2)n1
REMARK SMILES IDX 5 1 23 2 24 3 2 4 1 5 3 6 4 7 6 8 7 9 8 10 9 12 12 13 11 14
REMARK SMILES IDX 21 15 10 16 22 17 13 18 14 19 18 20 17 21 16 22 19 23 15 24
REMARK SMILES IDX 20 25 25 26 26 28 27 29 37 30 28 31 30 32 29 33 31 34 36 35
REMARK SMILES IDX 32 36 35 37 33 38 34 39
REMARK H PARENT 6 11 25 27
REMARK Flexibility Score: inf
ROOT
ATOM      1  C   UNL     1      13.142  26.288  41.768  1.00  0.00     0.043 A 
ATOM      2  C   UNL     1      12.339  26.698  40.692  1.00  0.00     0.052 A 
ATOM      3  C   UNL     1      10.966  26.952  40.869  1.00  0.00     0.046 A 
ATOM      4  C   UNL     1      10.384  26.738  42.139  1.00  0.00    -0.027 A 
ATOM      5  C   UNL     1       8.916  26.975  42.372  1.00  0.00     0.046 C 
ATOM      6  C   UNL     1      11.183  26.278  43.198  1.00  0.00     0.008 A 
ATOM      7  C   UNL     1      12.548  26.058  43.015  1.00  0.00     0.026 A 
ENDROOT
BRANCH   1   8
ATOM      8  N   UNL     1      14.549  26.052  41.599  1.00  0.00    -0.322 N 
ATOM      9  C   UNL     1      15.516  27.107  41.449  1.00  0.00     0.255 C 
ATOM     10  O   UNL     1      15.199  28.292  41.742  1.00  0.00    -0.269 OA
ATOM     11  H   UNL     1      14.902  25.079  41.746  1.00  0.00     0.170 HD
BRANCH   9  12
ATOM     12  C   UNL     1      16.898  26.816  41.004  1.00  0.00     0.040 A 
ATOM     13  C   UNL     1      19.525  26.242  40.154  1.00  0.00    -0.034 A 
ATOM     14  C   UNL     1      19.109  27.572  40.322  1.00  0.00     0.006 A 
ATOM     15  C   UNL     1      18.625  25.201  40.425  1.00  0.00     0.006 A 
ATOM     16  C   UNL     1      17.806  27.856  40.741  1.00  0.00     0.014 A 
ATOM     17  C   UNL     1      17.326  25.484  40.853  1.00  0.00     0.014 A 
BRANCH  13  18
ATOM     18  C   UNL     1      20.932  25.945  39.706  1.00  0.00     0.120 C 
BRANCH  18  19
ATOM     19  N   UNL     1      20.934  24.978  38.585  1.00  0.00    -0.297 NA
ATOM     20  C   UNL     1      23.678  23.145  40.165  1.00  0.00     0.105 C 
ATOM     21  N   UNL     1      23.251  23.225  38.758  1.00  0.00    -0.304 NA
ATOM     22  C   UNL     1      23.385  24.601  38.215  1.00  0.00     0.099 C 
ATOM     23  C   UNL     1      21.910  22.638  38.561  1.00  0.00     0.099 C 
ATOM     24  C   UNL     1      22.071  25.178  37.658  1.00  0.00     0.100 C 
ATOM     25  C   UNL     1      20.790  23.574  39.052  1.00  0.00     0.100 C 
ENDBRANCH  18  19
ENDBRANCH  13  18
ENDBRANCH   9  12
ENDBRANCH   1   8
BRANCH   3  26
ATOM     26  N   UNL     1      10.153  27.360  39.752  1.00  0.00    -0.324 N 
ATOM     27  H   UNL     1       9.824  26.633  39.078  1.00  0.00     0.170 HD
BRANCH  26  28
ATOM     28  C   UNL     1       9.715  28.709  39.528  1.00  0.00     0.227 A 
ATOM     29  N   UNL     1       8.928  28.990  38.456  1.00  0.00    -0.221 NA
ATOM     30  N   UNL     1      10.058  29.706  40.388  1.00  0.00    -0.213 NA
ATOM     31  C   UNL     1       8.489  30.253  38.222  1.00  0.00     0.117 A 
ATOM     32  C   UNL     1       9.660  30.992  40.191  1.00  0.00     0.077 A 
ATOM     33  C   UNL     1       8.848  31.287  39.085  1.00  0.00     0.049 A 
BRANCH  32  34
ATOM     34  C   UNL     1      10.101  32.042  41.144  1.00  0.00     0.019 A 
ATOM     35  C   UNL     1      10.484  31.727  42.461  1.00  0.00     0.121 A 
ATOM     36  C   UNL     1      10.096  33.392  40.757  1.00  0.00     0.013 A 
ATOM     37  N   UNL     1      10.840  32.715  43.325  1.00  0.00    -0.264 NA
ATOM     38  C   UNL     1      10.470  34.385  41.665  1.00  0.00     0.021 A 
ATOM     39  C   UNL     1      10.844  34.023  42.958  1.00  0.00     0.111 A 
ENDBRANCH  32  34
ENDBRANCH  26  28
ENDBRANCH   3  26
TORSDOF 7
ENDMDL
MODEL 11
REMARK VINA RESULT:    -9.734      5.826     11.538
REMARK INTER + INTRA:         -13.876
REMARK INTER:                 -12.746
REMARK INTRA:                  -1.130
REMARK UNBOUND:                -0.159
REMARK SMILES Cc1ccc(NC(=O)c2ccc(CN3CCN(C)CC3)cc2)cc1Nc1nccc(-c2cccnc2)n1
REMARK SMILES IDX 5 1 23 2 24 3 2 4 1 5 3 6 4 7 6 8 7 9 8 10 9 12 12 13 11 14
REMARK SMILES IDX 21 15 10 16 22 17 13 18 14 19 18 20 17 21 16 22 19 23 15 24
REMARK SMILES IDX 20 25 25 26 26 28 27 29 37 30 28 31 30 32 29 33 31 34 36 35
REMARK SMILES IDX 32 36 35 37 33 38 34 39
REMARK H PARENT 6 11 25 27
REMARK Flexibility Score: inf
ROOT
ATOM      1  C   UNL     1      13.451  27.192  41.776  1.00  0.00     0.043 A 
ATOM      2  C   UNL     1      12.915  27.225  43.074  1.00  0.00     0.052 A 
ATOM      3  C   UNL     1      11.595  27.657  43.301  1.00  0.00     0.046 A 
ATOM      4  C   UNL     1      10.821  28.112  42.208  1.00  0.00    -0.027 A 
ATOM      5  C   UNL     1       9.413  28.604  42.405  1.00  0.00     0.046 C 
ATOM      6  C   UNL     1      11.382  28.125  40.921  1.00  0.00     0.008 A 
ATOM      7  C   UNL     1      12.682  27.667  40.708  1.00  0.00     0.026 A 
ENDROOT
BRANCH   1   8
ATOM      8  N   UNL     1      14.790  26.728  41.535  1.00  0.00    -0.322 N 
ATOM      9  C   UNL     1      15.933  27.601  41.493  1.00  0.00     0.255 C 
ATOM     10  O   UNL     1      15.842  28.773  41.948  1.00  0.00    -0.269 OA
ATOM     11  H   UNL     1      14.958  25.697  41.544  1.00  0.00     0.170 HD
BRANCH   9  12
ATOM     12  C   UNL     1      17.235  27.125  40.973  1.00  0.00     0.040 A 
ATOM     13  C   UNL     1      19.722  26.235  39.985  1.00  0.00    -0.034 A 
ATOM     14  C   UNL     1      18.735  25.309  40.356  1.00  0.00     0.006 A 
ATOM     15  C   UNL     1      19.455  27.607  40.098  1.00  0.00     0.006 A 
ATOM     16  C   UNL     1      17.503  25.750  40.849  1.00  0.00     0.014 A 
ATOM     17  C   UNL     1      18.220  28.049  40.581  1.00  0.00     0.014 A 
BRANCH  13  18
ATOM     18  C   UNL     1      21.045  25.751  39.451  1.00  0.00     0.120 C 
BRANCH  18  19
ATOM     19  N   UNL     1      21.231  24.311  39.736  1.00  0.00    -0.297 NA
ATOM     20  C   UNL     1      24.405  24.357  37.914  1.00  0.00     0.105 C 
ATOM     21  N   UNL     1      23.474  23.254  38.210  1.00  0.00    -0.304 NA
ATOM     22  C   UNL     1      22.152  23.457  37.565  1.00  0.00     0.099 C 
ATOM     23  C   UNL     1      23.391  22.983  39.659  1.00  0.00     0.099 C 
ATOM     24  C   UNL     1      20.973  23.456  38.555  1.00  0.00     0.100 C 
ATOM     25  C   UNL     1      22.534  24.030  40.395  1.00  0.00     0.100 C 
ENDBRANCH  18  19
ENDBRANCH  13  18
ENDBRANCH   9  12
ENDBRANCH   1   8
BRANCH   3  26
ATOM     26  N   UNL     1      11.064  27.697  44.640  1.00  0.00    -0.324 N 
ATOM     27  H   UNL     1      10.265  27.069  44.880  1.00  0.00     0.170 HD
BRANCH  26  28
ATOM     28  C   UNL     1      11.599  28.513  45.693  1.00  0.00     0.227 A 
ATOM     29  N   UNL     1      11.613  28.040  46.967  1.00  0.00    -0.221 NA
ATOM     30  N   UNL     1      12.115  29.744  45.427  1.00  0.00    -0.213 NA
ATOM     31  C   UNL     1      12.121  28.783  47.983  1.00  0.00     0.117 A 
ATOM     32  C   UNL     1      12.621  30.537  46.411  1.00  0.00     0.077 A 
ATOM     33  C   UNL     1      12.636  30.054  47.729  1.00  0.00     0.049 A 
BRANCH  32  34
ATOM     34  C   UNL     1      13.133  31.886  46.064  1.00  0.00     0.019 A 
ATOM     35  C   UNL     1      12.916  32.452  44.794  1.00  0.00     0.121 A 
ATOM     36  C   UNL     1      13.897  32.611  46.993  1.00  0.00     0.013 A 
ATOM     37  N   UNL     1      13.436  33.672  44.489  1.00  0.00    -0.264 NA
ATOM     38  C   UNL     1      14.416  33.862  46.654  1.00  0.00     0.021 A 
ATOM     39  C   UNL     1      14.171  34.382  45.384  1.00  0.00     0.111 A 
ENDBRANCH  32  34
ENDBRANCH  26  28
ENDBRANCH   3  26
TORSDOF 7
ENDMDL
MODEL 12
REMARK VINA RESULT:    -9.644      4.997     10.194
REMARK INTER + INTRA:         -13.749
REMARK INTER:                 -13.198
REMARK INTRA:                  -0.551
REMARK UNBOUND:                -0.159
REMARK SMILES Cc1ccc(NC(=O)c2ccc(CN3CCN(C)CC3)cc2)cc1Nc1nccc(-c2cccnc2)n1
REMARK SMILES IDX 5 1 23 2 24 3 2 4 1 5 3 6 4 7 6 8 7 9 8 10 9 12 12 13 11 14
REMARK SMILES IDX 21 15 10 16 22 17 13 18 14 19 18 20 17 21 16 22 19 23 15 24
REMARK SMILES IDX 20 25 25 26 26 28 27 29 37 30 28 31 30 32 29 33 31 34 36 35
REMARK SMILES IDX 32 36 35 37 33 38 34 39
REMARK H PARENT 6 11 25 27
REMARK Flexibility Score: inf
ROOT
ATOM      1  C   UNL     1      15.597  27.413  41.424  1.00  0.00     0.043 A 
ATOM      2  C   UNL     1      14.447  26.703  41.805  1.00  0.00     0.052 A 
ATOM      3  C   UNL     1      13.298  27.377  42.259  1.00  0.00     0.046 A 
ATOM      4  C   UNL     1      13.328  28.786  42.380  1.00  0.00    -0.027 A 
ATOM      5  C   UNL     1      12.132  29.548  42.881  1.00  0.00     0.046 C 
ATOM      6  C   UNL     1      14.499  29.484  42.046  1.00  0.00     0.008 A 
ATOM      7  C   UNL     1      15.621  28.805  41.570  1.00  0.00     0.026 A 
ENDROOT
BRANCH   1   8
ATOM      8  N   UNL     1      16.765  26.732  40.936  1.00  0.00    -0.322 N 
ATOM      9  C   UNL     1      18.102  27.236  41.102  1.00  0.00     0.255 C 
ATOM     10  O   UNL     1      18.323  28.159  41.933  1.00  0.00    -0.269 OA
ATOM     11  H   UNL     1      16.648  25.756  40.580  1.00  0.00     0.170 HD
BRANCH   9  12
ATOM     12  C   UNL     1      19.236  26.651  40.351  1.00  0.00     0.040 A 
ATOM     13  C   UNL     1      21.383  25.521  38.915  1.00  0.00    -0.034 A 
ATOM     14  C   UNL     1      21.445  26.853  39.350  1.00  0.00     0.006 A 
ATOM     15  C   UNL     1      20.249  24.752  39.213  1.00  0.00     0.006 A 
ATOM     16  C   UNL     1      20.379  27.414  40.059  1.00  0.00     0.014 A 
ATOM     17  C   UNL     1      19.187  25.309  39.930  1.00  0.00     0.014 A 
BRANCH  13  18
ATOM     18  C   UNL     1      22.538  24.923  38.154  1.00  0.00     0.120 C 
BRANCH  18  19
ATOM     19  N   UNL     1      22.932  23.620  38.735  1.00  0.00    -0.297 NA
ATOM     20  C   UNL     1      26.330  24.071  37.455  1.00  0.00     0.105 C 
ATOM     21  N   UNL     1      25.582  22.852  37.808  1.00  0.00    -0.304 NA
ATOM     22  C   UNL     1      24.394  22.659  36.939  1.00  0.00     0.099 C 
ATOM     23  C   UNL     1      25.275  22.799  39.252  1.00  0.00     0.099 C 
ATOM     24  C   UNL     1      23.068  22.555  37.715  1.00  0.00     0.100 C 
ATOM     25  C   UNL     1      24.113  23.736  39.631  1.00  0.00     0.100 C 
ENDBRANCH  18  19
ENDBRANCH  13  18
ENDBRANCH   9  12
ENDBRANCH   1   8
BRANCH   3  26
ATOM     26  N   UNL     1      12.130  26.634  42.658  1.00  0.00    -0.324 N 
ATOM     27  H   UNL     1      11.997  26.416  43.671  1.00  0.00     0.170 HD
BRANCH  26  28
ATOM     28  C   UNL     1      11.098  26.213  41.753  1.00  0.00     0.227 A 
ATOM     29  N   UNL     1      10.792  24.893  41.652  1.00  0.00    -0.221 NA
ATOM     30  N   UNL     1      10.406  27.122  41.014  1.00  0.00    -0.213 NA
ATOM     31  C   UNL     1       9.815  24.464  40.814  1.00  0.00     0.117 A 
ATOM     32  C   UNL     1       9.429  26.744  40.145  1.00  0.00     0.077 A 
ATOM     33  C   UNL     1       9.110  25.381  40.036  1.00  0.00     0.049 A 
BRANCH  32  34
ATOM     34  C   UNL     1       8.737  27.779  39.337  1.00  0.00     0.019 A 
ATOM     35  C   UNL     1       9.341  28.354  38.203  1.00  0.00     0.121 A 
ATOM     36  C   UNL     1       7.471  28.247  39.724  1.00  0.00     0.013 A 
ATOM     37  N   UNL     1       8.701  29.333  37.508  1.00  0.00    -0.264 NA
ATOM     38  C   UNL     1       6.836  29.251  38.991  1.00  0.00     0.021 A 
ATOM     39  C   UNL     1       7.474  29.786  37.873  1.00  0.00     0.111 A 
ENDBRANCH  32  34
ENDBRANCH  26  28
ENDBRANCH   3  26
TORSDOF 7
ENDMDL
MODEL 13
REMARK VINA RESULT:    -9.579      5.796     11.648
REMARK INTER + INTRA:         -13.657
REMARK INTER:                 -13.087
REMARK INTRA:                  -0.570
REMARK UNBOUND:                -0.159
REMARK SMILES Cc1ccc(NC(=O)c2ccc(CN3CCN(C)CC3)cc2)cc1Nc1nccc(-c2cccnc2)n1
REMARK SMILES IDX 5 1 23 2 24 3 2 4 1 5 3 6 4 7 6 8 7 9 8 10 9 12 12 13 11 14
REMARK SMILES IDX 21 15 10 16 22 17 13 18 14 19 18 20 17 21 16 22 19 23 15 24
REMARK SMILES IDX 20 25 25 26 26 28 27 29 37 30 28 31 30 32 29 33 31 34 36 35
REMARK SMILES IDX 32 36 35 37 33 38 34 39
REMARK H PARENT 6 11 25 27
REMARK Flexibility Score: inf
ROOT
ATOM      1  C   UNL     1      13.536  27.197  41.864  1.00  0.00     0.043 A 
ATOM      2  C   UNL     1      13.198  28.070  42.910  1.00  0.00     0.052 A 
ATOM      3  C   UNL     1      11.862  28.458  43.126  1.00  0.00     0.046 A 
ATOM      4  C   UNL     1      10.859  27.998  42.241  1.00  0.00    -0.027 A 
ATOM      5  C   UNL     1       9.421  28.403  42.418  1.00  0.00     0.046 C 
ATOM      6  C   UNL     1      11.213  27.167  41.166  1.00  0.00     0.008 A 
ATOM      7  C   UNL     1      12.537  26.769  40.981  1.00  0.00     0.026 A 
ENDROOT
BRANCH   1   8
ATOM      8  N   UNL     1      14.894  26.778  41.654  1.00  0.00    -0.322 N 
ATOM      9  C   UNL     1      15.965  27.690  41.350  1.00  0.00     0.255 C 
ATOM     10  O   UNL     1      15.805  28.927  41.536  1.00  0.00    -0.269 OA
ATOM     11  H   UNL     1      15.141  25.788  41.882  1.00  0.00     0.170 HD
BRANCH   9  12
ATOM     12  C   UNL     1      17.276  27.194  40.873  1.00  0.00     0.040 A 
ATOM     13  C   UNL     1      19.781  26.264  39.970  1.00  0.00    -0.034 A 
ATOM     14  C   UNL     1      18.725  25.364  40.179  1.00  0.00     0.006 A 
ATOM     15  C   UNL     1      19.574  27.632  40.201  1.00  0.00     0.006 A 
ATOM     16  C   UNL     1      17.484  25.825  40.631  1.00  0.00     0.014 A 
ATOM     17  C   UNL     1      18.332  28.094  40.642  1.00  0.00     0.014 A 
BRANCH  13  18
ATOM     18  C   UNL     1      21.113  25.760  39.480  1.00  0.00     0.120 C 
BRANCH  18  19
ATOM     19  N   UNL     1      21.274  24.320  39.783  1.00  0.00    -0.297 NA
ATOM     20  C   UNL     1      24.404  24.266  37.889  1.00  0.00     0.105 C 
ATOM     21  N   UNL     1      23.455  23.190  38.223  1.00  0.00    -0.304 NA
ATOM     22  C   UNL     1      22.124  23.413  37.606  1.00  0.00     0.099 C 
ATOM     23  C   UNL     1      23.401  22.943  39.679  1.00  0.00     0.099 C 
ATOM     24  C   UNL     1      20.968  23.453  38.623  1.00  0.00     0.100 C 
ATOM     25  C   UNL     1      22.585  24.020  40.417  1.00  0.00     0.100 C 
ENDBRANCH  18  19
ENDBRANCH  13  18
ENDBRANCH   9  12
ENDBRANCH   1   8
BRANCH   3  26
ATOM     26  N   UNL     1      11.532  29.364  44.197  1.00  0.00    -0.324 N 
ATOM     27  H   UNL     1      11.307  28.968  45.137  1.00  0.00     0.170 HD
BRANCH  26  28
ATOM     28  C   UNL     1      11.544  30.794  44.071  1.00  0.00     0.227 A 
ATOM     29  N   UNL     1      10.575  31.411  43.345  1.00  0.00    -0.221 NA
ATOM     30  N   UNL     1      12.498  31.541  44.689  1.00  0.00    -0.213 NA
ATOM     31  C   UNL     1      10.551  32.762  43.214  1.00  0.00     0.117 A 
ATOM     32  C   UNL     1      12.531  32.897  44.577  1.00  0.00     0.077 A 
ATOM     33  C   UNL     1      11.534  33.539  43.827  1.00  0.00     0.049 A 
BRANCH  32  34
ATOM     34  C   UNL     1      13.622  33.653  45.243  1.00  0.00     0.019 A 
ATOM     35  C   UNL     1      14.123  33.269  46.501  1.00  0.00     0.121 A 
ATOM     36  C   UNL     1      14.146  34.810  44.643  1.00  0.00     0.013 A 
ATOM     37  N   UNL     1      15.092  34.007  47.107  1.00  0.00    -0.264 NA
ATOM     38  C   UNL     1      15.142  35.546  45.286  1.00  0.00     0.021 A 
ATOM     39  C   UNL     1      15.608  35.124  46.531  1.00  0.00     0.111 A 
ENDBRANCH  32  34
ENDBRANCH  26  28
ENDBRANCH   3  26
TORSDOF 7
ENDMDL
MODEL 14
REMARK VINA RESULT:    -9.459      5.674     11.495
REMARK INTER + INTRA:         -13.488
REMARK INTER:                 -13.167
REMARK INTRA:                  -0.321
REMARK UNBOUND:                -0.159
REMARK SMILES Cc1ccc(NC(=O)c2ccc(CN3CCN(C)CC3)cc2)cc1Nc1nccc(-c2cccnc2)n1
REMARK SMILES IDX 5 1 23 2 24 3 2 4 1 5 3 6 4 7 6 8 7 9 8 10 9 12 12 13 11 14
REMARK SMILES IDX 21 15 10 16 22 17 13 18 14 19 18 20 17 21 16 22 19 23 15 24
REMARK SMILES IDX 20 25 25 26 26 28 27 29 37 30 28 31 30 32 29 33 31 34 36 35
REMARK SMILES IDX 32 36 35 37 33 38 34 39
REMARK H PARENT 6 11 25 27
REMARK Flexibility Score: inf
ROOT
ATOM      1  C   UNL     1      13.719  26.977  41.677  1.00  0.00     0.043 A 
ATOM      2  C   UNL     1      12.697  26.077  42.019  1.00  0.00     0.052 A 
ATOM      3  C   UNL     1      11.380  26.526  42.235  1.00  0.00     0.046 A 
ATOM      4  C   UNL     1      11.102  27.910  42.154  1.00  0.00    -0.027 A 
ATOM      5  C   UNL     1       9.715  28.439  42.397  1.00  0.00     0.046 C 
ATOM      6  C   UNL     1      12.140  28.808  41.862  1.00  0.00     0.008 A 
ATOM      7  C   UNL     1      13.434  28.346  41.624  1.00  0.00     0.026 A 
ENDROOT
BRANCH   1   8
ATOM      8  N   UNL     1      15.060  26.522  41.431  1.00  0.00    -0.322 N 
ATOM      9  C   UNL     1      16.204  27.395  41.434  1.00  0.00     0.255 C 
ATOM     10  O   UNL     1      16.109  28.549  41.933  1.00  0.00    -0.269 OA
ATOM     11  H   UNL     1      15.228  25.491  41.402  1.00  0.00     0.170 HD
BRANCH   9  12
ATOM     12  C   UNL     1      17.511  26.938  40.909  1.00  0.00     0.040 A 
ATOM     13  C   UNL     1      19.992  26.050  39.905  1.00  0.00    -0.034 A 
ATOM     14  C   UNL     1      19.743  27.421  40.065  1.00  0.00     0.006 A 
ATOM     15  C   UNL     1      19.001  25.124  40.262  1.00  0.00     0.006 A 
ATOM     16  C   UNL     1      18.511  27.862  40.560  1.00  0.00     0.014 A 
ATOM     17  C   UNL     1      17.774  25.563  40.766  1.00  0.00     0.014 A 
BRANCH  13  18
ATOM     18  C   UNL     1      21.324  25.585  39.375  1.00  0.00     0.120 C 
BRANCH  18  19
ATOM     19  N   UNL     1      21.517  24.141  39.634  1.00  0.00    -0.297 NA
ATOM     20  C   UNL     1      24.699  24.237  37.831  1.00  0.00     0.105 C 
ATOM     21  N   UNL     1      23.773  23.124  38.102  1.00  0.00    -0.304 NA
ATOM     22  C   UNL     1      22.453  23.331  37.454  1.00  0.00     0.099 C 
ATOM     23  C   UNL     1      23.684  22.827  39.546  1.00  0.00     0.099 C 
ATOM     24  C   UNL     1      21.269  23.305  38.437  1.00  0.00     0.100 C 
ATOM     25  C   UNL     1      22.817  23.855  40.296  1.00  0.00     0.100 C 
ENDBRANCH  18  19
ENDBRANCH  13  18
ENDBRANCH   9  12
ENDBRANCH   1   8
BRANCH   3  26
ATOM     26  N   UNL     1      10.345  25.592  42.597  1.00  0.00    -0.324 N 
ATOM     27  H   UNL     1       9.543  25.453  41.942  1.00  0.00     0.170 HD
BRANCH  26  28
ATOM     28  C   UNL     1      10.367  24.790  43.788  1.00  0.00     0.227 A 
ATOM     29  N   UNL     1       9.909  25.312  44.957  1.00  0.00    -0.221 NA
ATOM     30  N   UNL     1      10.818  23.507  43.757  1.00  0.00    -0.213 NA
ATOM     31  C   UNL     1       9.908  24.578  46.098  1.00  0.00     0.117 A 
ATOM     32  C   UNL     1      10.855  22.732  44.876  1.00  0.00     0.077 A 
ATOM     33  C   UNL     1      10.384  23.267  46.085  1.00  0.00     0.049 A 
BRANCH  32  34
ATOM     34  C   UNL     1      11.395  21.353  44.785  1.00  0.00     0.019 A 
ATOM     35  C   UNL     1      11.282  20.593  43.605  1.00  0.00     0.121 A 
ATOM     36  C   UNL     1      11.994  20.755  45.906  1.00  0.00     0.013 A 
ATOM     37  N   UNL     1      11.748  19.316  43.566  1.00  0.00    -0.264 NA
ATOM     38  C   UNL     1      12.466  19.443  45.836  1.00  0.00     0.021 A 
ATOM     39  C   UNL     1      12.333  18.732  44.644  1.00  0.00     0.111 A 
ENDBRANCH  32  34
ENDBRANCH  26  28
ENDBRANCH   3  26
TORSDOF 7
ENDMDL
MODEL 15
REMARK VINA RESULT:    -9.454      5.799     11.687
REMARK INTER + INTRA:         -13.481
REMARK INTER:                 -12.665
REMARK INTRA:                  -0.816
REMARK UNBOUND:                -0.159
REMARK SMILES Cc1ccc(NC(=O)c2ccc(CN3CCN(C)CC3)cc2)cc1Nc1nccc(-c2cccnc2)n1
REMARK SMILES IDX 5 1 23 2 24 3 2 4 1 5 3 6 4 7 6 8 7 9 8 10 9 12 12 13 11 14
REMARK SMILES IDX 21 15 10 16 22 17 13 18 14 19 18 20 17 21 16 22 19 23 15 24
REMARK SMILES IDX 20 25 25 26 26 28 27 29 37 30 28 31 30 32 29 33 31 34 36 35
REMARK SMILES IDX 32 36 35 37 33 38 34 39
REMARK H PARENT 6 11 25 27
REMARK Flexibility Score: inf
ROOT
ATOM      1  C   UNL     1      13.514  27.076  41.717  1.00  0.00     0.043 A 
ATOM      2  C   UNL     1      13.132  27.852  42.823  1.00  0.00     0.052 A 
ATOM      3  C   UNL     1      11.792  28.243  43.005  1.00  0.00     0.046 A 
ATOM      4  C   UNL     1      10.832  27.888  42.029  1.00  0.00    -0.027 A 
ATOM      5  C   UNL     1       9.392  28.301  42.169  1.00  0.00     0.046 C 
ATOM      6  C   UNL     1      11.232  27.156  40.900  1.00  0.00     0.008 A 
ATOM      7  C   UNL     1      12.558  26.753  40.747  1.00  0.00     0.026 A 
ENDROOT
BRANCH   1   8
ATOM      8  N   UNL     1      14.876  26.654  41.539  1.00  0.00    -0.322 N 
ATOM      9  C   UNL     1      15.972  27.570  41.364  1.00  0.00     0.255 C 
ATOM     10  O   UNL     1      15.817  28.790  41.643  1.00  0.00    -0.269 OA
ATOM     11  H   UNL     1      15.099  25.645  41.696  1.00  0.00     0.170 HD
BRANCH   9  12
ATOM     12  C   UNL     1      17.298  27.093  40.911  1.00  0.00     0.040 A 
ATOM     13  C   UNL     1      19.832  26.202  40.051  1.00  0.00    -0.034 A 
ATOM     14  C   UNL     1      18.843  25.277  40.420  1.00  0.00     0.006 A 
ATOM     15  C   UNL     1      19.544  27.573  40.102  1.00  0.00     0.006 A 
ATOM     16  C   UNL     1      17.588  25.719  40.849  1.00  0.00     0.014 A 
ATOM     17  C   UNL     1      18.286  28.015  40.521  1.00  0.00     0.014 A 
BRANCH  13  18
ATOM     18  C   UNL     1      21.180  25.716  39.587  1.00  0.00     0.120 C 
BRANCH  18  19
ATOM     19  N   UNL     1      21.326  24.263  39.823  1.00  0.00    -0.297 NA
ATOM     20  C   UNL     1      24.460  24.265  37.935  1.00  0.00     0.105 C 
ATOM     21  N   UNL     1      23.500  23.184  38.217  1.00  0.00    -0.304 NA
ATOM     22  C   UNL     1      22.173  23.449  37.608  1.00  0.00     0.099 C 
ATOM     23  C   UNL     1      23.439  22.871  39.659  1.00  0.00     0.099 C 
ATOM     24  C   UNL     1      21.015  23.453  38.623  1.00  0.00     0.100 C 
ATOM     25  C   UNL     1      22.632  23.920  40.445  1.00  0.00     0.100 C 
ENDBRANCH  18  19
ENDBRANCH  13  18
ENDBRANCH   9  12
ENDBRANCH   1   8
BRANCH   3  26
ATOM     26  N   UNL     1      11.418  29.049  44.139  1.00  0.00    -0.324 N 
ATOM     27  H   UNL     1      10.952  28.586  44.951  1.00  0.00     0.170 HD
BRANCH  26  28
ATOM     28  C   UNL     1      11.693  30.454  44.251  1.00  0.00     0.227 A 
ATOM     29  N   UNL     1      12.697  30.877  45.063  1.00  0.00    -0.221 NA
ATOM     30  N   UNL     1      10.978  31.364  43.536  1.00  0.00    -0.213 NA
ATOM     31  C   UNL     1      12.989  32.197  45.184  1.00  0.00     0.117 A 
ATOM     32  C   UNL     1      11.218  32.700  43.634  1.00  0.00     0.077 A 
ATOM     33  C   UNL     1      12.252  33.143  44.472  1.00  0.00     0.049 A 
BRANCH  32  34
ATOM     34  C   UNL     1      10.376  33.646  42.859  1.00  0.00     0.019 A 
ATOM     35  C   UNL     1       9.372  33.192  41.984  1.00  0.00     0.121 A 
ATOM     36  C   UNL     1      10.603  35.029  42.948  1.00  0.00     0.013 A 
ATOM     37  N   UNL     1       8.646  34.080  41.253  1.00  0.00    -0.264 NA
ATOM     38  C   UNL     1       9.842  35.919  42.188  1.00  0.00     0.021 A 
ATOM     39  C   UNL     1       8.856  35.420  41.338  1.00  0.00     0.111 A 
ENDBRANCH  32  34
ENDBRANCH  26  28
ENDBRANCH   3  26
TORSDOF 7
ENDMDL
