MODEL 1
REMARK VINA RESULT:   -10.183      0.000      0.000
REMARK INTER + INTRA:         -15.305
REMARK INTER:                 -14.349
REMARK INTRA:                  -0.955
REMARK UNBOUND:                -0.955
REMARK SMILES Cc1ccc(NC(=O)c2ccc(CN3CCN(C)CC3)cc2)cc1Nc1nccc(-c2cccnc2)n1
REMARK SMILES IDX 5 1 23 2 24 3 2 4 1 5 3 6 4 7 6 8 7 9 8 10 9 12 12 13 11 14
REMARK SMILES IDX 21 15 10 16 22 17 13 18 14 19 18 20 17 21 16 22 19 23 15 24
REMARK SMILES IDX 20 25 25 26 26 28 27 29 37 30 28 31 30 32 29 33 31 34 36 35
REMARK SMILES IDX 32 36 35 37 33 38 34 39
REMARK H PARENT 6 11 25 27
REMARK Flexibility Score: inf
ROOT
ATOM      1  C   UNL     1     -75.329 -16.982  89.871  1.00  0.00     0.043 A 
ATOM      2  C   UNL     1     -75.794 -18.277  89.590  1.00  0.00     0.052 A 
ATOM      3  C   UNL     1     -76.331 -18.595  88.329  1.00  0.00     0.046 A 
ATOM      4  C   UNL     1     -76.448 -17.578  87.353  1.00  0.00    -0.027 A 
ATOM      5  C   UNL     1     -77.035 -17.866  85.998  1.00  0.00     0.046 C 
ATOM      6  C   UNL     1     -76.029 -16.274  87.659  1.00  0.00     0.008 A 
ATOM      7  C   UNL     1     -75.473 -15.980  88.905  1.00  0.00     0.026 A 
ENDROOT
BRANCH   1   8
ATOM      8  N   UNL     1     -74.758 -16.657  91.149  1.00  0.00    -0.322 N 
ATOM      9  C   UNL     1     -75.541 -16.474  92.342  1.00  0.00     0.255 C 
ATOM     10  O   UNL     1     -76.738 -16.870  92.371  1.00  0.00    -0.269 OA
ATOM     11  H   UNL     1     -73.718 -16.708  91.246  1.00  0.00     0.170 HD
BRANCH   9  12
ATOM     12  C   UNL     1     -74.946 -15.875  93.559  1.00  0.00     0.040 A 
ATOM     13  C   UNL     1     -73.826 -14.744  95.886  1.00  0.00    -0.034 A 
ATOM     14  C   UNL     1     -73.129 -14.696  94.670  1.00  0.00     0.006 A 
ATOM     15  C   UNL     1     -75.091 -15.347  95.931  1.00  0.00     0.006 A 
ATOM     16  C   UNL     1     -73.683 -15.260  93.516  1.00  0.00     0.014 A 
ATOM     17  C   UNL     1     -75.650 -15.901  94.776  1.00  0.00     0.014 A 
BRANCH  13  18
ATOM     18  C   UNL     1     -73.223 -14.131  97.124  1.00  0.00     0.120 C 
BRANCH  18  19
ATOM     19  N   UNL     1     -73.837 -12.815  97.410  1.00  0.00    -0.297 NA
ATOM     20  C   UNL     1     -71.113 -12.045  99.729  1.00  0.00     0.105 C 
ATOM     21  N   UNL     1     -72.491 -11.532  99.650  1.00  0.00    -0.304 NA
ATOM     22  C   UNL     1     -73.495 -12.600  99.885  1.00  0.00     0.099 C 
ATOM     23  C   UNL     1     -72.718 -10.768  98.406  1.00  0.00     0.099 C 
ATOM     24  C   UNL     1     -74.501 -12.769  98.733  1.00  0.00     0.100 C 
ATOM     25  C   UNL     1     -72.891 -11.690  97.185  1.00  0.00     0.100 C 
ENDBRANCH  18  19
ENDBRANCH  13  18
ENDBRANCH   9  12
ENDBRANCH   1   8
BRANCH   3  26
ATOM     26  N   UNL     1     -76.814 -19.925  88.059  1.00  0.00    -0.324 N 
ATOM     27  H   UNL     1     -76.301 -20.514  87.366  1.00  0.00     0.170 HD
BRANCH  26  28
ATOM     28  C   UNL     1     -77.937 -20.522  88.726  1.00  0.00     0.227 A 
ATOM     29  N   UNL     1     -77.816 -20.912  90.023  1.00  0.00    -0.221 NA
ATOM     30  N   UNL     1     -79.126 -20.680  88.085  1.00  0.00    -0.213 NA
ATOM     31  C   UNL     1     -78.861 -21.471  90.685  1.00  0.00     0.117 A 
ATOM     32  C   UNL     1     -80.200 -21.250  88.696  1.00  0.00     0.077 A 
ATOM     33  C   UNL     1     -80.081 -21.656  90.035  1.00  0.00     0.049 A 
BRANCH  32  34
ATOM     34  C   UNL     1     -81.459 -21.432  87.930  1.00  0.00     0.019 A 
ATOM     35  C   UNL     1     -81.642 -20.844  86.665  1.00  0.00     0.121 A 
ATOM     36  C   UNL     1     -82.523 -22.162  88.484  1.00  0.00     0.013 A 
ATOM     37  N   UNL     1     -82.823 -20.991  86.006  1.00  0.00    -0.264 NA
ATOM     38  C   UNL     1     -83.723 -22.299  87.784  1.00  0.00     0.021 A 
ATOM     39  C   UNL     1     -83.855 -21.700  86.532  1.00  0.00     0.111 A 
ENDBRANCH  32  34
ENDBRANCH  26  28
ENDBRANCH   3  26
TORSDOF 7
ENDMDL
MODEL 2
REMARK VINA RESULT:   -10.128      5.752     10.524
REMARK INTER + INTRA:         -15.228
REMARK INTER:                 -14.737
REMARK INTRA:                  -0.491
REMARK UNBOUND:                -0.955
REMARK SMILES Cc1ccc(NC(=O)c2ccc(CN3CCN(C)CC3)cc2)cc1Nc1nccc(-c2cccnc2)n1
REMARK SMILES IDX 5 1 23 2 24 3 2 4 1 5 3 6 4 7 6 8 7 9 8 10 9 12 12 13 11 14
REMARK SMILES IDX 21 15 10 16 22 17 13 18 14 19 18 20 17 21 16 22 19 23 15 24
REMARK SMILES IDX 20 25 25 26 26 28 27 29 37 30 28 31 30 32 29 33 31 34 36 35
REMARK SMILES IDX 32 36 35 37 33 38 34 39
REMARK H PARENT 6 11 25 27
REMARK Flexibility Score: inf
ROOT
ATOM      1  C   UNL     1     -75.655 -17.289  88.321  1.00  0.00     0.043 A 
ATOM      2  C   UNL     1     -75.281 -16.956  87.009  1.00  0.00     0.052 A 
ATOM      3  C   UNL     1     -74.148 -16.159  86.760  1.00  0.00     0.046 A 
ATOM      4  C   UNL     1     -73.411 -15.649  87.853  1.00  0.00    -0.027 A 
ATOM      5  C   UNL     1     -72.205 -14.776  87.636  1.00  0.00     0.046 C 
ATOM      6  C   UNL     1     -73.821 -15.944  89.162  1.00  0.00     0.008 A 
ATOM      7  C   UNL     1     -74.930 -16.758  89.393  1.00  0.00     0.026 A 
ENDROOT
BRANCH   1   8
ATOM      8  N   UNL     1     -76.797 -18.122  88.580  1.00  0.00    -0.322 N 
ATOM      9  C   UNL     1     -76.927 -19.465  88.078  1.00  0.00     0.255 C 
ATOM     10  O   UNL     1     -75.914 -20.063  87.624  1.00  0.00    -0.269 OA
ATOM     11  H   UNL     1     -77.491 -17.793  89.290  1.00  0.00     0.170 HD
BRANCH   9  12
ATOM     12  C   UNL     1     -78.224 -20.176  88.135  1.00  0.00     0.040 A 
ATOM     13  C   UNL     1     -80.695 -21.530  88.264  1.00  0.00    -0.034 A 
ATOM     14  C   UNL     1     -80.210 -21.056  87.036  1.00  0.00     0.006 A 
ATOM     15  C   UNL     1     -79.933 -21.336  89.426  1.00  0.00     0.006 A 
ATOM     16  C   UNL     1     -78.986 -20.382  86.972  1.00  0.00     0.014 A 
ATOM     17  C   UNL     1     -78.705 -20.671  89.361  1.00  0.00     0.014 A 
BRANCH  13  18
ATOM     18  C   UNL     1     -82.013 -22.258  88.323  1.00  0.00     0.120 C 
BRANCH  18  19
ATOM     19  N   UNL     1     -82.878 -21.871  87.186  1.00  0.00    -0.297 NA
ATOM     20  C   UNL     1     -84.997 -19.933  89.453  1.00  0.00     0.105 C 
ATOM     21  N   UNL     1     -85.285 -20.546  88.145  1.00  0.00    -0.304 NA
ATOM     22  C   UNL     1     -85.170 -22.025  88.189  1.00  0.00     0.099 C 
ATOM     23  C   UNL     1     -84.495 -19.922  87.064  1.00  0.00     0.099 C 
ATOM     24  C   UNL     1     -84.166 -22.600  87.173  1.00  0.00     0.100 C 
ATOM     25  C   UNL     1     -83.030 -20.397  87.070  1.00  0.00     0.100 C 
ENDBRANCH  18  19
ENDBRANCH  13  18
ENDBRANCH   9  12
ENDBRANCH   1   8
BRANCH   3  26
ATOM     26  N   UNL     1     -73.784 -15.816  85.408  1.00  0.00    -0.324 N 
ATOM     27  H   UNL     1     -73.164 -14.990  85.251  1.00  0.00     0.170 HD
BRANCH  26  28
ATOM     28  C   UNL     1     -74.178 -16.572  84.253  1.00  0.00     0.227 A 
ATOM     29  N   UNL     1     -73.239 -16.954  83.349  1.00  0.00    -0.221 NA
ATOM     30  N   UNL     1     -75.477 -16.932  84.065  1.00  0.00    -0.213 NA
ATOM     31  C   UNL     1     -73.577 -17.678  82.252  1.00  0.00     0.117 A 
ATOM     32  C   UNL     1     -75.873 -17.643  82.974  1.00  0.00     0.077 A 
ATOM     33  C   UNL     1     -74.907 -18.038  82.037  1.00  0.00     0.049 A 
BRANCH  32  34
ATOM     34  C   UNL     1     -77.311 -17.970  82.805  1.00  0.00     0.019 A 
ATOM     35  C   UNL     1     -78.071 -17.431  81.751  1.00  0.00     0.121 A 
ATOM     36  C   UNL     1     -77.960 -18.797  83.737  1.00  0.00     0.013 A 
ATOM     37  N   UNL     1     -79.398 -17.714  81.648  1.00  0.00    -0.264 NA
ATOM     38  C   UNL     1     -79.322 -19.073  83.605  1.00  0.00     0.021 A 
ATOM     39  C   UNL     1     -80.032 -18.517  82.542  1.00  0.00     0.111 A 
ENDBRANCH  32  34
ENDBRANCH  26  28
ENDBRANCH   3  26
TORSDOF 7
ENDMDL
MODEL 3
REMARK VINA RESULT:    -9.927      2.314      3.473
REMARK INTER + INTRA:         -14.944
REMARK INTER:                 -13.912
REMARK INTRA:                  -1.032
REMARK UNBOUND:                -0.955
REMARK SMILES Cc1ccc(NC(=O)c2ccc(CN3CCN(C)CC3)cc2)cc1Nc1nccc(-c2cccnc2)n1
REMARK SMILES IDX 5 1 23 2 24 3 2 4 1 5 3 6 4 7 6 8 7 9 8 10 9 12 12 13 11 14
REMARK SMILES IDX 21 15 10 16 22 17 13 18 14 19 18 20 17 21 16 22 19 23 15 24
REMARK SMILES IDX 20 25 25 26 26 28 27 29 37 30 28 31 30 32 29 33 31 34 36 35
REMARK SMILES IDX 32 36 35 37 33 38 34 39
REMARK H PARENT 6 11 25 27
REMARK Flexibility Score: inf
ROOT
ATOM      1  C   UNL     1     -74.474 -16.624  88.581  1.00  0.00     0.043 A 
ATOM      2  C   UNL     1     -75.506 -16.489  87.638  1.00  0.00     0.052 A 
ATOM      3  C   UNL     1     -75.251 -16.630  86.261  1.00  0.00     0.046 A 
ATOM      4  C   UNL     1     -73.926 -16.861  85.826  1.00  0.00    -0.027 A 
ATOM      5  C   UNL     1     -73.602 -16.997  84.363  1.00  0.00     0.046 C 
ATOM      6  C   UNL     1     -72.891 -16.944  86.771  1.00  0.00     0.008 A 
ATOM      7  C   UNL     1     -73.163 -16.829  88.134  1.00  0.00     0.026 A 
ENDROOT
BRANCH   1   8
ATOM      8  N   UNL     1     -74.732 -16.506  89.990  1.00  0.00    -0.322 N 
ATOM      9  C   UNL     1     -74.407 -15.333  90.757  1.00  0.00     0.255 C 
ATOM     10  O   UNL     1     -74.139 -14.252  90.165  1.00  0.00    -0.269 OA
ATOM     11  H   UNL     1     -75.320 -17.242  90.442  1.00  0.00     0.170 HD
BRANCH   9  12
ATOM     12  C   UNL     1     -74.435 -15.360  92.237  1.00  0.00     0.040 A 
ATOM     13  C   UNL     1     -74.503 -15.423  95.056  1.00  0.00    -0.034 A 
ATOM     14  C   UNL     1     -73.362 -14.957  94.385  1.00  0.00     0.006 A 
ATOM     15  C   UNL     1     -75.615 -15.844  94.311  1.00  0.00     0.006 A 
ATOM     16  C   UNL     1     -73.327 -14.929  92.988  1.00  0.00     0.014 A 
ATOM     17  C   UNL     1     -75.584 -15.806  92.915  1.00  0.00     0.014 A 
BRANCH  13  18
ATOM     18  C   UNL     1     -74.534 -15.447  96.562  1.00  0.00     0.120 C 
BRANCH  18  19
ATOM     19  N   UNL     1     -74.981 -14.142  97.099  1.00  0.00    -0.297 NA
ATOM     20  C   UNL     1     -73.262 -14.846 100.251  1.00  0.00     0.105 C 
ATOM     21  N   UNL     1     -74.398 -13.960  99.945  1.00  0.00    -0.304 NA
ATOM     22  C   UNL     1     -75.579 -14.721  99.464  1.00  0.00     0.099 C 
ATOM     23  C   UNL     1     -74.001 -12.853  99.051  1.00  0.00     0.099 C 
ATOM     24  C   UNL     1     -76.082 -14.273  98.080  1.00  0.00     0.100 C 
ATOM     25  C   UNL     1     -73.847 -13.316  97.591  1.00  0.00     0.100 C 
ENDBRANCH  18  19
ENDBRANCH  13  18
ENDBRANCH   9  12
ENDBRANCH   1   8
BRANCH   3  26
ATOM     26  N   UNL     1     -76.318 -16.476  85.306  1.00  0.00    -0.324 N 
ATOM     27  H   UNL     1     -76.473 -15.537  84.874  1.00  0.00     0.170 HD
BRANCH  26  28
ATOM     28  C   UNL     1     -77.161 -17.551  84.862  1.00  0.00     0.227 A 
ATOM     29  N   UNL     1     -77.246 -17.831  83.535  1.00  0.00    -0.221 NA
ATOM     30  N   UNL     1     -77.854 -18.307  85.755  1.00  0.00    -0.213 NA
ATOM     31  C   UNL     1     -78.026 -18.846  83.084  1.00  0.00     0.117 A 
ATOM     32  C   UNL     1     -78.664 -19.326  85.355  1.00  0.00     0.077 A 
ATOM     33  C   UNL     1     -78.757 -19.619  83.985  1.00  0.00     0.049 A 
BRANCH  32  34
ATOM     34  C   UNL     1     -79.426 -20.089  86.375  1.00  0.00     0.019 A 
ATOM     35  C   UNL     1     -80.755 -20.494  86.151  1.00  0.00     0.121 A 
ATOM     36  C   UNL     1     -78.843 -20.381  87.619  1.00  0.00     0.013 A 
ATOM     37  N   UNL     1     -81.443 -21.154  87.122  1.00  0.00    -0.264 NA
ATOM     38  C   UNL     1     -79.571 -21.061  88.596  1.00  0.00     0.021 A 
ATOM     39  C   UNL     1     -80.884 -21.444  88.325  1.00  0.00     0.111 A 
ENDBRANCH  32  34
ENDBRANCH  26  28
ENDBRANCH   3  26
TORSDOF 7
ENDMDL
MODEL 4
REMARK VINA RESULT:    -9.666      2.187      3.586
REMARK INTER + INTRA:         -14.577
REMARK INTER:                 -13.725
REMARK INTRA:                  -0.852
REMARK UNBOUND:                -0.955
REMARK SMILES Cc1ccc(NC(=O)c2ccc(CN3CCN(C)CC3)cc2)cc1Nc1nccc(-c2cccnc2)n1
REMARK SMILES IDX 5 1 23 2 24 3 2 4 1 5 3 6 4 7 6 8 7 9 8 10 9 12 12 13 11 14
REMARK SMILES IDX 21 15 10 16 22 17 13 18 14 19 18 20 17 21 16 22 19 23 15 24
REMARK SMILES IDX 20 25 25 26 26 28 27 29 37 30 28 31 30 32 29 33 31 34 36 35
REMARK SMILES IDX 32 36 35 37 33 38 34 39
REMARK H PARENT 6 11 25 27
REMARK Flexibility Score: inf
ROOT
ATOM      1  C   UNL     1     -76.622 -17.108  86.763  1.00  0.00     0.043 A 
ATOM      2  C   UNL     1     -77.125 -18.379  87.083  1.00  0.00     0.052 A 
ATOM      3  C   UNL     1     -77.679 -19.210  86.091  1.00  0.00     0.046 A 
ATOM      4  C   UNL     1     -77.773 -18.729  84.764  1.00  0.00    -0.027 A 
ATOM      5  C   UNL     1     -78.376 -19.572  83.673  1.00  0.00     0.046 C 
ATOM      6  C   UNL     1     -77.315 -17.437  84.462  1.00  0.00     0.008 A 
ATOM      7  C   UNL     1     -76.743 -16.636  85.451  1.00  0.00     0.026 A 
ENDROOT
BRANCH   1   8
ATOM      8  N   UNL     1     -76.034 -16.266  87.768  1.00  0.00    -0.322 N 
ATOM      9  C   UNL     1     -74.646 -16.335  88.144  1.00  0.00     0.255 C 
ATOM     10  O   UNL     1     -73.828 -16.947  87.405  1.00  0.00    -0.269 OA
ATOM     11  H   UNL     1     -76.602 -15.467  88.130  1.00  0.00     0.170 HD
BRANCH   9  12
ATOM     12  C   UNL     1     -74.153 -15.652  89.362  1.00  0.00     0.040 A 
ATOM     13  C   UNL     1     -73.202 -14.340  91.670  1.00  0.00    -0.034 A 
ATOM     14  C   UNL     1     -74.389 -15.086  91.718  1.00  0.00     0.006 A 
ATOM     15  C   UNL     1     -72.485 -14.265  90.466  1.00  0.00     0.006 A 
ATOM     16  C   UNL     1     -74.863 -15.734  90.573  1.00  0.00     0.014 A 
ATOM     17  C   UNL     1     -72.952 -14.920  89.325  1.00  0.00     0.014 A 
BRANCH  13  18
ATOM     18  C   UNL     1     -72.697 -13.648  92.909  1.00  0.00     0.120 C 
BRANCH  18  19
ATOM     19  N   UNL     1     -72.209 -14.634  93.899  1.00  0.00    -0.297 NA
ATOM     20  C   UNL     1     -72.668 -12.181  96.575  1.00  0.00     0.105 C 
ATOM     21  N   UNL     1     -71.790 -13.359  96.482  1.00  0.00    -0.304 NA
ATOM     22  C   UNL     1     -70.784 -13.217  95.399  1.00  0.00     0.099 C 
ATOM     23  C   UNL     1     -72.566 -14.614  96.410  1.00  0.00     0.099 C 
ATOM     24  C   UNL     1     -70.830 -14.351  94.358  1.00  0.00     0.100 C 
ATOM     25  C   UNL     1     -73.173 -14.839  95.013  1.00  0.00     0.100 C 
ENDBRANCH  18  19
ENDBRANCH  13  18
ENDBRANCH   9  12
ENDBRANCH   1   8
BRANCH   3  26
ATOM     26  N   UNL     1     -78.202 -20.507  86.437  1.00  0.00    -0.324 N 
ATOM     27  H   UNL     1     -77.959 -21.323  85.832  1.00  0.00     0.170 HD
BRANCH  26  28
ATOM     28  C   UNL     1     -79.002 -20.766  87.601  1.00  0.00     0.227 A 
ATOM     29  N   UNL     1     -78.408 -20.836  88.821  1.00  0.00    -0.221 NA
ATOM     30  N   UNL     1     -80.350 -20.917  87.501  1.00  0.00    -0.213 NA
ATOM     31  C   UNL     1     -79.137 -21.070  89.942  1.00  0.00     0.117 A 
ATOM     32  C   UNL     1     -81.126 -21.170  88.590  1.00  0.00     0.077 A 
ATOM     33  C   UNL     1     -80.517 -21.245  89.852  1.00  0.00     0.049 A 
BRANCH  32  34
ATOM     34  C   UNL     1     -82.587 -21.366  88.410  1.00  0.00     0.019 A 
ATOM     35  C   UNL     1     -83.525 -20.676  89.199  1.00  0.00     0.121 A 
ATOM     36  C   UNL     1     -83.063 -22.293  87.469  1.00  0.00     0.013 A 
ATOM     37  N   UNL     1     -84.856 -20.909  89.042  1.00  0.00    -0.264 NA
ATOM     38  C   UNL     1     -84.435 -22.510  87.327  1.00  0.00     0.021 A 
ATOM     39  C   UNL     1     -85.325 -21.800  88.130  1.00  0.00     0.111 A 
ENDBRANCH  32  34
ENDBRANCH  26  28
ENDBRANCH   3  26
TORSDOF 7
ENDMDL
MODEL 5
REMARK VINA RESULT:    -9.579      2.676      4.109
REMARK INTER + INTRA:         -14.455
REMARK INTER:                 -13.357
REMARK INTRA:                  -1.098
REMARK UNBOUND:                -0.955
REMARK SMILES Cc1ccc(NC(=O)c2ccc(CN3CCN(C)CC3)cc2)cc1Nc1nccc(-c2cccnc2)n1
REMARK SMILES IDX 5 1 23 2 24 3 2 4 1 5 3 6 4 7 6 8 7 9 8 10 9 12 12 13 11 14
REMARK SMILES IDX 21 15 10 16 22 17 13 18 14 19 18 20 17 21 16 22 19 23 15 24
REMARK SMILES IDX 20 25 25 26 26 28 27 29 37 30 28 31 30 32 29 33 31 34 36 35
REMARK SMILES IDX 32 36 35 37 33 38 34 39
REMARK H PARENT 6 11 25 27
REMARK Flexibility Score: inf
ROOT
ATOM      1  C   UNL     1     -76.007 -19.167  91.208  1.00  0.00     0.043 A 
ATOM      2  C   UNL     1     -75.385 -19.091  89.951  1.00  0.00     0.052 A 
ATOM      3  C   UNL     1     -75.875 -19.825  88.855  1.00  0.00     0.046 A 
ATOM      4  C   UNL     1     -76.979 -20.689  89.042  1.00  0.00    -0.027 A 
ATOM      5  C   UNL     1     -77.525 -21.509  87.906  1.00  0.00     0.046 C 
ATOM      6  C   UNL     1     -77.563 -20.799  90.314  1.00  0.00     0.008 A 
ATOM      7  C   UNL     1     -77.084 -20.044  91.385  1.00  0.00     0.026 A 
ENDROOT
BRANCH   1   8
ATOM      8  N   UNL     1     -75.526 -18.401  92.325  1.00  0.00    -0.322 N 
ATOM      9  C   UNL     1     -75.647 -16.970  92.412  1.00  0.00     0.255 C 
ATOM     10  O   UNL     1     -76.434 -16.360  91.639  1.00  0.00    -0.269 OA
ATOM     11  H   UNL     1     -75.213 -18.922  93.176  1.00  0.00     0.170 HD
BRANCH   9  12
ATOM     12  C   UNL     1     -74.899 -16.204  93.436  1.00  0.00     0.040 A 
ATOM     13  C   UNL     1     -73.466 -14.737  95.371  1.00  0.00    -0.034 A 
ATOM     14  C   UNL     1     -74.613 -15.460  95.736  1.00  0.00     0.006 A 
ATOM     15  C   UNL     1     -73.032 -14.763  94.038  1.00  0.00     0.006 A 
ATOM     16  C   UNL     1     -75.325 -16.185  94.776  1.00  0.00     0.014 A 
ATOM     17  C   UNL     1     -73.738 -15.495  93.080  1.00  0.00     0.014 A 
BRANCH  13  18
ATOM     18  C   UNL     1     -72.703 -13.962  96.414  1.00  0.00     0.120 C 
BRANCH  18  19
ATOM     19  N   UNL     1     -73.422 -12.720  96.776  1.00  0.00    -0.297 NA
ATOM     20  C   UNL     1     -70.657 -11.754  98.970  1.00  0.00     0.105 C 
ATOM     21  N   UNL     1     -72.080 -11.375  98.981  1.00  0.00    -0.304 NA
ATOM     22  C   UNL     1     -72.963 -12.541  99.235  1.00  0.00     0.099 C 
ATOM     23  C   UNL     1     -72.449 -10.603  97.777  1.00  0.00     0.099 C 
ATOM     24  C   UNL     1     -74.012 -12.775  98.133  1.00  0.00     0.100 C 
ATOM     25  C   UNL     1     -72.602 -11.503  96.537  1.00  0.00     0.100 C 
ENDBRANCH  18  19
ENDBRANCH  13  18
ENDBRANCH   9  12
ENDBRANCH   1   8
BRANCH   3  26
ATOM     26  N   UNL     1     -75.218 -19.745  87.575  1.00  0.00    -0.324 N 
ATOM     27  H   UNL     1     -74.535 -20.492  87.315  1.00  0.00     0.170 HD
BRANCH  26  28
ATOM     28  C   UNL     1     -75.482 -18.726  86.599  1.00  0.00     0.227 A 
ATOM     29  N   UNL     1     -74.702 -17.613  86.565  1.00  0.00    -0.221 NA
ATOM     30  N   UNL     1     -76.486 -18.871  85.693  1.00  0.00    -0.213 NA
ATOM     31  C   UNL     1     -74.919 -16.636  85.648  1.00  0.00     0.117 A 
ATOM     32  C   UNL     1     -76.758 -17.913  84.765  1.00  0.00     0.077 A 
ATOM     33  C   UNL     1     -75.956 -16.762  84.726  1.00  0.00     0.049 A 
BRANCH  32  34
ATOM     34  C   UNL     1     -77.893 -18.112  83.829  1.00  0.00     0.019 A 
ATOM     35  C   UNL     1     -77.815 -17.716  82.481  1.00  0.00     0.121 A 
ATOM     36  C   UNL     1     -79.100 -18.662  84.292  1.00  0.00     0.013 A 
ATOM     37  N   UNL     1     -78.888 -17.871  81.658  1.00  0.00    -0.264 NA
ATOM     38  C   UNL     1     -80.184 -18.812  83.425  1.00  0.00     0.021 A 
ATOM     39  C   UNL     1     -80.057 -18.406  82.097  1.00  0.00     0.111 A 
ENDBRANCH  32  34
ENDBRANCH  26  28
ENDBRANCH   3  26
TORSDOF 7
ENDMDL
MODEL 6
REMARK VINA RESULT:    -9.578      2.268      3.556
REMARK INTER + INTRA:         -14.453
REMARK INTER:                 -13.490
REMARK INTRA:                  -0.963
REMARK UNBOUND:                -0.955
REMARK SMILES Cc1ccc(NC(=O)c2ccc(CN3CCN(C)CC3)cc2)cc1Nc1nccc(-c2cccnc2)n1
REMARK SMILES IDX 5 1 23 2 24 3 2 4 1 5 3 6 4 7 6 8 7 9 8 10 9 12 12 13 11 14
REMARK SMILES IDX 21 15 10 16 22 17 13 18 14 19 18 20 17 21 16 22 19 23 15 24
REMARK SMILES IDX 20 25 25 26 26 28 27 29 37 30 28 31 30 32 29 33 31 34 36 35
REMARK SMILES IDX 32 36 35 37 33 38 34 39
REMARK H PARENT 6 11 25 27
REMARK Flexibility Score: inf
ROOT
ATOM      1  C   UNL     1     -74.175 -16.351  88.126  1.00  0.00     0.043 A 
ATOM      2  C   UNL     1     -75.390 -16.498  87.437  1.00  0.00     0.052 A 
ATOM      3  C   UNL     1     -75.413 -16.681  86.041  1.00  0.00     0.046 A 
ATOM      4  C   UNL     1     -74.195 -16.666  85.324  1.00  0.00    -0.027 A 
ATOM      5  C   UNL     1     -74.171 -16.836  83.829  1.00  0.00     0.046 C 
ATOM      6  C   UNL     1     -72.988 -16.467  86.013  1.00  0.00     0.008 A 
ATOM      7  C   UNL     1     -72.979 -16.314  87.400  1.00  0.00     0.026 A 
ENDROOT
BRANCH   1   8
ATOM      8  N   UNL     1     -74.144 -16.188  89.553  1.00  0.00    -0.322 N 
ATOM      9  C   UNL     1     -74.031 -14.908  90.200  1.00  0.00     0.255 C 
ATOM     10  O   UNL     1     -74.241 -13.854  89.541  1.00  0.00    -0.269 OA
ATOM     11  H   UNL     1     -74.366 -17.021  90.145  1.00  0.00     0.170 HD
BRANCH   9  12
ATOM     12  C   UNL     1     -73.726 -14.810  91.646  1.00  0.00     0.040 A 
ATOM     13  C   UNL     1     -73.155 -14.641  94.402  1.00  0.00    -0.034 A 
ATOM     14  C   UNL     1     -72.449 -13.851  93.483  1.00  0.00     0.006 A 
ATOM     15  C   UNL     1     -74.158 -15.505  93.939  1.00  0.00     0.006 A 
ATOM     16  C   UNL     1     -72.730 -13.937  92.116  1.00  0.00     0.014 A 
ATOM     17  C   UNL     1     -74.446 -15.585  92.574  1.00  0.00     0.014 A 
BRANCH  13  18
ATOM     18  C   UNL     1     -72.848 -14.538  95.874  1.00  0.00     0.120 C 
BRANCH  18  19
ATOM     19  N   UNL     1     -73.805 -13.633  96.548  1.00  0.00    -0.297 NA
ATOM     20  C   UNL     1     -71.854 -13.864  99.635  1.00  0.00     0.105 C 
ATOM     21  N   UNL     1     -73.273 -13.539  99.408  1.00  0.00    -0.304 NA
ATOM     22  C   UNL     1     -74.015 -14.680  98.817  1.00  0.00     0.099 C 
ATOM     23  C   UNL     1     -73.429 -12.276  98.658  1.00  0.00     0.099 C 
ATOM     24  C   UNL     1     -74.706 -14.345  97.483  1.00  0.00     0.100 C 
ATOM     25  C   UNL     1     -73.133 -12.455  97.157  1.00  0.00     0.100 C 
ENDBRANCH  18  19
ENDBRANCH  13  18
ENDBRANCH   9  12
ENDBRANCH   1   8
BRANCH   3  26
ATOM     26  N   UNL     1     -76.668 -16.818  85.347  1.00  0.00    -0.324 N 
ATOM     27  H   UNL     1     -76.943 -16.082  84.659  1.00  0.00     0.170 HD
BRANCH  26  28
ATOM     28  C   UNL     1     -77.553 -17.938  85.500  1.00  0.00     0.227 A 
ATOM     29  N   UNL     1     -78.370 -18.292  84.474  1.00  0.00    -0.221 NA
ATOM     30  N   UNL     1     -77.566 -18.665  86.650  1.00  0.00    -0.213 NA
ATOM     31  C   UNL     1     -79.211 -19.352  84.583  1.00  0.00     0.117 A 
ATOM     32  C   UNL     1     -78.402 -19.726  86.819  1.00  0.00     0.077 A 
ATOM     33  C   UNL     1     -79.249 -20.094  85.763  1.00  0.00     0.049 A 
BRANCH  32  34
ATOM     34  C   UNL     1     -78.397 -20.454  88.113  1.00  0.00     0.019 A 
ATOM     35  C   UNL     1     -77.197 -20.869  88.720  1.00  0.00     0.121 A 
ATOM     36  C   UNL     1     -79.609 -20.790  88.737  1.00  0.00     0.013 A 
ATOM     37  N   UNL     1     -77.226 -21.573  89.884  1.00  0.00    -0.264 NA
ATOM     38  C   UNL     1     -79.609 -21.512  89.932  1.00  0.00     0.021 A 
ATOM     39  C   UNL     1     -78.394 -21.898  90.497  1.00  0.00     0.111 A 
ENDBRANCH  32  34
ENDBRANCH  26  28
ENDBRANCH   3  26
TORSDOF 7
ENDMDL
MODEL 7
REMARK VINA RESULT:    -9.520      3.605     11.293
REMARK INTER + INTRA:         -14.371
REMARK INTER:                 -14.096
REMARK INTRA:                  -0.275
REMARK UNBOUND:                -0.955
REMARK SMILES Cc1ccc(NC(=O)c2ccc(CN3CCN(C)CC3)cc2)cc1Nc1nccc(-c2cccnc2)n1
REMARK SMILES IDX 5 1 23 2 24 3 2 4 1 5 3 6 4 7 6 8 7 9 8 10 9 12 12 13 11 14
REMARK SMILES IDX 21 15 10 16 22 17 13 18 14 19 18 20 17 21 16 22 19 23 15 24
REMARK SMILES IDX 20 25 25 26 26 28 27 29 37 30 28 31 30 32 29 33 31 34 36 35
REMARK SMILES IDX 32 36 35 37 33 38 34 39
REMARK H PARENT 6 11 25 27
REMARK Flexibility Score: inf
ROOT
ATOM      1  C   UNL     1     -75.933 -17.377  86.451  1.00  0.00     0.043 A 
ATOM      2  C   UNL     1     -74.775 -17.157  87.215  1.00  0.00     0.052 A 
ATOM      3  C   UNL     1     -73.683 -16.444  86.686  1.00  0.00     0.046 A 
ATOM      4  C   UNL     1     -73.740 -15.990  85.348  1.00  0.00    -0.027 A 
ATOM      5  C   UNL     1     -72.589 -15.243  84.732  1.00  0.00     0.046 C 
ATOM      6  C   UNL     1     -74.880 -16.259  84.574  1.00  0.00     0.008 A 
ATOM      7  C   UNL     1     -75.965 -16.944  85.121  1.00  0.00     0.026 A 
ENDROOT
BRANCH   1   8
ATOM      8  N   UNL     1     -77.060 -18.084  86.995  1.00  0.00    -0.322 N 
ATOM      9  C   UNL     1     -77.154 -19.519  87.026  1.00  0.00     0.255 C 
ATOM     10  O   UNL     1     -76.122 -20.218  86.832  1.00  0.00    -0.269 OA
ATOM     11  H   UNL     1     -77.771 -17.533  87.528  1.00  0.00     0.170 HD
BRANCH   9  12
ATOM     12  C   UNL     1     -78.436 -20.192  87.336  1.00  0.00     0.040 A 
ATOM     13  C   UNL     1     -80.881 -21.476  87.907  1.00  0.00    -0.034 A 
ATOM     14  C   UNL     1     -79.970 -21.195  88.937  1.00  0.00     0.006 A 
ATOM     15  C   UNL     1     -80.569 -21.100  86.593  1.00  0.00     0.006 A 
ATOM     16  C   UNL     1     -78.757 -20.561  88.654  1.00  0.00     0.014 A 
ATOM     17  C   UNL     1     -79.361 -20.457  86.310  1.00  0.00     0.014 A 
BRANCH  13  18
ATOM     18  C   UNL     1     -82.188 -22.156  88.223  1.00  0.00     0.120 C 
BRANCH  18  19
ATOM     19  N   UNL     1     -83.204 -21.846  87.193  1.00  0.00    -0.297 NA
ATOM     20  C   UNL     1     -84.935 -19.652  89.554  1.00  0.00     0.105 C 
ATOM     21  N   UNL     1     -85.422 -20.369  88.364  1.00  0.00    -0.304 NA
ATOM     22  C   UNL     1     -85.327 -21.842  88.527  1.00  0.00     0.099 C 
ATOM     23  C   UNL     1     -84.789 -19.867  87.127  1.00  0.00     0.099 C 
ATOM     24  C   UNL     1     -84.492 -22.534  87.434  1.00  0.00     0.100 C 
ATOM     25  C   UNL     1     -83.347 -20.384  86.965  1.00  0.00     0.100 C 
ENDBRANCH  18  19
ENDBRANCH  13  18
ENDBRANCH   9  12
ENDBRANCH   1   8
BRANCH   3  26
ATOM     26  N   UNL     1     -72.498 -16.237  87.478  1.00  0.00    -0.324 N 
ATOM     27  H   UNL     1     -71.587 -16.606  87.124  1.00  0.00     0.170 HD
BRANCH  26  28
ATOM     28  C   UNL     1     -72.474 -15.502  88.712  1.00  0.00     0.227 A 
ATOM     29  N   UNL     1     -71.490 -14.591  88.930  1.00  0.00    -0.221 NA
ATOM     30  N   UNL     1     -73.438 -15.689  89.654  1.00  0.00    -0.213 NA
ATOM     31  C   UNL     1     -71.445 -13.873  90.081  1.00  0.00     0.117 A 
ATOM     32  C   UNL     1     -73.430 -15.009  90.832  1.00  0.00     0.077 A 
ATOM     33  C   UNL     1     -72.415 -14.067  91.064  1.00  0.00     0.049 A 
BRANCH  32  34
ATOM     34  C   UNL     1     -74.487 -15.287  91.837  1.00  0.00     0.019 A 
ATOM     35  C   UNL     1     -74.179 -15.490  93.195  1.00  0.00     0.121 A 
ATOM     36  C   UNL     1     -75.828 -15.404  91.436  1.00  0.00     0.013 A 
ATOM     37  N   UNL     1     -75.164 -15.788  94.084  1.00  0.00    -0.264 NA
ATOM     38  C   UNL     1     -76.819 -15.707  92.371  1.00  0.00     0.021 A 
ATOM     39  C   UNL     1     -76.463 -15.897  93.705  1.00  0.00     0.111 A 
ENDBRANCH  32  34
ENDBRANCH  26  28
ENDBRANCH   3  26
TORSDOF 7
ENDMDL
MODEL 8
REMARK VINA RESULT:    -9.505      1.534      2.472
REMARK INTER + INTRA:         -14.350
REMARK INTER:                 -14.274
REMARK INTRA:                  -0.076
REMARK UNBOUND:                -0.955
REMARK SMILES Cc1ccc(NC(=O)c2ccc(CN3CCN(C)CC3)cc2)cc1Nc1nccc(-c2cccnc2)n1
REMARK SMILES IDX 5 1 23 2 24 3 2 4 1 5 3 6 4 7 6 8 7 9 8 10 9 12 12 13 11 14
REMARK SMILES IDX 21 15 10 16 22 17 13 18 14 19 18 20 17 21 16 22 19 23 15 24
REMARK SMILES IDX 20 25 25 26 26 28 27 29 37 30 28 31 30 32 29 33 31 34 36 35
REMARK SMILES IDX 32 36 35 37 33 38 34 39
REMARK H PARENT 6 11 25 27
REMARK Flexibility Score: inf
ROOT
ATOM      1  C   UNL     1     -76.184 -17.384  87.746  1.00  0.00     0.043 A 
ATOM      2  C   UNL     1     -76.917 -18.582  87.716  1.00  0.00     0.052 A 
ATOM      3  C   UNL     1     -77.594 -18.987  86.550  1.00  0.00     0.046 A 
ATOM      4  C   UNL     1     -77.572 -18.146  85.413  1.00  0.00    -0.027 A 
ATOM      5  C   UNL     1     -78.298 -18.527  84.151  1.00  0.00     0.046 C 
ATOM      6  C   UNL     1     -76.880 -16.926  85.468  1.00  0.00     0.008 A 
ATOM      7  C   UNL     1     -76.191 -16.551  86.621  1.00  0.00     0.026 A 
ENDROOT
BRANCH   1   8
ATOM      8  N   UNL     1     -75.471 -16.978  88.925  1.00  0.00    -0.322 N 
ATOM      9  C   UNL     1     -75.764 -17.484  90.240  1.00  0.00     0.255 C 
ATOM     10  O   UNL     1     -76.473 -18.519  90.368  1.00  0.00    -0.269 OA
ATOM     11  H   UNL     1     -74.605 -16.407  88.800  1.00  0.00     0.170 HD
BRANCH   9  12
ATOM     12  C   UNL     1     -75.199 -16.839  91.447  1.00  0.00     0.040 A 
ATOM     13  C   UNL     1     -74.126 -15.627  93.756  1.00  0.00    -0.034 A 
ATOM     14  C   UNL     1     -74.019 -14.993  92.509  1.00  0.00     0.006 A 
ATOM     15  C   UNL     1     -74.783 -16.862  93.846  1.00  0.00     0.006 A 
ATOM     16  C   UNL     1     -74.549 -15.596  91.363  1.00  0.00     0.014 A 
ATOM     17  C   UNL     1     -75.321 -17.460  92.704  1.00  0.00     0.014 A 
BRANCH  13  18
ATOM     18  C   UNL     1     -73.555 -14.968  94.985  1.00  0.00     0.120 C 
BRANCH  18  19
ATOM     19  N   UNL     1     -74.112 -15.578  96.214  1.00  0.00    -0.297 NA
ATOM     20  C   UNL     1     -73.687 -12.405  97.985  1.00  0.00     0.105 C 
ATOM     21  N   UNL     1     -73.766 -13.788  98.483  1.00  0.00    -0.304 NA
ATOM     22  C   UNL     1     -72.634 -14.618  97.998  1.00  0.00     0.099 C 
ATOM     23  C   UNL     1     -75.092 -14.386  98.227  1.00  0.00     0.099 C 
ATOM     24  C   UNL     1     -73.074 -15.876  97.227  1.00  0.00     0.100 C 
ATOM     25  C   UNL     1     -75.262 -14.806  96.755  1.00  0.00     0.100 C 
ENDBRANCH  18  19
ENDBRANCH  13  18
ENDBRANCH   9  12
ENDBRANCH   1   8
BRANCH   3  26
ATOM     26  N   UNL     1     -78.352 -20.212  86.538  1.00  0.00    -0.324 N 
ATOM     27  H   UNL     1     -78.298 -20.827  85.696  1.00  0.00     0.170 HD
BRANCH  26  28
ATOM     28  C   UNL     1     -79.145 -20.676  87.642  1.00  0.00     0.227 A 
ATOM     29  N   UNL     1     -78.548 -20.933  88.835  1.00  0.00    -0.221 NA
ATOM     30  N   UNL     1     -80.490 -20.838  87.515  1.00  0.00    -0.213 NA
ATOM     31  C   UNL     1     -79.271 -21.364  89.900  1.00  0.00     0.117 A 
ATOM     32  C   UNL     1     -81.259 -21.284  88.545  1.00  0.00     0.077 A 
ATOM     33  C   UNL     1     -80.647 -21.553  89.779  1.00  0.00     0.049 A 
BRANCH  32  34
ATOM     34  C   UNL     1     -82.715 -21.479  88.332  1.00  0.00     0.019 A 
ATOM     35  C   UNL     1     -83.671 -20.740  89.053  1.00  0.00     0.121 A 
ATOM     36  C   UNL     1     -83.171 -22.453  87.429  1.00  0.00     0.013 A 
ATOM     37  N   UNL     1     -84.998 -20.972  88.868  1.00  0.00    -0.264 NA
ATOM     38  C   UNL     1     -84.539 -22.669  87.256  1.00  0.00     0.021 A 
ATOM     39  C   UNL     1     -85.448 -21.909  87.993  1.00  0.00     0.111 A 
ENDBRANCH  32  34
ENDBRANCH  26  28
ENDBRANCH   3  26
TORSDOF 7
ENDMDL
MODEL 9
REMARK VINA RESULT:    -9.462      2.602     12.548
REMARK INTER + INTRA:         -14.290
REMARK INTER:                 -13.300
REMARK INTRA:                  -0.990
REMARK UNBOUND:                -0.955
REMARK SMILES Cc1ccc(NC(=O)c2ccc(CN3CCN(C)CC3)cc2)cc1Nc1nccc(-c2cccnc2)n1
REMARK SMILES IDX 5 1 23 2 24 3 2 4 1 5 3 6 4 7 6 8 7 9 8 10 9 12 12 13 11 14
REMARK SMILES IDX 21 15 10 16 22 17 13 18 14 19 18 20 17 21 16 22 19 23 15 24
REMARK SMILES IDX 20 25 25 26 26 28 27 29 37 30 28 31 30 32 29 33 31 34 36 35
REMARK SMILES IDX 32 36 35 37 33 38 34 39
REMARK H PARENT 6 11 25 27
REMARK Flexibility Score: inf
ROOT
ATOM      1  C   UNL     1     -73.864 -16.443  87.968  1.00  0.00     0.043 A 
ATOM      2  C   UNL     1     -73.999 -15.629  89.104  1.00  0.00     0.052 A 
ATOM      3  C   UNL     1     -73.057 -14.622  89.389  1.00  0.00     0.046 A 
ATOM      4  C   UNL     1     -71.936 -14.468  88.542  1.00  0.00    -0.027 A 
ATOM      5  C   UNL     1     -70.892 -13.420  88.817  1.00  0.00     0.046 C 
ATOM      6  C   UNL     1     -71.781 -15.320  87.437  1.00  0.00     0.008 A 
ATOM      7  C   UNL     1     -72.736 -16.296  87.152  1.00  0.00     0.026 A 
ENDROOT
BRANCH   1   8
ATOM      8  N   UNL     1     -74.835 -17.456  87.659  1.00  0.00    -0.322 N 
ATOM      9  C   UNL     1     -75.914 -17.260  86.727  1.00  0.00     0.255 C 
ATOM     10  O   UNL     1     -75.882 -16.282  85.931  1.00  0.00    -0.269 OA
ATOM     11  H   UNL     1     -74.659 -18.425  88.011  1.00  0.00     0.170 HD
BRANCH   9  12
ATOM     12  C   UNL     1     -77.037 -18.221  86.650  1.00  0.00     0.040 A 
ATOM     13  C   UNL     1     -79.178 -20.049  86.484  1.00  0.00    -0.034 A 
ATOM     14  C   UNL     1     -78.384 -19.992  87.639  1.00  0.00     0.006 A 
ATOM     15  C   UNL     1     -78.906 -19.179  85.418  1.00  0.00     0.006 A 
ATOM     16  C   UNL     1     -77.320 -19.088  87.720  1.00  0.00     0.014 A 
ATOM     17  C   UNL     1     -77.849 -18.269  85.502  1.00  0.00     0.014 A 
BRANCH  13  18
ATOM     18  C   UNL     1     -80.324 -21.024  86.406  1.00  0.00     0.120 C 
BRANCH  18  19
ATOM     19  N   UNL     1     -81.334 -20.731  87.447  1.00  0.00    -0.297 NA
ATOM     20  C   UNL     1     -83.512 -23.330  86.071  1.00  0.00     0.105 C 
ATOM     21  N   UNL     1     -83.819 -22.136  86.876  1.00  0.00    -0.304 NA
ATOM     22  C   UNL     1     -83.480 -20.881  86.158  1.00  0.00     0.099 C 
ATOM     23  C   UNL     1     -83.231 -22.223  88.228  1.00  0.00     0.099 C 
ATOM     24  C   UNL     1     -82.495 -19.977  86.922  1.00  0.00     0.100 C 
ATOM     25  C   UNL     1     -81.717 -21.943  88.219  1.00  0.00     0.100 C 
ENDBRANCH  18  19
ENDBRANCH  13  18
ENDBRANCH   9  12
ENDBRANCH   1   8
BRANCH   3  26
ATOM     26  N   UNL     1     -73.203 -13.802  90.565  1.00  0.00    -0.324 N 
ATOM     27  H   UNL     1     -73.791 -12.941  90.506  1.00  0.00     0.170 HD
BRANCH  26  28
ATOM     28  C   UNL     1     -72.630 -14.121  91.842  1.00  0.00     0.227 A 
ATOM     29  N   UNL     1     -71.976 -15.301  92.008  1.00  0.00    -0.221 NA
ATOM     30  N   UNL     1     -72.711 -13.247  92.881  1.00  0.00    -0.213 NA
ATOM     31  C   UNL     1     -71.414 -15.629  93.199  1.00  0.00     0.117 A 
ATOM     32  C   UNL     1     -72.181 -13.533  94.102  1.00  0.00     0.077 A 
ATOM     33  C   UNL     1     -71.506 -14.751  94.279  1.00  0.00     0.049 A 
BRANCH  32  34
ATOM     34  C   UNL     1     -72.339 -12.555  95.207  1.00  0.00     0.019 A 
ATOM     35  C   UNL     1     -72.260 -11.168  94.981  1.00  0.00     0.121 A 
ATOM     36  C   UNL     1     -72.522 -13.004  96.526  1.00  0.00     0.013 A 
ATOM     37  N   UNL     1     -72.364 -10.297  96.021  1.00  0.00    -0.264 NA
ATOM     38  C   UNL     1     -72.628 -12.087  97.573  1.00  0.00     0.021 A 
ATOM     39  C   UNL     1     -72.546 -10.723  97.298  1.00  0.00     0.111 A 
ENDBRANCH  32  34
ENDBRANCH  26  28
ENDBRANCH   3  26
TORSDOF 7
ENDMDL
MODEL 10
REMARK VINA RESULT:    -9.460      2.778     12.483
REMARK INTER + INTRA:         -14.287
REMARK INTER:                 -13.523
REMARK INTRA:                  -0.764
REMARK UNBOUND:                -0.955
REMARK SMILES Cc1ccc(NC(=O)c2ccc(CN3CCN(C)CC3)cc2)cc1Nc1nccc(-c2cccnc2)n1
REMARK SMILES IDX 5 1 23 2 24 3 2 4 1 5 3 6 4 7 6 8 7 9 8 10 9 12 12 13 11 14
REMARK SMILES IDX 21 15 10 16 22 17 13 18 14 19 18 20 17 21 16 22 19 23 15 24
REMARK SMILES IDX 20 25 25 26 26 28 27 29 37 30 28 31 30 32 29 33 31 34 36 35
REMARK SMILES IDX 32 36 35 37 33 38 34 39
REMARK H PARENT 6 11 25 27
REMARK Flexibility Score: inf
ROOT
ATOM      1  C   UNL     1     -74.725 -17.095  87.589  1.00  0.00     0.043 A 
ATOM      2  C   UNL     1     -74.812 -16.235  88.697  1.00  0.00     0.052 A 
ATOM      3  C   UNL     1     -73.871 -15.207  88.891  1.00  0.00     0.046 A 
ATOM      4  C   UNL     1     -72.796 -15.076  87.982  1.00  0.00    -0.027 A 
ATOM      5  C   UNL     1     -71.753 -14.006  88.161  1.00  0.00     0.046 C 
ATOM      6  C   UNL     1     -72.686 -15.972  86.907  1.00  0.00     0.008 A 
ATOM      7  C   UNL     1     -73.642 -16.969  86.711  1.00  0.00     0.026 A 
ENDROOT
BRANCH   1   8
ATOM      8  N   UNL     1     -75.697 -18.130  87.372  1.00  0.00    -0.322 N 
ATOM      9  C   UNL     1     -76.876 -17.952  86.566  1.00  0.00     0.255 C 
ATOM     10  O   UNL     1     -76.957 -16.964  85.787  1.00  0.00    -0.269 OA
ATOM     11  H   UNL     1     -75.458 -19.098  87.688  1.00  0.00     0.170 HD
BRANCH   9  12
ATOM     12  C   UNL     1     -77.975 -18.943  86.597  1.00  0.00     0.040 A 
ATOM     13  C   UNL     1     -80.072 -20.829  86.635  1.00  0.00    -0.034 A 
ATOM     14  C   UNL     1     -79.231 -20.681  87.749  1.00  0.00     0.006 A 
ATOM     15  C   UNL     1     -79.868 -20.020  85.508  1.00  0.00     0.006 A 
ATOM     16  C   UNL     1     -78.190 -19.748  87.729  1.00  0.00     0.014 A 
ATOM     17  C   UNL     1     -78.834 -19.081  85.491  1.00  0.00     0.014 A 
BRANCH  13  18
ATOM     18  C   UNL     1     -81.194 -21.834  86.668  1.00  0.00     0.120 C 
BRANCH  18  19
ATOM     19  N   UNL     1     -82.443 -21.244  86.139  1.00  0.00    -0.297 NA
ATOM     20  C   UNL     1     -83.941 -21.419  89.472  1.00  0.00     0.105 C 
ATOM     21  N   UNL     1     -84.557 -21.381  88.135  1.00  0.00    -0.304 NA
ATOM     22  C   UNL     1     -84.203 -22.576  87.328  1.00  0.00     0.099 C 
ATOM     23  C   UNL     1     -84.291 -20.101  87.447  1.00  0.00     0.099 C 
ATOM     24  C   UNL     1     -83.528 -22.240  85.986  1.00  0.00     0.100 C 
ATOM     25  C   UNL     1     -82.856 -20.031  86.892  1.00  0.00     0.100 C 
ENDBRANCH  18  19
ENDBRANCH  13  18
ENDBRANCH   9  12
ENDBRANCH   1   8
BRANCH   3  26
ATOM     26  N   UNL     1     -73.967 -14.342  90.039  1.00  0.00    -0.324 N 
ATOM     27  H   UNL     1     -74.627 -13.532  90.002  1.00  0.00     0.170 HD
BRANCH  26  28
ATOM     28  C   UNL     1     -73.249 -14.550  91.264  1.00  0.00     0.227 A 
ATOM     29  N   UNL     1     -72.757 -15.783  91.552  1.00  0.00    -0.221 NA
ATOM     30  N   UNL     1     -73.032 -13.522  92.129  1.00  0.00    -0.213 NA
ATOM     31  C   UNL     1     -72.065 -16.011  92.698  1.00  0.00     0.117 A 
ATOM     32  C   UNL     1     -72.360 -13.698  93.299  1.00  0.00     0.077 A 
ATOM     33  C   UNL     1     -71.852 -14.971  93.602  1.00  0.00     0.049 A 
BRANCH  32  34
ATOM     34  C   UNL     1     -72.191 -12.546  94.219  1.00  0.00     0.019 A 
ATOM     35  C   UNL     1     -71.995 -12.728  95.601  1.00  0.00     0.121 A 
ATOM     36  C   UNL     1     -72.275 -11.233  93.728  1.00  0.00     0.013 A 
ATOM     37  N   UNL     1     -71.888 -11.652  96.426  1.00  0.00    -0.264 NA
ATOM     38  C   UNL     1     -72.159 -10.147  94.597  1.00  0.00     0.021 A 
ATOM     39  C   UNL     1     -71.963 -10.379  95.958  1.00  0.00     0.111 A 
ENDBRANCH  32  34
ENDBRANCH  26  28
ENDBRANCH   3  26
TORSDOF 7
ENDMDL
MODEL 11
REMARK VINA RESULT:    -9.419      2.900      3.615
REMARK INTER + INTRA:         -14.229
REMARK INTER:                 -13.115
REMARK INTRA:                  -1.114
REMARK UNBOUND:                -0.955
REMARK SMILES Cc1ccc(NC(=O)c2ccc(CN3CCN(C)CC3)cc2)cc1Nc1nccc(-c2cccnc2)n1
REMARK SMILES IDX 5 1 23 2 24 3 2 4 1 5 3 6 4 7 6 8 7 9 8 10 9 12 12 13 11 14
REMARK SMILES IDX 21 15 10 16 22 17 13 18 14 19 18 20 17 21 16 22 19 23 15 24
REMARK SMILES IDX 20 25 25 26 26 28 27 29 37 30 28 31 30 32 29 33 31 34 36 35
REMARK SMILES IDX 32 36 35 37 33 38 34 39
REMARK H PARENT 6 11 25 27
REMARK Flexibility Score: inf
ROOT
ATOM      1  C   UNL     1     -72.875 -15.778  88.786  1.00  0.00     0.043 A 
ATOM      2  C   UNL     1     -73.373 -16.967  88.228  1.00  0.00     0.052 A 
ATOM      3  C   UNL     1     -73.516 -17.109  86.835  1.00  0.00     0.046 A 
ATOM      4  C   UNL     1     -73.200 -16.016  85.995  1.00  0.00    -0.027 A 
ATOM      5  C   UNL     1     -73.357 -16.113  84.502  1.00  0.00     0.046 C 
ATOM      6  C   UNL     1     -72.751 -14.814  86.564  1.00  0.00     0.008 A 
ATOM      7  C   UNL     1     -72.588 -14.697  87.944  1.00  0.00     0.026 A 
ENDROOT
BRANCH   1   8
ATOM      8  N   UNL     1     -72.703 -15.636  90.205  1.00  0.00    -0.322 N 
ATOM      9  C   UNL     1     -73.730 -15.133  91.079  1.00  0.00     0.255 C 
ATOM     10  O   UNL     1     -74.920 -15.062  90.669  1.00  0.00    -0.269 OA
ATOM     11  H   UNL     1     -71.852 -16.060  90.639  1.00  0.00     0.170 HD
BRANCH   9  12
ATOM     12  C   UNL     1     -73.420 -14.747  92.475  1.00  0.00     0.040 A 
ATOM     13  C   UNL     1     -72.836 -14.029  95.138  1.00  0.00    -0.034 A 
ATOM     14  C   UNL     1     -72.284 -13.303  94.072  1.00  0.00     0.006 A 
ATOM     15  C   UNL     1     -73.691 -15.107  94.867  1.00  0.00     0.006 A 
ATOM     16  C   UNL     1     -72.571 -13.661  92.751  1.00  0.00     0.014 A 
ATOM     17  C   UNL     1     -73.986 -15.458  93.548  1.00  0.00     0.014 A 
BRANCH  13  18
ATOM     18  C   UNL     1     -72.524 -13.634  96.558  1.00  0.00     0.120 C 
BRANCH  18  19
ATOM     19  N   UNL     1     -73.423 -12.549  97.012  1.00  0.00    -0.297 NA
ATOM     20  C   UNL     1     -71.196 -11.878  99.836  1.00  0.00     0.105 C 
ATOM     21  N   UNL     1     -72.632 -11.609  99.650  1.00  0.00    -0.304 NA
ATOM     22  C   UNL     1     -73.416 -12.861  99.500  1.00  0.00     0.099 C 
ATOM     23  C   UNL     1     -72.868 -10.628  98.571  1.00  0.00     0.099 C 
ATOM     24  C   UNL     1     -74.229 -12.929  98.194  1.00  0.00     0.100 C 
ATOM     25  C   UNL     1     -72.708 -11.255  97.174  1.00  0.00     0.100 C 
ENDBRANCH  18  19
ENDBRANCH  13  18
ENDBRANCH   9  12
ENDBRANCH   1   8
BRANCH   3  26
ATOM     26  N   UNL     1     -74.041 -18.330  86.279  1.00  0.00    -0.324 N 
ATOM     27  H   UNL     1     -73.383 -18.988  85.804  1.00  0.00     0.170 HD
BRANCH  26  28
ATOM     28  C   UNL     1     -75.415 -18.734  86.382  1.00  0.00     0.227 A 
ATOM     29  N   UNL     1     -75.861 -19.307  87.531  1.00  0.00    -0.221 NA
ATOM     30  N   UNL     1     -76.281 -18.529  85.353  1.00  0.00    -0.213 NA
ATOM     31  C   UNL     1     -77.156 -19.691  87.663  1.00  0.00     0.117 A 
ATOM     32  C   UNL     1     -77.585 -18.911  85.426  1.00  0.00     0.077 A 
ATOM     33  C   UNL     1     -78.051 -19.504  86.610  1.00  0.00     0.049 A 
BRANCH  32  34
ATOM     34  C   UNL     1     -78.470 -18.696  84.254  1.00  0.00     0.019 A 
ATOM     35  C   UNL     1     -77.964 -18.243  83.022  1.00  0.00     0.121 A 
ATOM     36  C   UNL     1     -79.856 -18.897  84.371  1.00  0.00     0.013 A 
ATOM     37  N   UNL     1     -78.806 -18.013  81.978  1.00  0.00    -0.264 NA
ATOM     38  C   UNL     1     -80.696 -18.655  83.283  1.00  0.00     0.021 A 
ATOM     39  C   UNL     1     -80.146 -18.209  82.081  1.00  0.00     0.111 A 
ENDBRANCH  32  34
ENDBRANCH  26  28
ENDBRANCH   3  26
TORSDOF 7
ENDMDL
MODEL 12
REMARK VINA RESULT:    -9.359      2.266      3.658
REMARK INTER + INTRA:         -14.144
REMARK INTER:                 -13.027
REMARK INTRA:                  -1.117
REMARK UNBOUND:                -0.955
REMARK SMILES Cc1ccc(NC(=O)c2ccc(CN3CCN(C)CC3)cc2)cc1Nc1nccc(-c2cccnc2)n1
REMARK SMILES IDX 5 1 23 2 24 3 2 4 1 5 3 6 4 7 6 8 7 9 8 10 9 12 12 13 11 14
REMARK SMILES IDX 21 15 10 16 22 17 13 18 14 19 18 20 17 21 16 22 19 23 15 24
REMARK SMILES IDX 20 25 25 26 26 28 27 29 37 30 28 31 30 32 29 33 31 34 36 35
REMARK SMILES IDX 32 36 35 37 33 38 34 39
REMARK H PARENT 6 11 25 27
REMARK Flexibility Score: inf
ROOT
ATOM      1  C   UNL     1     -76.027 -16.915  87.157  1.00  0.00     0.043 A 
ATOM      2  C   UNL     1     -76.843 -18.022  86.870  1.00  0.00     0.052 A 
ATOM      3  C   UNL     1     -76.978 -18.499  85.553  1.00  0.00     0.046 A 
ATOM      4  C   UNL     1     -76.320 -17.818  84.502  1.00  0.00    -0.027 A 
ATOM      5  C   UNL     1     -76.452 -18.278  83.076  1.00  0.00     0.046 C 
ATOM      6  C   UNL     1     -75.549 -16.681  84.790  1.00  0.00     0.008 A 
ATOM      7  C   UNL     1     -75.402 -16.236  86.104  1.00  0.00     0.026 A 
ENDROOT
BRANCH   1   8
ATOM      8  N   UNL     1     -75.866 -16.439  88.503  1.00  0.00    -0.322 N 
ATOM      9  C   UNL     1     -75.005 -17.070  89.468  1.00  0.00     0.255 C 
ATOM     10  O   UNL     1     -74.141 -17.904  89.083  1.00  0.00    -0.269 OA
ATOM     11  H   UNL     1     -76.273 -15.506  88.743  1.00  0.00     0.170 HD
BRANCH   9  12
ATOM     12  C   UNL     1     -75.082 -16.716  90.903  1.00  0.00     0.040 A 
ATOM     13  C   UNL     1     -75.210 -16.047  93.640  1.00  0.00    -0.034 A 
ATOM     14  C   UNL     1     -76.183 -15.570  92.748  1.00  0.00     0.006 A 
ATOM     15  C   UNL     1     -74.182 -16.871  93.160  1.00  0.00     0.006 A 
ATOM     16  C   UNL     1     -76.117 -15.899  91.390  1.00  0.00     0.014 A 
ATOM     17  C   UNL     1     -74.122 -17.208  91.805  1.00  0.00     0.014 A 
BRANCH  13  18
ATOM     18  C   UNL     1     -75.291 -15.691  95.102  1.00  0.00     0.120 C 
BRANCH  18  19
ATOM     19  N   UNL     1     -73.954 -15.761  95.734  1.00  0.00    -0.297 NA
ATOM     20  C   UNL     1     -75.402 -14.701  98.922  1.00  0.00     0.105 C 
ATOM     21  N   UNL     1     -74.028 -14.599  98.401  1.00  0.00    -0.304 NA
ATOM     22  C   UNL     1     -73.954 -13.728  97.201  1.00  0.00     0.099 C 
ATOM     23  C   UNL     1     -73.418 -15.930  98.207  1.00  0.00     0.099 C 
ATOM     24  C   UNL     1     -73.358 -14.426  95.965  1.00  0.00     0.100 C 
ATOM     25  C   UNL     1     -73.947 -16.629  96.941  1.00  0.00     0.100 C 
ENDBRANCH  18  19
ENDBRANCH  13  18
ENDBRANCH   9  12
ENDBRANCH   1   8
BRANCH   3  26
ATOM     26  N   UNL     1     -77.827 -19.629  85.272  1.00  0.00    -0.324 N 
ATOM     27  H   UNL     1     -77.394 -20.576  85.197  1.00  0.00     0.170 HD
BRANCH  26  28
ATOM     28  C   UNL     1     -79.255 -19.546  85.140  1.00  0.00     0.227 A 
ATOM     29  N   UNL     1     -79.793 -18.895  84.076  1.00  0.00    -0.221 NA
ATOM     30  N   UNL     1     -80.075 -20.133  86.054  1.00  0.00    -0.213 NA
ATOM     31  C   UNL     1     -81.138 -18.808  83.917  1.00  0.00     0.117 A 
ATOM     32  C   UNL     1     -81.430 -20.061  85.952  1.00  0.00     0.077 A 
ATOM     33  C   UNL     1     -81.991 -19.388  84.855  1.00  0.00     0.049 A 
BRANCH  32  34
ATOM     34  C   UNL     1     -82.270 -20.687  87.003  1.00  0.00     0.019 A 
ATOM     35  C   UNL     1     -83.665 -20.503  87.038  1.00  0.00     0.121 A 
ATOM     36  C   UNL     1     -81.674 -21.445  88.024  1.00  0.00     0.013 A 
ATOM     37  N   UNL     1     -84.404 -21.053  88.039  1.00  0.00    -0.264 NA
ATOM     38  C   UNL     1     -82.457 -22.000  89.038  1.00  0.00     0.021 A 
ATOM     39  C   UNL     1     -83.835 -21.792  89.027  1.00  0.00     0.111 A 
ENDBRANCH  32  34
ENDBRANCH  26  28
ENDBRANCH   3  26
TORSDOF 7
ENDMDL
MODEL 13
REMARK VINA RESULT:    -9.346      3.710      6.239
REMARK INTER + INTRA:         -14.125
REMARK INTER:                 -13.676
REMARK INTRA:                  -0.449
REMARK UNBOUND:                -0.955
REMARK SMILES Cc1ccc(NC(=O)c2ccc(CN3CCN(C)CC3)cc2)cc1Nc1nccc(-c2cccnc2)n1
REMARK SMILES IDX 5 1 23 2 24 3 2 4 1 5 3 6 4 7 6 8 7 9 8 10 9 12 12 13 11 14
REMARK SMILES IDX 21 15 10 16 22 17 13 18 14 19 18 20 17 21 16 22 19 23 15 24
REMARK SMILES IDX 20 25 25 26 26 28 27 29 37 30 28 31 30 32 29 33 31 34 36 35
REMARK SMILES IDX 32 36 35 37 33 38 34 39
REMARK H PARENT 6 11 25 27
REMARK Flexibility Score: inf
ROOT
ATOM      1  C   UNL     1     -74.115 -16.451  84.663  1.00  0.00     0.043 A 
ATOM      2  C   UNL     1     -75.209 -16.911  83.912  1.00  0.00     0.052 A 
ATOM      3  C   UNL     1     -75.059 -17.264  82.558  1.00  0.00     0.046 A 
ATOM      4  C   UNL     1     -73.799 -17.102  81.939  1.00  0.00    -0.027 A 
ATOM      5  C   UNL     1     -73.596 -17.446  80.488  1.00  0.00     0.046 C 
ATOM      6  C   UNL     1     -72.723 -16.593  82.682  1.00  0.00     0.008 A 
ATOM      7  C   UNL     1     -72.879 -16.273  84.031  1.00  0.00     0.026 A 
ENDROOT
BRANCH   1   8
ATOM      8  N   UNL     1     -74.256 -16.112  86.053  1.00  0.00    -0.322 N 
ATOM      9  C   UNL     1     -74.485 -17.088  87.085  1.00  0.00     0.255 C 
ATOM     10  O   UNL     1     -74.289 -18.310  86.845  1.00  0.00    -0.269 OA
ATOM     11  H   UNL     1     -74.030 -15.133  86.342  1.00  0.00     0.170 HD
BRANCH   9  12
ATOM     12  C   UNL     1     -74.896 -16.673  88.446  1.00  0.00     0.040 A 
ATOM     13  C   UNL     1     -75.684 -15.903  91.042  1.00  0.00    -0.034 A 
ATOM     14  C   UNL     1     -74.946 -15.023  90.235  1.00  0.00     0.006 A 
ATOM     15  C   UNL     1     -76.038 -17.164  90.540  1.00  0.00     0.006 A 
ATOM     16  C   UNL     1     -74.553 -15.406  88.949  1.00  0.00     0.014 A 
ATOM     17  C   UNL     1     -75.654 -17.543  89.251  1.00  0.00     0.014 A 
BRANCH  13  18
ATOM     18  C   UNL     1     -76.107 -15.480  92.425  1.00  0.00     0.120 C 
BRANCH  18  19
ATOM     19  N   UNL     1     -74.946 -15.453  93.343  1.00  0.00    -0.297 NA
ATOM     20  C   UNL     1     -74.258 -18.965  92.586  1.00  0.00     0.105 C 
ATOM     21  N   UNL     1     -73.913 -18.142  93.758  1.00  0.00    -0.304 NA
ATOM     22  C   UNL     1     -75.121 -17.678  94.485  1.00  0.00     0.099 C 
ATOM     23  C   UNL     1     -72.980 -17.053  93.403  1.00  0.00     0.099 C 
ATOM     24  C   UNL     1     -75.212 -16.148  94.623  1.00  0.00     0.100 C 
ATOM     25  C   UNL     1     -73.691 -15.894  92.680  1.00  0.00     0.100 C 
ENDBRANCH  18  19
ENDBRANCH  13  18
ENDBRANCH   9  12
ENDBRANCH   1   8
BRANCH   3  26
ATOM     26  N   UNL     1     -76.194 -17.723  81.798  1.00  0.00    -0.324 N 
ATOM     27  H   UNL     1     -76.080 -17.874  80.770  1.00  0.00     0.170 HD
BRANCH  26  28
ATOM     28  C   UNL     1     -77.471 -18.040  82.372  1.00  0.00     0.227 A 
ATOM     29  N   UNL     1     -78.605 -17.770  81.675  1.00  0.00    -0.221 NA
ATOM     30  N   UNL     1     -77.558 -18.631  83.595  1.00  0.00    -0.213 NA
ATOM     31  C   UNL     1     -79.827 -18.066  82.186  1.00  0.00     0.117 A 
ATOM     32  C   UNL     1     -78.758 -18.934  84.161  1.00  0.00     0.077 A 
ATOM     33  C   UNL     1     -79.933 -18.655  83.446  1.00  0.00     0.049 A 
BRANCH  32  34
ATOM     34  C   UNL     1     -78.789 -19.541  85.515  1.00  0.00     0.019 A 
ATOM     35  C   UNL     1     -79.859 -20.353  85.935  1.00  0.00     0.121 A 
ATOM     36  C   UNL     1     -77.759 -19.272  86.431  1.00  0.00     0.013 A 
ATOM     37  N   UNL     1     -79.880 -20.859  87.197  1.00  0.00    -0.264 NA
ATOM     38  C   UNL     1     -77.805 -19.808  87.720  1.00  0.00     0.021 A 
ATOM     39  C   UNL     1     -78.886 -20.608  88.088  1.00  0.00     0.111 A 
ENDBRANCH  32  34
ENDBRANCH  26  28
ENDBRANCH   3  26
TORSDOF 7
ENDMDL
MODEL 14
REMARK VINA RESULT:    -9.293      4.624     11.251
REMARK INTER + INTRA:         -14.051
REMARK INTER:                 -12.989
REMARK INTRA:                  -1.063
REMARK UNBOUND:                -0.955
REMARK SMILES Cc1ccc(NC(=O)c2ccc(CN3CCN(C)CC3)cc2)cc1Nc1nccc(-c2cccnc2)n1
REMARK SMILES IDX 5 1 23 2 24 3 2 4 1 5 3 6 4 7 6 8 7 9 8 10 9 12 12 13 11 14
REMARK SMILES IDX 21 15 10 16 22 17 13 18 14 19 18 20 17 21 16 22 19 23 15 24
REMARK SMILES IDX 20 25 25 26 26 28 27 29 37 30 28 31 30 32 29 33 31 34 36 35
REMARK SMILES IDX 32 36 35 37 33 38 34 39
REMARK H PARENT 6 11 25 27
REMARK Flexibility Score: inf
ROOT
ATOM      1  C   UNL     1     -75.150 -18.176  84.431  1.00  0.00     0.043 A 
ATOM      2  C   UNL     1     -74.290 -17.921  85.511  1.00  0.00     0.052 A 
ATOM      3  C   UNL     1     -73.100 -17.192  85.332  1.00  0.00     0.046 A 
ATOM      4  C   UNL     1     -72.747 -16.757  84.033  1.00  0.00    -0.027 A 
ATOM      5  C   UNL     1     -71.474 -15.993  83.789  1.00  0.00     0.046 C 
ATOM      6  C   UNL     1     -73.587 -17.061  82.950  1.00  0.00     0.008 A 
ATOM      7  C   UNL     1     -74.777 -17.761  83.148  1.00  0.00     0.026 A 
ENDROOT
BRANCH   1   8
ATOM      8  N   UNL     1     -76.379 -18.899  84.613  1.00  0.00    -0.322 N 
ATOM      9  C   UNL     1     -77.506 -18.373  85.338  1.00  0.00     0.255 C 
ATOM     10  O   UNL     1     -77.561 -17.141  85.601  1.00  0.00    -0.269 OA
ATOM     11  H   UNL     1     -76.513 -19.779  84.066  1.00  0.00     0.170 HD
BRANCH   9  12
ATOM     12  C   UNL     1     -78.632 -19.249  85.733  1.00  0.00     0.040 A 
ATOM     13  C   UNL     1     -80.784 -20.916  86.468  1.00  0.00    -0.034 A 
ATOM     14  C   UNL     1     -79.642 -20.837  87.278  1.00  0.00     0.006 A 
ATOM     15  C   UNL     1     -80.852 -20.148  85.297  1.00  0.00     0.006 A 
ATOM     16  C   UNL     1     -78.573 -20.013  86.912  1.00  0.00     0.014 A 
ATOM     17  C   UNL     1     -79.789 -19.317  84.936  1.00  0.00     0.014 A 
BRANCH  13  18
ATOM     18  C   UNL     1     -81.933 -21.804  86.873  1.00  0.00     0.120 C 
BRANCH  18  19
ATOM     19  N   UNL     1     -83.226 -21.109  86.686  1.00  0.00    -0.297 NA
ATOM     20  C   UNL     1     -83.768 -21.135  90.304  1.00  0.00     0.105 C 
ATOM     21  N   UNL     1     -84.719 -21.051  89.183  1.00  0.00    -0.304 NA
ATOM     22  C   UNL     1     -84.699 -22.276  88.345  1.00  0.00     0.099 C 
ATOM     23  C   UNL     1     -84.545 -19.802  88.413  1.00  0.00     0.099 C 
ATOM     24  C   UNL     1     -84.390 -22.007  86.861  1.00  0.00     0.100 C 
ATOM     25  C   UNL     1     -83.316 -19.860  87.488  1.00  0.00     0.100 C 
ENDBRANCH  18  19
ENDBRANCH  13  18
ENDBRANCH   9  12
ENDBRANCH   1   8
BRANCH   3  26
ATOM     26  N   UNL     1     -72.221 -16.948  86.448  1.00  0.00    -0.324 N 
ATOM     27  H   UNL     1     -71.284 -17.410  86.458  1.00  0.00     0.170 HD
BRANCH  26  28
ATOM     28  C   UNL     1     -72.529 -16.062  87.534  1.00  0.00     0.227 A 
ATOM     29  N   UNL     1     -71.960 -14.828  87.575  1.00  0.00    -0.221 NA
ATOM     30  N   UNL     1     -73.402 -16.432  88.510  1.00  0.00    -0.213 NA
ATOM     31  C   UNL     1     -72.238 -13.963  88.583  1.00  0.00     0.117 A 
ATOM     32  C   UNL     1     -73.702 -15.610  89.553  1.00  0.00     0.077 A 
ATOM     33  C   UNL     1     -73.116 -14.336  89.600  1.00  0.00     0.049 A 
BRANCH  32  34
ATOM     34  C   UNL     1     -74.632 -16.087  90.607  1.00  0.00     0.019 A 
ATOM     35  C   UNL     1     -74.807 -17.458  90.870  1.00  0.00     0.121 A 
ATOM     36  C   UNL     1     -75.401 -15.166  91.338  1.00  0.00     0.013 A 
ATOM     37  N   UNL     1     -75.699 -17.867  91.812  1.00  0.00    -0.264 NA
ATOM     38  C   UNL     1     -76.307 -15.614  92.301  1.00  0.00     0.021 A 
ATOM     39  C   UNL     1     -76.442 -16.983  92.527  1.00  0.00     0.111 A 
ENDBRANCH  32  34
ENDBRANCH  26  28
ENDBRANCH   3  26
TORSDOF 7
ENDMDL
MODEL 15
REMARK VINA RESULT:    -9.278      5.675     11.275
REMARK INTER + INTRA:         -14.030
REMARK INTER:                 -13.129
REMARK INTRA:                  -0.901
REMARK UNBOUND:                -0.955
REMARK SMILES Cc1ccc(NC(=O)c2ccc(CN3CCN(C)CC3)cc2)cc1Nc1nccc(-c2cccnc2)n1
REMARK SMILES IDX 5 1 23 2 24 3 2 4 1 5 3 6 4 7 6 8 7 9 8 10 9 12 12 13 11 14
REMARK SMILES IDX 21 15 10 16 22 17 13 18 14 19 18 20 17 21 16 22 19 23 15 24
REMARK SMILES IDX 20 25 25 26 26 28 27 29 37 30 28 31 30 32 29 33 31 34 36 35
REMARK SMILES IDX 32 36 35 37 33 38 34 39
REMARK H PARENT 6 11 25 27
REMARK Flexibility Score: inf
ROOT
ATOM      1  C   UNL     1     -75.280 -18.006  83.560  1.00  0.00     0.043 A 
ATOM      2  C   UNL     1     -74.639 -17.113  84.434  1.00  0.00     0.052 A 
ATOM      3  C   UNL     1     -73.497 -16.398  84.029  1.00  0.00     0.046 A 
ATOM      4  C   UNL     1     -72.961 -16.626  82.740  1.00  0.00    -0.027 A 
ATOM      5  C   UNL     1     -71.729 -15.902  82.271  1.00  0.00     0.046 C 
ATOM      6  C   UNL     1     -73.577 -17.559  81.891  1.00  0.00     0.008 A 
ATOM      7  C   UNL     1     -74.725 -18.240  82.296  1.00  0.00     0.026 A 
ENDROOT
BRANCH   1   8
ATOM      8  N   UNL     1     -76.461 -18.720  83.959  1.00  0.00    -0.322 N 
ATOM      9  C   UNL     1     -77.792 -18.314  83.592  1.00  0.00     0.255 C 
ATOM     10  O   UNL     1     -77.957 -17.473  82.667  1.00  0.00    -0.269 OA
ATOM     11  H   UNL     1     -76.338 -19.657  84.405  1.00  0.00     0.170 HD
BRANCH   9  12
ATOM     12  C   UNL     1     -78.978 -18.911  84.248  1.00  0.00     0.040 A 
ATOM     13  C   UNL     1     -81.246 -20.044  85.481  1.00  0.00    -0.034 A 
ATOM     14  C   UNL     1     -79.965 -20.286  85.997  1.00  0.00     0.006 A 
ATOM     15  C   UNL     1     -81.390 -19.222  84.354  1.00  0.00     0.006 A 
ATOM     16  C   UNL     1     -78.839 -19.727  85.384  1.00  0.00     0.014 A 
ATOM     17  C   UNL     1     -80.267 -18.655  83.747  1.00  0.00     0.014 A 
BRANCH  13  18
ATOM     18  C   UNL     1     -82.454 -20.648  86.151  1.00  0.00     0.120 C 
BRANCH  18  19
ATOM     19  N   UNL     1     -82.562 -20.187  87.553  1.00  0.00    -0.297 NA
ATOM     20  C   UNL     1     -85.253 -22.596  88.141  1.00  0.00     0.105 C 
ATOM     21  N   UNL     1     -84.919 -21.332  88.820  1.00  0.00    -0.304 NA
ATOM     22  C   UNL     1     -85.044 -20.165  87.912  1.00  0.00     0.099 C 
ATOM     23  C   UNL     1     -83.614 -21.412  89.509  1.00  0.00     0.099 C 
ATOM     24  C   UNL     1     -83.752 -19.337  87.786  1.00  0.00     0.100 C 
ATOM     25  C   UNL     1     -82.434 -21.304  88.525  1.00  0.00     0.100 C 
ENDBRANCH  18  19
ENDBRANCH  13  18
ENDBRANCH   9  12
ENDBRANCH   1   8
BRANCH   3  26
ATOM     26  N   UNL     1     -72.844 -15.494  84.942  1.00  0.00    -0.324 N 
ATOM     27  H   UNL     1     -72.145 -14.817  84.562  1.00  0.00     0.170 HD
BRANCH  26  28
ATOM     28  C   UNL     1     -73.130 -15.426  86.347  1.00  0.00     0.227 A 
ATOM     29  N   UNL     1     -72.556 -14.452  87.102  1.00  0.00    -0.221 NA
ATOM     30  N   UNL     1     -73.988 -16.307  86.928  1.00  0.00    -0.213 NA
ATOM     31  C   UNL     1     -72.814 -14.354  88.430  1.00  0.00     0.117 A 
ATOM     32  C   UNL     1     -74.268 -16.265  88.259  1.00  0.00     0.077 A 
ATOM     33  C   UNL     1     -73.677 -15.262  89.043  1.00  0.00     0.049 A 
BRANCH  32  34
ATOM     34  C   UNL     1     -75.182 -17.280  88.840  1.00  0.00     0.019 A 
ATOM     35  C   UNL     1     -75.073 -17.686  90.183  1.00  0.00     0.121 A 
ATOM     36  C   UNL     1     -76.153 -17.898  88.036  1.00  0.00     0.013 A 
ATOM     37  N   UNL     1     -75.895 -18.651  90.676  1.00  0.00    -0.264 NA
ATOM     38  C   UNL     1     -76.986 -18.884  88.569  1.00  0.00     0.021 A 
ATOM     39  C   UNL     1     -76.841 -19.250  89.906  1.00  0.00     0.111 A 
ENDBRANCH  32  34
ENDBRANCH  26  28
ENDBRANCH   3  26
TORSDOF 7
ENDMDL
