MODEL 1
REMARK VINA RESULT:    -8.457      0.000      0.000
REMARK INTER + INTRA:         -12.099
REMARK INTER:                 -11.671
REMARK INTRA:                  -0.428
REMARK UNBOUND:                -0.428
REMARK SMILES CN1CCCN=C1COC(=O)C(O)(c1ccccc1)C1CCCCC1
REMARK SMILES IDX 10 1 11 2 9 3 8 4 7 5 1 6 2 7 3 8 4 9 6 10 5 11 12 12 13 13
REMARK SMILES IDX 20 15 21 16 25 17 22 18 24 19 23 20 14 21 15 22 19 23 16 24
REMARK SMILES IDX 18 25 17 26
REMARK H PARENT 13 14
REMARK Flexibility Score: inf
ROOT
ATOM      1  C   UNL     1      28.549  11.248  10.663  1.00  0.00     0.343 C 
ATOM      2  O   UNL     1      28.707  11.431  11.902  1.00  0.00    -0.248 OA
ENDROOT
BRANCH   1   3
ATOM      3  O   UNL     1      29.653  10.949   9.856  1.00  0.00    -0.455 OA
BRANCH   3   4
ATOM      4  C   UNL     1      30.622   9.955  10.181  1.00  0.00     0.307 C 
BRANCH   4   5
ATOM      5  C   UNL     1      31.990  10.580  10.266  1.00  0.00     0.137 C 
ATOM      6  C   UNL     1      33.146   8.567   9.238  1.00  0.00     0.145 C 
ATOM      7  N   UNL     1      33.201   9.837   9.966  1.00  0.00    -0.360 N 
ATOM      8  C   UNL     1      34.523  10.434  10.216  1.00  0.00     0.119 C 
ATOM      9  C   UNL     1      34.447  11.569  11.237  1.00  0.00     0.045 C 
ATOM     10  N   UNL     1      32.067  11.802  10.707  1.00  0.00    -0.269 NA
ATOM     11  C   UNL     1      33.326  12.527  10.848  1.00  0.00     0.146 C 
ENDBRANCH   4   5
ENDBRANCH   3   4
ENDBRANCH   1   3
BRANCH   1  12
ATOM     12  C   UNL     1      27.160  11.386  10.041  1.00  0.00     0.190 C 
BRANCH  12  13
ATOM     13  O   UNL     1      27.301  11.485   8.640  1.00  0.00    -0.374 OA
ATOM     14  H   UNL     1      26.951  10.649   8.233  1.00  0.00     0.212 HD
ENDBRANCH  12  13
BRANCH  12  15
ATOM     15  C   UNL     1      26.321  10.088  10.327  1.00  0.00     0.037 C 
ATOM     16  C   UNL     1      27.077   8.760  10.009  1.00  0.00     0.007 C 
ATOM     17  C   UNL     1      24.928  10.122   9.651  1.00  0.00     0.007 C 
ATOM     18  C   UNL     1      26.149   7.607   9.588  1.00  0.00     0.000 C 
ATOM     19  C   UNL     1      24.042   8.944  10.097  1.00  0.00     0.000 C 
ATOM     20  C   UNL     1      24.829   7.646  10.363  1.00  0.00     0.000 C 
ENDBRANCH  12  15
BRANCH  12  21
ATOM     21  C   UNL     1      26.409  12.641  10.532  1.00  0.00    -0.005 A 
ATOM     22  C   UNL     1      25.146  12.581  11.167  1.00  0.00     0.007 A 
ATOM     23  C   UNL     1      27.028  13.904  10.409  1.00  0.00     0.007 A 
ATOM     24  C   UNL     1      24.513  13.746  11.609  1.00  0.00     0.000 A 
ATOM     25  C   UNL     1      26.390  15.064  10.855  1.00  0.00     0.000 A 
ATOM     26  C   UNL     1      25.130  14.986  11.448  1.00  0.00     0.000 A 
ENDBRANCH  12  21
ENDBRANCH   1  12
TORSDOF 7
ENDMDL
MODEL 2
REMARK VINA RESULT:    -8.450      0.850      1.858
REMARK INTER + INTRA:         -12.089
REMARK INTER:                 -11.615
REMARK INTRA:                  -0.473
REMARK UNBOUND:                -0.428
REMARK SMILES CN1CCCN=C1COC(=O)C(O)(c1ccccc1)C1CCCCC1
REMARK SMILES IDX 10 1 11 2 9 3 8 4 7 5 1 6 2 7 3 8 4 9 6 10 5 11 12 12 13 13
REMARK SMILES IDX 20 15 21 16 25 17 22 18 24 19 23 20 14 21 15 22 19 23 16 24
REMARK SMILES IDX 18 25 17 26
REMARK H PARENT 13 14
REMARK Flexibility Score: inf
ROOT
ATOM      1  C   UNL     1      28.488  11.356  10.602  1.00  0.00     0.343 C 
ATOM      2  O   UNL     1      28.666  11.400  11.851  1.00  0.00    -0.248 OA
ENDROOT
BRANCH   1   3
ATOM      3  O   UNL     1      29.590  11.279   9.743  1.00  0.00    -0.455 OA
BRANCH   3   4
ATOM      4  C   UNL     1      30.941  11.222  10.194  1.00  0.00     0.307 C 
BRANCH   4   5
ATOM      5  C   UNL     1      31.527   9.867   9.893  1.00  0.00     0.137 C 
ATOM      6  C   UNL     1      33.908  10.622  10.346  1.00  0.00     0.145 C 
ATOM      7  N   UNL     1      32.959   9.644   9.809  1.00  0.00    -0.360 N 
ATOM      8  C   UNL     1      33.486   8.347   9.355  1.00  0.00     0.119 C 
ATOM      9  C   UNL     1      32.450   7.567   8.544  1.00  0.00     0.045 C 
ATOM     10  N   UNL     1      30.699   8.900   9.620  1.00  0.00    -0.269 NA
ATOM     11  C   UNL     1      31.127   7.542   9.304  1.00  0.00     0.146 C 
ENDBRANCH   4   5
ENDBRANCH   3   4
ENDBRANCH   1   3
BRANCH   1  12
ATOM     12  C   UNL     1      27.073  11.419  10.030  1.00  0.00     0.190 C 
BRANCH  12  13
ATOM     13  O   UNL     1      27.159  11.542   8.626  1.00  0.00    -0.374 OA
ATOM     14  H   UNL     1      27.617  10.733   8.272  1.00  0.00     0.212 HD
ENDBRANCH  12  13
BRANCH  12  15
ATOM     15  C   UNL     1      26.320  10.072  10.328  1.00  0.00     0.037 C 
ATOM     16  C   UNL     1      27.155   8.794  10.005  1.00  0.00     0.007 C 
ATOM     17  C   UNL     1      24.921  10.016   9.667  1.00  0.00     0.007 C 
ATOM     18  C   UNL     1      26.297   7.583   9.598  1.00  0.00     0.000 C 
ATOM     19  C   UNL     1      24.115   8.786  10.125  1.00  0.00     0.000 C 
ATOM     20  C   UNL     1      24.986   7.541  10.386  1.00  0.00     0.000 C 
ENDBRANCH  12  15
BRANCH  12  21
ATOM     21  C   UNL     1      26.267  12.623  10.562  1.00  0.00    -0.005 A 
ATOM     22  C   UNL     1      25.013  12.487  11.202  1.00  0.00     0.007 A 
ATOM     23  C   UNL     1      26.827  13.917  10.473  1.00  0.00     0.007 A 
ATOM     24  C   UNL     1      24.330  13.608  11.681  1.00  0.00     0.000 A 
ATOM     25  C   UNL     1      26.139  15.032  10.956  1.00  0.00     0.000 A 
ATOM     26  C   UNL     1      24.888  14.879  11.553  1.00  0.00     0.000 A 
ENDBRANCH  12  21
ENDBRANCH   1  12
TORSDOF 7
ENDMDL
MODEL 3
REMARK VINA RESULT:    -8.342      1.240      4.435
REMARK INTER + INTRA:         -11.940
REMARK INTER:                 -11.318
REMARK INTRA:                  -0.622
REMARK UNBOUND:                -0.428
REMARK SMILES CN1CCCN=C1COC(=O)C(O)(c1ccccc1)C1CCCCC1
REMARK SMILES IDX 10 1 11 2 9 3 8 4 7 5 1 6 2 7 3 8 4 9 6 10 5 11 12 12 13 13
REMARK SMILES IDX 20 15 21 16 25 17 22 18 24 19 23 20 14 21 15 22 19 23 16 24
REMARK SMILES IDX 18 25 17 26
REMARK H PARENT 13 14
REMARK Flexibility Score: inf
ROOT
ATOM      1  C   UNL     1      27.989  11.396   8.937  1.00  0.00     0.343 C 
ATOM      2  O   UNL     1      27.440  11.245   7.809  1.00  0.00    -0.248 OA
ENDROOT
BRANCH   1   3
ATOM      3  O   UNL     1      29.360  11.665   9.014  1.00  0.00    -0.455 OA
BRANCH   3   4
ATOM      4  C   UNL     1      30.322  11.132   8.107  1.00  0.00     0.307 C 
BRANCH   4   5
ATOM      5  C   UNL     1      30.961   9.903   8.700  1.00  0.00     0.137 C 
ATOM      6  C   UNL     1      33.076  11.134   9.374  1.00  0.00     0.145 C 
ATOM      7  N   UNL     1      32.340   9.887   9.149  1.00  0.00    -0.360 N 
ATOM      8  C   UNL     1      32.973   8.626   9.571  1.00  0.00     0.119 C 
ATOM      9  C   UNL     1      32.245   7.409   8.999  1.00  0.00     0.045 C 
ATOM     10  N   UNL     1      30.255   8.809   8.721  1.00  0.00    -0.269 NA
ATOM     11  C   UNL     1      30.748   7.545   9.258  1.00  0.00     0.146 C 
ENDBRANCH   4   5
ENDBRANCH   3   4
ENDBRANCH   1   3
BRANCH   1  12
ATOM     12  C   UNL     1      27.162  11.252  10.214  1.00  0.00     0.190 C 
BRANCH  12  13
ATOM     13  O   UNL     1      28.043  11.175  11.314  1.00  0.00    -0.374 OA
ATOM     14  H   UNL     1      27.564  10.731  12.064  1.00  0.00     0.212 HD
ENDBRANCH  12  13
BRANCH  12  15
ATOM     15  C   UNL     1      26.280  12.536  10.420  1.00  0.00     0.037 C 
ATOM     16  C   UNL     1      27.080  13.874  10.352  1.00  0.00     0.007 C 
ATOM     17  C   UNL     1      25.413  12.459  11.702  1.00  0.00     0.007 C 
ATOM     18  C   UNL     1      26.476  14.999  11.211  1.00  0.00     0.000 C 
ATOM     19  C   UNL     1      24.411  13.625  11.791  1.00  0.00     0.000 C 
ATOM     20  C   UNL     1      24.946  14.944  11.200  1.00  0.00     0.000 C 
ENDBRANCH  12  15
BRANCH  12  21
ATOM     21  C   UNL     1      26.287   9.982  10.218  1.00  0.00    -0.005 A 
ATOM     22  C   UNL     1      24.872  10.023  10.202  1.00  0.00     0.007 A 
ATOM     23  C   UNL     1      26.912   8.717  10.166  1.00  0.00     0.007 A 
ATOM     24  C   UNL     1      24.124   8.842  10.190  1.00  0.00     0.000 A 
ATOM     25  C   UNL     1      26.157   7.541  10.152  1.00  0.00     0.000 A 
ATOM     26  C   UNL     1      24.764   7.604  10.172  1.00  0.00     0.000 A 
ENDBRANCH  12  21
ENDBRANCH   1  12
TORSDOF 7
ENDMDL
MODEL 4
REMARK VINA RESULT:    -8.162      1.053      1.867
REMARK INTER + INTRA:         -11.692
REMARK INTER:                 -11.166
REMARK INTRA:                  -0.526
REMARK UNBOUND:                -0.428
REMARK SMILES CN1CCCN=C1COC(=O)C(O)(c1ccccc1)C1CCCCC1
REMARK SMILES IDX 10 1 11 2 9 3 8 4 7 5 1 6 2 7 3 8 4 9 6 10 5 11 12 12 13 13
REMARK SMILES IDX 20 15 21 16 25 17 22 18 24 19 23 20 14 21 15 22 19 23 16 24
REMARK SMILES IDX 18 25 17 26
REMARK H PARENT 13 14
REMARK Flexibility Score: inf
ROOT
ATOM      1  C   UNL     1      28.689  11.330  10.616  1.00  0.00     0.343 C 
ATOM      2  O   UNL     1      28.845  11.239  11.866  1.00  0.00    -0.248 OA
ENDROOT
BRANCH   1   3
ATOM      3  O   UNL     1      29.806  11.447   9.781  1.00  0.00    -0.455 OA
BRANCH   3   4
ATOM      4  C   UNL     1      30.590  12.632   9.671  1.00  0.00     0.307 C 
BRANCH   4   5
ATOM      5  C   UNL     1      31.896  12.453  10.401  1.00  0.00     0.137 C 
ATOM      6  C   UNL     1      31.987  14.875  11.157  1.00  0.00     0.145 C 
ATOM      7  N   UNL     1      32.629  13.573  10.962  1.00  0.00    -0.360 N 
ATOM      8  C   UNL     1      33.975  13.376  11.524  1.00  0.00     0.119 C 
ATOM      9  C   UNL     1      34.635  12.107  10.983  1.00  0.00     0.045 C 
ATOM     10  N   UNL     1      32.403  11.255  10.443  1.00  0.00    -0.269 NA
ATOM     11  C   UNL     1      33.663  10.939  11.108  1.00  0.00     0.146 C 
ENDBRANCH   4   5
ENDBRANCH   3   4
ENDBRANCH   1   3
BRANCH   1  12
ATOM     12  C   UNL     1      27.282  11.345  10.021  1.00  0.00     0.190 C 
BRANCH  12  13
ATOM     13  O   UNL     1      27.386  11.480   8.620  1.00  0.00    -0.374 OA
ATOM     14  H   UNL     1      27.782  12.370   8.423  1.00  0.00     0.212 HD
ENDBRANCH  12  13
BRANCH  12  15
ATOM     15  C   UNL     1      26.574   9.970  10.300  1.00  0.00     0.037 C 
ATOM     16  C   UNL     1      27.430   8.725   9.909  1.00  0.00     0.007 C 
ATOM     17  C   UNL     1      25.156   9.897   9.681  1.00  0.00     0.007 C 
ATOM     18  C   UNL     1      26.591   7.505   9.489  1.00  0.00     0.000 C 
ATOM     19  C   UNL     1      24.398   8.633  10.125  1.00  0.00     0.000 C 
ATOM     20  C   UNL     1      25.308   7.404  10.318  1.00  0.00     0.000 C 
ENDBRANCH  12  15
BRANCH  12  21
ATOM     21  C   UNL     1      26.425  12.516  10.547  1.00  0.00    -0.005 A 
ATOM     22  C   UNL     1      25.180  12.328  11.193  1.00  0.00     0.007 A 
ATOM     23  C   UNL     1      26.925  13.832  10.447  1.00  0.00     0.007 A 
ATOM     24  C   UNL     1      24.448  13.420  11.666  1.00  0.00     0.000 A 
ATOM     25  C   UNL     1      26.189  14.920  10.924  1.00  0.00     0.000 A 
ATOM     26  C   UNL     1      24.948  14.715  11.527  1.00  0.00     0.000 A 
ENDBRANCH  12  21
ENDBRANCH   1  12
TORSDOF 7
ENDMDL
MODEL 5
REMARK VINA RESULT:    -7.997      1.823      3.233
REMARK INTER + INTRA:         -11.464
REMARK INTER:                 -10.479
REMARK INTRA:                  -0.986
REMARK UNBOUND:                -0.428
REMARK SMILES CN1CCCN=C1COC(=O)C(O)(c1ccccc1)C1CCCCC1
REMARK SMILES IDX 10 1 11 2 9 3 8 4 7 5 1 6 2 7 3 8 4 9 6 10 5 11 12 12 13 13
REMARK SMILES IDX 20 15 21 16 25 17 22 18 24 19 23 20 14 21 15 22 19 23 16 24
REMARK SMILES IDX 18 25 17 26
REMARK H PARENT 13 14
REMARK Flexibility Score: inf
ROOT
ATOM      1  C   UNL     1      27.931  12.865  10.514  1.00  0.00     0.343 C 
ATOM      2  O   UNL     1      27.511  14.043  10.338  1.00  0.00    -0.248 OA
ENDROOT
BRANCH   1   3
ATOM      3  O   UNL     1      29.047  12.637  11.328  1.00  0.00    -0.455 OA
BRANCH   3   4
ATOM      4  C   UNL     1      30.312  13.262  11.127  1.00  0.00     0.307 C 
BRANCH   4   5
ATOM      5  C   UNL     1      31.225  12.340  10.362  1.00  0.00     0.137 C 
ATOM      6  C   UNL     1      31.586  14.002   8.478  1.00  0.00     0.145 C 
ATOM      7  N   UNL     1      31.690  12.645   9.022  1.00  0.00    -0.360 N 
ATOM      8  C   UNL     1      32.447  11.647   8.249  1.00  0.00     0.119 C 
ATOM      9  C   UNL     1      32.209  10.229   8.769  1.00  0.00     0.045 C 
ATOM     10  N   UNL     1      31.526  11.199  10.913  1.00  0.00    -0.269 NA
ATOM     11  C   UNL     1      32.392  10.207  10.283  1.00  0.00     0.146 C 
ENDBRANCH   4   5
ENDBRANCH   3   4
ENDBRANCH   1   3
BRANCH   1  12
ATOM     12  C   UNL     1      27.240  11.695   9.815  1.00  0.00     0.190 C 
BRANCH  12  13
ATOM     13  O   UNL     1      27.019  12.044   8.465  1.00  0.00    -0.374 OA
ATOM     14  H   UNL     1      27.757  12.644   8.175  1.00  0.00     0.212 HD
ENDBRANCH  12  13
BRANCH  12  15
ATOM     15  C   UNL     1      28.189  10.442   9.816  1.00  0.00     0.037 C 
ATOM     16  C   UNL     1      28.406   9.810   8.406  1.00  0.00     0.007 C 
ATOM     17  C   UNL     1      27.761   9.376  10.855  1.00  0.00     0.007 C 
ATOM     18  C   UNL     1      28.678   8.296   8.444  1.00  0.00     0.000 C 
ATOM     19  C   UNL     1      28.804   8.250  10.987  1.00  0.00     0.000 C 
ATOM     20  C   UNL     1      29.519   7.913   9.665  1.00  0.00     0.000 C 
ENDBRANCH  12  15
BRANCH  12  21
ATOM     21  C   UNL     1      25.875  11.347  10.444  1.00  0.00    -0.005 A 
ATOM     22  C   UNL     1      25.272  12.130  11.456  1.00  0.00     0.007 A 
ATOM     23  C   UNL     1      25.155  10.238   9.949  1.00  0.00     0.007 A 
ATOM     24  C   UNL     1      24.026  11.781  11.983  1.00  0.00     0.000 A 
ATOM     25  C   UNL     1      23.908   9.896  10.479  1.00  0.00     0.000 A 
ATOM     26  C   UNL     1      23.347  10.662  11.500  1.00  0.00     0.000 A 
ENDBRANCH  12  21
ENDBRANCH   1  12
TORSDOF 7
ENDMDL
MODEL 6
REMARK VINA RESULT:    -7.985      2.812      5.136
REMARK INTER + INTRA:         -11.448
REMARK INTER:                 -10.699
REMARK INTRA:                  -0.749
REMARK UNBOUND:                -0.428
REMARK SMILES CN1CCCN=C1COC(=O)C(O)(c1ccccc1)C1CCCCC1
REMARK SMILES IDX 10 1 11 2 9 3 8 4 7 5 1 6 2 7 3 8 4 9 6 10 5 11 12 12 13 13
REMARK SMILES IDX 20 15 21 16 25 17 22 18 24 19 23 20 14 21 15 22 19 23 16 24
REMARK SMILES IDX 18 25 17 26
REMARK H PARENT 13 14
REMARK Flexibility Score: inf
ROOT
ATOM      1  C   UNL     1      29.239   8.270   8.965  1.00  0.00     0.343 C 
ATOM      2  O   UNL     1      28.655   8.156   7.852  1.00  0.00    -0.248 OA
ENDROOT
BRANCH   1   3
ATOM      3  O   UNL     1      30.434   7.579   9.200  1.00  0.00    -0.455 OA
BRANCH   3   4
ATOM      4  C   UNL     1      31.724   8.174   9.094  1.00  0.00     0.307 C 
BRANCH   4   5
ATOM      5  C   UNL     1      32.726   7.148   8.629  1.00  0.00     0.137 C 
ATOM      6  C   UNL     1      34.577   8.860   8.333  1.00  0.00     0.145 C 
ATOM      7  N   UNL     1      34.030   7.519   8.112  1.00  0.00    -0.360 N 
ATOM      8  C   UNL     1      34.915   6.502   7.521  1.00  0.00     0.119 C 
ATOM      9  C   UNL     1      34.134   5.268   7.066  1.00  0.00     0.045 C 
ATOM     10  N   UNL     1      32.352   5.902   8.624  1.00  0.00    -0.269 NA
ATOM     11  C   UNL     1      33.216   4.807   8.193  1.00  0.00     0.146 C 
ENDBRANCH   4   5
ENDBRANCH   3   4
ENDBRANCH   1   3
BRANCH   1  12
ATOM     12  C   UNL     1      28.626   9.136  10.064  1.00  0.00     0.190 C 
BRANCH  12  13
ATOM     13  O   UNL     1      29.108   8.689  11.313  1.00  0.00    -0.374 OA
ATOM     14  H   UNL     1      28.337   8.620  11.937  1.00  0.00     0.212 HD
ENDBRANCH  12  13
BRANCH  12  15
ATOM     15  C   UNL     1      29.101  10.624   9.893  1.00  0.00     0.037 C 
ATOM     16  C   UNL     1      29.708  10.940   8.491  1.00  0.00     0.007 C 
ATOM     17  C   UNL     1      30.046  11.079  11.033  1.00  0.00     0.007 C 
ATOM     18  C   UNL     1      30.773  12.050   8.514  1.00  0.00     0.000 C 
ATOM     19  C   UNL     1      30.346  12.588  10.966  1.00  0.00     0.000 C 
ATOM     20  C   UNL     1      30.417  13.139   9.529  1.00  0.00     0.000 C 
ENDBRANCH  12  15
BRANCH  12  21
ATOM     21  C   UNL     1      27.085   9.056  10.096  1.00  0.00    -0.005 A 
ATOM     22  C   UNL     1      26.380   7.832  10.169  1.00  0.00     0.007 A 
ATOM     23  C   UNL     1      26.336  10.253  10.121  1.00  0.00     0.007 A 
ATOM     24  C   UNL     1      24.983   7.813  10.211  1.00  0.00     0.000 A 
ATOM     25  C   UNL     1      24.940  10.226  10.166  1.00  0.00     0.000 A 
ATOM     26  C   UNL     1      24.263   9.008  10.203  1.00  0.00     0.000 A 
ENDBRANCH  12  21
ENDBRANCH   1  12
TORSDOF 7
ENDMDL
MODEL 7
REMARK VINA RESULT:    -7.902      2.511      7.241
REMARK INTER + INTRA:         -11.334
REMARK INTER:                 -10.562
REMARK INTRA:                  -0.772
REMARK UNBOUND:                -0.428
REMARK SMILES CN1CCCN=C1COC(=O)C(O)(c1ccccc1)C1CCCCC1
REMARK SMILES IDX 10 1 11 2 9 3 8 4 7 5 1 6 2 7 3 8 4 9 6 10 5 11 12 12 13 13
REMARK SMILES IDX 20 15 21 16 25 17 22 18 24 19 23 20 14 21 15 22 19 23 16 24
REMARK SMILES IDX 18 25 17 26
REMARK H PARENT 13 14
REMARK Flexibility Score: inf
ROOT
ATOM      1  C   UNL     1      29.534  12.781  11.167  1.00  0.00     0.343 C 
ATOM      2  O   UNL     1      30.207  13.552  11.907  1.00  0.00    -0.248 OA
ENDROOT
BRANCH   1   3
ATOM      3  O   UNL     1      28.164  12.611  11.400  1.00  0.00    -0.455 OA
BRANCH   3   4
ATOM      4  C   UNL     1      27.149  13.320  10.694  1.00  0.00     0.307 C 
BRANCH   4   5
ATOM      5  C   UNL     1      25.845  12.569  10.778  1.00  0.00     0.137 C 
ATOM      6  C   UNL     1      24.546  14.601  11.570  1.00  0.00     0.145 C 
ATOM      7  N   UNL     1      24.650  13.156  11.357  1.00  0.00    -0.360 N 
ATOM      8  C   UNL     1      23.445  12.338  11.567  1.00  0.00     0.119 C 
ATOM      9  C   UNL     1      23.775  10.845  11.615  1.00  0.00     0.045 C 
ATOM     10  N   UNL     1      25.839  11.328  10.388  1.00  0.00    -0.269 NA
ATOM     11  C   UNL     1      24.650  10.482  10.421  1.00  0.00     0.146 C 
ENDBRANCH   4   5
ENDBRANCH   3   4
ENDBRANCH   1   3
BRANCH   1  12
ATOM     12  C   UNL     1      30.221  12.013  10.040  1.00  0.00     0.190 C 
BRANCH  12  13
ATOM     13  O   UNL     1      30.104  12.760   8.847  1.00  0.00    -0.374 OA
ATOM     14  H   UNL     1      29.358  13.407   8.959  1.00  0.00     0.212 HD
ENDBRANCH  12  13
BRANCH  12  15
ATOM     15  C   UNL     1      31.756  11.878  10.349  1.00  0.00     0.037 C 
ATOM     16  C   UNL     1      32.657  12.851   9.526  1.00  0.00     0.007 C 
ATOM     17  C   UNL     1      32.257  10.416  10.240  1.00  0.00     0.007 C 
ATOM     18  C   UNL     1      34.068  12.303   9.251  1.00  0.00     0.000 C 
ATOM     19  C   UNL     1      33.707  10.266  10.736  1.00  0.00     0.000 C 
ATOM     20  C   UNL     1      34.590  11.493  10.441  1.00  0.00     0.000 C 
ENDBRANCH  12  15
BRANCH  12  21
ATOM     21  C   UNL     1      29.591  10.626   9.793  1.00  0.00    -0.005 A 
ATOM     22  C   UNL     1      29.233   9.746  10.842  1.00  0.00     0.007 A 
ATOM     23  C   UNL     1      29.290  10.234   8.470  1.00  0.00     0.007 A 
ATOM     24  C   UNL     1      28.650   8.506  10.567  1.00  0.00     0.000 A 
ATOM     25  C   UNL     1      28.705   8.994   8.203  1.00  0.00     0.000 A 
ATOM     26  C   UNL     1      28.392   8.127   9.250  1.00  0.00     0.000 A 
ENDBRANCH  12  21
ENDBRANCH   1  12
TORSDOF 7
ENDMDL
MODEL 8
REMARK VINA RESULT:    -7.885      2.214      3.349
REMARK INTER + INTRA:         -11.309
REMARK INTER:                 -10.419
REMARK INTRA:                  -0.890
REMARK UNBOUND:                -0.428
REMARK SMILES CN1CCCN=C1COC(=O)C(O)(c1ccccc1)C1CCCCC1
REMARK SMILES IDX 10 1 11 2 9 3 8 4 7 5 1 6 2 7 3 8 4 9 6 10 5 11 12 12 13 13
REMARK SMILES IDX 20 15 21 16 25 17 22 18 24 19 23 20 14 21 15 22 19 23 16 24
REMARK SMILES IDX 18 25 17 26
REMARK H PARENT 13 14
REMARK Flexibility Score: inf
ROOT
ATOM      1  C   UNL     1      29.380   8.436   9.691  1.00  0.00     0.343 C 
ATOM      2  O   UNL     1      29.139   7.973  10.841  1.00  0.00    -0.248 OA
ENDROOT
BRANCH   1   3
ATOM      3  O   UNL     1      30.328   7.810   8.872  1.00  0.00    -0.455 OA
BRANCH   3   4
ATOM      4  C   UNL     1      31.526   7.215   9.364  1.00  0.00     0.307 C 
BRANCH   4   5
ATOM      5  C   UNL     1      32.683   8.162   9.178  1.00  0.00     0.137 C 
ATOM      6  C   UNL     1      33.753   6.747   7.362  1.00  0.00     0.145 C 
ATOM      7  N   UNL     1      33.821   7.838   8.337  1.00  0.00    -0.360 N 
ATOM      8  C   UNL     1      35.002   8.717   8.309  1.00  0.00     0.119 C 
ATOM      9  C   UNL     1      35.083   9.594   9.559  1.00  0.00     0.045 C 
ATOM     10  N   UNL     1      32.677   9.263   9.871  1.00  0.00    -0.269 NA
ATOM     11  C   UNL     1      33.735  10.266   9.796  1.00  0.00     0.146 C 
ENDBRANCH   4   5
ENDBRANCH   3   4
ENDBRANCH   1   3
BRANCH   1  12
ATOM     12  C   UNL     1      28.662   9.695   9.208  1.00  0.00     0.190 C 
BRANCH  12  13
ATOM     13  O   UNL     1      28.475   9.601   7.812  1.00  0.00    -0.374 OA
ATOM     14  H   UNL     1      28.743  10.467   7.404  1.00  0.00     0.212 HD
ENDBRANCH  12  13
BRANCH  12  15
ATOM     15  C   UNL     1      27.233   9.773   9.859  1.00  0.00     0.037 C 
ATOM     16  C   UNL     1      26.439   8.431   9.807  1.00  0.00     0.007 C 
ATOM     17  C   UNL     1      26.393  10.950   9.304  1.00  0.00     0.007 C 
ATOM     18  C   UNL     1      24.913   8.619   9.746  1.00  0.00     0.000 C 
ATOM     19  C   UNL     1      25.079  11.138  10.085  1.00  0.00     0.000 C 
ATOM     20  C   UNL     1      24.467   9.816  10.590  1.00  0.00     0.000 C 
ENDBRANCH  12  15
BRANCH  12  21
ATOM     21  C   UNL     1      29.462  10.984   9.493  1.00  0.00    -0.005 A 
ATOM     22  C   UNL     1      29.477  11.616  10.759  1.00  0.00     0.007 A 
ATOM     23  C   UNL     1      30.272  11.529   8.472  1.00  0.00     0.007 A 
ATOM     24  C   UNL     1      30.231  12.773  10.970  1.00  0.00     0.000 A 
ATOM     25  C   UNL     1      31.024  12.685   8.692  1.00  0.00     0.000 A 
ATOM     26  C   UNL     1      30.998  13.311   9.937  1.00  0.00     0.000 A 
ENDBRANCH  12  21
ENDBRANCH   1  12
TORSDOF 7
ENDMDL
MODEL 9
REMARK VINA RESULT:    -7.830      2.794      4.200
REMARK INTER + INTRA:         -11.233
REMARK INTER:                 -10.715
REMARK INTRA:                  -0.519
REMARK UNBOUND:                -0.428
REMARK SMILES CN1CCCN=C1COC(=O)C(O)(c1ccccc1)C1CCCCC1
REMARK SMILES IDX 10 1 11 2 9 3 8 4 7 5 1 6 2 7 3 8 4 9 6 10 5 11 12 12 13 13
REMARK SMILES IDX 20 15 21 16 25 17 22 18 24 19 23 20 14 21 15 22 19 23 16 24
REMARK SMILES IDX 18 25 17 26
REMARK H PARENT 13 14
REMARK Flexibility Score: inf
ROOT
ATOM      1  C   UNL     1      27.981  12.905  10.526  1.00  0.00     0.343 C 
ATOM      2  O   UNL     1      27.571  14.080  10.317  1.00  0.00    -0.248 OA
ENDROOT
BRANCH   1   3
ATOM      3  O   UNL     1      29.063  12.687  11.387  1.00  0.00    -0.455 OA
BRANCH   3   4
ATOM      4  C   UNL     1      30.384  13.157  11.130  1.00  0.00     0.307 C 
BRANCH   4   5
ATOM      5  C   UNL     1      30.567  14.526  11.731  1.00  0.00     0.137 C 
ATOM      6  C   UNL     1      30.685  15.676   9.471  1.00  0.00     0.145 C 
ATOM      7  N   UNL     1      30.876  15.692  10.924  1.00  0.00    -0.360 N 
ATOM      8  C   UNL     1      31.206  16.976  11.563  1.00  0.00     0.119 C 
ATOM      9  C   UNL     1      31.678  16.786  13.005  1.00  0.00     0.045 C 
ATOM     10  N   UNL     1      30.525  14.624  13.029  1.00  0.00    -0.269 NA
ATOM     11  C   UNL     1      30.694  15.885  13.745  1.00  0.00     0.146 C 
ENDBRANCH   4   5
ENDBRANCH   3   4
ENDBRANCH   1   3
BRANCH   1  12
ATOM     12  C   UNL     1      27.317  11.726   9.817  1.00  0.00     0.190 C 
BRANCH  12  13
ATOM     13  O   UNL     1      27.105  12.075   8.465  1.00  0.00    -0.374 OA
ATOM     14  H   UNL     1      27.179  11.248   7.917  1.00  0.00     0.212 HD
ENDBRANCH  12  13
BRANCH  12  15
ATOM     15  C   UNL     1      28.284  10.488   9.826  1.00  0.00     0.037 C 
ATOM     16  C   UNL     1      28.513   9.850   8.420  1.00  0.00     0.007 C 
ATOM     17  C   UNL     1      27.872   9.421  10.870  1.00  0.00     0.007 C 
ATOM     18  C   UNL     1      28.808   8.341   8.467  1.00  0.00     0.000 C 
ATOM     19  C   UNL     1      28.931   8.312  11.011  1.00  0.00     0.000 C 
ATOM     20  C   UNL     1      29.653   7.979   9.690  1.00  0.00     0.000 C 
ENDBRANCH  12  15
BRANCH  12  21
ATOM     21  C   UNL     1      25.950  11.355  10.429  1.00  0.00    -0.005 A 
ATOM     22  C   UNL     1      25.319  12.131  11.430  1.00  0.00     0.007 A 
ATOM     23  C   UNL     1      25.256  10.231   9.930  1.00  0.00     0.007 A 
ATOM     24  C   UNL     1      24.073  11.761  11.942  1.00  0.00     0.000 A 
ATOM     25  C   UNL     1      24.009   9.868  10.445  1.00  0.00     0.000 A 
ATOM     26  C   UNL     1      23.421  10.628  11.455  1.00  0.00     0.000 A 
ENDBRANCH  12  21
ENDBRANCH   1  12
TORSDOF 7
ENDMDL
MODEL 10
REMARK VINA RESULT:    -7.809      2.919      6.372
REMARK INTER + INTRA:         -11.204
REMARK INTER:                 -10.579
REMARK INTRA:                  -0.625
REMARK UNBOUND:                -0.428
REMARK SMILES CN1CCCN=C1COC(=O)C(O)(c1ccccc1)C1CCCCC1
REMARK SMILES IDX 10 1 11 2 9 3 8 4 7 5 1 6 2 7 3 8 4 9 6 10 5 11 12 12 13 13
REMARK SMILES IDX 20 15 21 16 25 17 22 18 24 19 23 20 14 21 15 22 19 23 16 24
REMARK SMILES IDX 18 25 17 26
REMARK H PARENT 13 14
REMARK Flexibility Score: inf
ROOT
ATOM      1  C   UNL     1      27.332  12.344  10.545  1.00  0.00     0.343 C 
ATOM      2  O   UNL     1      27.250  12.181  11.794  1.00  0.00    -0.248 OA
ENDROOT
BRANCH   1   3
ATOM      3  O   UNL     1      27.414  13.637  10.014  1.00  0.00    -0.455 OA
BRANCH   3   4
ATOM      4  C   UNL     1      27.936  14.753  10.731  1.00  0.00     0.307 C 
BRANCH   4   5
ATOM      5  C   UNL     1      26.854  15.780  10.943  1.00  0.00     0.137 C 
ATOM      6  C   UNL     1      27.931  17.467   9.382  1.00  0.00     0.145 C 
ATOM      7  N   UNL     1      26.955  17.130  10.421  1.00  0.00    -0.360 N 
ATOM      8  C   UNL     1      25.955  18.147  10.785  1.00  0.00     0.119 C 
ATOM      9  C   UNL     1      25.220  17.781  12.075  1.00  0.00     0.045 C 
ATOM     10  N   UNL     1      25.844  15.444  11.692  1.00  0.00    -0.269 NA
ATOM     11  C   UNL     1      24.730  16.339  11.987  1.00  0.00     0.146 C 
ENDBRANCH   4   5
ENDBRANCH   3   4
ENDBRANCH   1   3
BRANCH   1  12
ATOM     12  C   UNL     1      27.311  11.133   9.614  1.00  0.00     0.190 C 
BRANCH  12  13
ATOM     13  O   UNL     1      27.235  11.591   8.280  1.00  0.00    -0.374 OA
ATOM     14  H   UNL     1      26.781  10.892   7.738  1.00  0.00     0.212 HD
ENDBRANCH  12  13
BRANCH  12  15
ATOM     15  C   UNL     1      28.659  10.336   9.750  1.00  0.00     0.037 C 
ATOM     16  C   UNL     1      29.726  11.043  10.643  1.00  0.00     0.007 C 
ATOM     17  C   UNL     1      29.250   9.932   8.376  1.00  0.00     0.007 C 
ATOM     18  C   UNL     1      31.177  10.724  10.242  1.00  0.00     0.000 C 
ATOM     19  C   UNL     1      30.456   8.987   8.523  1.00  0.00     0.000 C 
ATOM     20  C   UNL     1      31.316   9.274   9.770  1.00  0.00     0.000 C 
ENDBRANCH  12  15
BRANCH  12  21
ATOM     21  C   UNL     1      26.103  10.207   9.867  1.00  0.00    -0.005 A 
ATOM     22  C   UNL     1      26.200   8.796   9.856  1.00  0.00     0.007 A 
ATOM     23  C   UNL     1      24.854  10.781  10.191  1.00  0.00     0.007 A 
ATOM     24  C   UNL     1      25.079   8.000  10.107  1.00  0.00     0.000 A 
ATOM     25  C   UNL     1      23.738   9.980  10.443  1.00  0.00     0.000 A 
ATOM     26  C   UNL     1      23.848   8.591  10.394  1.00  0.00     0.000 A 
ENDBRANCH  12  21
ENDBRANCH   1  12
TORSDOF 7
ENDMDL
MODEL 11
REMARK VINA RESULT:    -7.796      2.550      5.957
REMARK INTER + INTRA:         -11.187
REMARK INTER:                 -10.675
REMARK INTRA:                  -0.512
REMARK UNBOUND:                -0.428
REMARK SMILES CN1CCCN=C1COC(=O)C(O)(c1ccccc1)C1CCCCC1
REMARK SMILES IDX 10 1 11 2 9 3 8 4 7 5 1 6 2 7 3 8 4 9 6 10 5 11 12 12 13 13
REMARK SMILES IDX 20 15 21 16 25 17 22 18 24 19 23 20 14 21 15 22 19 23 16 24
REMARK SMILES IDX 18 25 17 26
REMARK H PARENT 13 14
REMARK Flexibility Score: inf
ROOT
ATOM      1  C   UNL     1      27.617  12.290  10.537  1.00  0.00     0.343 C 
ATOM      2  O   UNL     1      27.845  12.083  11.762  1.00  0.00    -0.248 OA
ENDROOT
BRANCH   1   3
ATOM      3  O   UNL     1      27.509  13.601  10.060  1.00  0.00    -0.455 OA
BRANCH   3   4
ATOM      4  C   UNL     1      26.494  14.511  10.475  1.00  0.00     0.307 C 
BRANCH   4   5
ATOM      5  C   UNL     1      27.094  15.591  11.339  1.00  0.00     0.137 C 
ATOM      6  C   UNL     1      24.845  16.323  12.261  1.00  0.00     0.145 C 
ATOM      7  N   UNL     1      26.277  16.553  12.056  1.00  0.00    -0.360 N 
ATOM      8  C   UNL     1      26.902  17.686  12.757  1.00  0.00     0.119 C 
ATOM      9  C   UNL     1      28.299  17.987  12.212  1.00  0.00     0.045 C 
ATOM     10  N   UNL     1      28.392  15.693  11.359  1.00  0.00    -0.269 NA
ATOM     11  C   UNL     1      29.106  16.694  12.145  1.00  0.00     0.146 C 
ENDBRANCH   4   5
ENDBRANCH   3   4
ENDBRANCH   1   3
BRANCH   1  12
ATOM     12  C   UNL     1      27.427  11.110   9.586  1.00  0.00     0.190 C 
BRANCH  12  13
ATOM     13  O   UNL     1      27.374  11.600   8.263  1.00  0.00    -0.374 OA
ATOM     14  H   UNL     1      26.444  11.490   7.928  1.00  0.00     0.212 HD
ENDBRANCH  12  13
BRANCH  12  15
ATOM     15  C   UNL     1      28.672  10.154   9.671  1.00  0.00     0.037 C 
ATOM     16  C   UNL     1      29.978  10.857  10.156  1.00  0.00     0.007 C 
ATOM     17  C   UNL     1      28.907   9.368   8.358  1.00  0.00     0.007 C 
ATOM     18  C   UNL     1      31.264  10.226   9.593  1.00  0.00     0.000 C 
ATOM     19  C   UNL     1      30.000   8.294   8.516  1.00  0.00     0.000 C 
ATOM     20  C   UNL     1      31.132   8.705   9.478  1.00  0.00     0.000 C 
ENDBRANCH  12  15
BRANCH  12  21
ATOM     21  C   UNL     1      26.122  10.331   9.855  1.00  0.00    -0.005 A 
ATOM     22  C   UNL     1      26.045   8.919   9.801  1.00  0.00     0.007 A 
ATOM     23  C   UNL     1      24.965  11.042  10.238  1.00  0.00     0.007 A 
ATOM     24  C   UNL     1      24.843   8.258  10.069  1.00  0.00     0.000 A 
ATOM     25  C   UNL     1      23.767  10.375  10.507  1.00  0.00     0.000 A 
ATOM     26  C   UNL     1      23.704   8.985  10.415  1.00  0.00     0.000 A 
ENDBRANCH  12  21
ENDBRANCH   1  12
TORSDOF 7
ENDMDL
MODEL 12
REMARK VINA RESULT:    -7.652      2.188      4.395
REMARK INTER + INTRA:         -10.987
REMARK INTER:                  -9.824
REMARK INTRA:                  -1.163
REMARK UNBOUND:                -0.428
REMARK SMILES CN1CCCN=C1COC(=O)C(O)(c1ccccc1)C1CCCCC1
REMARK SMILES IDX 10 1 11 2 9 3 8 4 7 5 1 6 2 7 3 8 4 9 6 10 5 11 12 12 13 13
REMARK SMILES IDX 20 15 21 16 25 17 22 18 24 19 23 20 14 21 15 22 19 23 16 24
REMARK SMILES IDX 18 25 17 26
REMARK H PARENT 13 14
REMARK Flexibility Score: inf
ROOT
ATOM      1  C   UNL     1      29.759   8.820   9.005  1.00  0.00     0.343 C 
ATOM      2  O   UNL     1      29.301   8.745   7.831  1.00  0.00    -0.248 OA
ENDROOT
BRANCH   1   3
ATOM      3  O   UNL     1      30.943   8.150   9.336  1.00  0.00    -0.455 OA
BRANCH   3   4
ATOM      4  C   UNL     1      32.162   8.296   8.612  1.00  0.00     0.307 C 
BRANCH   4   5
ATOM      5  C   UNL     1      33.016   9.359   9.253  1.00  0.00     0.137 C 
ATOM      6  C   UNL     1      34.588   9.518   7.266  1.00  0.00     0.145 C 
ATOM      7  N   UNL     1      34.264   9.809   8.665  1.00  0.00    -0.360 N 
ATOM      8  C   UNL     1      35.146  10.729   9.401  1.00  0.00     0.119 C 
ATOM      9  C   UNL     1      34.873  10.693  10.906  1.00  0.00     0.045 C 
ATOM     10  N   UNL     1      32.641   9.812  10.415  1.00  0.00    -0.269 NA
ATOM     11  C   UNL     1      33.375  10.835  11.152  1.00  0.00     0.146 C 
ENDBRANCH   4   5
ENDBRANCH   3   4
ENDBRANCH   1   3
BRANCH   1  12
ATOM     12  C   UNL     1      29.006   9.616  10.070  1.00  0.00     0.190 C 
BRANCH  12  13
ATOM     13  O   UNL     1      29.523   9.274  11.338  1.00  0.00    -0.374 OA
ATOM     14  H   UNL     1      30.467   8.985  11.220  1.00  0.00     0.212 HD
ENDBRANCH  12  13
BRANCH  12  15
ATOM     15  C   UNL     1      29.266  11.152   9.866  1.00  0.00     0.037 C 
ATOM     16  C   UNL     1      30.183  11.485   8.648  1.00  0.00     0.007 C 
ATOM     17  C   UNL     1      29.767  11.845  11.158  1.00  0.00     0.007 C 
ATOM     18  C   UNL     1      31.006  12.772   8.829  1.00  0.00     0.000 C 
ATOM     19  C   UNL     1      29.827  13.376  11.004  1.00  0.00     0.000 C 
ATOM     20  C   UNL     1      30.210  13.839   9.585  1.00  0.00     0.000 C 
ENDBRANCH  12  15
BRANCH  12  21
ATOM     21  C   UNL     1      27.493   9.315  10.079  1.00  0.00    -0.005 A 
ATOM     22  C   UNL     1      26.970   8.002  10.158  1.00  0.00     0.007 A 
ATOM     23  C   UNL     1      26.578  10.391  10.077  1.00  0.00     0.007 A 
ATOM     24  C   UNL     1      25.590   7.783  10.179  1.00  0.00     0.000 A 
ATOM     25  C   UNL     1      25.200  10.164  10.101  1.00  0.00     0.000 A 
ATOM     26  C   UNL     1      24.706   8.861  10.144  1.00  0.00     0.000 A 
ENDBRANCH  12  21
ENDBRANCH   1  12
TORSDOF 7
ENDMDL
MODEL 13
REMARK VINA RESULT:    -7.642      2.758      6.775
REMARK INTER + INTRA:         -10.975
REMARK INTER:                 -10.334
REMARK INTRA:                  -0.641
REMARK UNBOUND:                -0.428
REMARK SMILES CN1CCCN=C1COC(=O)C(O)(c1ccccc1)C1CCCCC1
REMARK SMILES IDX 10 1 11 2 9 3 8 4 7 5 1 6 2 7 3 8 4 9 6 10 5 11 12 12 13 13
REMARK SMILES IDX 20 15 21 16 25 17 22 18 24 19 23 20 14 21 15 22 19 23 16 24
REMARK SMILES IDX 18 25 17 26
REMARK H PARENT 13 14
REMARK Flexibility Score: inf
ROOT
ATOM      1  C   UNL     1      28.907   9.583   9.095  1.00  0.00     0.343 C 
ATOM      2  O   UNL     1      28.954   9.156   7.908  1.00  0.00    -0.248 OA
ENDROOT
BRANCH   1   3
ATOM      3  O   UNL     1      27.668   9.783   9.716  1.00  0.00    -0.455 OA
BRANCH   3   4
ATOM      4  C   UNL     1      26.602  10.526   9.130  1.00  0.00     0.307 C 
BRANCH   4   5
ATOM      5  C   UNL     1      25.592  10.894  10.186  1.00  0.00     0.137 C 
ATOM      6  C   UNL     1      24.419   8.645  10.071  1.00  0.00     0.145 C 
ATOM      7  N   UNL     1      24.458  10.045  10.502  1.00  0.00    -0.360 N 
ATOM      8  C   UNL     1      23.409  10.514  11.422  1.00  0.00     0.119 C 
ATOM      9  C   UNL     1      23.393  12.039  11.533  1.00  0.00     0.045 C 
ATOM     10  N   UNL     1      25.718  12.055  10.761  1.00  0.00    -0.269 NA
ATOM     11  C   UNL     1      24.809  12.542  11.794  1.00  0.00     0.146 C 
ENDBRANCH   4   5
ENDBRANCH   3   4
ENDBRANCH   1   3
BRANCH   1  12
ATOM     12  C   UNL     1      30.199   9.912   9.840  1.00  0.00     0.190 C 
BRANCH  12  13
ATOM     13  O   UNL     1      30.083   9.451  11.169  1.00  0.00    -0.374 OA
ATOM     14  H   UNL     1      29.126   9.245  11.344  1.00  0.00     0.212 HD
ENDBRANCH  12  13
BRANCH  12  15
ATOM     15  C   UNL     1      31.400   9.135   9.187  1.00  0.00     0.037 C 
ATOM     16  C   UNL     1      31.245   7.582   9.224  1.00  0.00     0.007 C 
ATOM     17  C   UNL     1      32.771   9.580   9.753  1.00  0.00     0.007 C 
ATOM     18  C   UNL     1      32.585   6.829   9.284  1.00  0.00     0.000 C 
ATOM     19  C   UNL     1      33.945   8.960   8.971  1.00  0.00     0.000 C 
ATOM     20  C   UNL     1      33.658   7.538   8.452  1.00  0.00     0.000 C 
ENDBRANCH  12  15
BRANCH  12  21
ATOM     21  C   UNL     1      30.492  11.426   9.887  1.00  0.00    -0.005 A 
ATOM     22  C   UNL     1      31.028  12.141   8.790  1.00  0.00     0.007 A 
ATOM     23  C   UNL     1      30.151  12.155  11.047  1.00  0.00     0.007 A 
ATOM     24  C   UNL     1      31.259  13.516   8.877  1.00  0.00     0.000 A 
ATOM     25  C   UNL     1      30.384  13.531  11.127  1.00  0.00     0.000 A 
ATOM     26  C   UNL     1      30.945  14.209  10.045  1.00  0.00     0.000 A 
ENDBRANCH  12  21
ENDBRANCH   1  12
TORSDOF 7
ENDMDL
MODEL 14
REMARK VINA RESULT:    -7.475      2.372      5.417
REMARK INTER + INTRA:         -10.744
REMARK INTER:                 -10.048
REMARK INTRA:                  -0.695
REMARK UNBOUND:                -0.428
REMARK SMILES CN1CCCN=C1COC(=O)C(O)(c1ccccc1)C1CCCCC1
REMARK SMILES IDX 10 1 11 2 9 3 8 4 7 5 1 6 2 7 3 8 4 9 6 10 5 11 12 12 13 13
REMARK SMILES IDX 20 15 21 16 25 17 22 18 24 19 23 20 14 21 15 22 19 23 16 24
REMARK SMILES IDX 18 25 17 26
REMARK H PARENT 13 14
REMARK Flexibility Score: inf
ROOT
ATOM      1  C   UNL     1      28.610  11.676  10.672  1.00  0.00     0.343 C 
ATOM      2  O   UNL     1      28.455  11.458  11.906  1.00  0.00    -0.248 OA
ENDROOT
BRANCH   1   3
ATOM      3  O   UNL     1      28.807  12.984  10.214  1.00  0.00    -0.455 OA
BRANCH   3   4
ATOM      4  C   UNL     1      28.170  14.125  10.784  1.00  0.00     0.307 C 
BRANCH   4   5
ATOM      5  C   UNL     1      29.201  15.034  11.400  1.00  0.00     0.137 C 
ATOM      6  C   UNL     1      28.376  17.080  10.144  1.00  0.00     0.145 C 
ATOM      7  N   UNL     1      29.389  16.404  10.958  1.00  0.00    -0.360 N 
ATOM      8  C   UNL     1      30.510  17.206  11.473  1.00  0.00     0.119 C 
ATOM      9  C   UNL     1      31.630  16.324  12.026  1.00  0.00     0.045 C 
ATOM     10  N   UNL     1      29.991  14.525  12.300  1.00  0.00    -0.269 NA
ATOM     11  C   UNL     1      31.037  15.288  12.974  1.00  0.00     0.146 C 
ENDBRANCH   4   5
ENDBRANCH   3   4
ENDBRANCH   1   3
BRANCH   1  12
ATOM     12  C   UNL     1      28.550  10.517   9.678  1.00  0.00     0.190 C 
BRANCH  12  13
ATOM     13  O   UNL     1      28.590  11.042   8.369  1.00  0.00    -0.374 OA
ATOM     14  H   UNL     1      29.537  11.051   8.066  1.00  0.00     0.212 HD
ENDBRANCH  12  13
BRANCH  12  15
ATOM     15  C   UNL     1      29.822   9.608   9.847  1.00  0.00     0.037 C 
ATOM     16  C   UNL     1      31.073  10.363  10.396  1.00  0.00     0.007 C 
ATOM     17  C   UNL     1      30.159   8.816   8.560  1.00  0.00     0.007 C 
ATOM     18  C   UNL     1      32.410   9.773   9.916  1.00  0.00     0.000 C 
ATOM     19  C   UNL     1      31.279   7.785   8.795  1.00  0.00     0.000 C 
ATOM     20  C   UNL     1      32.338   8.247   9.814  1.00  0.00     0.000 C 
ENDBRANCH  12  15
BRANCH  12  21
ATOM     21  C   UNL     1      27.261   9.681   9.814  1.00  0.00    -0.005 A 
ATOM     22  C   UNL     1      27.267   8.271   9.936  1.00  0.00     0.007 A 
ATOM     23  C   UNL     1      26.017  10.345   9.891  1.00  0.00     0.007 A 
ATOM     24  C   UNL     1      26.072   7.560  10.073  1.00  0.00     0.000 A 
ATOM     25  C   UNL     1      24.826   9.628  10.030  1.00  0.00     0.000 A 
ATOM     26  C   UNL     1      24.853   8.236  10.113  1.00  0.00     0.000 A 
ENDBRANCH  12  21
ENDBRANCH   1  12
TORSDOF 7
ENDMDL
MODEL 15
REMARK VINA RESULT:    -7.474      1.670      2.257
REMARK INTER + INTRA:         -10.742
REMARK INTER:                 -10.157
REMARK INTRA:                  -0.585
REMARK UNBOUND:                -0.428
REMARK SMILES CN1CCCN=C1COC(=O)C(O)(c1ccccc1)C1CCCCC1
REMARK SMILES IDX 10 1 11 2 9 3 8 4 7 5 1 6 2 7 3 8 4 9 6 10 5 11 12 12 13 13
REMARK SMILES IDX 20 15 21 16 25 17 22 18 24 19 23 20 14 21 15 22 19 23 16 24
REMARK SMILES IDX 18 25 17 26
REMARK H PARENT 13 14
REMARK Flexibility Score: inf
ROOT
ATOM      1  C   UNL     1      28.787  10.020  10.088  1.00  0.00     0.343 C 
ATOM      2  O   UNL     1      28.965   9.727  11.303  1.00  0.00    -0.248 OA
ENDROOT
BRANCH   1   3
ATOM      3  O   UNL     1      29.627   9.476   9.109  1.00  0.00    -0.455 OA
BRANCH   3   4
ATOM      4  C   UNL     1      31.030   9.295   9.285  1.00  0.00     0.307 C 
BRANCH   4   5
ATOM      5  C   UNL     1      31.761  10.559   8.913  1.00  0.00     0.137 C 
ATOM      6  C   UNL     1      33.188  10.539  11.012  1.00  0.00     0.145 C 
ATOM      7  N   UNL     1      32.668  11.227   9.828  1.00  0.00    -0.360 N 
ATOM      8  C   UNL     1      33.237  12.541   9.487  1.00  0.00     0.119 C 
ATOM      9  C   UNL     1      32.397  13.265   8.434  1.00  0.00     0.045 C 
ATOM     10  N   UNL     1      31.488  11.094   7.758  1.00  0.00    -0.269 NA
ATOM     11  C   UNL     1      32.115  12.319   7.272  1.00  0.00     0.146 C 
ENDBRANCH   4   5
ENDBRANCH   3   4
ENDBRANCH   1   3
BRANCH   1  12
ATOM     12  C   UNL     1      27.675  10.990   9.691  1.00  0.00     0.190 C 
BRANCH  12  13
ATOM     13  O   UNL     1      27.561  10.993   8.284  1.00  0.00    -0.374 OA
ATOM     14  H   UNL     1      27.882  10.115   7.944  1.00  0.00     0.212 HD
ENDBRANCH  12  13
BRANCH  12  15
ATOM     15  C   UNL     1      26.301  10.485  10.262  1.00  0.00     0.037 C 
ATOM     16  C   UNL     1      26.053   8.957  10.061  1.00  0.00     0.007 C 
ATOM     17  C   UNL     1      25.103  11.324   9.753  1.00  0.00     0.007 C 
ATOM     18  C   UNL     1      24.566   8.585   9.927  1.00  0.00     0.000 C 
ATOM     19  C   UNL     1      23.792  10.951  10.470  1.00  0.00     0.000 C 
ATOM     20  C   UNL     1      23.692   9.456  10.834  1.00  0.00     0.000 C 
ENDBRANCH  12  15
BRANCH  12  21
ATOM     21  C   UNL     1      27.956  12.437  10.147  1.00  0.00    -0.005 A 
ATOM     22  C   UNL     1      26.929  13.374  10.409  1.00  0.00     0.007 A 
ATOM     23  C   UNL     1      29.290  12.836  10.382  1.00  0.00     0.007 A 
ATOM     24  C   UNL     1      27.235  14.669  10.835  1.00  0.00     0.000 A 
ATOM     25  C   UNL     1      29.589  14.132  10.810  1.00  0.00     0.000 A 
ATOM     26  C   UNL     1      28.562  15.050  11.030  1.00  0.00     0.000 A 
ENDBRANCH  12  21
ENDBRANCH   1  12
TORSDOF 7
ENDMDL
