MODEL 1
REMARK VINA RESULT:    -6.826      0.000      0.000
REMARK INTER + INTRA:         -10.508
REMARK INTER:                  -9.819
REMARK INTRA:                  -0.689
REMARK UNBOUND:                -0.689
REMARK SMILES CN(C)CCOC(=O)C(c1ccccc1)C1(O)CCCC1
REMARK SMILES IDX 7 1 8 2 6 3 5 4 4 5 2 6 1 7 3 8 9 9 10 10 11 11 15 12 12 13
REMARK SMILES IDX 14 14 13 15 16 16 18 17 21 18 19 19 20 20 17 21
REMARK H PARENT 17 22
REMARK Flexibility Score: inf
ROOT
ATOM      1  C   UNL     1      27.372  13.826  10.502  1.00  0.00     0.316 C 
ATOM      2  O   UNL     1      26.771  14.914  10.287  1.00  0.00    -0.251 OA
ENDROOT
BRANCH   1   3
ATOM      3  O   UNL     1      28.402  13.772  11.445  1.00  0.00    -0.464 OA
BRANCH   3   4
ATOM      4  C   UNL     1      29.418  14.763  11.539  1.00  0.00     0.248 C 
BRANCH   4   5
ATOM      5  C   UNL     1      30.788  14.085  11.535  1.00  0.00     0.125 C 
BRANCH   5   6
ATOM      6  N   UNL     1      31.668  14.673  12.568  1.00  0.00    -0.306 NA
ATOM      7  C   UNL     1      30.887  15.542  13.465  1.00  0.00     0.105 C 
ATOM      8  C   UNL     1      32.754  15.459  11.955  1.00  0.00     0.105 C 
ENDBRANCH   5   6
ENDBRANCH   4   5
ENDBRANCH   3   4
ENDBRANCH   1   3
BRANCH   1   9
ATOM      9  C   UNL     1      26.931  12.583   9.756  1.00  0.00     0.161 C 
BRANCH   9  10
ATOM     10  C   UNL     1      25.719  11.944  10.420  1.00  0.00    -0.031 A 
ATOM     11  C   UNL     1      25.273  12.429  11.665  1.00  0.00     0.005 A 
ATOM     12  C   UNL     1      24.994  10.906   9.799  1.00  0.00     0.005 A 
ATOM     13  C   UNL     1      24.143  11.881  12.277  1.00  0.00     0.000 A 
ATOM     14  C   UNL     1      23.864  10.362  10.418  1.00  0.00     0.000 A 
ATOM     15  C   UNL     1      23.440  10.849  11.655  1.00  0.00     0.000 A 
ENDBRANCH   9  10
BRANCH   9  16
ATOM     16  C   UNL     1      28.054  11.532   9.456  1.00  0.00     0.082 C 
ATOM     17  C   UNL     1      27.694  10.550   8.318  1.00  0.00     0.036 C 
ATOM     18  C   UNL     1      28.371  10.647  10.690  1.00  0.00     0.036 C 
ATOM     19  C   UNL     1      28.273   9.208   8.728  1.00  0.00     0.003 C 
ATOM     20  C   UNL     1      28.234   9.195  10.245  1.00  0.00     0.003 C 
BRANCH  16  21
ATOM     21  O   UNL     1      29.218  12.249   9.097  1.00  0.00    -0.389 OA
ATOM     22  H   UNL     1      29.429  12.055   8.146  1.00  0.00     0.211 HD
ENDBRANCH  16  21
ENDBRANCH   9  16
ENDBRANCH   1   9
TORSDOF 8
ENDMDL
MODEL 2
REMARK VINA RESULT:    -6.717      1.307      3.794
REMARK INTER + INTRA:         -10.351
REMARK INTER:                  -9.954
REMARK INTRA:                  -0.397
REMARK UNBOUND:                -0.689
REMARK SMILES CN(C)CCOC(=O)C(c1ccccc1)C1(O)CCCC1
REMARK SMILES IDX 7 1 8 2 6 3 5 4 4 5 2 6 1 7 3 8 9 9 10 10 11 11 15 12 12 13
REMARK SMILES IDX 14 14 13 15 16 16 18 17 21 18 19 19 20 20 17 21
REMARK H PARENT 17 22
REMARK Flexibility Score: inf
ROOT
ATOM      1  C   UNL     1      27.450  12.474  10.798  1.00  0.00     0.316 C 
ATOM      2  O   UNL     1      27.024  13.491  10.185  1.00  0.00    -0.251 OA
ENDROOT
BRANCH   1   3
ATOM      3  O   UNL     1      28.622  12.554  11.556  1.00  0.00    -0.464 OA
BRANCH   3   4
ATOM      4  C   UNL     1      29.804  13.191  11.086  1.00  0.00     0.248 C 
BRANCH   4   5
ATOM      5  C   UNL     1      29.905  14.587  11.701  1.00  0.00     0.125 C 
BRANCH   5   6
ATOM      6  N   UNL     1      30.941  14.621  12.756  1.00  0.00    -0.306 NA
ATOM      7  C   UNL     1      30.593  15.624  13.777  1.00  0.00     0.105 C 
ATOM      8  C   UNL     1      32.264  14.942  12.191  1.00  0.00     0.105 C 
ENDBRANCH   5   6
ENDBRANCH   4   5
ENDBRANCH   3   4
ENDBRANCH   1   3
BRANCH   1   9
ATOM      9  C   UNL     1      26.651  11.188  10.734  1.00  0.00     0.161 C 
BRANCH   9  10
ATOM     10  C   UNL     1      27.330  10.162   9.838  1.00  0.00    -0.031 A 
ATOM     11  C   UNL     1      28.023  10.592   8.690  1.00  0.00     0.005 A 
ATOM     12  C   UNL     1      27.329   8.787  10.151  1.00  0.00     0.005 A 
ATOM     13  C   UNL     1      28.682   9.673   7.870  1.00  0.00     0.000 A 
ATOM     14  C   UNL     1      27.991   7.871   9.327  1.00  0.00     0.000 A 
ATOM     15  C   UNL     1      28.666   8.314   8.188  1.00  0.00     0.000 A 
ENDBRANCH   9  10
BRANCH   9  16
ATOM     16  C   UNL     1      25.130  11.346  10.392  1.00  0.00     0.082 C 
ATOM     17  C   UNL     1      24.404  12.389  11.272  1.00  0.00     0.036 C 
ATOM     18  C   UNL     1      24.347  10.020  10.580  1.00  0.00     0.036 C 
ATOM     19  C   UNL     1      23.015  11.828  11.522  1.00  0.00     0.003 C 
ATOM     20  C   UNL     1      23.179  10.319  11.513  1.00  0.00     0.003 C 
BRANCH  16  21
ATOM     21  O   UNL     1      25.041  11.742   9.038  1.00  0.00    -0.389 OA
ATOM     22  H   UNL     1      25.513  11.070   8.479  1.00  0.00     0.211 HD
ENDBRANCH  16  21
ENDBRANCH   9  16
ENDBRANCH   1   9
TORSDOF 8
ENDMDL
MODEL 3
REMARK VINA RESULT:    -6.686      1.790      4.204
REMARK INTER + INTRA:         -10.307
REMARK INTER:                  -9.443
REMARK INTRA:                  -0.864
REMARK UNBOUND:                -0.689
REMARK SMILES CN(C)CCOC(=O)C(c1ccccc1)C1(O)CCCC1
REMARK SMILES IDX 7 1 8 2 6 3 5 4 4 5 2 6 1 7 3 8 9 9 10 10 11 11 15 12 12 13
REMARK SMILES IDX 14 14 13 15 16 16 18 17 21 18 19 19 20 20 17 21
REMARK H PARENT 17 22
REMARK Flexibility Score: inf
ROOT
ATOM      1  C   UNL     1      27.639  12.500  10.866  1.00  0.00     0.316 C 
ATOM      2  O   UNL     1      27.175  13.551  10.344  1.00  0.00    -0.251 OA
ENDROOT
BRANCH   1   3
ATOM      3  O   UNL     1      28.851  12.542  11.561  1.00  0.00    -0.464 OA
BRANCH   3   4
ATOM      4  C   UNL     1      29.938  13.373  11.171  1.00  0.00     0.248 C 
BRANCH   4   5
ATOM      5  C   UNL     1      30.810  12.623  10.164  1.00  0.00     0.125 C 
BRANCH   5   6
ATOM      6  N   UNL     1      31.676  11.639  10.849  1.00  0.00    -0.306 NA
ATOM      7  C   UNL     1      33.092  11.919  10.557  1.00  0.00     0.105 C 
ATOM      8  C   UNL     1      31.355  10.264  10.426  1.00  0.00     0.105 C 
ENDBRANCH   5   6
ENDBRANCH   4   5
ENDBRANCH   3   4
ENDBRANCH   1   3
BRANCH   1   9
ATOM      9  C   UNL     1      26.843  11.215  10.764  1.00  0.00     0.161 C 
BRANCH   9  10
ATOM     10  C   UNL     1      27.527  10.216   9.842  1.00  0.00    -0.031 A 
ATOM     11  C   UNL     1      28.052  10.653   8.610  1.00  0.00     0.005 A 
ATOM     12  C   UNL     1      27.698   8.865  10.208  1.00  0.00     0.005 A 
ATOM     13  C   UNL     1      28.714   9.761   7.763  1.00  0.00     0.000 A 
ATOM     14  C   UNL     1      28.361   7.977   9.355  1.00  0.00     0.000 A 
ATOM     15  C   UNL     1      28.867   8.425   8.134  1.00  0.00     0.000 A 
ENDBRANCH   9  10
BRANCH   9  16
ATOM     16  C   UNL     1      25.322  11.379  10.422  1.00  0.00     0.082 C 
ATOM     17  C   UNL     1      24.556  12.269  11.427  1.00  0.00     0.036 C 
ATOM     18  C   UNL     1      24.576  10.019  10.411  1.00  0.00     0.036 C 
ATOM     19  C   UNL     1      23.181  11.642  11.573  1.00  0.00     0.003 C 
ATOM     20  C   UNL     1      23.388  10.154  11.357  1.00  0.00     0.003 C 
BRANCH  16  21
ATOM     21  O   UNL     1      25.239  11.957   9.135  1.00  0.00    -0.389 OA
ATOM     22  H   UNL     1      25.212  11.228   8.461  1.00  0.00     0.211 HD
ENDBRANCH  16  21
ENDBRANCH   9  16
ENDBRANCH   1   9
TORSDOF 8
ENDMDL
MODEL 4
REMARK VINA RESULT:    -6.641      2.116      2.742
REMARK INTER + INTRA:         -10.242
REMARK INTER:                  -9.617
REMARK INTRA:                  -0.625
REMARK UNBOUND:                -0.689
REMARK SMILES CN(C)CCOC(=O)C(c1ccccc1)C1(O)CCCC1
REMARK SMILES IDX 7 1 8 2 6 3 5 4 4 5 2 6 1 7 3 8 9 9 10 10 11 11 15 12 12 13
REMARK SMILES IDX 14 14 13 15 16 16 18 17 21 18 19 19 20 20 17 21
REMARK H PARENT 17 22
REMARK Flexibility Score: inf
ROOT
ATOM      1  C   UNL     1      27.601  13.644  10.585  1.00  0.00     0.316 C 
ATOM      2  O   UNL     1      28.490  13.480  11.465  1.00  0.00    -0.251 OA
ENDROOT
BRANCH   1   3
ATOM      3  O   UNL     1      27.122  14.928  10.308  1.00  0.00    -0.464 OA
BRANCH   3   4
ATOM      4  C   UNL     1      27.846  16.110  10.628  1.00  0.00     0.248 C 
BRANCH   4   5
ATOM      5  C   UNL     1      26.872  17.179  11.124  1.00  0.00     0.125 C 
BRANCH   5   6
ATOM      6  N   UNL     1      26.386  16.858  12.483  1.00  0.00    -0.306 NA
ATOM      7  C   UNL     1      24.950  16.536  12.446  1.00  0.00     0.105 C 
ATOM      8  C   UNL     1      26.609  17.985  13.406  1.00  0.00     0.105 C 
ENDBRANCH   5   6
ENDBRANCH   4   5
ENDBRANCH   3   4
ENDBRANCH   1   3
BRANCH   1   9
ATOM      9  C   UNL     1      27.101  12.441   9.812  1.00  0.00     0.161 C 
BRANCH   9  10
ATOM     10  C   UNL     1      25.840  11.867  10.443  1.00  0.00    -0.031 A 
ATOM     11  C   UNL     1      25.346  12.425  11.638  1.00  0.00     0.005 A 
ATOM     12  C   UNL     1      25.117  10.820   9.836  1.00  0.00     0.005 A 
ATOM     13  C   UNL     1      24.171  11.937  12.218  1.00  0.00     0.000 A 
ATOM     14  C   UNL     1      23.943  10.336  10.421  1.00  0.00     0.000 A 
ATOM     15  C   UNL     1      23.471  10.894  11.611  1.00  0.00     0.000 A 
ENDBRANCH   9  10
BRANCH   9  16
ATOM     16  C   UNL     1      28.164  11.329   9.516  1.00  0.00     0.082 C 
ATOM     17  C   UNL     1      27.871  10.520   8.232  1.00  0.00     0.036 C 
ATOM     18  C   UNL     1      28.251  10.285  10.660  1.00  0.00     0.036 C 
ATOM     19  C   UNL     1      28.284   9.091   8.538  1.00  0.00     0.003 C 
ATOM     20  C   UNL     1      28.054   8.911  10.027  1.00  0.00     0.003 C 
BRANCH  16  21
ATOM     21  O   UNL     1      29.418  11.968   9.384  1.00  0.00    -0.389 OA
ATOM     22  H   UNL     1      29.285  12.832   8.913  1.00  0.00     0.211 HD
ENDBRANCH  16  21
ENDBRANCH   9  16
ENDBRANCH   1   9
TORSDOF 8
ENDMDL
MODEL 5
REMARK VINA RESULT:    -6.541      2.307      4.587
REMARK INTER + INTRA:         -10.098
REMARK INTER:                  -9.444
REMARK INTRA:                  -0.653
REMARK UNBOUND:                -0.689
REMARK SMILES CN(C)CCOC(=O)C(c1ccccc1)C1(O)CCCC1
REMARK SMILES IDX 7 1 8 2 6 3 5 4 4 5 2 6 1 7 3 8 9 9 10 10 11 11 15 12 12 13
REMARK SMILES IDX 14 14 13 15 16 16 18 17 21 18 19 19 20 20 17 21
REMARK H PARENT 17 22
REMARK Flexibility Score: inf
ROOT
ATOM      1  C   UNL     1      27.728  12.437  10.963  1.00  0.00     0.316 C 
ATOM      2  O   UNL     1      28.832  12.359  11.568  1.00  0.00    -0.251 OA
ENDROOT
BRANCH   1   3
ATOM      3  O   UNL     1      27.325  13.651  10.399  1.00  0.00    -0.464 OA
BRANCH   3   4
ATOM      4  C   UNL     1      27.782  14.913  10.873  1.00  0.00     0.248 C 
BRANCH   4   5
ATOM      5  C   UNL     1      26.617  15.903  10.875  1.00  0.00     0.125 C 
BRANCH   5   6
ATOM      6  N   UNL     1      26.157  16.169  12.256  1.00  0.00    -0.306 NA
ATOM      7  C   UNL     1      24.702  16.396  12.272  1.00  0.00     0.105 C 
ATOM      8  C   UNL     1      26.839  17.346  12.824  1.00  0.00     0.105 C 
ENDBRANCH   5   6
ENDBRANCH   4   5
ENDBRANCH   3   4
ENDBRANCH   1   3
BRANCH   1   9
ATOM      9  C   UNL     1      26.876  11.192  10.823  1.00  0.00     0.161 C 
BRANCH   9  10
ATOM     10  C   UNL     1      27.530  10.179   9.893  1.00  0.00    -0.031 A 
ATOM     11  C   UNL     1      28.032  10.603   8.648  1.00  0.00     0.005 A 
ATOM     12  C   UNL     1      27.694   8.829  10.264  1.00  0.00     0.005 A 
ATOM     13  C   UNL     1      28.667   9.699   7.792  1.00  0.00     0.000 A 
ATOM     14  C   UNL     1      28.330   7.929   9.404  1.00  0.00     0.000 A 
ATOM     15  C   UNL     1      28.815   8.363   8.169  1.00  0.00     0.000 A 
ENDBRANCH   9  10
BRANCH   9  16
ATOM     16  C   UNL     1      25.370  11.432  10.459  1.00  0.00     0.082 C 
ATOM     17  C   UNL     1      24.632  12.352  11.459  1.00  0.00     0.036 C 
ATOM     18  C   UNL     1      24.559  10.110  10.426  1.00  0.00     0.036 C 
ATOM     19  C   UNL     1      23.226  11.791  11.579  1.00  0.00     0.003 C 
ATOM     20  C   UNL     1      23.364  10.296  11.355  1.00  0.00     0.003 C 
BRANCH  16  21
ATOM     21  O   UNL     1      25.336  12.022   9.175  1.00  0.00    -0.389 OA
ATOM     22  H   UNL     1      26.001  12.760   9.147  1.00  0.00     0.211 HD
ENDBRANCH  16  21
ENDBRANCH   9  16
ENDBRANCH   1   9
TORSDOF 8
ENDMDL
MODEL 6
REMARK VINA RESULT:    -6.519      2.587      3.444
REMARK INTER + INTRA:         -10.066
REMARK INTER:                 -10.038
REMARK INTRA:                  -0.028
REMARK UNBOUND:                -0.689
REMARK SMILES CN(C)CCOC(=O)C(c1ccccc1)C1(O)CCCC1
REMARK SMILES IDX 7 1 8 2 6 3 5 4 4 5 2 6 1 7 3 8 9 9 10 10 11 11 15 12 12 13
REMARK SMILES IDX 14 14 13 15 16 16 18 17 21 18 19 19 20 20 17 21
REMARK H PARENT 17 22
REMARK Flexibility Score: inf
ROOT
ATOM      1  C   UNL     1      28.544  11.694  10.303  1.00  0.00     0.316 C 
ATOM      2  O   UNL     1      28.762  11.782  11.543  1.00  0.00    -0.251 OA
ENDROOT
BRANCH   1   3
ATOM      3  O   UNL     1      29.361  12.379   9.400  1.00  0.00    -0.464 OA
BRANCH   3   4
ATOM      4  C   UNL     1      30.757  12.134   9.279  1.00  0.00     0.248 C 
BRANCH   4   5
ATOM      5  C   UNL     1      30.975  10.784   8.596  1.00  0.00     0.125 C 
BRANCH   5   6
ATOM      6  N   UNL     1      31.320   9.743   9.588  1.00  0.00    -0.306 NA
ATOM      7  C   UNL     1      32.444  10.192  10.426  1.00  0.00     0.105 C 
ATOM      8  C   UNL     1      31.684   8.478   8.924  1.00  0.00     0.105 C 
ENDBRANCH   5   6
ENDBRANCH   4   5
ENDBRANCH   3   4
ENDBRANCH   1   3
BRANCH   1   9
ATOM      9  C   UNL     1      27.418  10.804   9.816  1.00  0.00     0.161 C 
BRANCH   9  10
ATOM     10  C   UNL     1      26.075  11.264  10.366  1.00  0.00    -0.031 A 
ATOM     11  C   UNL     1      26.016  12.408  11.185  1.00  0.00     0.005 A 
ATOM     12  C   UNL     1      24.873  10.605  10.037  1.00  0.00     0.005 A 
ATOM     13  C   UNL     1      24.791  12.870  11.674  1.00  0.00     0.000 A 
ATOM     14  C   UNL     1      23.651  11.072  10.529  1.00  0.00     0.000 A 
ATOM     15  C   UNL     1      23.610  12.202  11.347  1.00  0.00     0.000 A 
ENDBRANCH   9  10
BRANCH   9  16
ATOM     16  C   UNL     1      27.632   9.264  10.011  1.00  0.00     0.082 C 
ATOM     17  C   UNL     1      27.967   8.516   8.700  1.00  0.00     0.036 C 
ATOM     18  C   UNL     1      26.370   8.566  10.583  1.00  0.00     0.036 C 
ATOM     19  C   UNL     1      27.266   7.173   8.798  1.00  0.00     0.003 C 
ATOM     20  C   UNL     1      26.025   7.421   9.636  1.00  0.00     0.003 C 
BRANCH  16  21
ATOM     21  O   UNL     1      28.699   9.098  10.923  1.00  0.00    -0.389 OA
ATOM     22  H   UNL     1      29.553   9.098  10.415  1.00  0.00     0.211 HD
ENDBRANCH  16  21
ENDBRANCH   9  16
ENDBRANCH   1   9
TORSDOF 8
ENDMDL
MODEL 7
REMARK VINA RESULT:    -6.483      1.995      2.858
REMARK INTER + INTRA:         -10.015
REMARK INTER:                  -9.852
REMARK INTRA:                  -0.163
REMARK UNBOUND:                -0.689
REMARK SMILES CN(C)CCOC(=O)C(c1ccccc1)C1(O)CCCC1
REMARK SMILES IDX 7 1 8 2 6 3 5 4 4 5 2 6 1 7 3 8 9 9 10 10 11 11 15 12 12 13
REMARK SMILES IDX 14 14 13 15 16 16 18 17 21 18 19 19 20 20 17 21
REMARK H PARENT 17 22
REMARK Flexibility Score: inf
ROOT
ATOM      1  C   UNL     1      27.080  10.912   9.245  1.00  0.00     0.316 C 
ATOM      2  O   UNL     1      27.143  11.554   8.161  1.00  0.00    -0.251 OA
ENDROOT
BRANCH   1   3
ATOM      3  O   UNL     1      27.593  11.470  10.419  1.00  0.00    -0.464 OA
BRANCH   3   4
ATOM      4  C   UNL     1      28.970  11.785  10.587  1.00  0.00     0.248 C 
BRANCH   4   5
ATOM      5  C   UNL     1      29.112  13.273  10.911  1.00  0.00     0.125 C 
BRANCH   5   6
ATOM      6  N   UNL     1      30.355  13.529  11.670  1.00  0.00    -0.306 NA
ATOM      7  C   UNL     1      30.375  14.917  12.159  1.00  0.00     0.105 C 
ATOM      8  C   UNL     1      31.545  13.291  10.833  1.00  0.00     0.105 C 
ENDBRANCH   5   6
ENDBRANCH   4   5
ENDBRANCH   3   4
ENDBRANCH   1   3
BRANCH   1   9
ATOM      9  C   UNL     1      26.402   9.556   9.258  1.00  0.00     0.161 C 
BRANCH   9  10
ATOM     10  C   UNL     1      25.119   9.590  10.076  1.00  0.00    -0.031 A 
ATOM     11  C   UNL     1      24.795  10.745  10.813  1.00  0.00     0.005 A 
ATOM     12  C   UNL     1      24.212   8.510  10.079  1.00  0.00     0.005 A 
ATOM     13  C   UNL     1      23.607  10.812  11.545  1.00  0.00     0.000 A 
ATOM     14  C   UNL     1      23.024   8.583  10.813  1.00  0.00     0.000 A 
ATOM     15  C   UNL     1      22.723   9.732  11.545  1.00  0.00     0.000 A 
ENDBRANCH   9  10
BRANCH   9  16
ATOM     16  C   UNL     1      27.312   8.342   9.648  1.00  0.00     0.082 C 
ATOM     17  C   UNL     1      27.655   8.285  11.154  1.00  0.00     0.036 C 
ATOM     18  C   UNL     1      28.675   8.371   8.908  1.00  0.00     0.036 C 
ATOM     19  C   UNL     1      29.087   7.790  11.236  1.00  0.00     0.003 C 
ATOM     20  C   UNL     1      29.763   8.289   9.973  1.00  0.00     0.003 C 
BRANCH  16  21
ATOM     21  O   UNL     1      26.621   7.163   9.286  1.00  0.00    -0.389 OA
ATOM     22  H   UNL     1      27.142   6.693   8.583  1.00  0.00     0.211 HD
ENDBRANCH  16  21
ENDBRANCH   9  16
ENDBRANCH   1   9
TORSDOF 8
ENDMDL
MODEL 8
REMARK VINA RESULT:    -6.475      1.289      1.695
REMARK INTER + INTRA:         -10.004
REMARK INTER:                 -10.129
REMARK INTRA:                   0.125
REMARK UNBOUND:                -0.689
REMARK SMILES CN(C)CCOC(=O)C(c1ccccc1)C1(O)CCCC1
REMARK SMILES IDX 7 1 8 2 6 3 5 4 4 5 2 6 1 7 3 8 9 9 10 10 11 11 15 12 12 13
REMARK SMILES IDX 14 14 13 15 16 16 18 17 21 18 19 19 20 20 17 21
REMARK H PARENT 17 22
REMARK Flexibility Score: inf
ROOT
ATOM      1  C   UNL     1      28.438  11.915  11.152  1.00  0.00     0.316 C 
ATOM      2  O   UNL     1      28.565  10.898  11.888  1.00  0.00    -0.251 OA
ENDROOT
BRANCH   1   3
ATOM      3  O   UNL     1      29.217  13.051  11.389  1.00  0.00    -0.464 OA
BRANCH   3   4
ATOM      4  C   UNL     1      28.787  14.366  11.059  1.00  0.00     0.248 C 
BRANCH   4   5
ATOM      5  C   UNL     1      29.790  15.379  11.611  1.00  0.00     0.125 C 
BRANCH   5   6
ATOM      6  N   UNL     1      30.674  14.748  12.615  1.00  0.00    -0.306 NA
ATOM      7  C   UNL     1      30.573  15.461  13.900  1.00  0.00     0.105 C 
ATOM      8  C   UNL     1      32.078  14.756  12.165  1.00  0.00     0.105 C 
ENDBRANCH   5   6
ENDBRANCH   4   5
ENDBRANCH   3   4
ENDBRANCH   1   3
BRANCH   1   9
ATOM      9  C   UNL     1      27.465  11.865   9.991  1.00  0.00     0.161 C 
BRANCH   9  10
ATOM     10  C   UNL     1      26.033  11.693  10.479  1.00  0.00    -0.031 A 
ATOM     11  C   UNL     1      25.358  12.789  11.050  1.00  0.00     0.005 A 
ATOM     12  C   UNL     1      25.340  10.474  10.332  1.00  0.00     0.005 A 
ATOM     13  C   UNL     1      24.032  12.664  11.476  1.00  0.00     0.000 A 
ATOM     14  C   UNL     1      24.014  10.356  10.759  1.00  0.00     0.000 A 
ATOM     15  C   UNL     1      23.362  11.449  11.331  1.00  0.00     0.000 A 
ENDBRANCH   9  10
BRANCH   9  16
ATOM     16  C   UNL     1      27.818  10.853   8.847  1.00  0.00     0.082 C 
ATOM     17  C   UNL     1      27.490   9.384   9.200  1.00  0.00     0.036 C 
ATOM     18  C   UNL     1      29.328  10.874   8.494  1.00  0.00     0.036 C 
ATOM     19  C   UNL     1      28.601   8.552   8.584  1.00  0.00     0.003 C 
ATOM     20  C   UNL     1      29.832   9.439   8.603  1.00  0.00     0.003 C 
BRANCH  16  21
ATOM     21  O   UNL     1      27.075  11.232   7.706  1.00  0.00    -0.389 OA
ATOM     22  H   UNL     1      27.707  11.543   7.005  1.00  0.00     0.211 HD
ENDBRANCH  16  21
ENDBRANCH   9  16
ENDBRANCH   1   9
TORSDOF 8
ENDMDL
MODEL 9
REMARK VINA RESULT:    -6.448      2.100      3.012
REMARK INTER + INTRA:          -9.965
REMARK INTER:                  -9.994
REMARK INTRA:                   0.029
REMARK UNBOUND:                -0.689
REMARK SMILES CN(C)CCOC(=O)C(c1ccccc1)C1(O)CCCC1
REMARK SMILES IDX 7 1 8 2 6 3 5 4 4 5 2 6 1 7 3 8 9 9 10 10 11 11 15 12 12 13
REMARK SMILES IDX 14 14 13 15 16 16 18 17 21 18 19 19 20 20 17 21
REMARK H PARENT 17 22
REMARK Flexibility Score: inf
ROOT
ATOM      1  C   UNL     1      28.929  10.599  11.106  1.00  0.00     0.316 C 
ATOM      2  O   UNL     1      29.372   9.685  11.854  1.00  0.00    -0.251 OA
ENDROOT
BRANCH   1   3
ATOM      3  O   UNL     1      29.002  11.934  11.514  1.00  0.00    -0.464 OA
BRANCH   3   4
ATOM      4  C   UNL     1      29.349  12.995  10.633  1.00  0.00     0.248 C 
BRANCH   4   5
ATOM      5  C   UNL     1      30.776  13.454  10.932  1.00  0.00     0.125 C 
BRANCH   5   6
ATOM      6  N   UNL     1      30.812  14.301  12.143  1.00  0.00    -0.306 NA
ATOM      7  C   UNL     1      29.718  15.286  12.107  1.00  0.00     0.105 C 
ATOM      8  C   UNL     1      32.100  15.009  12.257  1.00  0.00     0.105 C 
ENDBRANCH   5   6
ENDBRANCH   4   5
ENDBRANCH   3   4
ENDBRANCH   1   3
BRANCH   1   9
ATOM      9  C   UNL     1      28.363  10.229   9.750  1.00  0.00     0.161 C 
BRANCH   9  10
ATOM     10  C   UNL     1      27.002   9.560   9.886  1.00  0.00    -0.031 A 
ATOM     11  C   UNL     1      25.838  10.352   9.917  1.00  0.00     0.005 A 
ATOM     12  C   UNL     1      26.866   8.157   9.932  1.00  0.00     0.005 A 
ATOM     13  C   UNL     1      24.576   9.759  10.008  1.00  0.00     0.000 A 
ATOM     14  C   UNL     1      25.601   7.569  10.023  1.00  0.00     0.000 A 
ATOM     15  C   UNL     1      24.458   8.370  10.061  1.00  0.00     0.000 A 
ENDBRANCH   9  10
BRANCH   9  16
ATOM     16  C   UNL     1      29.320   9.421   8.808  1.00  0.00     0.082 C 
ATOM     17  C   UNL     1      29.616   7.989   9.309  1.00  0.00     0.036 C 
ATOM     18  C   UNL     1      30.702  10.107   8.652  1.00  0.00     0.036 C 
ATOM     19  C   UNL     1      31.068   7.719   8.959  1.00  0.00     0.003 C 
ATOM     20  C   UNL     1      31.759   9.069   9.017  1.00  0.00     0.003 C 
BRANCH  16  21
ATOM     21  O   UNL     1      28.700   9.347   7.540  1.00  0.00    -0.389 OA
ATOM     22  H   UNL     1      28.987   8.507   7.094  1.00  0.00     0.211 HD
ENDBRANCH  16  21
ENDBRANCH   9  16
ENDBRANCH   1   9
TORSDOF 8
ENDMDL
MODEL 10
REMARK VINA RESULT:    -6.373      3.220      5.090
REMARK INTER + INTRA:          -9.856
REMARK INTER:                  -9.887
REMARK INTRA:                   0.032
REMARK UNBOUND:                -0.689
REMARK SMILES CN(C)CCOC(=O)C(c1ccccc1)C1(O)CCCC1
REMARK SMILES IDX 7 1 8 2 6 3 5 4 4 5 2 6 1 7 3 8 9 9 10 10 11 11 15 12 12 13
REMARK SMILES IDX 14 14 13 15 16 16 18 17 21 18 19 19 20 20 17 21
REMARK H PARENT 17 22
REMARK Flexibility Score: inf
ROOT
ATOM      1  C   UNL     1      28.761   8.851   9.148  1.00  0.00     0.316 C 
ATOM      2  O   UNL     1      28.542   8.763   7.909  1.00  0.00    -0.251 OA
ENDROOT
BRANCH   1   3
ATOM      3  O   UNL     1      29.650   7.967   9.765  1.00  0.00    -0.464 OA
BRANCH   3   4
ATOM      4  C   UNL     1      30.852   7.523   9.147  1.00  0.00     0.248 C 
BRANCH   4   5
ATOM      5  C   UNL     1      31.963   8.538   9.417  1.00  0.00     0.125 C 
BRANCH   5   6
ATOM      6  N   UNL     1      33.294   7.925   9.218  1.00  0.00    -0.306 NA
ATOM      7  C   UNL     1      34.275   8.954   8.834  1.00  0.00     0.105 C 
ATOM      8  C   UNL     1      33.248   6.884   8.176  1.00  0.00     0.105 C 
ENDBRANCH   5   6
ENDBRANCH   4   5
ENDBRANCH   3   4
ENDBRANCH   1   3
BRANCH   1   9
ATOM      9  C   UNL     1      28.081   9.951   9.938  1.00  0.00     0.161 C 
BRANCH   9  10
ATOM     10  C   UNL     1      26.584   9.699  10.057  1.00  0.00    -0.031 A 
ATOM     11  C   UNL     1      26.093   8.382   9.974  1.00  0.00     0.005 A 
ATOM     12  C   UNL     1      25.672  10.747  10.298  1.00  0.00     0.005 A 
ATOM     13  C   UNL     1      24.727   8.122  10.113  1.00  0.00     0.000 A 
ATOM     14  C   UNL     1      24.306  10.481  10.437  1.00  0.00     0.000 A 
ATOM     15  C   UNL     1      23.835   9.171  10.343  1.00  0.00     0.000 A 
ENDBRANCH   9  10
BRANCH   9  16
ATOM     16  C   UNL     1      28.392  11.416   9.477  1.00  0.00     0.082 C 
ATOM     17  C   UNL     1      29.882  11.654   9.139  1.00  0.00     0.036 C 
ATOM     18  C   UNL     1      28.036  12.460  10.567  1.00  0.00     0.036 C 
ATOM     19  C   UNL     1      30.196  13.060   9.616  1.00  0.00     0.003 C 
ATOM     20  C   UNL     1      29.288  13.298  10.808  1.00  0.00     0.003 C 
BRANCH  16  21
ATOM     21  O   UNL     1      27.611  11.671   8.327  1.00  0.00    -0.389 OA
ATOM     22  H   UNL     1      26.896  10.983   8.270  1.00  0.00     0.211 HD
ENDBRANCH  16  21
ENDBRANCH   9  16
ENDBRANCH   1   9
TORSDOF 8
ENDMDL
MODEL 11
REMARK VINA RESULT:    -6.320      2.546      3.243
REMARK INTER + INTRA:          -9.780
REMARK INTER:                 -10.077
REMARK INTRA:                   0.297
REMARK UNBOUND:                -0.689
REMARK SMILES CN(C)CCOC(=O)C(c1ccccc1)C1(O)CCCC1
REMARK SMILES IDX 7 1 8 2 6 3 5 4 4 5 2 6 1 7 3 8 9 9 10 10 11 11 15 12 12 13
REMARK SMILES IDX 14 14 13 15 16 16 18 17 21 18 19 19 20 20 17 21
REMARK H PARENT 17 22
REMARK Flexibility Score: inf
ROOT
ATOM      1  C   UNL     1      27.695  12.530  10.660  1.00  0.00     0.316 C 
ATOM      2  O   UNL     1      28.066  12.043  11.763  1.00  0.00    -0.251 OA
ENDROOT
BRANCH   1   3
ATOM      3  O   UNL     1      27.665  13.916  10.483  1.00  0.00    -0.464 OA
BRANCH   3   4
ATOM      4  C   UNL     1      26.513  14.705  10.755  1.00  0.00     0.248 C 
BRANCH   4   5
ATOM      5  C   UNL     1      26.948  16.053  11.330  1.00  0.00     0.125 C 
BRANCH   5   6
ATOM      6  N   UNL     1      26.114  16.421  12.495  1.00  0.00    -0.306 NA
ATOM      7  C   UNL     1      24.688  16.254  12.171  1.00  0.00     0.105 C 
ATOM      8  C   UNL     1      26.360  17.816  12.903  1.00  0.00     0.105 C 
ENDBRANCH   5   6
ENDBRANCH   4   5
ENDBRANCH   3   4
ENDBRANCH   1   3
BRANCH   1   9
ATOM      9  C   UNL     1      27.330  11.590   9.528  1.00  0.00     0.161 C 
BRANCH   9  10
ATOM     10  C   UNL     1      26.099  10.764   9.874  1.00  0.00    -0.031 A 
ATOM     11  C   UNL     1      24.924  11.413  10.299  1.00  0.00     0.005 A 
ATOM     12  C   UNL     1      26.084   9.361   9.733  1.00  0.00     0.005 A 
ATOM     13  C   UNL     1      23.771  10.679  10.590  1.00  0.00     0.000 A 
ATOM     14  C   UNL     1      24.927   8.632  10.026  1.00  0.00     0.000 A 
ATOM     15  C   UNL     1      23.774   9.290  10.454  1.00  0.00     0.000 A 
ENDBRANCH   9  10
BRANCH   9  16
ATOM     16  C   UNL     1      28.496  10.700   8.976  1.00  0.00     0.082 C 
ATOM     17  C   UNL     1      28.780   9.450   9.841  1.00  0.00     0.036 C 
ATOM     18  C   UNL     1      29.838  11.474   8.903  1.00  0.00     0.036 C 
ATOM     19  C   UNL     1      30.286   9.261   9.815  1.00  0.00     0.003 C 
ATOM     20  C   UNL     1      30.868  10.656   9.673  1.00  0.00     0.003 C 
BRANCH  16  21
ATOM     21  O   UNL     1      28.132  10.289   7.674  1.00  0.00    -0.389 OA
ATOM     22  H   UNL     1      28.384   9.334   7.561  1.00  0.00     0.211 HD
ENDBRANCH  16  21
ENDBRANCH   9  16
ENDBRANCH   1   9
TORSDOF 8
ENDMDL
MODEL 12
REMARK VINA RESULT:    -6.314      2.678      4.521
REMARK INTER + INTRA:          -9.772
REMARK INTER:                 -10.130
REMARK INTRA:                   0.358
REMARK UNBOUND:                -0.689
REMARK SMILES CN(C)CCOC(=O)C(c1ccccc1)C1(O)CCCC1
REMARK SMILES IDX 7 1 8 2 6 3 5 4 4 5 2 6 1 7 3 8 9 9 10 10 11 11 15 12 12 13
REMARK SMILES IDX 14 14 13 15 16 16 18 17 21 18 19 19 20 20 17 21
REMARK H PARENT 17 22
REMARK Flexibility Score: inf
ROOT
ATOM      1  C   UNL     1      28.378   9.232   9.348  1.00  0.00     0.316 C 
ATOM      2  O   UNL     1      28.269   9.121   8.096  1.00  0.00    -0.251 OA
ENDROOT
BRANCH   1   3
ATOM      3  O   UNL     1      29.423   8.588  10.018  1.00  0.00    -0.464 OA
BRANCH   3   4
ATOM      4  C   UNL     1      30.385   7.779   9.353  1.00  0.00     0.248 C 
BRANCH   4   5
ATOM      5  C   UNL     1      31.722   8.519   9.308  1.00  0.00     0.125 C 
BRANCH   5   6
ATOM      6  N   UNL     1      31.553   9.934   9.706  1.00  0.00    -0.306 NA
ATOM      7  C   UNL     1      31.694  10.812   8.533  1.00  0.00     0.105 C 
ATOM      8  C   UNL     1      32.546  10.320  10.725  1.00  0.00     0.105 C 
ENDBRANCH   5   6
ENDBRANCH   4   5
ENDBRANCH   3   4
ENDBRANCH   1   3
BRANCH   1   9
ATOM      9  C   UNL     1      27.392  10.104  10.098  1.00  0.00     0.161 C 
BRANCH   9  10
ATOM     10  C   UNL     1      26.013   9.461  10.144  1.00  0.00    -0.031 A 
ATOM     11  C   UNL     1      25.892   8.066   9.994  1.00  0.00     0.005 A 
ATOM     12  C   UNL     1      24.848  10.219  10.383  1.00  0.00     0.005 A 
ATOM     13  C   UNL     1      24.640   7.449  10.066  1.00  0.00     0.000 A 
ATOM     14  C   UNL     1      23.598   9.596  10.455  1.00  0.00     0.000 A 
ATOM     15  C   UNL     1      23.495   8.213  10.295  1.00  0.00     0.000 A 
ENDBRANCH   9  10
BRANCH   9  16
ATOM     16  C   UNL     1      27.323  11.603   9.643  1.00  0.00     0.082 C 
ATOM     17  C   UNL     1      28.556  12.434  10.066  1.00  0.00     0.036 C 
ATOM     18  C   UNL     1      26.095  12.338  10.241  1.00  0.00     0.036 C 
ATOM     19  C   UNL     1      28.026  13.811  10.423  1.00  0.00     0.003 C 
ATOM     20  C   UNL     1      26.621  13.582  10.949  1.00  0.00     0.003 C 
BRANCH  16  21
ATOM     21  O   UNL     1      27.220  11.612   8.234  1.00  0.00    -0.389 OA
ATOM     22  H   UNL     1      28.134  11.549   7.849  1.00  0.00     0.211 HD
ENDBRANCH  16  21
ENDBRANCH   9  16
ENDBRANCH   1   9
TORSDOF 8
ENDMDL
MODEL 13
REMARK VINA RESULT:    -6.281      2.482      4.428
REMARK INTER + INTRA:          -9.724
REMARK INTER:                  -9.497
REMARK INTRA:                  -0.227
REMARK UNBOUND:                -0.689
REMARK SMILES CN(C)CCOC(=O)C(c1ccccc1)C1(O)CCCC1
REMARK SMILES IDX 7 1 8 2 6 3 5 4 4 5 2 6 1 7 3 8 9 9 10 10 11 11 15 12 12 13
REMARK SMILES IDX 14 14 13 15 16 16 18 17 21 18 19 19 20 20 17 21
REMARK H PARENT 17 22
REMARK Flexibility Score: inf
ROOT
ATOM      1  C   UNL     1      28.616  11.608  10.511  1.00  0.00     0.316 C 
ATOM      2  O   UNL     1      29.302  11.908  11.526  1.00  0.00    -0.251 OA
ENDROOT
BRANCH   1   3
ATOM      3  O   UNL     1      29.125  11.840   9.230  1.00  0.00    -0.464 OA
BRANCH   3   4
ATOM      4  C   UNL     1      30.418  12.386   8.999  1.00  0.00     0.248 C 
BRANCH   4   5
ATOM      5  C   UNL     1      31.264  11.372   8.229  1.00  0.00     0.125 C 
BRANCH   5   6
ATOM      6  N   UNL     1      32.296  10.776   9.106  1.00  0.00    -0.306 NA
ATOM      7  C   UNL     1      31.845   9.465   9.601  1.00  0.00     0.105 C 
ATOM      8  C   UNL     1      32.589  11.654  10.252  1.00  0.00     0.105 C 
ENDBRANCH   5   6
ENDBRANCH   4   5
ENDBRANCH   3   4
ENDBRANCH   1   3
BRANCH   1   9
ATOM      9  C   UNL     1      27.262  10.956  10.705  1.00  0.00     0.161 C 
BRANCH   9  10
ATOM     10  C   UNL     1      27.213   9.583  10.050  1.00  0.00    -0.031 A 
ATOM     11  C   UNL     1      26.096   8.751  10.263  1.00  0.00     0.005 A 
ATOM     12  C   UNL     1      28.236   9.133   9.191  1.00  0.00     0.005 A 
ATOM     13  C   UNL     1      26.013   7.500   9.646  1.00  0.00     0.000 A 
ATOM     14  C   UNL     1      28.148   7.880   8.576  1.00  0.00     0.000 A 
ATOM     15  C   UNL     1      27.038   7.065   8.804  1.00  0.00     0.000 A 
ENDBRANCH   9  10
BRANCH   9  16
ATOM     16  C   UNL     1      26.021  11.832  10.320  1.00  0.00     0.082 C 
ATOM     17  C   UNL     1      26.114  13.291  10.822  1.00  0.00     0.036 C 
ATOM     18  C   UNL     1      24.702  11.267  10.910  1.00  0.00     0.036 C 
ATOM     19  C   UNL     1      24.704  13.682  11.225  1.00  0.00     0.003 C 
ATOM     20  C   UNL     1      24.043  12.398  11.693  1.00  0.00     0.003 C 
BRANCH  16  21
ATOM     21  O   UNL     1      25.927  11.833   8.910  1.00  0.00    -0.389 OA
ATOM     22  H   UNL     1      25.179  12.429   8.642  1.00  0.00     0.211 HD
ENDBRANCH  16  21
ENDBRANCH   9  16
ENDBRANCH   1   9
TORSDOF 8
ENDMDL
MODEL 14
REMARK VINA RESULT:    -6.195      2.001      2.728
REMARK INTER + INTRA:          -9.600
REMARK INTER:                  -9.751
REMARK INTRA:                   0.151
REMARK UNBOUND:                -0.689
REMARK SMILES CN(C)CCOC(=O)C(c1ccccc1)C1(O)CCCC1
REMARK SMILES IDX 7 1 8 2 6 3 5 4 4 5 2 6 1 7 3 8 9 9 10 10 11 11 15 12 12 13
REMARK SMILES IDX 14 14 13 15 16 16 18 17 21 18 19 19 20 20 17 21
REMARK H PARENT 17 22
REMARK Flexibility Score: inf
ROOT
ATOM      1  C   UNL     1      28.633  11.834  11.149  1.00  0.00     0.316 C 
ATOM      2  O   UNL     1      28.682  10.760  11.808  1.00  0.00    -0.251 OA
ENDROOT
BRANCH   1   3
ATOM      3  O   UNL     1      29.492  12.890  11.468  1.00  0.00    -0.464 OA
BRANCH   3   4
ATOM      4  C   UNL     1      30.399  13.460  10.532  1.00  0.00     0.248 C 
BRANCH   4   5
ATOM      5  C   UNL     1      31.819  12.996  10.857  1.00  0.00     0.125 C 
BRANCH   5   6
ATOM      6  N   UNL     1      32.141  11.747  10.133  1.00  0.00    -0.306 NA
ATOM      7  C   UNL     1      33.086  10.935  10.918  1.00  0.00     0.105 C 
ATOM      8  C   UNL     1      32.730  12.037   8.813  1.00  0.00     0.105 C 
ENDBRANCH   5   6
ENDBRANCH   4   5
ENDBRANCH   3   4
ENDBRANCH   1   3
BRANCH   1   9
ATOM      9  C   UNL     1      27.665  11.941   9.988  1.00  0.00     0.161 C 
BRANCH   9  10
ATOM     10  C   UNL     1      26.235  12.113  10.478  1.00  0.00    -0.031 A 
ATOM     11  C   UNL     1      25.369  11.003  10.499  1.00  0.00     0.005 A 
ATOM     12  C   UNL     1      25.760  13.350  10.961  1.00  0.00     0.005 A 
ATOM     13  C   UNL     1      24.062  11.129  10.976  1.00  0.00     0.000 A 
ATOM     14  C   UNL     1      24.451  13.470  11.437  1.00  0.00     0.000 A 
ATOM     15  C   UNL     1      23.603  12.361  11.444  1.00  0.00     0.000 A 
ENDBRANCH   9  10
BRANCH   9  16
ATOM     16  C   UNL     1      27.779  10.819   8.899  1.00  0.00     0.082 C 
ATOM     17  C   UNL     1      27.250   9.445   9.371  1.00  0.00     0.036 C 
ATOM     18  C   UNL     1      29.247  10.577   8.461  1.00  0.00     0.036 C 
ATOM     19  C   UNL     1      28.173   8.411   8.753  1.00  0.00     0.003 C 
ATOM     20  C   UNL     1      29.526   9.089   8.640  1.00  0.00     0.003 C 
BRANCH  16  21
ATOM     21  O   UNL     1      27.030  11.243   7.778  1.00  0.00    -0.389 OA
ATOM     22  H   UNL     1      27.275  12.182   7.569  1.00  0.00     0.211 HD
ENDBRANCH  16  21
ENDBRANCH   9  16
ENDBRANCH   1   9
TORSDOF 8
ENDMDL
MODEL 15
REMARK VINA RESULT:    -6.081      2.807      5.169
REMARK INTER + INTRA:          -9.436
REMARK INTER:                  -8.438
REMARK INTRA:                  -0.998
REMARK UNBOUND:                -0.689
REMARK SMILES CN(C)CCOC(=O)C(c1ccccc1)C1(O)CCCC1
REMARK SMILES IDX 7 1 8 2 6 3 5 4 4 5 2 6 1 7 3 8 9 9 10 10 11 11 15 12 12 13
REMARK SMILES IDX 14 14 13 15 16 16 18 17 21 18 19 19 20 20 17 21
REMARK H PARENT 17 22
REMARK Flexibility Score: inf
ROOT
ATOM      1  C   UNL     1      28.430  12.467  10.402  1.00  0.00     0.316 C 
ATOM      2  O   UNL     1      28.939  12.634  11.544  1.00  0.00    -0.251 OA
ENDROOT
BRANCH   1   3
ATOM      3  O   UNL     1      27.217  13.082  10.081  1.00  0.00    -0.464 OA
BRANCH   3   4
ATOM      4  C   UNL     1      25.988  12.748  10.716  1.00  0.00     0.248 C 
BRANCH   4   5
ATOM      5  C   UNL     1      25.254  11.702   9.878  1.00  0.00     0.125 C 
BRANCH   5   6
ATOM      6  N   UNL     1      24.032  11.238  10.570  1.00  0.00    -0.306 NA
ATOM      7  C   UNL     1      24.005  11.750  11.950  1.00  0.00     0.105 C 
ATOM      8  C   UNL     1      23.964   9.766  10.596  1.00  0.00     0.105 C 
ENDBRANCH   5   6
ENDBRANCH   4   5
ENDBRANCH   3   4
ENDBRANCH   1   3
BRANCH   1   9
ATOM      9  C   UNL     1      29.175  11.631   9.381  1.00  0.00     0.161 C 
BRANCH   9  10
ATOM     10  C   UNL     1      28.615  10.217   9.314  1.00  0.00    -0.031 A 
ATOM     11  C   UNL     1      28.762   9.467   8.131  1.00  0.00     0.005 A 
ATOM     12  C   UNL     1      27.994   9.611  10.425  1.00  0.00     0.005 A 
ATOM     13  C   UNL     1      28.286   8.155   8.057  1.00  0.00     0.000 A 
ATOM     14  C   UNL     1      27.520   8.298  10.345  1.00  0.00     0.000 A 
ATOM     15  C   UNL     1      27.665   7.572   9.162  1.00  0.00     0.000 A 
ENDBRANCH   9  10
BRANCH   9  16
ATOM     16  C   UNL     1      30.737  11.636   9.503  1.00  0.00     0.082 C 
ATOM     17  C   UNL     1      31.462  11.358   8.166  1.00  0.00     0.036 C 
ATOM     18  C   UNL     1      31.249  10.556  10.492  1.00  0.00     0.036 C 
ATOM     19  C   UNL     1      32.677  10.519   8.519  1.00  0.00     0.003 C 
ATOM     20  C   UNL     1      32.274   9.713   9.740  1.00  0.00     0.003 C 
BRANCH  16  21
ATOM     21  O   UNL     1      31.119  12.911   9.979  1.00  0.00    -0.389 OA
ATOM     22  H   UNL     1      31.226  13.520   9.202  1.00  0.00     0.211 HD
ENDBRANCH  16  21
ENDBRANCH   9  16
ENDBRANCH   1   9
TORSDOF 8
ENDMDL
