MODEL 1
REMARK VINA RESULT:    -7.092      0.000      0.000
REMARK INTER + INTRA:         -10.798
REMARK INTER:                  -9.372
REMARK INTRA:                  -1.427
REMARK UNBOUND:                -1.427
REMARK SMILES C[N@+]12CC[C@H](CC1)C(OC(=O)C(O)(c1ccccc1)c1ccccc1)C2
REMARK SMILES IDX 10 1 11 2 9 3 8 4 1 5 2 6 7 7 3 8 26 9 6 10 4 11 5 12 12 13
REMARK SMILES IDX 13 14 14 16 15 17 19 18 16 19 18 20 17 21 20 22 21 23 25 24
REMARK SMILES IDX 22 25 24 26 23 27
REMARK H PARENT 13 15
REMARK Flexibility Score: inf
ROOT
ATOM      1  C   UNL     1      26.268  22.768   8.655  1.00  0.00     0.348 C 
ATOM      2  O   UNL     1      26.096  24.002   8.446  1.00  0.00    -0.248 OA
ENDROOT
BRANCH   1   3
ATOM      3  O   UNL     1      25.380  22.063   9.477  1.00  0.00    -0.453 OA
BRANCH   3   4
ATOM      4  C   UNL     1      25.127  22.405  10.840  1.00  0.00     0.235 C 
ATOM      5  C   UNL     1      21.572  22.125  12.207  1.00  0.00     0.334 C 
ATOM      6  N   UNL     1      23.007  21.807  12.051  1.00  0.00    -0.323 N 
ATOM      7  C   UNL     1      23.708  21.997  13.354  1.00  0.00     0.264 C 
ATOM      8  C   UNL     1      23.163  20.391  11.608  1.00  0.00     0.264 C 
ATOM      9  C   UNL     1      23.614  22.708  11.029  1.00  0.00     0.309 C 
ATOM     10  C   UNL     1      25.220  21.677  13.226  1.00  0.00     0.069 C 
ATOM     11  C   UNL     1      24.658  20.018  11.453  1.00  0.00     0.069 C 
ATOM     12  C   UNL     1      25.528  21.247  11.781  1.00  0.00     0.047 C 
ENDBRANCH   3   4
ENDBRANCH   1   3
BRANCH   1  13
ATOM     13  C   UNL     1      27.501  22.067   8.104  1.00  0.00     0.213 C 
BRANCH  13  14
ATOM     14  O   UNL     1      27.396  22.108   6.698  1.00  0.00    -0.370 OA
ATOM     15  H   UNL     1      28.239  21.751   6.314  1.00  0.00     0.213 HD
ENDBRANCH  13  14
BRANCH  13  16
ATOM     16  C   UNL     1      28.784  22.786   8.527  1.00  0.00    -0.001 A 
ATOM     17  C   UNL     1      29.835  23.004   7.607  1.00  0.00     0.008 A 
ATOM     18  C   UNL     1      28.893  23.358   9.813  1.00  0.00     0.008 A 
ATOM     19  C   UNL     1      30.977  23.713   7.985  1.00  0.00     0.000 A 
ATOM     20  C   UNL     1      30.040  24.065  10.186  1.00  0.00     0.000 A 
ATOM     21  C   UNL     1      31.083  24.238   9.275  1.00  0.00     0.000 A 
ENDBRANCH  13  16
BRANCH  13  22
ATOM     22  C   UNL     1      27.612  20.618   8.594  1.00  0.00    -0.001 A 
ATOM     23  C   UNL     1      26.964  19.572   7.901  1.00  0.00     0.008 A 
ATOM     24  C   UNL     1      28.460  20.281   9.673  1.00  0.00     0.008 A 
ATOM     25  C   UNL     1      27.111  18.245   8.313  1.00  0.00     0.000 A 
ATOM     26  C   UNL     1      28.604  18.951  10.079  1.00  0.00     0.000 A 
ATOM     27  C   UNL     1      27.925  17.935   9.405  1.00  0.00     0.000 A 
ENDBRANCH  13  22
ENDBRANCH   1  13
TORSDOF 6
ENDMDL
MODEL 2
REMARK VINA RESULT:    -6.760      2.690      7.738
REMARK INTER + INTRA:         -10.360
REMARK INTER:                  -9.648
REMARK INTRA:                  -0.712
REMARK UNBOUND:                -1.427
REMARK SMILES C[N@+]12CC[C@H](CC1)C(OC(=O)C(O)(c1ccccc1)c1ccccc1)C2
REMARK SMILES IDX 10 1 11 2 9 3 8 4 1 5 2 6 7 7 3 8 26 9 6 10 4 11 5 12 12 13
REMARK SMILES IDX 13 14 14 16 15 17 19 18 16 19 18 20 17 21 20 22 21 23 25 24
REMARK SMILES IDX 22 25 24 26 23 27
REMARK H PARENT 13 15
REMARK Flexibility Score: inf
ROOT
ATOM      1  C   UNL     1      24.550  20.647  12.372  1.00  0.00     0.348 C 
ATOM      2  O   UNL     1      25.127  21.508  13.094  1.00  0.00    -0.248 OA
ENDROOT
BRANCH   1   3
ATOM      3  O   UNL     1      25.303  19.804  11.545  1.00  0.00    -0.453 OA
BRANCH   3   4
ATOM      4  C   UNL     1      25.784  20.187  10.256  1.00  0.00     0.235 C 
ATOM      5  C   UNL     1      29.441  21.208   9.853  1.00  0.00     0.334 C 
ATOM      6  N   UNL     1      28.223  20.387   9.687  1.00  0.00    -0.323 N 
ATOM      7  C   UNL     1      27.885  20.277   8.238  1.00  0.00     0.264 C 
ATOM      8  C   UNL     1      28.457  19.023  10.244  1.00  0.00     0.264 C 
ATOM      9  C   UNL     1      27.085  21.022  10.412  1.00  0.00     0.309 C 
ATOM     10  C   UNL     1      26.607  19.425   8.026  1.00  0.00     0.069 C 
ATOM     11  C   UNL     1      27.206  18.128  10.068  1.00  0.00     0.069 C 
ATOM     12  C   UNL     1      26.086  18.942   9.391  1.00  0.00     0.047 C 
ENDBRANCH   3   4
ENDBRANCH   1   3
BRANCH   1  13
ATOM     13  C   UNL     1      23.030  20.596  12.314  1.00  0.00     0.213 C 
BRANCH  13  14
ATOM     14  O   UNL     1      22.692  20.065  11.052  1.00  0.00    -0.370 OA
ATOM     15  H   UNL     1      21.810  20.436  10.786  1.00  0.00     0.213 HD
ENDBRANCH  13  14
BRANCH  13  16
ATOM     16  C   UNL     1      22.463  19.686  13.405  1.00  0.00    -0.001 A 
ATOM     17  C   UNL     1      21.148  19.174  13.316  1.00  0.00     0.008 A 
ATOM     18  C   UNL     1      23.284  19.237  14.460  1.00  0.00     0.008 A 
ATOM     19  C   UNL     1      20.659  18.296  14.287  1.00  0.00     0.000 A 
ATOM     20  C   UNL     1      22.788  18.360  15.430  1.00  0.00     0.000 A 
ATOM     21  C   UNL     1      21.476  17.894  15.345  1.00  0.00     0.000 A 
ENDBRANCH  13  16
BRANCH  13  22
ATOM     22  C   UNL     1      22.396  21.979  12.503  1.00  0.00    -0.001 A 
ATOM     23  C   UNL     1      22.042  22.439  13.791  1.00  0.00     0.008 A 
ATOM     24  C   UNL     1      22.263  22.871  11.416  1.00  0.00     0.008 A 
ATOM     25  C   UNL     1      21.516  23.721  13.971  1.00  0.00     0.000 A 
ATOM     26  C   UNL     1      21.739  24.153  11.603  1.00  0.00     0.000 A 
ATOM     27  C   UNL     1      21.359  24.575  12.878  1.00  0.00     0.000 A 
ENDBRANCH  13  22
ENDBRANCH   1  13
TORSDOF 6
ENDMDL
MODEL 3
REMARK VINA RESULT:    -6.713      1.095      3.642
REMARK INTER + INTRA:         -10.297
REMARK INTER:                  -9.078
REMARK INTRA:                  -1.219
REMARK UNBOUND:                -1.427
REMARK SMILES C[N@+]12CC[C@H](CC1)C(OC(=O)C(O)(c1ccccc1)c1ccccc1)C2
REMARK SMILES IDX 10 1 11 2 9 3 8 4 1 5 2 6 7 7 3 8 26 9 6 10 4 11 5 12 12 13
REMARK SMILES IDX 13 14 14 16 15 17 19 18 16 19 18 20 17 21 20 22 21 23 25 24
REMARK SMILES IDX 22 25 24 26 23 27
REMARK H PARENT 13 15
REMARK Flexibility Score: inf
ROOT
ATOM      1  C   UNL     1      26.557  22.961   9.005  1.00  0.00     0.348 C 
ATOM      2  O   UNL     1      26.459  24.121   8.516  1.00  0.00    -0.248 OA
ENDROOT
BRANCH   1   3
ATOM      3  O   UNL     1      25.446  22.352   9.602  1.00  0.00    -0.453 OA
BRANCH   3   4
ATOM      4  C   UNL     1      25.075  22.553  10.966  1.00  0.00     0.235 C 
ATOM      5  C   UNL     1      21.467  21.906  12.037  1.00  0.00     0.334 C 
ATOM      6  N   UNL     1      22.930  21.704  11.962  1.00  0.00    -0.323 N 
ATOM      7  C   UNL     1      23.525  21.825  13.325  1.00  0.00     0.264 C 
ATOM      8  C   UNL     1      23.222  20.347  11.415  1.00  0.00     0.264 C 
ATOM      9  C   UNL     1      23.535  22.732  11.067  1.00  0.00     0.309 C 
ATOM     10  C   UNL     1      25.062  21.624  13.283  1.00  0.00     0.069 C 
ATOM     11  C   UNL     1      24.748  20.094  11.341  1.00  0.00     0.069 C 
ATOM     12  C   UNL     1      25.499  21.347  11.834  1.00  0.00     0.047 C 
ENDBRANCH   3   4
ENDBRANCH   1   3
BRANCH   1  13
ATOM     13  C   UNL     1      27.910  22.263   9.047  1.00  0.00     0.213 C 
BRANCH  13  14
ATOM     14  O   UNL     1      28.529  22.654  10.252  1.00  0.00    -0.370 OA
ATOM     15  H   UNL     1      28.520  21.877  10.870  1.00  0.00     0.213 HD
ENDBRANCH  13  14
BRANCH  13  16
ATOM     16  C   UNL     1      27.750  20.742   9.040  1.00  0.00    -0.001 A 
ATOM     17  C   UNL     1      26.998  20.091   8.036  1.00  0.00     0.008 A 
ATOM     18  C   UNL     1      28.456  19.944   9.967  1.00  0.00     0.008 A 
ATOM     19  C   UNL     1      26.906  18.698   8.003  1.00  0.00     0.000 A 
ATOM     20  C   UNL     1      28.359  18.550   9.931  1.00  0.00     0.000 A 
ATOM     21  C   UNL     1      27.582  17.928   8.953  1.00  0.00     0.000 A 
ENDBRANCH  13  16
BRANCH  13  22
ATOM     22  C   UNL     1      28.789  22.630   7.845  1.00  0.00    -0.001 A 
ATOM     23  C   UNL     1      30.192  22.478   7.907  1.00  0.00     0.008 A 
ATOM     24  C   UNL     1      28.211  23.011   6.614  1.00  0.00     0.008 A 
ATOM     25  C   UNL     1      30.989  22.759   6.794  1.00  0.00     0.000 A 
ATOM     26  C   UNL     1      29.014  23.288   5.504  1.00  0.00     0.000 A 
ATOM     27  C   UNL     1      30.402  23.169   5.595  1.00  0.00     0.000 A 
ENDBRANCH  13  22
ENDBRANCH   1  13
TORSDOF 6
ENDMDL
MODEL 4
REMARK VINA RESULT:    -6.657      2.872      5.725
REMARK INTER + INTRA:         -10.224
REMARK INTER:                  -9.334
REMARK INTRA:                  -0.891
REMARK UNBOUND:                -1.427
REMARK SMILES C[N@+]12CC[C@H](CC1)C(OC(=O)C(O)(c1ccccc1)c1ccccc1)C2
REMARK SMILES IDX 10 1 11 2 9 3 8 4 1 5 2 6 7 7 3 8 26 9 6 10 4 11 5 12 12 13
REMARK SMILES IDX 13 14 14 16 15 17 19 18 16 19 18 20 17 21 20 22 21 23 25 24
REMARK SMILES IDX 22 25 24 26 23 27
REMARK H PARENT 13 15
REMARK Flexibility Score: inf
ROOT
ATOM      1  C   UNL     1      29.529  22.620   6.490  1.00  0.00     0.348 C 
ATOM      2  O   UNL     1      28.823  23.395   5.786  1.00  0.00    -0.248 OA
ENDROOT
BRANCH   1   3
ATOM      3  O   UNL     1      28.940  21.533   7.147  1.00  0.00    -0.453 OA
BRANCH   3   4
ATOM      4  C   UNL     1      27.868  21.662   8.082  1.00  0.00     0.235 C 
ATOM      5  C   UNL     1      26.318  18.518   9.596  1.00  0.00     0.334 C 
ATOM      6  N   UNL     1      27.077  19.786   9.555  1.00  0.00    -0.323 N 
ATOM      7  C   UNL     1      26.439  20.782  10.465  1.00  0.00     0.264 C 
ATOM      8  C   UNL     1      28.482  19.546   9.993  1.00  0.00     0.264 C 
ATOM      9  C   UNL     1      27.083  20.324   8.164  1.00  0.00     0.309 C 
ATOM     10  C   UNL     1      27.206  22.129  10.443  1.00  0.00     0.069 C 
ATOM     11  C   UNL     1      29.301  20.861   9.980  1.00  0.00     0.069 C 
ATOM     12  C   UNL     1      28.407  22.015   9.487  1.00  0.00     0.047 C 
ENDBRANCH   3   4
ENDBRANCH   1   3
BRANCH   1  13
ATOM     13  C   UNL     1      31.002  22.928   6.718  1.00  0.00     0.213 C 
BRANCH  13  14
ATOM     14  O   UNL     1      31.467  21.996   7.669  1.00  0.00    -0.370 OA
ATOM     15  H   UNL     1      30.869  22.037   8.461  1.00  0.00     0.213 HD
ENDBRANCH  13  14
BRANCH  13  16
ATOM     16  C   UNL     1      31.809  22.767   5.428  1.00  0.00    -0.001 A 
ATOM     17  C   UNL     1      33.186  23.086   5.384  1.00  0.00     0.008 A 
ATOM     18  C   UNL     1      31.225  22.175   4.288  1.00  0.00     0.008 A 
ATOM     19  C   UNL     1      33.928  22.880   4.219  1.00  0.00     0.000 A 
ATOM     20  C   UNL     1      31.973  21.973   3.124  1.00  0.00     0.000 A 
ATOM     21  C   UNL     1      33.321  22.329   3.089  1.00  0.00     0.000 A 
ENDBRANCH  13  16
BRANCH  13  22
ATOM     22  C   UNL     1      31.225  24.361   7.215  1.00  0.00    -0.001 A 
ATOM     23  C   UNL     1      31.176  25.451   6.317  1.00  0.00     0.008 A 
ATOM     24  C   UNL     1      31.363  24.637   8.594  1.00  0.00     0.008 A 
ATOM     25  C   UNL     1      31.323  26.761   6.778  1.00  0.00     0.000 A 
ATOM     26  C   UNL     1      31.507  25.951   9.048  1.00  0.00     0.000 A 
ATOM     27  C   UNL     1      31.495  27.012   8.141  1.00  0.00     0.000 A 
ENDBRANCH  13  22
ENDBRANCH   1  13
TORSDOF 6
ENDMDL
MODEL 5
REMARK VINA RESULT:    -6.607      3.223      4.767
REMARK INTER + INTRA:         -10.158
REMARK INTER:                  -8.485
REMARK INTRA:                  -1.674
REMARK UNBOUND:                -1.427
REMARK SMILES C[N@+]12CC[C@H](CC1)C(OC(=O)C(O)(c1ccccc1)c1ccccc1)C2
REMARK SMILES IDX 10 1 11 2 9 3 8 4 1 5 2 6 7 7 3 8 26 9 6 10 4 11 5 12 12 13
REMARK SMILES IDX 13 14 14 16 15 17 19 18 16 19 18 20 17 21 20 22 21 23 25 24
REMARK SMILES IDX 22 25 24 26 23 27
REMARK H PARENT 13 15
REMARK Flexibility Score: inf
ROOT
ATOM      1  C   UNL     1      29.393  24.919   6.475  1.00  0.00     0.348 C 
ATOM      2  O   UNL     1      29.173  25.705   5.512  1.00  0.00    -0.248 OA
ENDROOT
BRANCH   1   3
ATOM      3  O   UNL     1      29.579  25.425   7.768  1.00  0.00    -0.453 OA
BRANCH   3   4
ATOM      4  C   UNL     1      28.609  26.218   8.452  1.00  0.00     0.235 C 
ATOM      5  C   UNL     1      25.438  24.558   9.784  1.00  0.00     0.334 C 
ATOM      6  N   UNL     1      26.745  25.249   9.830  1.00  0.00    -0.323 N 
ATOM      7  C   UNL     1      26.595  26.557  10.533  1.00  0.00     0.264 C 
ATOM      8  C   UNL     1      27.733  24.406  10.563  1.00  0.00     0.264 C 
ATOM      9  C   UNL     1      27.238  25.488   8.444  1.00  0.00     0.309 C 
ATOM     10  C   UNL     1      27.947  27.315  10.595  1.00  0.00     0.069 C 
ATOM     11  C   UNL     1      29.110  25.111  10.648  1.00  0.00     0.069 C 
ATOM     12  C   UNL     1      29.037  26.466   9.917  1.00  0.00     0.047 C 
ENDBRANCH   3   4
ENDBRANCH   1   3
BRANCH   1  13
ATOM     13  C   UNL     1      29.565  23.429   6.219  1.00  0.00     0.213 C 
BRANCH  13  14
ATOM     14  O   UNL     1      28.690  23.097   5.163  1.00  0.00    -0.370 OA
ATOM     15  H   UNL     1      27.834  23.579   5.307  1.00  0.00     0.213 HD
ENDBRANCH  13  14
BRANCH  13  16
ATOM     16  C   UNL     1      30.998  23.100   5.798  1.00  0.00    -0.001 A 
ATOM     17  C   UNL     1      31.288  21.944   5.038  1.00  0.00     0.008 A 
ATOM     18  C   UNL     1      32.046  24.011   6.052  1.00  0.00     0.008 A 
ATOM     19  C   UNL     1      32.591  21.682   4.607  1.00  0.00     0.000 A 
ATOM     20  C   UNL     1      33.349  23.743   5.620  1.00  0.00     0.000 A 
ATOM     21  C   UNL     1      33.621  22.578   4.903  1.00  0.00     0.000 A 
ENDBRANCH  13  16
BRANCH  13  22
ATOM     22  C   UNL     1      29.254  22.587   7.461  1.00  0.00    -0.001 A 
ATOM     23  C   UNL     1      27.995  21.964   7.613  1.00  0.00     0.008 A 
ATOM     24  C   UNL     1      30.255  22.313   8.420  1.00  0.00     0.008 A 
ATOM     25  C   UNL     1      27.730  21.150   8.717  1.00  0.00     0.000 A 
ATOM     26  C   UNL     1      29.984  21.496   9.521  1.00  0.00     0.000 A 
ATOM     27  C   UNL     1      28.721  20.921   9.675  1.00  0.00     0.000 A 
ENDBRANCH  13  22
ENDBRANCH   1  13
TORSDOF 6
ENDMDL
MODEL 6
REMARK VINA RESULT:    -6.579      1.169      1.668
REMARK INTER + INTRA:         -10.121
REMARK INTER:                  -8.791
REMARK INTRA:                  -1.329
REMARK UNBOUND:                -1.427
REMARK SMILES C[N@+]12CC[C@H](CC1)C(OC(=O)C(O)(c1ccccc1)c1ccccc1)C2
REMARK SMILES IDX 10 1 11 2 9 3 8 4 1 5 2 6 7 7 3 8 26 9 6 10 4 11 5 12 12 13
REMARK SMILES IDX 13 14 14 16 15 17 19 18 16 19 18 20 17 21 20 22 21 23 25 24
REMARK SMILES IDX 22 25 24 26 23 27
REMARK H PARENT 13 15
REMARK Flexibility Score: inf
ROOT
ATOM      1  C   UNL     1      26.526  22.772   9.675  1.00  0.00     0.348 C 
ATOM      2  O   UNL     1      27.341  23.471  10.339  1.00  0.00    -0.248 OA
ENDROOT
BRANCH   1   3
ATOM      3  O   UNL     1      25.226  22.563  10.153  1.00  0.00    -0.453 OA
BRANCH   3   4
ATOM      4  C   UNL     1      24.893  22.522  11.542  1.00  0.00     0.235 C 
ATOM      5  C   UNL     1      21.266  21.929  12.578  1.00  0.00     0.334 C 
ATOM      6  N   UNL     1      22.709  21.645  12.421  1.00  0.00    -0.323 N 
ATOM      7  C   UNL     1      23.333  21.459  13.763  1.00  0.00     0.264 C 
ATOM      8  C   UNL     1      22.891  20.403  11.616  1.00  0.00     0.264 C 
ATOM      9  C   UNL     1      23.372  22.783  11.722  1.00  0.00     0.309 C 
ATOM     10  C   UNL     1      24.850  21.165  13.637  1.00  0.00     0.069 C 
ATOM     11  C   UNL     1      24.393  20.065  11.448  1.00  0.00     0.069 C 
ATOM     12  C   UNL     1      25.242  21.143  12.148  1.00  0.00     0.047 C 
ENDBRANCH   3   4
ENDBRANCH   1   3
BRANCH   1  13
ATOM     13  C   UNL     1      26.984  22.063   8.409  1.00  0.00     0.213 C 
BRANCH  13  14
ATOM     14  O   UNL     1      25.919  22.153   7.488  1.00  0.00    -0.370 OA
ATOM     15  H   UNL     1      25.714  21.237   7.162  1.00  0.00     0.213 HD
ENDBRANCH  13  14
BRANCH  13  16
ATOM     16  C   UNL     1      28.218  22.740   7.809  1.00  0.00    -0.001 A 
ATOM     17  C   UNL     1      29.508  22.186   7.977  1.00  0.00     0.008 A 
ATOM     18  C   UNL     1      28.080  23.865   6.968  1.00  0.00     0.008 A 
ATOM     19  C   UNL     1      30.621  22.778   7.377  1.00  0.00     0.000 A 
ATOM     20  C   UNL     1      29.198  24.454   6.371  1.00  0.00     0.000 A 
ATOM     21  C   UNL     1      30.468  23.914   6.579  1.00  0.00     0.000 A 
ENDBRANCH  13  16
BRANCH  13  22
ATOM     22  C   UNL     1      27.352  20.597   8.666  1.00  0.00    -0.001 A 
ATOM     23  C   UNL     1      27.990  20.214   9.867  1.00  0.00     0.008 A 
ATOM     24  C   UNL     1      26.954  19.582   7.767  1.00  0.00     0.008 A 
ATOM     25  C   UNL     1      28.275  18.872  10.126  1.00  0.00     0.000 A 
ATOM     26  C   UNL     1      27.240  18.240   8.034  1.00  0.00     0.000 A 
ATOM     27  C   UNL     1      27.906  17.885   9.208  1.00  0.00     0.000 A 
ENDBRANCH  13  22
ENDBRANCH   1  13
TORSDOF 6
ENDMDL
MODEL 7
REMARK VINA RESULT:    -6.555      3.870      8.055
REMARK INTER + INTRA:         -10.090
REMARK INTER:                  -9.351
REMARK INTRA:                  -0.739
REMARK UNBOUND:                -1.427
REMARK SMILES C[N@+]12CC[C@H](CC1)C(OC(=O)C(O)(c1ccccc1)c1ccccc1)C2
REMARK SMILES IDX 10 1 11 2 9 3 8 4 1 5 2 6 7 7 3 8 26 9 6 10 4 11 5 12 12 13
REMARK SMILES IDX 13 14 14 16 15 17 19 18 16 19 18 20 17 21 20 22 21 23 25 24
REMARK SMILES IDX 22 25 24 26 23 27
REMARK H PARENT 13 15
REMARK Flexibility Score: inf
ROOT
ATOM      1  C   UNL     1      29.989  22.763   7.441  1.00  0.00     0.348 C 
ATOM      2  O   UNL     1      30.519  23.673   8.136  1.00  0.00    -0.248 OA
ENDROOT
BRANCH   1   3
ATOM      3  O   UNL     1      30.766  22.019   6.543  1.00  0.00    -0.453 OA
BRANCH   3   4
ATOM      4  C   UNL     1      31.139  22.489   5.247  1.00  0.00     0.235 C 
ATOM      5  C   UNL     1      34.489  24.264   4.794  1.00  0.00     0.334 C 
ATOM      6  N   UNL     1      33.473  23.201   4.647  1.00  0.00    -0.323 N 
ATOM      7  C   UNL     1      33.149  23.013   3.202  1.00  0.00     0.264 C 
ATOM      8  C   UNL     1      33.999  21.922   5.204  1.00  0.00     0.264 C 
ATOM      9  C   UNL     1      32.234  23.583   5.383  1.00  0.00     0.309 C 
ATOM     10  C   UNL     1      32.079  21.907   3.009  1.00  0.00     0.069 C 
ATOM     11  C   UNL     1      32.965  20.779   5.048  1.00  0.00     0.069 C 
ATOM     12  C   UNL     1      31.689  21.332   4.382  1.00  0.00     0.047 C 
ENDBRANCH   3   4
ENDBRANCH   1   3
BRANCH   1  13
ATOM     13  C   UNL     1      28.484  22.542   7.493  1.00  0.00     0.213 C 
BRANCH  13  14
ATOM     14  O   UNL     1      28.060  22.326   6.165  1.00  0.00    -0.370 OA
ATOM     15  H   UNL     1      27.666  21.416   6.111  1.00  0.00     0.213 HD
ENDBRANCH  13  14
BRANCH  13  16
ATOM     16  C   UNL     1      28.132  21.312   8.333  1.00  0.00    -0.001 A 
ATOM     17  C   UNL     1      26.979  20.544   8.054  1.00  0.00     0.008 A 
ATOM     18  C   UNL     1      29.020  20.846   9.326  1.00  0.00     0.008 A 
ATOM     19  C   UNL     1      26.697  19.389   8.788  1.00  0.00     0.000 A 
ATOM     20  C   UNL     1      28.732  19.691  10.059  1.00  0.00     0.000 A 
ATOM     21  C   UNL     1      27.569  18.966   9.793  1.00  0.00     0.000 A 
ENDBRANCH  13  16
BRANCH  13  22
ATOM     22  C   UNL     1      27.744  23.736   8.107  1.00  0.00    -0.001 A 
ATOM     23  C   UNL     1      27.322  24.815   7.299  1.00  0.00     0.008 A 
ATOM     24  C   UNL     1      27.359  23.729   9.467  1.00  0.00     0.008 A 
ATOM     25  C   UNL     1      26.598  25.876   7.848  1.00  0.00     0.000 A 
ATOM     26  C   UNL     1      26.632  24.793  10.008  1.00  0.00     0.000 A 
ATOM     27  C   UNL     1      26.259  25.869   9.202  1.00  0.00     0.000 A 
ENDBRANCH  13  22
ENDBRANCH   1  13
TORSDOF 6
ENDMDL
MODEL 8
REMARK VINA RESULT:    -6.545      3.056      4.717
REMARK INTER + INTRA:         -10.076
REMARK INTER:                  -8.830
REMARK INTRA:                  -1.246
REMARK UNBOUND:                -1.427
REMARK SMILES C[N@+]12CC[C@H](CC1)C(OC(=O)C(O)(c1ccccc1)c1ccccc1)C2
REMARK SMILES IDX 10 1 11 2 9 3 8 4 1 5 2 6 7 7 3 8 26 9 6 10 4 11 5 12 12 13
REMARK SMILES IDX 13 14 14 16 15 17 19 18 16 19 18 20 17 21 20 22 21 23 25 24
REMARK SMILES IDX 22 25 24 26 23 27
REMARK H PARENT 13 15
REMARK Flexibility Score: inf
ROOT
ATOM      1  C   UNL     1      27.066  22.955   9.711  1.00  0.00     0.348 C 
ATOM      2  O   UNL     1      26.468  22.501  10.726  1.00  0.00    -0.248 OA
ENDROOT
BRANCH   1   3
ATOM      3  O   UNL     1      27.531  24.277   9.700  1.00  0.00    -0.453 OA
BRANCH   3   4
ATOM      4  C   UNL     1      26.673  25.413   9.581  1.00  0.00     0.235 C 
ATOM      5  C   UNL     1      28.030  28.877  10.444  1.00  0.00     0.334 C 
ATOM      6  N   UNL     1      27.502  27.785   9.598  1.00  0.00    -0.323 N 
ATOM      7  C   UNL     1      26.233  28.224   8.947  1.00  0.00     0.264 C 
ATOM      8  C   UNL     1      28.501  27.436   8.546  1.00  0.00     0.264 C 
ATOM      9  C   UNL     1      27.235  26.582  10.437  1.00  0.00     0.309 C 
ATOM     10  C   UNL     1      25.646  27.099   8.054  1.00  0.00     0.069 C 
ATOM     11  C   UNL     1      27.971  26.307   7.628  1.00  0.00     0.069 C 
ATOM     12  C   UNL     1      26.573  25.872   8.108  1.00  0.00     0.047 C 
ENDBRANCH   3   4
ENDBRANCH   1   3
BRANCH   1  13
ATOM     13  C   UNL     1      27.189  22.105   8.455  1.00  0.00     0.213 C 
BRANCH  13  14
ATOM     14  O   UNL     1      25.986  22.270   7.736  1.00  0.00    -0.370 OA
ATOM     15  H   UNL     1      25.467  21.427   7.805  1.00  0.00     0.213 HD
ENDBRANCH  13  14
BRANCH  13  16
ATOM     16  C   UNL     1      28.357  22.569   7.582  1.00  0.00    -0.001 A 
ATOM     17  C   UNL     1      29.693  22.449   8.028  1.00  0.00     0.008 A 
ATOM     18  C   UNL     1      28.131  23.010   6.260  1.00  0.00     0.008 A 
ATOM     19  C   UNL     1      30.756  22.819   7.201  1.00  0.00     0.000 A 
ATOM     20  C   UNL     1      29.199  23.381   5.438  1.00  0.00     0.000 A 
ATOM     21  C   UNL     1      30.510  23.290   5.909  1.00  0.00     0.000 A 
ENDBRANCH  13  16
BRANCH  13  22
ATOM     22  C   UNL     1      27.425  20.625   8.777  1.00  0.00    -0.001 A 
ATOM     23  C   UNL     1      26.848  19.613   7.978  1.00  0.00     0.008 A 
ATOM     24  C   UNL     1      28.319  20.240   9.801  1.00  0.00     0.008 A 
ATOM     25  C   UNL     1      27.109  18.265   8.236  1.00  0.00     0.000 A 
ATOM     26  C   UNL     1      28.577  18.889  10.052  1.00  0.00     0.000 A 
ATOM     27  C   UNL     1      27.967  17.902   9.276  1.00  0.00     0.000 A 
ENDBRANCH  13  22
ENDBRANCH   1  13
TORSDOF 6
ENDMDL
MODEL 9
REMARK VINA RESULT:    -6.523      3.017      5.261
REMARK INTER + INTRA:         -10.046
REMARK INTER:                  -8.997
REMARK INTRA:                  -1.049
REMARK UNBOUND:                -1.427
REMARK SMILES C[N@+]12CC[C@H](CC1)C(OC(=O)C(O)(c1ccccc1)c1ccccc1)C2
REMARK SMILES IDX 10 1 11 2 9 3 8 4 1 5 2 6 7 7 3 8 26 9 6 10 4 11 5 12 12 13
REMARK SMILES IDX 13 14 14 16 15 17 19 18 16 19 18 20 17 21 20 22 21 23 25 24
REMARK SMILES IDX 22 25 24 26 23 27
REMARK H PARENT 13 15
REMARK Flexibility Score: inf
ROOT
ATOM      1  C   UNL     1      29.634  22.403   7.227  1.00  0.00     0.348 C 
ATOM      2  O   UNL     1      30.514  21.716   7.817  1.00  0.00    -0.248 OA
ENDROOT
BRANCH   1   3
ATOM      3  O   UNL     1      28.276  22.152   7.456  1.00  0.00    -0.453 OA
BRANCH   3   4
ATOM      4  C   UNL     1      27.637  22.358   8.717  1.00  0.00     0.235 C 
ATOM      5  C   UNL     1      28.757  25.264  10.927  1.00  0.00     0.334 C 
ATOM      6  N   UNL     1      27.861  24.472  10.058  1.00  0.00    -0.323 N 
ATOM      7  C   UNL     1      26.620  24.118  10.807  1.00  0.00     0.264 C 
ATOM      8  C   UNL     1      27.498  25.268   8.850  1.00  0.00     0.264 C 
ATOM      9  C   UNL     1      28.552  23.221   9.630  1.00  0.00     0.309 C 
ATOM     10  C   UNL     1      25.657  23.279   9.927  1.00  0.00     0.069 C 
ATOM     11  C   UNL     1      26.543  24.473   7.926  1.00  0.00     0.069 C 
ATOM     12  C   UNL     1      26.283  23.081   8.535  1.00  0.00     0.047 C 
ENDBRANCH   3   4
ENDBRANCH   1   3
BRANCH   1  13
ATOM     13  C   UNL     1      30.044  23.431   6.182  1.00  0.00     0.213 C 
BRANCH  13  14
ATOM     14  O   UNL     1      28.901  23.684   5.395  1.00  0.00    -0.370 OA
ATOM     15  H   UNL     1      28.114  23.729   5.998  1.00  0.00     0.213 HD
ENDBRANCH  13  14
BRANCH  13  16
ATOM     16  C   UNL     1      30.495  24.738   6.837  1.00  0.00    -0.001 A 
ATOM     17  C   UNL     1      30.094  25.990   6.318  1.00  0.00     0.008 A 
ATOM     18  C   UNL     1      31.219  24.719   8.049  1.00  0.00     0.008 A 
ATOM     19  C   UNL     1      30.461  27.177   6.956  1.00  0.00     0.000 A 
ATOM     20  C   UNL     1      31.586  25.910   8.682  1.00  0.00     0.000 A 
ATOM     21  C   UNL     1      31.211  27.138   8.134  1.00  0.00     0.000 A 
ENDBRANCH  13  16
BRANCH  13  22
ATOM     22  C   UNL     1      31.203  22.939   5.308  1.00  0.00    -0.001 A 
ATOM     23  C   UNL     1      30.960  22.117   4.185  1.00  0.00     0.008 A 
ATOM     24  C   UNL     1      32.522  23.394   5.530  1.00  0.00     0.008 A 
ATOM     25  C   UNL     1      32.010  21.716   3.355  1.00  0.00     0.000 A 
ATOM     26  C   UNL     1      33.567  22.990   4.694  1.00  0.00     0.000 A 
ATOM     27  C   UNL     1      33.313  22.146   3.613  1.00  0.00     0.000 A 
ENDBRANCH  13  22
ENDBRANCH   1  13
TORSDOF 6
ENDMDL
MODEL 10
REMARK VINA RESULT:    -6.514      2.832      5.037
REMARK INTER + INTRA:         -10.035
REMARK INTER:                  -9.354
REMARK INTRA:                  -0.681
REMARK UNBOUND:                -1.427
REMARK SMILES C[N@+]12CC[C@H](CC1)C(OC(=O)C(O)(c1ccccc1)c1ccccc1)C2
REMARK SMILES IDX 10 1 11 2 9 3 8 4 1 5 2 6 7 7 3 8 26 9 6 10 4 11 5 12 12 13
REMARK SMILES IDX 13 14 14 16 15 17 19 18 16 19 18 20 17 21 20 22 21 23 25 24
REMARK SMILES IDX 22 25 24 26 23 27
REMARK H PARENT 13 15
REMARK Flexibility Score: inf
ROOT
ATOM      1  C   UNL     1      29.963  21.974   9.278  1.00  0.00     0.348 C 
ATOM      2  O   UNL     1      30.589  21.507  10.270  1.00  0.00    -0.248 OA
ENDROOT
BRANCH   1   3
ATOM      3  O   UNL     1      29.125  21.147   8.521  1.00  0.00    -0.453 OA
BRANCH   3   4
ATOM      4  C   UNL     1      27.790  20.815   8.904  1.00  0.00     0.235 C 
ATOM      5  C   UNL     1      26.029  17.887   7.197  1.00  0.00     0.334 C 
ATOM      6  N   UNL     1      26.667  18.652   8.290  1.00  0.00    -0.323 N 
ATOM      7  C   UNL     1      25.687  18.857   9.397  1.00  0.00     0.264 C 
ATOM      8  C   UNL     1      27.846  17.901   8.809  1.00  0.00     0.264 C 
ATOM      9  C   UNL     1      27.118  19.978   7.780  1.00  0.00     0.309 C 
ATOM     10  C   UNL     1      26.320  19.663  10.560  1.00  0.00     0.069 C 
ATOM     11  C   UNL     1      28.527  18.666   9.970  1.00  0.00     0.069 C 
ATOM     12  C   UNL     1      27.782  19.994  10.213  1.00  0.00     0.047 C 
ENDBRANCH   3   4
ENDBRANCH   1   3
BRANCH   1  13
ATOM     13  C   UNL     1      30.202  23.410   8.834  1.00  0.00     0.213 C 
BRANCH  13  14
ATOM     14  O   UNL     1      30.863  24.059   9.898  1.00  0.00    -0.370 OA
ATOM     15  H   UNL     1      30.770  25.039   9.769  1.00  0.00     0.213 HD
ENDBRANCH  13  14
BRANCH  13  16
ATOM     16  C   UNL     1      31.091  23.467   7.590  1.00  0.00    -0.001 A 
ATOM     17  C   UNL     1      31.978  24.546   7.375  1.00  0.00     0.008 A 
ATOM     18  C   UNL     1      31.136  22.378   6.693  1.00  0.00     0.008 A 
ATOM     19  C   UNL     1      32.828  24.560   6.267  1.00  0.00     0.000 A 
ATOM     20  C   UNL     1      31.988  22.398   5.584  1.00  0.00     0.000 A 
ATOM     21  C   UNL     1      32.830  23.490   5.370  1.00  0.00     0.000 A 
ENDBRANCH  13  16
BRANCH  13  22
ATOM     22  C   UNL     1      28.896  24.136   8.489  1.00  0.00    -0.001 A 
ATOM     23  C   UNL     1      28.005  24.539   9.509  1.00  0.00     0.008 A 
ATOM     24  C   UNL     1      28.612  24.525   7.161  1.00  0.00     0.008 A 
ATOM     25  C   UNL     1      26.843  25.250   9.200  1.00  0.00     0.000 A 
ATOM     26  C   UNL     1      27.448  25.238   6.860  1.00  0.00     0.000 A 
ATOM     27  C   UNL     1      26.561  25.594   7.876  1.00  0.00     0.000 A 
ENDBRANCH  13  22
ENDBRANCH   1  13
TORSDOF 6
ENDMDL
MODEL 11
REMARK VINA RESULT:    -6.478      3.621      5.403
REMARK INTER + INTRA:          -9.988
REMARK INTER:                  -8.417
REMARK INTRA:                  -1.571
REMARK UNBOUND:                -1.427
REMARK SMILES C[N@+]12CC[C@H](CC1)C(OC(=O)C(O)(c1ccccc1)c1ccccc1)C2
REMARK SMILES IDX 10 1 11 2 9 3 8 4 1 5 2 6 7 7 3 8 26 9 6 10 4 11 5 12 12 13
REMARK SMILES IDX 13 14 14 16 15 17 19 18 16 19 18 20 17 21 20 22 21 23 25 24
REMARK SMILES IDX 22 25 24 26 23 27
REMARK H PARENT 13 15
REMARK Flexibility Score: inf
ROOT
ATOM      1  C   UNL     1      28.951  24.873   6.397  1.00  0.00     0.348 C 
ATOM      2  O   UNL     1      29.111  25.688   5.446  1.00  0.00    -0.248 OA
ENDROOT
BRANCH   1   3
ATOM      3  O   UNL     1      28.570  25.334   7.663  1.00  0.00    -0.453 OA
BRANCH   3   4
ATOM      4  C   UNL     1      29.220  26.412   8.338  1.00  0.00     0.235 C 
ATOM      5  C   UNL     1      27.360  28.282  11.100  1.00  0.00     0.334 C 
ATOM      6  N   UNL     1      28.385  27.409  10.488  1.00  0.00    -0.323 N 
ATOM      7  C   UNL     1      29.742  27.976  10.742  1.00  0.00     0.264 C 
ATOM      8  C   UNL     1      28.302  26.043  11.081  1.00  0.00     0.264 C 
ATOM      9  C   UNL     1      28.157  27.319   9.017  1.00  0.00     0.309 C 
ATOM     10  C   UNL     1      30.844  27.089  10.108  1.00  0.00     0.069 C 
ATOM     11  C   UNL     1      29.377  25.108  10.476  1.00  0.00     0.069 C 
ATOM     12  C   UNL     1      30.189  25.879   9.417  1.00  0.00     0.047 C 
ENDBRANCH   3   4
ENDBRANCH   1   3
BRANCH   1  13
ATOM     13  C   UNL     1      29.276  23.399   6.200  1.00  0.00     0.213 C 
BRANCH  13  14
ATOM     14  O   UNL     1      28.485  22.951   5.122  1.00  0.00    -0.370 OA
ATOM     15  H   UNL     1      27.660  23.503   5.093  1.00  0.00     0.213 HD
ENDBRANCH  13  14
BRANCH  13  16
ATOM     16  C   UNL     1      30.752  23.198   5.851  1.00  0.00    -0.001 A 
ATOM     17  C   UNL     1      31.154  22.204   4.930  1.00  0.00     0.008 A 
ATOM     18  C   UNL     1      31.732  24.085   6.346  1.00  0.00     0.008 A 
ATOM     19  C   UNL     1      32.498  22.067   4.572  1.00  0.00     0.000 A 
ATOM     20  C   UNL     1      33.075  23.942   5.985  1.00  0.00     0.000 A 
ATOM     21  C   UNL     1      33.458  22.931   5.103  1.00  0.00     0.000 A 
ENDBRANCH  13  16
BRANCH  13  22
ATOM     22  C   UNL     1      28.992  22.569   7.458  1.00  0.00    -0.001 A 
ATOM     23  C   UNL     1      27.713  22.010   7.678  1.00  0.00     0.008 A 
ATOM     24  C   UNL     1      30.029  22.243   8.360  1.00  0.00     0.008 A 
ATOM     25  C   UNL     1      27.469  21.207   8.795  1.00  0.00     0.000 A 
ATOM     26  C   UNL     1      29.778  21.437   9.474  1.00  0.00     0.000 A 
ATOM     27  C   UNL     1      28.499  20.925   9.696  1.00  0.00     0.000 A 
ENDBRANCH  13  22
ENDBRANCH   1  13
TORSDOF 6
ENDMDL
MODEL 12
REMARK VINA RESULT:    -6.454      3.331      4.885
REMARK INTER + INTRA:          -9.956
REMARK INTER:                  -8.883
REMARK INTRA:                  -1.073
REMARK UNBOUND:                -1.427
REMARK SMILES C[N@+]12CC[C@H](CC1)C(OC(=O)C(O)(c1ccccc1)c1ccccc1)C2
REMARK SMILES IDX 10 1 11 2 9 3 8 4 1 5 2 6 7 7 3 8 26 9 6 10 4 11 5 12 12 13
REMARK SMILES IDX 13 14 14 16 15 17 19 18 16 19 18 20 17 21 20 22 21 23 25 24
REMARK SMILES IDX 22 25 24 26 23 27
REMARK H PARENT 13 15
REMARK Flexibility Score: inf
ROOT
ATOM      1  C   UNL     1      28.809  24.755   6.241  1.00  0.00     0.348 C 
ATOM      2  O   UNL     1      29.575  25.637   5.763  1.00  0.00    -0.248 OA
ENDROOT
BRANCH   1   3
ATOM      3  O   UNL     1      27.659  25.128   6.948  1.00  0.00    -0.453 OA
BRANCH   3   4
ATOM      4  C   UNL     1      27.642  26.158   7.937  1.00  0.00     0.235 C 
ATOM      5  C   UNL     1      24.291  27.399   9.284  1.00  0.00     0.334 C 
ATOM      6  N   UNL     1      25.613  26.737   9.302  1.00  0.00    -0.323 N 
ATOM      7  C   UNL     1      26.491  27.398  10.311  1.00  0.00     0.264 C 
ATOM      8  C   UNL     1      25.450  25.298   9.658  1.00  0.00     0.264 C 
ATOM      9  C   UNL     1      26.246  26.840   7.956  1.00  0.00     0.309 C 
ATOM     10  C   UNL     1      27.891  26.732  10.354  1.00  0.00     0.069 C 
ATOM     11  C   UNL     1      26.820  24.578   9.705  1.00  0.00     0.069 C 
ATOM     12  C   UNL     1      27.935  25.576   9.339  1.00  0.00     0.047 C 
ENDBRANCH   3   4
ENDBRANCH   1   3
BRANCH   1  13
ATOM     13  C   UNL     1      29.188  23.284   6.145  1.00  0.00     0.213 C 
BRANCH  13  14
ATOM     14  O   UNL     1      28.220  22.669   5.324  1.00  0.00    -0.370 OA
ATOM     15  H   UNL     1      28.667  21.952   4.803  1.00  0.00     0.213 HD
ENDBRANCH  13  14
BRANCH  13  16
ATOM     16  C   UNL     1      30.566  23.106   5.505  1.00  0.00    -0.001 A 
ATOM     17  C   UNL     1      31.724  23.656   6.102  1.00  0.00     0.008 A 
ATOM     18  C   UNL     1      30.728  22.281   4.372  1.00  0.00     0.008 A 
ATOM     19  C   UNL     1      32.986  23.439   5.543  1.00  0.00     0.000 A 
ATOM     20  C   UNL     1      31.993  22.068   3.815  1.00  0.00     0.000 A 
ATOM     21  C   UNL     1      33.120  22.650   4.398  1.00  0.00     0.000 A 
ENDBRANCH  13  16
BRANCH  13  22
ATOM     22  C   UNL     1      29.237  22.607   7.520  1.00  0.00    -0.001 A 
ATOM     23  C   UNL     1      30.168  23.026   8.496  1.00  0.00     0.008 A 
ATOM     24  C   UNL     1      28.278  21.636   7.885  1.00  0.00     0.008 A 
ATOM     25  C   UNL     1      30.176  22.449   9.769  1.00  0.00     0.000 A 
ATOM     26  C   UNL     1      28.290  21.065   9.160  1.00  0.00     0.000 A 
ATOM     27  C   UNL     1      29.242  21.464  10.099  1.00  0.00     0.000 A 
ENDBRANCH  13  22
ENDBRANCH   1  13
TORSDOF 6
ENDMDL
MODEL 13
REMARK VINA RESULT:    -6.416      2.773      5.549
REMARK INTER + INTRA:          -9.905
REMARK INTER:                  -8.622
REMARK INTRA:                  -1.283
REMARK UNBOUND:                -1.427
REMARK SMILES C[N@+]12CC[C@H](CC1)C(OC(=O)C(O)(c1ccccc1)c1ccccc1)C2
REMARK SMILES IDX 10 1 11 2 9 3 8 4 1 5 2 6 7 7 3 8 26 9 6 10 4 11 5 12 12 13
REMARK SMILES IDX 13 14 14 16 15 17 19 18 16 19 18 20 17 21 20 22 21 23 25 24
REMARK SMILES IDX 22 25 24 26 23 27
REMARK H PARENT 13 15
REMARK Flexibility Score: inf
ROOT
ATOM      1  C   UNL     1      26.440  22.749   9.243  1.00  0.00     0.348 C 
ATOM      2  O   UNL     1      25.324  22.281   9.603  1.00  0.00    -0.248 OA
ENDROOT
BRANCH   1   3
ATOM      3  O   UNL     1      26.496  23.878   8.417  1.00  0.00    -0.453 OA
BRANCH   3   4
ATOM      4  C   UNL     1      25.994  25.160   8.798  1.00  0.00     0.235 C 
ATOM      5  C   UNL     1      27.806  27.145  11.511  1.00  0.00     0.334 C 
ATOM      6  N   UNL     1      27.306  26.816  10.159  1.00  0.00    -0.323 N 
ATOM      7  C   UNL     1      26.413  27.908   9.675  1.00  0.00     0.264 C 
ATOM      8  C   UNL     1      28.456  26.666   9.221  1.00  0.00     0.264 C 
ATOM      9  C   UNL     1      26.540  25.537  10.203  1.00  0.00     0.309 C 
ATOM     10  C   UNL     1      25.864  27.594   8.259  1.00  0.00     0.069 C 
ATOM     11  C   UNL     1      27.966  26.339   7.789  1.00  0.00     0.069 C 
ATOM     12  C   UNL     1      26.428  26.243   7.784  1.00  0.00     0.047 C 
ENDBRANCH   3   4
ENDBRANCH   1   3
BRANCH   1  13
ATOM     13  C   UNL     1      27.726  22.023   9.613  1.00  0.00     0.213 C 
BRANCH  13  14
ATOM     14  O   UNL     1      27.845  22.102  11.016  1.00  0.00    -0.370 OA
ATOM     15  H   UNL     1      28.651  21.590  11.287  1.00  0.00     0.213 HD
ENDBRANCH  13  14
BRANCH  13  16
ATOM     16  C   UNL     1      27.671  20.551   9.200  1.00  0.00    -0.001 A 
ATOM     17  C   UNL     1      28.324  19.556   9.963  1.00  0.00     0.008 A 
ATOM     18  C   UNL     1      26.861  20.140   8.120  1.00  0.00     0.008 A 
ATOM     19  C   UNL     1      28.220  18.207   9.613  1.00  0.00     0.000 A 
ATOM     20  C   UNL     1      26.762  18.789   7.773  1.00  0.00     0.000 A 
ATOM     21  C   UNL     1      27.444  17.825   8.516  1.00  0.00     0.000 A 
ENDBRANCH  13  16
BRANCH  13  22
ATOM     22  C   UNL     1      28.955  22.638   8.932  1.00  0.00    -0.001 A 
ATOM     23  C   UNL     1      29.135  22.529   7.536  1.00  0.00     0.008 A 
ATOM     24  C   UNL     1      29.868  23.429   9.664  1.00  0.00     0.008 A 
ATOM     25  C   UNL     1      30.225  23.137   6.907  1.00  0.00     0.000 A 
ATOM     26  C   UNL     1      30.955  24.037   9.029  1.00  0.00     0.000 A 
ATOM     27  C   UNL     1      31.138  23.885   7.654  1.00  0.00     0.000 A 
ENDBRANCH  13  22
ENDBRANCH   1  13
TORSDOF 6
ENDMDL
MODEL 14
REMARK VINA RESULT:    -6.369      2.457      4.975
REMARK INTER + INTRA:          -9.844
REMARK INTER:                  -8.227
REMARK INTRA:                  -1.616
REMARK UNBOUND:                -1.427
REMARK SMILES C[N@+]12CC[C@H](CC1)C(OC(=O)C(O)(c1ccccc1)c1ccccc1)C2
REMARK SMILES IDX 10 1 11 2 9 3 8 4 1 5 2 6 7 7 3 8 26 9 6 10 4 11 5 12 12 13
REMARK SMILES IDX 13 14 14 16 15 17 19 18 16 19 18 20 17 21 20 22 21 23 25 24
REMARK SMILES IDX 22 25 24 26 23 27
REMARK H PARENT 13 15
REMARK Flexibility Score: inf
ROOT
ATOM      1  C   UNL     1      28.618  23.070   6.365  1.00  0.00     0.348 C 
ATOM      2  O   UNL     1      27.876  22.926   5.353  1.00  0.00    -0.248 OA
ENDROOT
BRANCH   1   3
ATOM      3  O   UNL     1      28.609  22.114   7.387  1.00  0.00    -0.453 OA
BRANCH   3   4
ATOM      4  C   UNL     1      27.468  21.841   8.202  1.00  0.00     0.235 C 
ATOM      5  C   UNL     1      26.692  18.234   9.188  1.00  0.00     0.334 C 
ATOM      6  N   UNL     1      27.085  19.649   9.368  1.00  0.00    -0.323 N 
ATOM      7  C   UNL     1      26.132  20.319  10.299  1.00  0.00     0.264 C 
ATOM      8  C   UNL     1      28.462  19.719   9.936  1.00  0.00     0.264 C 
ATOM      9  C   UNL     1      27.063  20.349   8.052  1.00  0.00     0.309 C 
ATOM     10  C   UNL     1      26.511  21.809  10.507  1.00  0.00     0.069 C 
ATOM     11  C   UNL     1      28.899  21.188  10.157  1.00  0.00     0.069 C 
ATOM     12  C   UNL     1      27.774  22.131   9.689  1.00  0.00     0.047 C 
ENDBRANCH   3   4
ENDBRANCH   1   3
BRANCH   1  13
ATOM     13  C   UNL     1      29.444  24.338   6.529  1.00  0.00     0.213 C 
BRANCH  13  14
ATOM     14  O   UNL     1      28.885  25.300   5.660  1.00  0.00    -0.370 OA
ATOM     15  H   UNL     1      28.741  24.871   4.777  1.00  0.00     0.213 HD
ENDBRANCH  13  14
BRANCH  13  16
ATOM     16  C   UNL     1      29.374  24.865   7.964  1.00  0.00    -0.001 A 
ATOM     17  C   UNL     1      28.275  25.638   8.404  1.00  0.00     0.008 A 
ATOM     18  C   UNL     1      30.344  24.482   8.914  1.00  0.00     0.008 A 
ATOM     19  C   UNL     1      28.191  26.065   9.731  1.00  0.00     0.000 A 
ATOM     20  C   UNL     1      30.255  24.913  10.241  1.00  0.00     0.000 A 
ATOM     21  C   UNL     1      29.182  25.707  10.648  1.00  0.00     0.000 A 
ENDBRANCH  13  16
BRANCH  13  22
ATOM     22  C   UNL     1      30.924  24.113   6.202  1.00  0.00    -0.001 A 
ATOM     23  C   UNL     1      31.395  22.831   5.839  1.00  0.00     0.008 A 
ATOM     24  C   UNL     1      31.826  25.198   6.136  1.00  0.00     0.008 A 
ATOM     25  C   UNL     1      32.732  22.635   5.486  1.00  0.00     0.000 A 
ATOM     26  C   UNL     1      33.162  24.996   5.779  1.00  0.00     0.000 A 
ATOM     27  C   UNL     1      33.617  23.716   5.462  1.00  0.00     0.000 A 
ENDBRANCH  13  22
ENDBRANCH   1  13
TORSDOF 6
ENDMDL
MODEL 15
REMARK VINA RESULT:    -6.325      3.180      5.622
REMARK INTER + INTRA:          -9.785
REMARK INTER:                  -8.719
REMARK INTRA:                  -1.066
REMARK UNBOUND:                -1.427
REMARK SMILES C[N@+]12CC[C@H](CC1)C(OC(=O)C(O)(c1ccccc1)c1ccccc1)C2
REMARK SMILES IDX 10 1 11 2 9 3 8 4 1 5 2 6 7 7 3 8 26 9 6 10 4 11 5 12 12 13
REMARK SMILES IDX 13 14 14 16 15 17 19 18 16 19 18 20 17 21 20 22 21 23 25 24
REMARK SMILES IDX 22 25 24 26 23 27
REMARK H PARENT 13 15
REMARK Flexibility Score: inf
ROOT
ATOM      1  C   UNL     1      29.050  25.036   7.245  1.00  0.00     0.348 C 
ATOM      2  O   UNL     1      28.876  25.069   5.995  1.00  0.00    -0.248 OA
ENDROOT
BRANCH   1   3
ATOM      3  O   UNL     1      28.339  25.909   8.078  1.00  0.00    -0.453 OA
BRANCH   3   4
ATOM      4  C   UNL     1      26.937  26.151   7.953  1.00  0.00     0.235 C 
ATOM      5  C   UNL     1      24.569  24.864  10.659  1.00  0.00     0.334 C 
ATOM      6  N   UNL     1      25.303  25.852   9.839  1.00  0.00    -0.323 N 
ATOM      7  C   UNL     1      24.332  26.732   9.126  1.00  0.00     0.264 C 
ATOM      8  C   UNL     1      26.173  26.687  10.716  1.00  0.00     0.264 C 
ATOM      9  C   UNL     1      26.152  25.144   8.839  1.00  0.00     0.309 C 
ATOM     10  C   UNL     1      25.067  27.778   8.248  1.00  0.00     0.069 C 
ATOM     11  C   UNL     1      26.942  27.747   9.890  1.00  0.00     0.069 C 
ATOM     12  C   UNL     1      26.587  27.590   8.398  1.00  0.00     0.047 C 
ENDBRANCH   3   4
ENDBRANCH   1   3
BRANCH   1  13
ATOM     13  C   UNL     1      30.111  24.124   7.844  1.00  0.00     0.213 C 
BRANCH  13  14
ATOM     14  O   UNL     1      30.661  24.813   8.945  1.00  0.00    -0.370 OA
ATOM     15  H   UNL     1      30.857  24.150   9.658  1.00  0.00     0.213 HD
ENDBRANCH  13  14
BRANCH  13  16
ATOM     16  C   UNL     1      29.502  22.809   8.334  1.00  0.00    -0.001 A 
ATOM     17  C   UNL     1      30.064  22.107   9.425  1.00  0.00     0.008 A 
ATOM     18  C   UNL     1      28.290  22.335   7.788  1.00  0.00     0.008 A 
ATOM     19  C   UNL     1      29.466  20.938   9.904  1.00  0.00     0.000 A 
ATOM     20  C   UNL     1      27.698  21.163   8.270  1.00  0.00     0.000 A 
ATOM     21  C   UNL     1      28.288  20.464   9.324  1.00  0.00     0.000 A 
ENDBRANCH  13  16
BRANCH  13  22
ATOM     22  C   UNL     1      31.206  23.766   6.832  1.00  0.00    -0.001 A 
ATOM     23  C   UNL     1      32.335  24.599   6.666  1.00  0.00     0.008 A 
ATOM     24  C   UNL     1      31.172  22.538   6.133  1.00  0.00     0.008 A 
ATOM     25  C   UNL     1      33.360  24.244   5.785  1.00  0.00     0.000 A 
ATOM     26  C   UNL     1      32.202  22.189   5.255  1.00  0.00     0.000 A 
ATOM     27  C   UNL     1      33.291  23.043   5.075  1.00  0.00     0.000 A 
ENDBRANCH  13  22
ENDBRANCH   1  13
TORSDOF 6
ENDMDL
