MODEL 1
REMARK VINA RESULT:    -6.768      0.000      0.000
REMARK INTER + INTRA:         -10.005
REMARK INTER:                  -8.944
REMARK INTRA:                  -1.060
REMARK UNBOUND:                -1.060
REMARK SMILES C[N+]1(C)CCC(OC(=O)C(O)(c2ccccc2)C2CCCC2)C1
REMARK SMILES IDX 8 1 9 2 7 3 6 4 1 5 2 6 3 7 4 8 23 9 5 10 10 11 11 12 18 14
REMARK SMILES IDX 19 15 22 16 20 17 21 18 12 19 13 20 17 21 14 22 16 23 15 24
REMARK H PARENT 11 13
REMARK Flexibility Score: inf
ROOT
ATOM      1  C   UNL     1      30.157  22.404   9.206  1.00  0.00     0.343 C 
ATOM      2  O   UNL     1      30.695  22.505  10.344  1.00  0.00    -0.248 OA
ENDROOT
BRANCH   1   3
ATOM      3  O   UNL     1      29.594  21.186   8.807  1.00  0.00    -0.454 OA
BRANCH   3   4
ATOM      4  C   UNL     1      28.504  20.563   9.485  1.00  0.00     0.237 C 
ATOM      5  C   UNL     1      25.744  19.150   9.930  1.00  0.00     0.334 C 
ATOM      6  N   UNL     1      26.808  18.938   8.917  1.00  0.00    -0.325 N 
ATOM      7  C   UNL     1      26.241  18.211   7.759  1.00  0.00     0.334 C 
ATOM      8  C   UNL     1      27.943  18.196   9.510  1.00  0.00     0.267 C 
ATOM      9  C   UNL     1      27.386  20.232   8.501  1.00  0.00     0.309 C 
ATOM     10  C   UNL     1      28.906  19.223  10.096  1.00  0.00     0.113 C 
ENDBRANCH   3   4
ENDBRANCH   1   3
BRANCH   1  11
ATOM     11  C   UNL     1      30.168  23.607   8.269  1.00  0.00     0.190 C 
BRANCH  11  12
ATOM     12  O   UNL     1      30.665  24.714   8.994  1.00  0.00    -0.374 OA
ATOM     13  H   UNL     1      30.773  24.448   9.944  1.00  0.00     0.212 HD
ENDBRANCH  11  12
BRANCH  11  14
ATOM     14  C   UNL     1      28.751  23.983   7.706  1.00  0.00     0.037 C 
ATOM     15  C   UNL     1      28.694  25.311   6.944  1.00  0.00     0.007 C 
ATOM     16  C   UNL     1      27.613  24.038   8.743  1.00  0.00     0.007 C 
ATOM     17  C   UNL     1      27.253  25.774   7.062  1.00  0.00     0.000 C 
ATOM     18  C   UNL     1      26.771  25.267   8.411  1.00  0.00     0.000 C 
ENDBRANCH  11  14
BRANCH  11  19
ATOM     19  C   UNL     1      31.119  23.366   7.090  1.00  0.00    -0.005 A 
ATOM     20  C   UNL     1      32.280  24.157   6.958  1.00  0.00     0.007 A 
ATOM     21  C   UNL     1      30.828  22.434   6.068  1.00  0.00     0.007 A 
ATOM     22  C   UNL     1      33.140  23.990   5.869  1.00  0.00     0.000 A 
ATOM     23  C   UNL     1      31.692  22.272   4.982  1.00  0.00     0.000 A 
ATOM     24  C   UNL     1      32.849  23.046   4.885  1.00  0.00     0.000 A 
ENDBRANCH  11  19
ENDBRANCH   1  11
TORSDOF 6
ENDMDL
MODEL 2
REMARK VINA RESULT:    -6.351      2.344      6.060
REMARK INTER + INTRA:          -9.453
REMARK INTER:                  -8.436
REMARK INTRA:                  -1.018
REMARK UNBOUND:                -1.060
REMARK SMILES C[N+]1(C)CCC(OC(=O)C(O)(c2ccccc2)C2CCCC2)C1
REMARK SMILES IDX 8 1 9 2 7 3 6 4 1 5 2 6 3 7 4 8 23 9 5 10 10 11 11 12 18 14
REMARK SMILES IDX 19 15 22 16 20 17 21 18 12 19 13 20 17 21 14 22 16 23 15 24
REMARK H PARENT 11 13
REMARK Flexibility Score: inf
ROOT
ATOM      1  C   UNL     1      29.547  22.014   7.529  1.00  0.00     0.343 C 
ATOM      2  O   UNL     1      30.186  21.629   8.547  1.00  0.00    -0.248 OA
ENDROOT
BRANCH   1   3
ATOM      3  O   UNL     1      30.212  22.179   6.308  1.00  0.00    -0.454 OA
BRANCH   3   4
ATOM      4  C   UNL     1      31.634  22.185   6.183  1.00  0.00     0.237 C 
ATOM      5  C   UNL     1      34.468  21.889   4.882  1.00  0.00     0.334 C 
ATOM      6  N   UNL     1      33.215  22.510   4.384  1.00  0.00    -0.325 N 
ATOM      7  C   UNL     1      33.285  22.636   2.911  1.00  0.00     0.334 C 
ATOM      8  C   UNL     1      33.004  23.828   5.024  1.00  0.00     0.267 C 
ATOM      9  C   UNL     1      32.045  21.706   4.794  1.00  0.00     0.309 C 
ATOM     10  C   UNL     1      32.210  23.593   6.305  1.00  0.00     0.113 C 
ENDBRANCH   3   4
ENDBRANCH   1   3
BRANCH   1  11
ATOM     11  C   UNL     1      28.061  22.335   7.661  1.00  0.00     0.190 C 
BRANCH  11  12
ATOM     12  O   UNL     1      27.474  22.192   6.384  1.00  0.00    -0.374 OA
ATOM     13  H   UNL     1      26.666  21.621   6.468  1.00  0.00     0.212 HD
ENDBRANCH  11  12
BRANCH  11  14
ATOM     14  C   UNL     1      27.772  23.789   8.177  1.00  0.00     0.037 C 
ATOM     15  C   UNL     1      26.580  24.483   7.509  1.00  0.00     0.007 C 
ATOM     16  C   UNL     1      28.949  24.779   8.077  1.00  0.00     0.007 C 
ATOM     17  C   UNL     1      26.859  25.968   7.642  1.00  0.00     0.000 C 
ATOM     18  C   UNL     1      28.372  26.105   7.587  1.00  0.00     0.000 C 
ENDBRANCH  11  14
BRANCH  11  19
ATOM     19  C   UNL     1      27.373  21.334   8.597  1.00  0.00    -0.005 A 
ATOM     20  C   UNL     1      27.139  20.014   8.157  1.00  0.00     0.007 A 
ATOM     21  C   UNL     1      26.875  21.711   9.866  1.00  0.00     0.007 A 
ATOM     22  C   UNL     1      26.473  19.094   8.971  1.00  0.00     0.000 A 
ATOM     23  C   UNL     1      26.209  20.786  10.675  1.00  0.00     0.000 A 
ATOM     24  C   UNL     1      26.013  19.478  10.231  1.00  0.00     0.000 A 
ENDBRANCH  11  19
ENDBRANCH   1  11
TORSDOF 6
ENDMDL
MODEL 3
REMARK VINA RESULT:    -6.246      2.758      4.748
REMARK INTER + INTRA:          -9.314
REMARK INTER:                  -8.080
REMARK INTRA:                  -1.234
REMARK UNBOUND:                -1.060
REMARK SMILES C[N+]1(C)CCC(OC(=O)C(O)(c2ccccc2)C2CCCC2)C1
REMARK SMILES IDX 8 1 9 2 7 3 6 4 1 5 2 6 3 7 4 8 23 9 5 10 10 11 11 12 18 14
REMARK SMILES IDX 19 15 22 16 20 17 21 18 12 19 13 20 17 21 14 22 16 23 15 24
REMARK H PARENT 11 13
REMARK Flexibility Score: inf
ROOT
ATOM      1  C   UNL     1      27.139  22.430   9.762  1.00  0.00     0.343 C 
ATOM      2  O   UNL     1      28.065  22.999  10.404  1.00  0.00    -0.248 OA
ENDROOT
BRANCH   1   3
ATOM      3  O   UNL     1      25.866  22.312  10.333  1.00  0.00    -0.454 OA
BRANCH   3   4
ATOM      4  C   UNL     1      25.587  21.492  11.468  1.00  0.00     0.237 C 
ATOM      5  C   UNL     1      24.284  20.540  14.152  1.00  0.00     0.334 C 
ATOM      6  N   UNL     1      23.695  21.142  12.930  1.00  0.00    -0.325 N 
ATOM      7  C   UNL     1      22.362  21.698  13.255  1.00  0.00     0.334 C 
ATOM      8  C   UNL     1      23.605  20.134  11.852  1.00  0.00     0.267 C 
ATOM      9  C   UNL     1      24.590  22.187  12.391  1.00  0.00     0.309 C 
ATOM     10  C   UNL     1      24.914  20.181  11.069  1.00  0.00     0.113 C 
ENDBRANCH   3   4
ENDBRANCH   1   3
BRANCH   1  11
ATOM     11  C   UNL     1      27.439  21.843   8.387  1.00  0.00     0.190 C 
BRANCH  11  12
ATOM     12  O   UNL     1      26.239  21.856   7.641  1.00  0.00    -0.374 OA
ATOM     13  H   UNL     1      25.486  21.629   8.247  1.00  0.00     0.212 HD
ENDBRANCH  11  12
BRANCH  11  14
ATOM     14  C   UNL     1      27.974  20.368   8.433  1.00  0.00     0.037 C 
ATOM     15  C   UNL     1      26.959  19.302   8.008  1.00  0.00     0.007 C 
ATOM     16  C   UNL     1      28.534  19.903   9.792  1.00  0.00     0.007 C 
ATOM     17  C   UNL     1      27.404  18.029   8.704  1.00  0.00     0.000 C 
ATOM     18  C   UNL     1      28.031  18.479  10.013  1.00  0.00     0.000 C 
ENDBRANCH  11  14
BRANCH  11  19
ATOM     19  C   UNL     1      28.456  22.713   7.637  1.00  0.00    -0.005 A 
ATOM     20  C   UNL     1      28.035  23.921   7.043  1.00  0.00     0.007 A 
ATOM     21  C   UNL     1      29.794  22.302   7.436  1.00  0.00     0.007 A 
ATOM     22  C   UNL     1      28.929  24.711   6.314  1.00  0.00     0.000 A 
ATOM     23  C   UNL     1      30.682  23.097   6.707  1.00  0.00     0.000 A 
ATOM     24  C   UNL     1      30.252  24.301   6.151  1.00  0.00     0.000 A 
ENDBRANCH  11  19
ENDBRANCH   1  11
TORSDOF 6
ENDMDL
MODEL 4
REMARK VINA RESULT:    -6.197      5.140      9.036
REMARK INTER + INTRA:          -9.251
REMARK INTER:                  -8.829
REMARK INTRA:                  -0.422
REMARK UNBOUND:                -1.060
REMARK SMILES C[N+]1(C)CCC(OC(=O)C(O)(c2ccccc2)C2CCCC2)C1
REMARK SMILES IDX 8 1 9 2 7 3 6 4 1 5 2 6 3 7 4 8 23 9 5 10 10 11 11 12 18 14
REMARK SMILES IDX 19 15 22 16 20 17 21 18 12 19 13 20 17 21 14 22 16 23 15 24
REMARK H PARENT 11 13
REMARK Flexibility Score: inf
ROOT
ATOM      1  C   UNL     1      23.758  20.945  11.818  1.00  0.00     0.343 C 
ATOM      2  O   UNL     1      24.399  21.765  12.532  1.00  0.00    -0.248 OA
ENDROOT
BRANCH   1   3
ATOM      3  O   UNL     1      24.381  20.341  10.720  1.00  0.00    -0.454 OA
BRANCH   3   4
ATOM      4  C   UNL     1      25.777  20.052  10.669  1.00  0.00     0.237 C 
ATOM      5  C   UNL     1      28.446  18.575   9.958  1.00  0.00     0.334 C 
ATOM      6  N   UNL     1      27.258  18.914   9.136  1.00  0.00    -0.325 N 
ATOM      7  C   UNL     1      27.242  18.058   7.928  1.00  0.00     0.334 C 
ATOM      8  C   UNL     1      27.274  20.348   8.773  1.00  0.00     0.267 C 
ATOM      9  C   UNL     1      26.021  18.743   9.926  1.00  0.00     0.309 C 
ATOM     10  C   UNL     1      26.547  21.108   9.878  1.00  0.00     0.113 C 
ENDBRANCH   3   4
ENDBRANCH   1   3
BRANCH   1  11
ATOM     11  C   UNL     1      22.295  20.660  12.145  1.00  0.00     0.190 C 
BRANCH  11  12
ATOM     12  O   UNL     1      21.718  20.027  11.022  1.00  0.00    -0.374 OA
ATOM     13  H   UNL     1      21.760  20.650  10.250  1.00  0.00     0.212 HD
ENDBRANCH  11  12
BRANCH  11  14
ATOM     14  C   UNL     1      21.458  21.948  12.469  1.00  0.00     0.037 C 
ATOM     15  C   UNL     1      21.716  23.134  11.534  1.00  0.00     0.007 C 
ATOM     16  C   UNL     1      21.605  22.497  13.902  1.00  0.00     0.007 C 
ATOM     17  C   UNL     1      21.358  24.365  12.347  1.00  0.00     0.000 C 
ATOM     18  C   UNL     1      21.697  24.016  13.786  1.00  0.00     0.000 C 
ENDBRANCH  11  14
BRANCH  11  19
ATOM     19  C   UNL     1      22.184  19.690  13.327  1.00  0.00    -0.005 A 
ATOM     20  C   UNL     1      20.953  19.054  13.594  1.00  0.00     0.007 A 
ATOM     21  C   UNL     1      23.254  19.475  14.227  1.00  0.00     0.007 A 
ATOM     22  C   UNL     1      20.811  18.201  14.692  1.00  0.00     0.000 A 
ATOM     23  C   UNL     1      23.104  18.620  15.323  1.00  0.00     0.000 A 
ATOM     24  C   UNL     1      21.886  17.981  15.552  1.00  0.00     0.000 A 
ENDBRANCH  11  19
ENDBRANCH   1  11
TORSDOF 6
ENDMDL
MODEL 5
REMARK VINA RESULT:    -6.180      2.973      5.127
REMARK INTER + INTRA:          -9.227
REMARK INTER:                  -8.277
REMARK INTRA:                  -0.950
REMARK UNBOUND:                -1.060
REMARK SMILES C[N+]1(C)CCC(OC(=O)C(O)(c2ccccc2)C2CCCC2)C1
REMARK SMILES IDX 8 1 9 2 7 3 6 4 1 5 2 6 3 7 4 8 23 9 5 10 10 11 11 12 18 14
REMARK SMILES IDX 19 15 22 16 20 17 21 18 12 19 13 20 17 21 14 22 16 23 15 24
REMARK H PARENT 11 13
REMARK Flexibility Score: inf
ROOT
ATOM      1  C   UNL     1      29.649  24.619   6.324  1.00  0.00     0.343 C 
ATOM      2  O   UNL     1      30.559  25.445   6.037  1.00  0.00    -0.248 OA
ENDROOT
BRANCH   1   3
ATOM      3  O   UNL     1      28.364  25.077   6.638  1.00  0.00    -0.454 OA
BRANCH   3   4
ATOM      4  C   UNL     1      27.936  25.365   7.969  1.00  0.00     0.237 C 
ATOM      5  C   UNL     1      26.955  27.011  10.447  1.00  0.00     0.334 C 
ATOM      6  N   UNL     1      26.547  27.040   9.020  1.00  0.00    -0.325 N 
ATOM      7  C   UNL     1      25.857  28.319   8.737  1.00  0.00     0.334 C 
ATOM      8  C   UNL     1      25.677  25.884   8.710  1.00  0.00     0.267 C 
ATOM      9  C   UNL     1      27.725  26.865   8.145  1.00  0.00     0.309 C 
ATOM     10  C   UNL     1      26.581  24.733   8.279  1.00  0.00     0.113 C 
ENDBRANCH   3   4
ENDBRANCH   1   3
BRANCH   1  11
ATOM     11  C   UNL     1      29.981  23.130   6.363  1.00  0.00     0.190 C 
BRANCH  11  12
ATOM     12  O   UNL     1      28.847  22.423   5.904  1.00  0.00    -0.374 OA
ATOM     13  H   UNL     1      28.679  22.673   4.958  1.00  0.00     0.212 HD
ENDBRANCH  11  12
BRANCH  11  14
ATOM     14  C   UNL     1      30.345  22.602   7.796  1.00  0.00     0.037 C 
ATOM     15  C   UNL     1      29.226  21.825   8.498  1.00  0.00     0.007 C 
ATOM     16  C   UNL     1      30.816  23.670   8.802  1.00  0.00     0.007 C 
ATOM     17  C   UNL     1      29.508  21.977   9.981  1.00  0.00     0.000 C 
ATOM     18  C   UNL     1      30.150  23.345  10.136  1.00  0.00     0.000 C 
ENDBRANCH  11  14
BRANCH  11  19
ATOM     19  C   UNL     1      31.140  22.810   5.411  1.00  0.00    -0.005 A 
ATOM     20  C   UNL     1      30.866  22.271   4.136  1.00  0.00     0.007 A 
ATOM     21  C   UNL     1      32.493  22.947   5.799  1.00  0.00     0.007 A 
ATOM     22  C   UNL     1      31.903  21.927   3.265  1.00  0.00     0.000 A 
ATOM     23  C   UNL     1      33.525  22.600   4.923  1.00  0.00     0.000 A 
ATOM     24  C   UNL     1      33.231  22.095   3.657  1.00  0.00     0.000 A 
ENDBRANCH  11  19
ENDBRANCH   1  11
TORSDOF 6
ENDMDL
MODEL 6
REMARK VINA RESULT:    -6.148      1.619      2.375
REMARK INTER + INTRA:          -9.186
REMARK INTER:                  -8.396
REMARK INTRA:                  -0.790
REMARK UNBOUND:                -1.060
REMARK SMILES C[N+]1(C)CCC(OC(=O)C(O)(c2ccccc2)C2CCCC2)C1
REMARK SMILES IDX 8 1 9 2 7 3 6 4 1 5 2 6 3 7 4 8 23 9 5 10 10 11 11 12 18 14
REMARK SMILES IDX 19 15 22 16 20 17 21 18 12 19 13 20 17 21 14 22 16 23 15 24
REMARK H PARENT 11 13
REMARK Flexibility Score: inf
ROOT
ATOM      1  C   UNL     1      29.273  22.878   7.185  1.00  0.00     0.343 C 
ATOM      2  O   UNL     1      28.265  23.343   6.584  1.00  0.00    -0.248 OA
ENDROOT
BRANCH   1   3
ATOM      3  O   UNL     1      29.223  21.593   7.739  1.00  0.00    -0.454 OA
BRANCH   3   4
ATOM      4  C   UNL     1      28.351  21.232   8.809  1.00  0.00     0.237 C 
ATOM      5  C   UNL     1      25.910  19.962  10.306  1.00  0.00     0.334 C 
ATOM      6  N   UNL     1      26.810  19.425   9.256  1.00  0.00    -0.325 N 
ATOM      7  C   UNL     1      26.159  18.268   8.601  1.00  0.00     0.334 C 
ATOM      8  C   UNL     1      28.114  19.042   9.842  1.00  0.00     0.267 C 
ATOM      9  C   UNL     1      27.138  20.477   8.273  1.00  0.00     0.309 C 
ATOM     10  C   UNL     1      29.019  20.268   9.786  1.00  0.00     0.113 C 
ENDBRANCH   3   4
ENDBRANCH   1   3
BRANCH   1  11
ATOM     11  C   UNL     1      30.518  23.747   7.331  1.00  0.00     0.190 C 
BRANCH  11  12
ATOM     12  O   UNL     1      31.152  23.391   8.543  1.00  0.00    -0.374 OA
ATOM     13  H   UNL     1      31.095  24.160   9.168  1.00  0.00     0.212 HD
ENDBRANCH  11  12
BRANCH  11  14
ATOM     14  C   UNL     1      30.213  25.286   7.367  1.00  0.00     0.037 C 
ATOM     15  C   UNL     1      30.390  26.008   6.027  1.00  0.00     0.007 C 
ATOM     16  C   UNL     1      31.017  26.103   8.398  1.00  0.00     0.007 C 
ATOM     17  C   UNL     1      30.681  27.453   6.389  1.00  0.00     0.000 C 
ATOM     18  C   UNL     1      31.435  27.398   7.707  1.00  0.00     0.000 C 
ENDBRANCH  11  14
BRANCH  11  19
ATOM     19  C   UNL     1      31.510  23.467   6.195  1.00  0.00    -0.005 A 
ATOM     20  C   UNL     1      31.099  22.701   5.084  1.00  0.00     0.007 A 
ATOM     21  C   UNL     1      32.862  23.874   6.260  1.00  0.00     0.007 A 
ATOM     22  C   UNL     1      31.993  22.391   4.056  1.00  0.00     0.000 A 
ATOM     23  C   UNL     1      33.752  23.560   5.228  1.00  0.00     0.000 A 
ATOM     24  C   UNL     1      33.317  22.825   4.126  1.00  0.00     0.000 A 
ENDBRANCH  11  19
ENDBRANCH   1  11
TORSDOF 6
ENDMDL
MODEL 7
REMARK VINA RESULT:    -6.145      2.032      3.205
REMARK INTER + INTRA:          -9.182
REMARK INTER:                  -8.348
REMARK INTRA:                  -0.834
REMARK UNBOUND:                -1.060
REMARK SMILES C[N+]1(C)CCC(OC(=O)C(O)(c2ccccc2)C2CCCC2)C1
REMARK SMILES IDX 8 1 9 2 7 3 6 4 1 5 2 6 3 7 4 8 23 9 5 10 10 11 11 12 18 14
REMARK SMILES IDX 19 15 22 16 20 17 21 18 12 19 13 20 17 21 14 22 16 23 15 24
REMARK H PARENT 11 13
REMARK Flexibility Score: inf
ROOT
ATOM      1  C   UNL     1      29.629  24.044   6.660  1.00  0.00     0.343 C 
ATOM      2  O   UNL     1      29.456  24.056   5.410  1.00  0.00    -0.248 OA
ENDROOT
BRANCH   1   3
ATOM      3  O   UNL     1      28.532  23.882   7.514  1.00  0.00    -0.454 OA
BRANCH   3   4
ATOM      4  C   UNL     1      27.724  22.706   7.542  1.00  0.00     0.237 C 
ATOM      5  C   UNL     1      26.897  19.723   8.018  1.00  0.00     0.334 C 
ATOM      6  N   UNL     1      27.651  20.683   8.862  1.00  0.00    -0.325 N 
ATOM      7  C   UNL     1      28.420  19.936   9.882  1.00  0.00     0.334 C 
ATOM      8  C   UNL     1      26.726  21.650   9.493  1.00  0.00     0.267 C 
ATOM      9  C   UNL     1      28.542  21.512   8.025  1.00  0.00     0.309 C 
ATOM     10  C   UNL     1      26.574  22.830   8.538  1.00  0.00     0.113 C 
ENDBRANCH   3   4
ENDBRANCH   1   3
BRANCH   1  11
ATOM     11  C   UNL     1      31.034  24.251   7.218  1.00  0.00     0.190 C 
BRANCH  11  12
ATOM     12  O   UNL     1      31.100  23.598   8.470  1.00  0.00    -0.374 OA
ATOM     13  H   UNL     1      32.047  23.366   8.656  1.00  0.00     0.212 HD
ENDBRANCH  11  12
BRANCH  11  14
ATOM     14  C   UNL     1      31.414  25.759   7.428  1.00  0.00     0.037 C 
ATOM     15  C   UNL     1      31.500  26.203   8.892  1.00  0.00     0.007 C 
ATOM     16  C   UNL     1      30.499  26.783   6.727  1.00  0.00     0.007 C 
ATOM     17  C   UNL     1      31.235  27.697   8.870  1.00  0.00     0.000 C 
ATOM     18  C   UNL     1      30.272  27.923   7.716  1.00  0.00     0.000 C 
ENDBRANCH  11  14
BRANCH  11  19
ATOM     19  C   UNL     1      32.080  23.601   6.304  1.00  0.00    -0.005 A 
ATOM     20  C   UNL     1      32.033  22.211   6.070  1.00  0.00     0.007 A 
ATOM     21  C   UNL     1      33.157  24.333   5.755  1.00  0.00     0.007 A 
ATOM     22  C   UNL     1      33.000  21.584   5.279  1.00  0.00     0.000 A 
ATOM     23  C   UNL     1      34.121  23.701   4.965  1.00  0.00     0.000 A 
ATOM     24  C   UNL     1      34.040  22.329   4.723  1.00  0.00     0.000 A 
ENDBRANCH  11  19
ENDBRANCH   1  11
TORSDOF 6
ENDMDL
MODEL 8
REMARK VINA RESULT:    -6.095      1.875      2.794
REMARK INTER + INTRA:          -9.116
REMARK INTER:                  -8.513
REMARK INTRA:                  -0.603
REMARK UNBOUND:                -1.060
REMARK SMILES C[N+]1(C)CCC(OC(=O)C(O)(c2ccccc2)C2CCCC2)C1
REMARK SMILES IDX 8 1 9 2 7 3 6 4 1 5 2 6 3 7 4 8 23 9 5 10 10 11 11 12 18 14
REMARK SMILES IDX 19 15 22 16 20 17 21 18 12 19 13 20 17 21 14 22 16 23 15 24
REMARK H PARENT 11 13
REMARK Flexibility Score: inf
ROOT
ATOM      1  C   UNL     1      30.900  23.321   6.544  1.00  0.00     0.343 C 
ATOM      2  O   UNL     1      30.609  23.126   5.331  1.00  0.00    -0.248 OA
ENDROOT
BRANCH   1   3
ATOM      3  O   UNL     1      30.709  22.298   7.480  1.00  0.00    -0.454 OA
BRANCH   3   4
ATOM      4  C   UNL     1      29.627  22.276   8.410  1.00  0.00     0.237 C 
ATOM      5  C   UNL     1      26.806  21.648   9.619  1.00  0.00     0.334 C 
ATOM      6  N   UNL     1      27.772  20.799   8.879  1.00  0.00    -0.325 N 
ATOM      7  C   UNL     1      27.066  19.617   8.336  1.00  0.00     0.334 C 
ATOM      8  C   UNL     1      28.886  20.395   9.765  1.00  0.00     0.267 C 
ATOM      9  C   UNL     1      28.417  21.575   7.800  1.00  0.00     0.309 C 
ATOM     10  C   UNL     1      29.967  21.466   9.659  1.00  0.00     0.113 C 
ENDBRANCH   3   4
ENDBRANCH   1   3
BRANCH   1  11
ATOM     11  C   UNL     1      31.417  24.690   6.973  1.00  0.00     0.190 C 
BRANCH  11  12
ATOM     12  O   UNL     1      31.898  24.574   8.297  1.00  0.00    -0.374 OA
ATOM     13  H   UNL     1      32.468  23.764   8.358  1.00  0.00     0.212 HD
ENDBRANCH  11  12
BRANCH  11  14
ATOM     14  C   UNL     1      30.324  25.817   6.942  1.00  0.00     0.037 C 
ATOM     15  C   UNL     1      30.088  26.520   8.283  1.00  0.00     0.007 C 
ATOM     16  C   UNL     1      28.933  25.384   6.439  1.00  0.00     0.007 C 
ATOM     17  C   UNL     1      28.667  27.045   8.211  1.00  0.00     0.000 C 
ATOM     18  C   UNL     1      27.906  26.047   7.353  1.00  0.00     0.000 C 
ENDBRANCH  11  14
BRANCH  11  19
ATOM     19  C   UNL     1      32.596  25.123   6.093  1.00  0.00    -0.005 A 
ATOM     20  C   UNL     1      33.607  24.192   5.774  1.00  0.00     0.007 A 
ATOM     21  C   UNL     1      32.761  26.459   5.660  1.00  0.00     0.007 A 
ATOM     22  C   UNL     1      34.716  24.571   5.013  1.00  0.00     0.000 A 
ATOM     23  C   UNL     1      33.873  26.831   4.899  1.00  0.00     0.000 A 
ATOM     24  C   UNL     1      34.846  25.888   4.572  1.00  0.00     0.000 A 
ENDBRANCH  11  19
ENDBRANCH   1  11
TORSDOF 6
ENDMDL
MODEL 9
REMARK VINA RESULT:    -6.057      2.728      4.838
REMARK INTER + INTRA:          -9.065
REMARK INTER:                  -7.728
REMARK INTRA:                  -1.336
REMARK UNBOUND:                -1.060
REMARK SMILES C[N+]1(C)CCC(OC(=O)C(O)(c2ccccc2)C2CCCC2)C1
REMARK SMILES IDX 8 1 9 2 7 3 6 4 1 5 2 6 3 7 4 8 23 9 5 10 10 11 11 12 18 14
REMARK SMILES IDX 19 15 22 16 20 17 21 18 12 19 13 20 17 21 14 22 16 23 15 24
REMARK H PARENT 11 13
REMARK Flexibility Score: inf
ROOT
ATOM      1  C   UNL     1      27.408  22.913   9.919  1.00  0.00     0.343 C 
ATOM      2  O   UNL     1      27.847  23.836  10.660  1.00  0.00    -0.248 OA
ENDROOT
BRANCH   1   3
ATOM      3  O   UNL     1      26.053  22.564   9.968  1.00  0.00    -0.454 OA
BRANCH   3   4
ATOM      4  C   UNL     1      25.388  22.165  11.165  1.00  0.00     0.237 C 
ATOM      5  C   UNL     1      23.143  21.924  13.336  1.00  0.00     0.334 C 
ATOM      6  N   UNL     1      23.091  21.862  11.854  1.00  0.00    -0.325 N 
ATOM      7  C   UNL     1      21.703  22.111  11.404  1.00  0.00     0.334 C 
ATOM      8  C   UNL     1      23.580  20.550  11.377  1.00  0.00     0.267 C 
ATOM      9  C   UNL     1      24.026  22.844  11.266  1.00  0.00     0.309 C 
ATOM     10  C   UNL     1      25.088  20.668  11.176  1.00  0.00     0.113 C 
ENDBRANCH   3   4
ENDBRANCH   1   3
BRANCH   1  11
ATOM     11  C   UNL     1      28.378  22.165   9.009  1.00  0.00     0.190 C 
BRANCH  11  12
ATOM     12  O   UNL     1      29.676  22.316   9.546  1.00  0.00    -0.374 OA
ATOM     13  H   UNL     1      29.939  23.271   9.478  1.00  0.00     0.212 HD
ENDBRANCH  11  12
BRANCH  11  14
ATOM     14  C   UNL     1      28.392  22.693   7.531  1.00  0.00     0.037 C 
ATOM     15  C   UNL     1      29.775  22.724   6.872  1.00  0.00     0.007 C 
ATOM     16  C   UNL     1      27.788  24.094   7.316  1.00  0.00     0.007 C 
ATOM     17  C   UNL     1      29.680  23.794   5.800  1.00  0.00     0.000 C 
ATOM     18  C   UNL     1      28.705  24.826   6.340  1.00  0.00     0.000 C 
ENDBRANCH  11  14
BRANCH  11  19
ATOM     19  C   UNL     1      28.058  20.666   8.995  1.00  0.00    -0.005 A 
ATOM     20  C   UNL     1      28.665  19.814   9.942  1.00  0.00     0.007 A 
ATOM     21  C   UNL     1      27.241  20.080   8.000  1.00  0.00     0.007 A 
ATOM     22  C   UNL     1      28.428  18.437   9.923  1.00  0.00     0.000 A 
ATOM     23  C   UNL     1      27.009  18.702   7.987  1.00  0.00     0.000 A 
ATOM     24  C   UNL     1      27.597  17.882   8.950  1.00  0.00     0.000 A 
ENDBRANCH  11  19
ENDBRANCH   1  11
TORSDOF 6
ENDMDL
MODEL 10
REMARK VINA RESULT:    -6.031      2.716      5.008
REMARK INTER + INTRA:          -9.030
REMARK INTER:                  -7.787
REMARK INTRA:                  -1.243
REMARK UNBOUND:                -1.060
REMARK SMILES C[N+]1(C)CCC(OC(=O)C(O)(c2ccccc2)C2CCCC2)C1
REMARK SMILES IDX 8 1 9 2 7 3 6 4 1 5 2 6 3 7 4 8 23 9 5 10 10 11 11 12 18 14
REMARK SMILES IDX 19 15 22 16 20 17 21 18 12 19 13 20 17 21 14 22 16 23 15 24
REMARK H PARENT 11 13
REMARK Flexibility Score: inf
ROOT
ATOM      1  C   UNL     1      29.964  22.488   7.286  1.00  0.00     0.343 C 
ATOM      2  O   UNL     1      30.542  21.788   8.163  1.00  0.00    -0.248 OA
ENDROOT
BRANCH   1   3
ATOM      3  O   UNL     1      28.601  22.297   7.028  1.00  0.00    -0.454 OA
BRANCH   3   4
ATOM      4  C   UNL     1      27.563  22.862   7.827  1.00  0.00     0.237 C 
ATOM      5  C   UNL     1      26.129  24.147  10.298  1.00  0.00     0.334 C 
ATOM      6  N   UNL     1      27.448  24.417   9.674  1.00  0.00    -0.325 N 
ATOM      7  C   UNL     1      28.309  25.132  10.643  1.00  0.00     0.334 C 
ATOM      8  C   UNL     1      27.278  25.202   8.431  1.00  0.00     0.267 C 
ATOM      9  C   UNL     1      28.077  23.155   9.234  1.00  0.00     0.309 C 
ATOM     10  C   UNL     1      27.100  24.212   7.285  1.00  0.00     0.113 C 
ENDBRANCH   3   4
ENDBRANCH   1   3
BRANCH   1  11
ATOM     11  C   UNL     1      30.778  23.504   6.492  1.00  0.00     0.190 C 
BRANCH  11  12
ATOM     12  O   UNL     1      30.135  23.693   5.247  1.00  0.00    -0.374 OA
ATOM     13  H   UNL     1      29.187  23.414   5.334  1.00  0.00     0.212 HD
ENDBRANCH  11  12
BRANCH  11  14
ATOM     14  C   UNL     1      32.257  23.055   6.220  1.00  0.00     0.037 C 
ATOM     15  C   UNL     1      33.182  24.165   5.708  1.00  0.00     0.007 C 
ATOM     16  C   UNL     1      32.429  21.876   5.243  1.00  0.00     0.007 C 
ATOM     17  C   UNL     1      34.274  23.447   4.937  1.00  0.00     0.000 C 
ATOM     18  C   UNL     1      33.611  22.217   4.340  1.00  0.00     0.000 C 
ENDBRANCH  11  14
BRANCH  11  19
ATOM     19  C   UNL     1      30.798  24.860   7.208  1.00  0.00    -0.005 A 
ATOM     20  C   UNL     1      30.294  26.003   6.552  1.00  0.00     0.007 A 
ATOM     21  C   UNL     1      31.393  25.030   8.480  1.00  0.00     0.007 A 
ATOM     22  C   UNL     1      30.342  27.259   7.162  1.00  0.00     0.000 A 
ATOM     23  C   UNL     1      31.437  26.289   9.084  1.00  0.00     0.000 A 
ATOM     24  C   UNL     1      30.909  27.401   8.429  1.00  0.00     0.000 A 
ENDBRANCH  11  19
ENDBRANCH   1  11
TORSDOF 6
ENDMDL
MODEL 11
REMARK VINA RESULT:    -6.019      1.958      4.266
REMARK INTER + INTRA:          -9.014
REMARK INTER:                  -8.312
REMARK INTRA:                  -0.702
REMARK UNBOUND:                -1.060
REMARK SMILES C[N+]1(C)CCC(OC(=O)C(O)(c2ccccc2)C2CCCC2)C1
REMARK SMILES IDX 8 1 9 2 7 3 6 4 1 5 2 6 3 7 4 8 23 9 5 10 10 11 11 12 18 14
REMARK SMILES IDX 19 15 22 16 20 17 21 18 12 19 13 20 17 21 14 22 16 23 15 24
REMARK H PARENT 11 13
REMARK Flexibility Score: inf
ROOT
ATOM      1  C   UNL     1      30.158  22.543   7.083  1.00  0.00     0.343 C 
ATOM      2  O   UNL     1      30.760  21.659   7.753  1.00  0.00    -0.248 OA
ENDROOT
BRANCH   1   3
ATOM      3  O   UNL     1      28.763  22.506   6.975  1.00  0.00    -0.454 OA
BRANCH   3   4
ATOM      4  C   UNL     1      27.894  22.275   8.083  1.00  0.00     0.237 C 
ATOM      5  C   UNL     1      26.229  20.724  10.235  1.00  0.00     0.334 C 
ATOM      6  N   UNL     1      27.611  20.530   9.730  1.00  0.00    -0.325 N 
ATOM      7  C   UNL     1      28.059  19.157  10.053  1.00  0.00     0.334 C 
ATOM      8  C   UNL     1      28.519  21.540  10.317  1.00  0.00     0.267 C 
ATOM      9  C   UNL     1      27.666  20.779   8.275  1.00  0.00     0.309 C 
ATOM     10  C   UNL     1      28.507  22.756   9.396  1.00  0.00     0.113 C 
ENDBRANCH   3   4
ENDBRANCH   1   3
BRANCH   1  11
ATOM     11  C   UNL     1      30.972  23.617   6.367  1.00  0.00     0.190 C 
BRANCH  11  12
ATOM     12  O   UNL     1      30.363  23.856   5.115  1.00  0.00    -0.374 OA
ATOM     13  H   UNL     1      29.586  23.246   5.018  1.00  0.00     0.212 HD
ENDBRANCH  11  12
BRANCH  11  14
ATOM     14  C   UNL     1      32.469  23.214   6.119  1.00  0.00     0.037 C 
ATOM     15  C   UNL     1      33.371  24.356   5.640  1.00  0.00     0.007 C 
ATOM     16  C   UNL     1      32.693  22.053   5.131  1.00  0.00     0.007 C 
ATOM     17  C   UNL     1      34.498  23.680   4.882  1.00  0.00     0.000 C 
ATOM     18  C   UNL     1      33.882  22.440   4.256  1.00  0.00     0.000 C 
ENDBRANCH  11  14
BRANCH  11  19
ATOM     19  C   UNL     1      30.940  24.933   7.153  1.00  0.00    -0.005 A 
ATOM     20  C   UNL     1      30.433  26.099   6.540  1.00  0.00     0.007 A 
ATOM     21  C   UNL     1      31.490  25.049   8.450  1.00  0.00     0.007 A 
ATOM     22  C   UNL     1      30.434  27.322   7.215  1.00  0.00     0.000 A 
ATOM     23  C   UNL     1      31.488  26.276   9.119  1.00  0.00     0.000 A 
ATOM     24  C   UNL     1      30.957  27.410   8.505  1.00  0.00     0.000 A 
ENDBRANCH  11  19
ENDBRANCH   1  11
TORSDOF 6
ENDMDL
MODEL 12
REMARK VINA RESULT:    -6.001      3.713      6.772
REMARK INTER + INTRA:          -8.991
REMARK INTER:                  -8.291
REMARK INTRA:                  -0.700
REMARK UNBOUND:                -1.060
REMARK SMILES C[N+]1(C)CCC(OC(=O)C(O)(c2ccccc2)C2CCCC2)C1
REMARK SMILES IDX 8 1 9 2 7 3 6 4 1 5 2 6 3 7 4 8 23 9 5 10 10 11 11 12 18 14
REMARK SMILES IDX 19 15 22 16 20 17 21 18 12 19 13 20 17 21 14 22 16 23 15 24
REMARK H PARENT 11 13
REMARK Flexibility Score: inf
ROOT
ATOM      1  C   UNL     1      30.170  24.910   6.139  1.00  0.00     0.343 C 
ATOM      2  O   UNL     1      28.982  25.329   6.059  1.00  0.00    -0.248 OA
ENDROOT
BRANCH   1   3
ATOM      3  O   UNL     1      31.232  25.822   6.149  1.00  0.00    -0.454 OA
BRANCH   3   4
ATOM      4  C   UNL     1      31.053  27.238   6.113  1.00  0.00     0.237 C 
ATOM      5  C   UNL     1      30.789  30.191   7.123  1.00  0.00     0.334 C 
ATOM      6  N   UNL     1      31.740  29.108   7.480  1.00  0.00    -0.325 N 
ATOM      7  C   UNL     1      32.371  29.424   8.781  1.00  0.00     0.334 C 
ATOM      8  C   UNL     1      32.758  28.947   6.418  1.00  0.00     0.267 C 
ATOM      9  C   UNL     1      31.042  27.807   7.528  1.00  0.00     0.309 C 
ATOM     10  C   UNL     1      32.213  27.939   5.411  1.00  0.00     0.113 C 
ENDBRANCH   3   4
ENDBRANCH   1   3
BRANCH   1  11
ATOM     11  C   UNL     1      30.427  23.407   6.182  1.00  0.00     0.190 C 
BRANCH  11  12
ATOM     12  O   UNL     1      29.279  22.758   5.674  1.00  0.00    -0.374 OA
ATOM     13  H   UNL     1      28.629  23.448   5.380  1.00  0.00     0.212 HD
ENDBRANCH  11  12
BRANCH  11  14
ATOM     14  C   UNL     1      30.708  22.855   7.625  1.00  0.00     0.037 C 
ATOM     15  C   UNL     1      29.593  21.978   8.205  1.00  0.00     0.007 C 
ATOM     16  C   UNL     1      31.015  23.917   8.698  1.00  0.00     0.007 C 
ATOM     17  C   UNL     1      29.739  22.097   9.711  1.00  0.00     0.000 C 
ATOM     18  C   UNL     1      30.265  23.500   9.961  1.00  0.00     0.000 C 
ENDBRANCH  11  14
BRANCH  11  19
ATOM     19  C   UNL     1      31.606  23.034   5.274  1.00  0.00    -0.005 A 
ATOM     20  C   UNL     1      31.368  22.316   4.083  1.00  0.00     0.007 A 
ATOM     21  C   UNL     1      32.947  23.303   5.633  1.00  0.00     0.007 A 
ATOM     22  C   UNL     1      32.427  21.922   3.260  1.00  0.00     0.000 A 
ATOM     23  C   UNL     1      34.000  22.907   4.805  1.00  0.00     0.000 A 
ATOM     24  C   UNL     1      33.741  22.221   3.619  1.00  0.00     0.000 A 
ENDBRANCH  11  19
ENDBRANCH   1  11
TORSDOF 6
ENDMDL
MODEL 13
REMARK VINA RESULT:    -5.987      0.871      3.876
REMARK INTER + INTRA:          -8.973
REMARK INTER:                  -8.493
REMARK INTRA:                  -0.480
REMARK UNBOUND:                -1.060
REMARK SMILES C[N+]1(C)CCC(OC(=O)C(O)(c2ccccc2)C2CCCC2)C1
REMARK SMILES IDX 8 1 9 2 7 3 6 4 1 5 2 6 3 7 4 8 23 9 5 10 10 11 11 12 18 14
REMARK SMILES IDX 19 15 22 16 20 17 21 18 12 19 13 20 17 21 14 22 16 23 15 24
REMARK H PARENT 11 13
REMARK Flexibility Score: inf
ROOT
ATOM      1  C   UNL     1      29.861  22.292   8.589  1.00  0.00     0.343 C 
ATOM      2  O   UNL     1      30.568  22.889   9.448  1.00  0.00    -0.248 OA
ENDROOT
BRANCH   1   3
ATOM      3  O   UNL     1      29.593  20.925   8.735  1.00  0.00    -0.454 OA
BRANCH   3   4
ATOM      4  C   UNL     1      28.527  20.415   9.535  1.00  0.00     0.237 C 
ATOM      5  C   UNL     1      25.718  19.253  10.289  1.00  0.00     0.334 C 
ATOM      6  N   UNL     1      26.656  18.926   9.186  1.00  0.00    -0.325 N 
ATOM      7  C   UNL     1      25.920  18.221   8.113  1.00  0.00     0.334 C 
ATOM      8  C   UNL     1      27.778  18.105   9.693  1.00  0.00     0.267 C 
ATOM      9  C   UNL     1      27.295  20.156   8.674  1.00  0.00     0.309 C 
ATOM     10  C   UNL     1      28.875  19.062  10.150  1.00  0.00     0.113 C 
ENDBRANCH   3   4
ENDBRANCH   1   3
BRANCH   1  11
ATOM     11  C   UNL     1      29.347  23.067   7.380  1.00  0.00     0.190 C 
BRANCH  11  12
ATOM     12  O   UNL     1      28.699  22.148   6.523  1.00  0.00    -0.374 OA
ATOM     13  H   UNL     1      29.287  21.357   6.403  1.00  0.00     0.212 HD
ENDBRANCH  11  12
BRANCH  11  14
ATOM     14  C   UNL     1      30.478  23.789   6.565  1.00  0.00     0.037 C 
ATOM     15  C   UNL     1      31.512  22.851   5.932  1.00  0.00     0.007 C 
ATOM     16  C   UNL     1      31.284  24.850   7.337  1.00  0.00     0.007 C 
ATOM     17  C   UNL     1      32.768  23.690   5.782  1.00  0.00     0.000 C 
ATOM     18  C   UNL     1      32.748  24.666   6.946  1.00  0.00     0.000 C 
ENDBRANCH  11  14
BRANCH  11  19
ATOM     19  C   UNL     1      28.306  24.109   7.808  1.00  0.00    -0.005 A 
ATOM     20  C   UNL     1      27.653  23.972   9.051  1.00  0.00     0.007 A 
ATOM     21  C   UNL     1      27.903  25.163   6.956  1.00  0.00     0.007 A 
ATOM     22  C   UNL     1      26.668  24.880   9.447  1.00  0.00     0.000 A 
ATOM     23  C   UNL     1      26.916  26.068   7.358  1.00  0.00     0.000 A 
ATOM     24  C   UNL     1      26.303  25.929   8.603  1.00  0.00     0.000 A 
ENDBRANCH  11  19
ENDBRANCH   1  11
TORSDOF 6
ENDMDL
MODEL 14
REMARK VINA RESULT:    -5.976      1.844      3.854
REMARK INTER + INTRA:          -8.958
REMARK INTER:                  -8.161
REMARK INTRA:                  -0.796
REMARK UNBOUND:                -1.060
REMARK SMILES C[N+]1(C)CCC(OC(=O)C(O)(c2ccccc2)C2CCCC2)C1
REMARK SMILES IDX 8 1 9 2 7 3 6 4 1 5 2 6 3 7 4 8 23 9 5 10 10 11 11 12 18 14
REMARK SMILES IDX 19 15 22 16 20 17 21 18 12 19 13 20 17 21 14 22 16 23 15 24
REMARK H PARENT 11 13
REMARK Flexibility Score: inf
ROOT
ATOM      1  C   UNL     1      29.120  22.864   7.091  1.00  0.00     0.343 C 
ATOM      2  O   UNL     1      27.961  23.360   7.044  1.00  0.00    -0.248 OA
ENDROOT
BRANCH   1   3
ATOM      3  O   UNL     1      29.358  21.719   7.861  1.00  0.00    -0.454 OA
BRANCH   3   4
ATOM      4  C   UNL     1      28.499  21.288   8.915  1.00  0.00     0.237 C 
ATOM      5  C   UNL     1      26.124  19.851  10.366  1.00  0.00     0.334 C 
ATOM      6  N   UNL     1      27.063  19.386   9.315  1.00  0.00    -0.325 N 
ATOM      7  C   UNL     1      26.486  18.205   8.634  1.00  0.00     0.334 C 
ATOM      8  C   UNL     1      28.381  19.069   9.907  1.00  0.00     0.267 C 
ATOM      9  C   UNL     1      27.337  20.474   8.354  1.00  0.00     0.309 C 
ATOM     10  C   UNL     1      29.214  20.347   9.882  1.00  0.00     0.113 C 
ENDBRANCH   3   4
ENDBRANCH   1   3
BRANCH   1  11
ATOM     11  C   UNL     1      30.255  23.552   6.338  1.00  0.00     0.190 C 
BRANCH  11  12
ATOM     12  O   UNL     1      29.751  23.966   5.084  1.00  0.00    -0.374 OA
ATOM     13  H   UNL     1      29.627  23.165   4.512  1.00  0.00     0.212 HD
ENDBRANCH  11  12
BRANCH  11  14
ATOM     14  C   UNL     1      31.499  22.627   6.088  1.00  0.00     0.037 C 
ATOM     15  C   UNL     1      32.815  23.372   5.845  1.00  0.00     0.007 C 
ATOM     16  C   UNL     1      31.361  21.620   4.930  1.00  0.00     0.007 C 
ATOM     17  C   UNL     1      33.668  22.416   5.032  1.00  0.00     0.000 C 
ATOM     18  C   UNL     1      32.692  21.620   4.183  1.00  0.00     0.000 C 
ENDBRANCH  11  14
BRANCH  11  19
ATOM     19  C   UNL     1      30.717  24.808   7.086  1.00  0.00    -0.005 A 
ATOM     20  C   UNL     1      31.086  24.715   8.444  1.00  0.00     0.007 A 
ATOM     21  C   UNL     1      30.700  26.089   6.487  1.00  0.00     0.007 A 
ATOM     22  C   UNL     1      31.467  25.851   9.163  1.00  0.00     0.000 A 
ATOM     23  C   UNL     1      31.081  27.221   7.212  1.00  0.00     0.000 A 
ATOM     24  C   UNL     1      31.469  27.102   8.546  1.00  0.00     0.000 A 
ENDBRANCH  11  19
ENDBRANCH   1  11
TORSDOF 6
ENDMDL
MODEL 15
REMARK VINA RESULT:    -5.953      4.880      8.814
REMARK INTER + INTRA:          -8.927
REMARK INTER:                  -8.609
REMARK INTRA:                  -0.318
REMARK UNBOUND:                -1.060
REMARK SMILES C[N+]1(C)CCC(OC(=O)C(O)(c2ccccc2)C2CCCC2)C1
REMARK SMILES IDX 8 1 9 2 7 3 6 4 1 5 2 6 3 7 4 8 23 9 5 10 10 11 11 12 18 14
REMARK SMILES IDX 19 15 22 16 20 17 21 18 12 19 13 20 17 21 14 22 16 23 15 24
REMARK H PARENT 11 13
REMARK Flexibility Score: inf
ROOT
ATOM      1  C   UNL     1      24.662  20.450  12.224  1.00  0.00     0.343 C 
ATOM      2  O   UNL     1      25.461  21.236  12.805  1.00  0.00    -0.248 OA
ENDROOT
BRANCH   1   3
ATOM      3  O   UNL     1      25.159  19.359  11.501  1.00  0.00    -0.454 OA
BRANCH   3   4
ATOM      4  C   UNL     1      25.817  19.485  10.241  1.00  0.00     0.237 C 
ATOM      5  C   UNL     1      27.795  20.543   8.054  1.00  0.00     0.334 C 
ATOM      6  N   UNL     1      27.995  20.213   9.488  1.00  0.00    -0.325 N 
ATOM      7  C   UNL     1      29.229  20.871   9.971  1.00  0.00     0.334 C 
ATOM      8  C   UNL     1      28.065  18.746   9.672  1.00  0.00     0.267 C 
ATOM      9  C   UNL     1      26.821  20.633  10.280  1.00  0.00     0.309 C 
ATOM     10  C   UNL     1      26.643  18.246   9.905  1.00  0.00     0.113 C 
ENDBRANCH   3   4
ENDBRANCH   1   3
BRANCH   1  11
ATOM     11  C   UNL     1      23.164  20.731  12.288  1.00  0.00     0.190 C 
BRANCH  11  12
ATOM     12  O   UNL     1      22.616  20.437  11.019  1.00  0.00    -0.374 OA
ATOM     13  H   UNL     1      22.219  19.528  11.048  1.00  0.00     0.212 HD
ENDBRANCH  11  12
BRANCH  11  14
ATOM     14  C   UNL     1      22.816  22.220  12.643  1.00  0.00     0.037 C 
ATOM     15  C   UNL     1      21.469  22.415  13.347  1.00  0.00     0.007 C 
ATOM     16  C   UNL     1      22.823  23.208  11.460  1.00  0.00     0.007 C 
ATOM     17  C   UNL     1      21.053  23.838  13.022  1.00  0.00     0.000 C 
ATOM     18  C   UNL     1      21.611  24.119  11.637  1.00  0.00     0.000 C 
ENDBRANCH  11  14
BRANCH  11  19
ATOM     19  C   UNL     1      22.484  19.810  13.308  1.00  0.00    -0.005 A 
ATOM     20  C   UNL     1      23.188  19.406  14.462  1.00  0.00     0.007 A 
ATOM     21  C   UNL     1      21.196  19.267  13.090  1.00  0.00     0.007 A 
ATOM     22  C   UNL     1      22.610  18.530  15.384  1.00  0.00     0.000 A 
ATOM     23  C   UNL     1      20.624  18.391  14.017  1.00  0.00     0.000 A 
ATOM     24  C   UNL     1      21.328  18.027  15.164  1.00  0.00     0.000 A 
ENDBRANCH  11  19
ENDBRANCH   1  11
TORSDOF 6
ENDMDL
