MODEL 1
REMARK VINA RESULT:    -6.936      0.000      0.000
REMARK INTER + INTRA:         -11.594
REMARK INTER:                 -10.788
REMARK INTRA:                  -0.806
REMARK UNBOUND:                -0.806
REMARK SMILES CC[N+](C)(CC)CCOC(=O)C(O)(c1ccccc1)C1CCCCC1
REMARK SMILES IDX 8 1 7 2 3 3 4 4 2 5 1 6 5 7 6 8 9 9 10 10 11 11 12 12 13 13
REMARK SMILES IDX 20 15 21 16 25 17 22 18 24 19 23 20 14 21 15 22 19 23 16 24
REMARK SMILES IDX 18 25 17 26
REMARK H PARENT 13 14
REMARK Flexibility Score: inf
ROOT
ATOM      1  C   UNL     1      12.230  23.240  39.288  1.00  0.00     0.294 C 
ENDROOT
BRANCH   1   2
ATOM      2  C   UNL     1      13.464  22.318  39.230  1.00  0.00     0.305 C 
BRANCH   2   3
ATOM      3  N   UNL     1      13.350  21.149  38.293  1.00  0.00    -0.324 N 
ATOM      4  C   UNL     1      11.916  20.902  37.970  1.00  0.00     0.334 C 
BRANCH   3   5
ATOM      5  C   UNL     1      14.060  21.387  36.992  1.00  0.00     0.260 C 
ATOM      6  C   UNL     1      13.168  21.373  35.736  1.00  0.00     0.071 C 
ENDBRANCH   3   5
BRANCH   3   7
ATOM      7  C   UNL     1      13.932  19.923  38.937  1.00  0.00     0.260 C 
ATOM      8  C   UNL     1      14.981  19.166  38.099  1.00  0.00     0.071 C 
ENDBRANCH   3   7
ENDBRANCH   2   3
ENDBRANCH   1   2
BRANCH   1   9
ATOM      9  O   UNL     1      12.443  24.244  40.274  1.00  0.00    -0.457 OA
BRANCH   9  10
ATOM     10  C   UNL     1      13.216  25.387  40.032  1.00  0.00     0.343 C 
ATOM     11  O   UNL     1      13.497  25.712  38.846  1.00  0.00    -0.248 OA
BRANCH  10  12
ATOM     12  C   UNL     1      13.767  26.181  41.214  1.00  0.00     0.190 C 
BRANCH  12  13
ATOM     13  O   UNL     1      13.457  25.465  42.392  1.00  0.00    -0.374 OA
ATOM     14  H   UNL     1      12.813  26.001  42.928  1.00  0.00     0.212 HD
ENDBRANCH  12  13
BRANCH  12  15
ATOM     15  C   UNL     1      13.086  27.589  41.350  1.00  0.00     0.037 C 
ATOM     16  C   UNL     1      11.850  27.797  40.422  1.00  0.00     0.007 C 
ATOM     17  C   UNL     1      12.760  27.960  42.817  1.00  0.00     0.007 C 
ATOM     18  C   UNL     1      10.854  28.847  40.952  1.00  0.00     0.000 C 
ATOM     19  C   UNL     1      12.320  29.433  42.950  1.00  0.00     0.000 C 
ATOM     20  C   UNL     1      11.573  29.968  41.711  1.00  0.00     0.000 C 
ENDBRANCH  12  15
BRANCH  12  21
ATOM     21  C   UNL     1      15.294  26.355  41.129  1.00  0.00    -0.005 A 
ATOM     22  C   UNL     1      15.849  27.642  41.302  1.00  0.00     0.007 A 
ATOM     23  C   UNL     1      16.170  25.283  40.839  1.00  0.00     0.007 A 
ATOM     24  C   UNL     1      17.228  27.845  41.216  1.00  0.00     0.000 A 
ATOM     25  C   UNL     1      17.551  25.493  40.766  1.00  0.00     0.000 A 
ATOM     26  C   UNL     1      18.079  26.770  40.953  1.00  0.00     0.000 A 
ENDBRANCH  12  21
ENDBRANCH  10  12
ENDBRANCH   9  10
ENDBRANCH   1   9
TORSDOF 10
ENDMDL
MODEL 2
REMARK VINA RESULT:    -6.846     12.435     15.926
REMARK INTER + INTRA:         -11.454
REMARK INTER:                 -10.670
REMARK INTRA:                  -0.784
REMARK UNBOUND:                -0.806
REMARK SMILES CC[N+](C)(CC)CCOC(=O)C(O)(c1ccccc1)C1CCCCC1
REMARK SMILES IDX 8 1 7 2 3 3 4 4 2 5 1 6 5 7 6 8 9 9 10 10 11 11 12 12 13 13
REMARK SMILES IDX 20 15 21 16 25 17 22 18 24 19 23 20 14 21 15 22 19 23 16 24
REMARK SMILES IDX 18 25 17 26
REMARK H PARENT 13 14
REMARK Flexibility Score: inf
ROOT
ATOM      1  C   UNL     1      25.831  22.968  36.061  1.00  0.00     0.294 C 
ENDROOT
BRANCH   1   2
ATOM      2  C   UNL     1      25.111  22.287  37.242  1.00  0.00     0.305 C 
BRANCH   2   3
ATOM      3  N   UNL     1      24.230  23.186  38.063  1.00  0.00    -0.324 N 
ATOM      4  C   UNL     1      24.233  24.558  37.482  1.00  0.00     0.334 C 
BRANCH   3   5
ATOM      5  C   UNL     1      22.803  22.721  38.089  1.00  0.00     0.260 C 
ATOM      6  C   UNL     1      21.744  23.815  37.854  1.00  0.00     0.071 C 
ENDBRANCH   3   5
BRANCH   3   7
ATOM      7  C   UNL     1      24.739  23.244  39.475  1.00  0.00     0.260 C 
ATOM      8  C   UNL     1      26.122  22.606  39.711  1.00  0.00     0.071 C 
ENDBRANCH   3   7
ENDBRANCH   2   3
ENDBRANCH   1   2
BRANCH   1   9
ATOM      9  O   UNL     1      26.596  21.996  35.357  1.00  0.00    -0.457 OA
BRANCH   9  10
ATOM     10  C   UNL     1      26.492  21.811  33.973  1.00  0.00     0.343 C 
ATOM     11  O   UNL     1      25.585  22.409  33.330  1.00  0.00    -0.248 OA
BRANCH  10  12
ATOM     12  C   UNL     1      27.434  20.834  33.275  1.00  0.00     0.190 C 
BRANCH  12  13
ATOM     13  O   UNL     1      28.738  21.079  33.761  1.00  0.00    -0.374 OA
ATOM     14  H   UNL     1      29.356  21.151  32.985  1.00  0.00     0.212 HD
ENDBRANCH  12  13
BRANCH  12  15
ATOM     15  C   UNL     1      27.480  21.062  31.723  1.00  0.00     0.037 C 
ATOM     16  C   UNL     1      28.919  21.101  31.122  1.00  0.00     0.007 C 
ATOM     17  C   UNL     1      26.570  20.082  30.944  1.00  0.00     0.007 C 
ATOM     18  C   UNL     1      28.972  20.713  29.632  1.00  0.00     0.000 C 
ATOM     19  C   UNL     1      26.444  20.476  29.458  1.00  0.00     0.000 C 
ATOM     20  C   UNL     1      27.707  21.157  28.892  1.00  0.00     0.000 C 
ENDBRANCH  12  15
BRANCH  12  21
ATOM     21  C   UNL     1      27.065  19.368  33.569  1.00  0.00    -0.005 A 
ATOM     22  C   UNL     1      28.004  18.354  33.283  1.00  0.00     0.007 A 
ATOM     23  C   UNL     1      25.799  18.985  34.074  1.00  0.00     0.007 A 
ATOM     24  C   UNL     1      27.702  17.011  33.520  1.00  0.00     0.000 A 
ATOM     25  C   UNL     1      25.510  17.639  34.317  1.00  0.00     0.000 A 
ATOM     26  C   UNL     1      26.458  16.654  34.041  1.00  0.00     0.000 A 
ENDBRANCH  12  21
ENDBRANCH  10  12
ENDBRANCH   9  10
ENDBRANCH   1   9
TORSDOF 10
ENDMDL
MODEL 3
REMARK VINA RESULT:    -6.694      0.362      1.334
REMARK INTER + INTRA:         -11.217
REMARK INTER:                 -10.461
REMARK INTRA:                  -0.756
REMARK UNBOUND:                -0.806
REMARK SMILES CC[N+](C)(CC)CCOC(=O)C(O)(c1ccccc1)C1CCCCC1
REMARK SMILES IDX 8 1 7 2 3 3 4 4 2 5 1 6 5 7 6 8 9 9 10 10 11 11 12 12 13 13
REMARK SMILES IDX 20 15 21 16 25 17 22 18 24 19 23 20 14 21 15 22 19 23 16 24
REMARK SMILES IDX 18 25 17 26
REMARK H PARENT 13 14
REMARK Flexibility Score: inf
ROOT
ATOM      1  C   UNL     1      12.293  23.281  39.418  1.00  0.00     0.294 C 
ENDROOT
BRANCH   1   2
ATOM      2  C   UNL     1      13.511  22.338  39.383  1.00  0.00     0.305 C 
BRANCH   2   3
ATOM      3  N   UNL     1      13.385  21.158  38.460  1.00  0.00    -0.324 N 
ATOM      4  C   UNL     1      13.891  21.522  37.107  1.00  0.00     0.334 C 
BRANCH   3   5
ATOM      5  C   UNL     1      14.185  19.977  38.928  1.00  0.00     0.260 C 
ATOM      6  C   UNL     1      14.958  19.223  37.829  1.00  0.00     0.071 C 
ENDBRANCH   3   5
BRANCH   3   7
ATOM      7  C   UNL     1      11.943  20.747  38.356  1.00  0.00     0.260 C 
ATOM      8  C   UNL     1      11.411  20.545  36.924  1.00  0.00     0.071 C 
ENDBRANCH   3   7
ENDBRANCH   2   3
ENDBRANCH   1   2
BRANCH   1   9
ATOM      9  O   UNL     1      12.516  24.296  40.391  1.00  0.00    -0.457 OA
BRANCH   9  10
ATOM     10  C   UNL     1      13.243  25.460  40.113  1.00  0.00     0.343 C 
ATOM     11  O   UNL     1      13.479  25.779  38.915  1.00  0.00    -0.248 OA
BRANCH  10  12
ATOM     12  C   UNL     1      13.799  26.289  41.268  1.00  0.00     0.190 C 
BRANCH  12  13
ATOM     13  O   UNL     1      13.517  25.594  42.466  1.00  0.00    -0.374 OA
ATOM     14  H   UNL     1      12.590  25.238  42.414  1.00  0.00     0.212 HD
ENDBRANCH  12  13
BRANCH  12  15
ATOM     15  C   UNL     1      13.099  27.690  41.384  1.00  0.00     0.037 C 
ATOM     16  C   UNL     1      11.785  27.822  40.554  1.00  0.00     0.007 C 
ATOM     17  C   UNL     1      12.890  28.138  42.850  1.00  0.00     0.007 C 
ATOM     18  C   UNL     1      10.814  28.882  41.109  1.00  0.00     0.000 C 
ATOM     19  C   UNL     1      12.428  29.608  42.938  1.00  0.00     0.000 C 
ATOM     20  C   UNL     1      11.568  30.057  41.740  1.00  0.00     0.000 C 
ENDBRANCH  12  15
BRANCH  12  21
ATOM     21  C   UNL     1      15.322  26.483  41.157  1.00  0.00    -0.005 A 
ATOM     22  C   UNL     1      15.868  27.767  41.375  1.00  0.00     0.007 A 
ATOM     23  C   UNL     1      16.202  25.434  40.799  1.00  0.00     0.007 A 
ATOM     24  C   UNL     1      17.243  27.987  41.267  1.00  0.00     0.000 A 
ATOM     25  C   UNL     1      17.578  25.663  40.704  1.00  0.00     0.000 A 
ATOM     26  C   UNL     1      18.098  26.935  40.937  1.00  0.00     0.000 A 
ENDBRANCH  12  21
ENDBRANCH  10  12
ENDBRANCH   9  10
ENDBRANCH   1   9
TORSDOF 10
ENDMDL
MODEL 4
REMARK VINA RESULT:    -6.567     12.750     16.052
REMARK INTER + INTRA:         -11.020
REMARK INTER:                 -10.371
REMARK INTRA:                  -0.649
REMARK UNBOUND:                -0.806
REMARK SMILES CC[N+](C)(CC)CCOC(=O)C(O)(c1ccccc1)C1CCCCC1
REMARK SMILES IDX 8 1 7 2 3 3 4 4 2 5 1 6 5 7 6 8 9 9 10 10 11 11 12 12 13 13
REMARK SMILES IDX 20 15 21 16 25 17 22 18 24 19 23 20 14 21 15 22 19 23 16 24
REMARK SMILES IDX 18 25 17 26
REMARK H PARENT 13 14
REMARK Flexibility Score: inf
ROOT
ATOM      1  C   UNL     1      25.776  22.738  35.538  1.00  0.00     0.294 C 
ENDROOT
BRANCH   1   2
ATOM      2  C   UNL     1      24.421  23.147  36.150  1.00  0.00     0.305 C 
BRANCH   2   3
ATOM      3  N   UNL     1      24.429  23.372  37.636  1.00  0.00    -0.324 N 
ATOM      4  C   UNL     1      23.479  22.429  38.291  1.00  0.00     0.334 C 
BRANCH   3   5
ATOM      5  C   UNL     1      25.780  23.131  38.244  1.00  0.00     0.260 C 
ATOM      6  C   UNL     1      25.778  22.771  39.742  1.00  0.00     0.071 C 
ENDBRANCH   3   5
BRANCH   3   7
ATOM      7  C   UNL     1      24.014  24.784  37.938  1.00  0.00     0.260 C 
ATOM      8  C   UNL     1      22.494  25.034  37.991  1.00  0.00     0.071 C 
ENDBRANCH   3   7
ENDBRANCH   2   3
ENDBRANCH   1   2
BRANCH   1   9
ATOM      9  O   UNL     1      25.644  22.658  34.123  1.00  0.00    -0.457 OA
BRANCH   9  10
ATOM     10  C   UNL     1      26.361  21.738  33.349  1.00  0.00     0.343 C 
ATOM     11  O   UNL     1      26.977  20.793  33.914  1.00  0.00    -0.248 OA
BRANCH  10  12
ATOM     12  C   UNL     1      26.444  21.934  31.838  1.00  0.00     0.190 C 
BRANCH  12  13
ATOM     13  O   UNL     1      25.161  21.675  31.303  1.00  0.00    -0.374 OA
ATOM     14  H   UNL     1      24.945  20.716  31.451  1.00  0.00     0.212 HD
ENDBRANCH  12  13
BRANCH  12  15
ATOM     15  C   UNL     1      27.429  20.918  31.160  1.00  0.00     0.037 C 
ATOM     16  C   UNL     1      26.835  19.491  30.950  1.00  0.00     0.007 C 
ATOM     17  C   UNL     1      28.057  21.467  29.857  1.00  0.00     0.007 C 
ATOM     18  C   UNL     1      27.502  18.713  29.799  1.00  0.00     0.000 C 
ATOM     19  C   UNL     1      29.195  20.559  29.344  1.00  0.00     0.000 C 
ATOM     20  C   UNL     1      28.987  19.066  29.671  1.00  0.00     0.000 C 
ENDBRANCH  12  15
BRANCH  12  21
ATOM     21  C   UNL     1      26.852  23.372  31.465  1.00  0.00    -0.005 A 
ATOM     22  C   UNL     1      25.969  24.156  30.690  1.00  0.00     0.007 A 
ATOM     23  C   UNL     1      28.100  23.930  31.827  1.00  0.00     0.007 A 
ATOM     24  C   UNL     1      26.310  25.459  30.317  1.00  0.00     0.000 A 
ATOM     25  C   UNL     1      28.427  25.239  31.458  1.00  0.00     0.000 A 
ATOM     26  C   UNL     1      27.535  26.001  30.705  1.00  0.00     0.000 A 
ENDBRANCH  12  21
ENDBRANCH  10  12
ENDBRANCH   9  10
ENDBRANCH   1   9
TORSDOF 10
ENDMDL
MODEL 5
REMARK VINA RESULT:    -6.558     15.613     17.918
REMARK INTER + INTRA:         -11.006
REMARK INTER:                  -9.639
REMARK INTRA:                  -1.366
REMARK UNBOUND:                -0.806
REMARK SMILES CC[N+](C)(CC)CCOC(=O)C(O)(c1ccccc1)C1CCCCC1
REMARK SMILES IDX 8 1 7 2 3 3 4 4 2 5 1 6 5 7 6 8 9 9 10 10 11 11 12 12 13 13
REMARK SMILES IDX 20 15 21 16 25 17 22 18 24 19 23 20 14 21 15 22 19 23 16 24
REMARK SMILES IDX 18 25 17 26
REMARK H PARENT 13 14
REMARK Flexibility Score: inf
ROOT
ATOM      1  C   UNL     1      26.021  17.373  33.561  1.00  0.00     0.294 C 
ENDROOT
BRANCH   1   2
ATOM      2  C   UNL     1      27.382  16.817  34.023  1.00  0.00     0.305 C 
BRANCH   2   3
ATOM      3  N   UNL     1      27.615  15.362  33.729  1.00  0.00    -0.324 N 
ATOM      4  C   UNL     1      29.033  15.011  34.023  1.00  0.00     0.334 C 
BRANCH   3   5
ATOM      5  C   UNL     1      26.755  14.463  34.570  1.00  0.00     0.260 C 
ATOM      6  C   UNL     1      27.194  14.308  36.038  1.00  0.00     0.071 C 
ENDBRANCH   3   5
BRANCH   3   7
ATOM      7  C   UNL     1      27.325  15.083  32.282  1.00  0.00     0.260 C 
ATOM      8  C   UNL     1      28.476  14.439  31.485  1.00  0.00     0.071 C 
ENDBRANCH   3   7
ENDBRANCH   2   3
ENDBRANCH   1   2
BRANCH   1   9
ATOM      9  O   UNL     1      26.205  18.686  33.042  1.00  0.00    -0.457 OA
BRANCH   9  10
ATOM     10  C   UNL     1      26.721  18.925  31.762  1.00  0.00     0.343 C 
ATOM     11  O   UNL     1      26.224  18.330  30.766  1.00  0.00    -0.248 OA
BRANCH  10  12
ATOM     12  C   UNL     1      27.924  19.851  31.601  1.00  0.00     0.190 C 
BRANCH  12  13
ATOM     13  O   UNL     1      28.464  20.076  32.887  1.00  0.00    -0.374 OA
ATOM     14  H   UNL     1      28.944  19.255  33.176  1.00  0.00     0.212 HD
ENDBRANCH  12  13
BRANCH  12  15
ATOM     15  C   UNL     1      27.519  21.256  31.029  1.00  0.00     0.037 C 
ATOM     16  C   UNL     1      25.980  21.490  30.934  1.00  0.00     0.007 C 
ATOM     17  C   UNL     1      28.225  22.426  31.755  1.00  0.00     0.007 C 
ATOM     18  C   UNL     1      25.583  22.979  30.976  1.00  0.00     0.000 C 
ATOM     19  C   UNL     1      28.003  23.768  31.026  1.00  0.00     0.000 C 
ATOM     20  C   UNL     1      26.643  23.860  30.306  1.00  0.00     0.000 C 
ENDBRANCH  12  15
BRANCH  12  21
ATOM     21  C   UNL     1      29.014  19.228  30.710  1.00  0.00    -0.005 A 
ATOM     22  C   UNL     1      29.449  19.931  29.565  1.00  0.00     0.007 A 
ATOM     23  C   UNL     1      29.572  17.953  30.963  1.00  0.00     0.007 A 
ATOM     24  C   UNL     1      30.424  19.393  28.722  1.00  0.00     0.000 A 
ATOM     25  C   UNL     1      30.555  17.427  30.119  1.00  0.00     0.000 A 
ATOM     26  C   UNL     1      30.980  18.145  29.001  1.00  0.00     0.000 A 
ENDBRANCH  12  21
ENDBRANCH  10  12
ENDBRANCH   9  10
ENDBRANCH   1   9
TORSDOF 10
ENDMDL
MODEL 6
REMARK VINA RESULT:    -6.544     15.393     17.657
REMARK INTER + INTRA:         -10.984
REMARK INTER:                  -9.676
REMARK INTRA:                  -1.308
REMARK UNBOUND:                -0.806
REMARK SMILES CC[N+](C)(CC)CCOC(=O)C(O)(c1ccccc1)C1CCCCC1
REMARK SMILES IDX 8 1 7 2 3 3 4 4 2 5 1 6 5 7 6 8 9 9 10 10 11 11 12 12 13 13
REMARK SMILES IDX 20 15 21 16 25 17 22 18 24 19 23 20 14 21 15 22 19 23 16 24
REMARK SMILES IDX 18 25 17 26
REMARK H PARENT 13 14
REMARK Flexibility Score: inf
ROOT
ATOM      1  C   UNL     1      26.475  18.531  33.708  1.00  0.00     0.294 C 
ENDROOT
BRANCH   1   2
ATOM      2  C   UNL     1      26.237  17.464  32.623  1.00  0.00     0.305 C 
BRANCH   2   3
ATOM      3  N   UNL     1      26.967  16.166  32.826  1.00  0.00    -0.324 N 
ATOM      4  C   UNL     1      27.606  15.742  31.549  1.00  0.00     0.334 C 
BRANCH   3   5
ATOM      5  C   UNL     1      28.060  16.278  33.850  1.00  0.00     0.260 C 
ATOM      6  C   UNL     1      29.491  16.363  33.285  1.00  0.00     0.071 C 
ENDBRANCH   3   5
BRANCH   3   7
ATOM      7  C   UNL     1      26.001  15.105  33.274  1.00  0.00     0.260 C 
ATOM      8  C   UNL     1      24.512  15.414  33.025  1.00  0.00     0.071 C 
ENDBRANCH   3   7
ENDBRANCH   2   3
ENDBRANCH   1   2
BRANCH   1   9
ATOM      9  O   UNL     1      26.189  19.817  33.169  1.00  0.00    -0.457 OA
BRANCH   9  10
ATOM     10  C   UNL     1      27.190  20.686  32.719  1.00  0.00     0.343 C 
ATOM     11  O   UNL     1      28.029  21.152  33.539  1.00  0.00    -0.248 OA
BRANCH  10  12
ATOM     12  C   UNL     1      27.208  21.112  31.253  1.00  0.00     0.190 C 
BRANCH  12  13
ATOM     13  O   UNL     1      26.112  20.490  30.615  1.00  0.00    -0.374 OA
ATOM     14  H   UNL     1      25.917  20.980  29.772  1.00  0.00     0.212 HD
ENDBRANCH  12  13
BRANCH  12  15
ATOM     15  C   UNL     1      28.501  20.623  30.510  1.00  0.00     0.037 C 
ATOM     16  C   UNL     1      28.870  19.131  30.777  1.00  0.00     0.007 C 
ATOM     17  C   UNL     1      28.478  20.936  28.994  1.00  0.00     0.007 C 
ATOM     18  C   UNL     1      29.702  18.494  29.648  1.00  0.00     0.000 C 
ATOM     19  C   UNL     1      29.846  20.669  28.334  1.00  0.00     0.000 C 
ATOM     20  C   UNL     1      30.634  19.518  28.992  1.00  0.00     0.000 C 
ENDBRANCH  12  15
BRANCH  12  21
ATOM     21  C   UNL     1      27.070  22.638  31.095  1.00  0.00    -0.005 A 
ATOM     22  C   UNL     1      28.217  23.449  31.238  1.00  0.00     0.007 A 
ATOM     23  C   UNL     1      25.828  23.272  30.857  1.00  0.00     0.007 A 
ATOM     24  C   UNL     1      28.131  24.838  31.118  1.00  0.00     0.000 A 
ATOM     25  C   UNL     1      25.754  24.662  30.728  1.00  0.00     0.000 A 
ATOM     26  C   UNL     1      26.902  25.444  30.858  1.00  0.00     0.000 A 
ENDBRANCH  12  21
ENDBRANCH  10  12
ENDBRANCH   9  10
ENDBRANCH   1   9
TORSDOF 10
ENDMDL
MODEL 7
REMARK VINA RESULT:    -6.501      4.745      8.159
REMARK INTER + INTRA:         -10.918
REMARK INTER:                  -9.880
REMARK INTRA:                  -1.037
REMARK UNBOUND:                -0.806
REMARK SMILES CC[N+](C)(CC)CCOC(=O)C(O)(c1ccccc1)C1CCCCC1
REMARK SMILES IDX 8 1 7 2 3 3 4 4 2 5 1 6 5 7 6 8 9 9 10 10 11 11 12 12 13 13
REMARK SMILES IDX 20 15 21 16 25 17 22 18 24 19 23 20 14 21 15 22 19 23 16 24
REMARK SMILES IDX 18 25 17 26
REMARK H PARENT 13 14
REMARK Flexibility Score: inf
ROOT
ATOM      1  C   UNL     1      10.651  21.375  34.348  1.00  0.00     0.294 C 
ENDROOT
BRANCH   1   2
ATOM      2  C   UNL     1       9.492  20.666  35.075  1.00  0.00     0.305 C 
BRANCH   2   3
ATOM      3  N   UNL     1       8.845  19.545  34.312  1.00  0.00    -0.324 N 
ATOM      4  C   UNL     1       7.362  19.680  34.381  1.00  0.00     0.334 C 
BRANCH   3   5
ATOM      5  C   UNL     1       9.220  19.549  32.858  1.00  0.00     0.260 C 
ATOM      6  C   UNL     1       8.089  19.923  31.882  1.00  0.00     0.071 C 
ENDBRANCH   3   5
BRANCH   3   7
ATOM      7  C   UNL     1       9.251  18.226  34.905  1.00  0.00     0.260 C 
ATOM      8  C   UNL     1       8.155  17.142  34.932  1.00  0.00     0.071 C 
ENDBRANCH   3   7
ENDBRANCH   2   3
ENDBRANCH   1   2
BRANCH   1   9
ATOM      9  O   UNL     1      11.769  21.460  35.225  1.00  0.00    -0.457 OA
BRANCH   9  10
ATOM     10  C   UNL     1      12.609  20.370  35.484  1.00  0.00     0.343 C 
ATOM     11  O   UNL     1      12.733  19.457  34.622  1.00  0.00    -0.248 OA
BRANCH  10  12
ATOM     12  C   UNL     1      13.307  20.268  36.838  1.00  0.00     0.190 C 
BRANCH  12  13
ATOM     13  O   UNL     1      14.689  20.468  36.621  1.00  0.00    -0.374 OA
ATOM     14  H   UNL     1      14.816  20.835  35.706  1.00  0.00     0.212 HD
ENDBRANCH  12  13
BRANCH  12  15
ATOM     15  C   UNL     1      13.152  18.844  37.480  1.00  0.00     0.037 C 
ATOM     16  C   UNL     1      13.912  18.662  38.829  1.00  0.00     0.007 C 
ATOM     17  C   UNL     1      11.675  18.395  37.598  1.00  0.00     0.007 C 
ATOM     18  C   UNL     1      13.305  17.570  39.732  1.00  0.00     0.000 C 
ATOM     19  C   UNL     1      11.559  16.911  38.001  1.00  0.00     0.000 C 
ATOM     20  C   UNL     1      12.711  16.426  38.905  1.00  0.00     0.000 C 
ENDBRANCH  12  15
BRANCH  12  21
ATOM     21  C   UNL     1      12.804  21.336  37.827  1.00  0.00    -0.005 A 
ATOM     22  C   UNL     1      13.713  22.295  38.324  1.00  0.00     0.007 A 
ATOM     23  C   UNL     1      11.471  21.371  38.300  1.00  0.00     0.007 A 
ATOM     24  C   UNL     1      13.300  23.269  39.235  1.00  0.00     0.000 A 
ATOM     25  C   UNL     1      11.064  22.357  39.205  1.00  0.00     0.000 A 
ATOM     26  C   UNL     1      11.976  23.303  39.671  1.00  0.00     0.000 A 
ENDBRANCH  12  21
ENDBRANCH  10  12
ENDBRANCH   9  10
ENDBRANCH   1   9
TORSDOF 10
ENDMDL
MODEL 8
REMARK VINA RESULT:    -6.484     12.442     15.747
REMARK INTER + INTRA:         -10.891
REMARK INTER:                 -10.348
REMARK INTRA:                  -0.543
REMARK UNBOUND:                -0.806
REMARK SMILES CC[N+](C)(CC)CCOC(=O)C(O)(c1ccccc1)C1CCCCC1
REMARK SMILES IDX 8 1 7 2 3 3 4 4 2 5 1 6 5 7 6 8 9 9 10 10 11 11 12 12 13 13
REMARK SMILES IDX 20 15 21 16 25 17 22 18 24 19 23 20 14 21 15 22 19 23 16 24
REMARK SMILES IDX 18 25 17 26
REMARK H PARENT 13 14
REMARK Flexibility Score: inf
ROOT
ATOM      1  C   UNL     1      25.665  22.568  35.989  1.00  0.00     0.294 C 
ENDROOT
BRANCH   1   2
ATOM      2  C   UNL     1      24.269  23.072  36.405  1.00  0.00     0.305 C 
BRANCH   2   3
ATOM      3  N   UNL     1      24.084  23.312  37.877  1.00  0.00    -0.324 N 
ATOM      4  C   UNL     1      22.963  22.474  38.386  1.00  0.00     0.334 C 
BRANCH   3   5
ATOM      5  C   UNL     1      25.304  22.949  38.674  1.00  0.00     0.260 C 
ATOM      6  C   UNL     1      25.146  23.035  40.204  1.00  0.00     0.071 C 
ENDBRANCH   3   5
BRANCH   3   7
ATOM      7  C   UNL     1      23.771  24.761  38.119  1.00  0.00     0.260 C 
ATOM      8  C   UNL     1      22.302  25.171  37.895  1.00  0.00     0.071 C 
ENDBRANCH   3   7
ENDBRANCH   2   3
ENDBRANCH   1   2
BRANCH   1   9
ATOM      9  O   UNL     1      25.621  22.139  34.633  1.00  0.00    -0.457 OA
BRANCH   9  10
ATOM     10  C   UNL     1      26.142  20.908  34.213  1.00  0.00     0.343 C 
ATOM     11  O   UNL     1      25.692  19.838  34.707  1.00  0.00    -0.248 OA
BRANCH  10  12
ATOM     12  C   UNL     1      27.297  20.886  33.216  1.00  0.00     0.190 C 
BRANCH  12  13
ATOM     13  O   UNL     1      28.495  21.062  33.945  1.00  0.00    -0.374 OA
ATOM     14  H   UNL     1      29.260  20.816  33.360  1.00  0.00     0.212 HD
ENDBRANCH  12  13
BRANCH  12  15
ATOM     15  C   UNL     1      27.217  22.070  32.188  1.00  0.00     0.037 C 
ATOM     16  C   UNL     1      28.291  22.015  31.059  1.00  0.00     0.007 C 
ATOM     17  C   UNL     1      25.795  22.266  31.607  1.00  0.00     0.007 C 
ATOM     18  C   UNL     1      27.868  22.752  29.774  1.00  0.00     0.000 C 
ATOM     19  C   UNL     1      25.685  23.573  30.795  1.00  0.00     0.000 C 
ATOM     20  C   UNL     1      26.997  23.973  30.089  1.00  0.00     0.000 C 
ENDBRANCH  12  15
BRANCH  12  21
ATOM     21  C   UNL     1      27.375  19.549  32.455  1.00  0.00    -0.005 A 
ATOM     22  C   UNL     1      28.453  18.674  32.713  1.00  0.00     0.007 A 
ATOM     23  C   UNL     1      26.433  19.176  31.467  1.00  0.00     0.007 A 
ATOM     24  C   UNL     1      28.569  17.460  32.032  1.00  0.00     0.000 A 
ATOM     25  C   UNL     1      26.552  17.954  30.798  1.00  0.00     0.000 A 
ATOM     26  C   UNL     1      27.616  17.098  31.079  1.00  0.00     0.000 A 
ENDBRANCH  12  21
ENDBRANCH  10  12
ENDBRANCH   9  10
ENDBRANCH   1   9
TORSDOF 10
ENDMDL
MODEL 9
REMARK VINA RESULT:    -6.424     15.635     17.920
REMARK INTER + INTRA:         -10.797
REMARK INTER:                  -9.603
REMARK INTRA:                  -1.194
REMARK UNBOUND:                -0.806
REMARK SMILES CC[N+](C)(CC)CCOC(=O)C(O)(c1ccccc1)C1CCCCC1
REMARK SMILES IDX 8 1 7 2 3 3 4 4 2 5 1 6 5 7 6 8 9 9 10 10 11 11 12 12 13 13
REMARK SMILES IDX 20 15 21 16 25 17 22 18 24 19 23 20 14 21 15 22 19 23 16 24
REMARK SMILES IDX 18 25 17 26
REMARK H PARENT 13 14
REMARK Flexibility Score: inf
ROOT
ATOM      1  C   UNL     1      25.568  16.784  33.042  1.00  0.00     0.294 C 
ENDROOT
BRANCH   1   2
ATOM      2  C   UNL     1      25.910  16.268  34.453  1.00  0.00     0.305 C 
BRANCH   2   3
ATOM      3  N   UNL     1      26.845  15.092  34.499  1.00  0.00    -0.324 N 
ATOM      4  C   UNL     1      26.902  14.443  33.159  1.00  0.00     0.334 C 
BRANCH   3   5
ATOM      5  C   UNL     1      28.248  15.490  34.857  1.00  0.00     0.260 C 
ATOM      6  C   UNL     1      29.322  15.151  33.805  1.00  0.00     0.071 C 
ENDBRANCH   3   5
BRANCH   3   7
ATOM      7  C   UNL     1      26.359  14.096  35.513  1.00  0.00     0.260 C 
ATOM      8  C   UNL     1      25.110  14.516  36.313  1.00  0.00     0.071 C 
ENDBRANCH   3   7
ENDBRANCH   2   3
ENDBRANCH   1   2
BRANCH   1   9
ATOM      9  O   UNL     1      26.264  18.004  32.810  1.00  0.00    -0.457 OA
BRANCH   9  10
ATOM     10  C   UNL     1      26.836  18.323  31.572  1.00  0.00     0.343 C 
ATOM     11  O   UNL     1      26.410  17.765  30.524  1.00  0.00    -0.248 OA
BRANCH  10  12
ATOM     12  C   UNL     1      28.016  19.290  31.520  1.00  0.00     0.190 C 
BRANCH  12  13
ATOM     13  O   UNL     1      28.499  19.445  32.840  1.00  0.00    -0.374 OA
ATOM     14  H   UNL     1      29.350  18.940  32.926  1.00  0.00     0.212 HD
ENDBRANCH  12  13
BRANCH  12  15
ATOM     15  C   UNL     1      27.592  20.717  31.024  1.00  0.00     0.037 C 
ATOM     16  C   UNL     1      26.050  20.940  30.951  1.00  0.00     0.007 C 
ATOM     17  C   UNL     1      28.291  21.857  31.803  1.00  0.00     0.007 C 
ATOM     18  C   UNL     1      25.638  22.420  31.071  1.00  0.00     0.000 C 
ATOM     19  C   UNL     1      28.049  23.232  31.145  1.00  0.00     0.000 C 
ATOM     20  C   UNL     1      26.683  23.345  30.439  1.00  0.00     0.000 C 
ENDBRANCH  12  15
BRANCH  12  21
ATOM     21  C   UNL     1      29.159  18.757  30.637  1.00  0.00    -0.005 A 
ATOM     22  C   UNL     1      29.819  17.566  31.013  1.00  0.00     0.007 A 
ATOM     23  C   UNL     1      29.612  19.436  29.481  1.00  0.00     0.007 A 
ATOM     24  C   UNL     1      30.872  17.059  30.248  1.00  0.00     0.000 A 
ATOM     25  C   UNL     1      30.660  18.914  28.716  1.00  0.00     0.000 A 
ATOM     26  C   UNL     1      31.288  17.729  29.097  1.00  0.00     0.000 A 
ENDBRANCH  12  21
ENDBRANCH  10  12
ENDBRANCH   9  10
ENDBRANCH   1   9
TORSDOF 10
ENDMDL
MODEL 10
REMARK VINA RESULT:    -6.400     12.533     15.735
REMARK INTER + INTRA:         -10.760
REMARK INTER:                 -10.253
REMARK INTRA:                  -0.508
REMARK UNBOUND:                -0.806
REMARK SMILES CC[N+](C)(CC)CCOC(=O)C(O)(c1ccccc1)C1CCCCC1
REMARK SMILES IDX 8 1 7 2 3 3 4 4 2 5 1 6 5 7 6 8 9 9 10 10 11 11 12 12 13 13
REMARK SMILES IDX 20 15 21 16 25 17 22 18 24 19 23 20 14 21 15 22 19 23 16 24
REMARK SMILES IDX 18 25 17 26
REMARK H PARENT 13 14
REMARK Flexibility Score: inf
ROOT
ATOM      1  C   UNL     1      25.228  22.531  35.674  1.00  0.00     0.294 C 
ENDROOT
BRANCH   1   2
ATOM      2  C   UNL     1      25.331  22.653  37.207  1.00  0.00     0.305 C 
BRANCH   2   3
ATOM      3  N   UNL     1      24.144  23.281  37.883  1.00  0.00    -0.324 N 
ATOM      4  C   UNL     1      24.245  24.765  37.799  1.00  0.00     0.334 C 
BRANCH   3   5
ATOM      5  C   UNL     1      22.846  22.890  37.239  1.00  0.00     0.260 C 
ATOM      6  C   UNL     1      21.692  22.573  38.210  1.00  0.00     0.071 C 
ENDBRANCH   3   5
BRANCH   3   7
ATOM      7  C   UNL     1      24.104  22.867  39.327  1.00  0.00     0.260 C 
ATOM      8  C   UNL     1      25.395  23.126  40.129  1.00  0.00     0.071 C 
ENDBRANCH   3   7
ENDBRANCH   2   3
ENDBRANCH   1   2
BRANCH   1   9
ATOM      9  O   UNL     1      26.466  22.051  35.160  1.00  0.00    -0.457 OA
BRANCH   9  10
ATOM     10  C   UNL     1      26.549  20.947  34.303  1.00  0.00     0.343 C 
ATOM     11  O   UNL     1      25.797  19.951  34.491  1.00  0.00    -0.248 OA
BRANCH  10  12
ATOM     12  C   UNL     1      27.600  20.937  33.196  1.00  0.00     0.190 C 
BRANCH  12  13
ATOM     13  O   UNL     1      28.864  21.099  33.806  1.00  0.00    -0.374 OA
ATOM     14  H   UNL     1      29.473  20.392  33.464  1.00  0.00     0.212 HD
ENDBRANCH  12  13
BRANCH  12  15
ATOM     15  C   UNL     1      27.423  22.137  32.199  1.00  0.00     0.037 C 
ATOM     16  C   UNL     1      28.315  22.050  30.924  1.00  0.00     0.007 C 
ATOM     17  C   UNL     1      25.942  22.403  31.836  1.00  0.00     0.007 C 
ATOM     18  C   UNL     1      27.741  22.822  29.720  1.00  0.00     0.000 C 
ATOM     19  C   UNL     1      25.772  23.724  31.057  1.00  0.00     0.000 C 
ATOM     20  C   UNL     1      26.982  24.075  30.168  1.00  0.00     0.000 C 
ENDBRANCH  12  15
BRANCH  12  21
ATOM     21  C   UNL     1      27.597  19.613  32.411  1.00  0.00    -0.005 A 
ATOM     22  C   UNL     1      26.573  19.376  31.468  1.00  0.00     0.007 A 
ATOM     23  C   UNL     1      28.555  18.594  32.627  1.00  0.00     0.007 A 
ATOM     24  C   UNL     1      26.525  18.180  30.748  1.00  0.00     0.000 A 
ATOM     25  C   UNL     1      28.505  17.405  31.893  1.00  0.00     0.000 A 
ATOM     26  C   UNL     1      27.493  17.198  30.956  1.00  0.00     0.000 A 
ENDBRANCH  12  21
ENDBRANCH  10  12
ENDBRANCH   9  10
ENDBRANCH   1   9
TORSDOF 10
ENDMDL
MODEL 11
REMARK VINA RESULT:    -6.302      4.371      8.085
REMARK INTER + INTRA:         -10.608
REMARK INTER:                  -9.577
REMARK INTRA:                  -1.030
REMARK UNBOUND:                -0.806
REMARK SMILES CC[N+](C)(CC)CCOC(=O)C(O)(c1ccccc1)C1CCCCC1
REMARK SMILES IDX 8 1 7 2 3 3 4 4 2 5 1 6 5 7 6 8 9 9 10 10 11 11 12 12 13 13
REMARK SMILES IDX 20 15 21 16 25 17 22 18 24 19 23 20 14 21 15 22 19 23 16 24
REMARK SMILES IDX 18 25 17 26
REMARK H PARENT 13 14
REMARK Flexibility Score: inf
ROOT
ATOM      1  C   UNL     1      10.146  20.792  35.552  1.00  0.00     0.294 C 
ENDROOT
BRANCH   1   2
ATOM      2  C   UNL     1       9.708  21.161  34.121  1.00  0.00     0.305 C 
BRANCH   2   3
ATOM      3  N   UNL     1       9.345  19.999  33.240  1.00  0.00    -0.324 N 
ATOM      4  C   UNL     1      10.429  18.978  33.282  1.00  0.00     0.334 C 
BRANCH   3   5
ATOM      5  C   UNL     1       8.081  19.320  33.681  1.00  0.00     0.260 C 
ATOM      6  C   UNL     1       8.240  17.858  34.143  1.00  0.00     0.071 C 
ENDBRANCH   3   5
BRANCH   3   7
ATOM      7  C   UNL     1       9.164  20.471  31.825  1.00  0.00     0.260 C 
ATOM      8  C   UNL     1       7.833  20.074  31.156  1.00  0.00     0.071 C 
ENDBRANCH   3   7
ENDBRANCH   2   3
ENDBRANCH   1   2
BRANCH   1   9
ATOM      9  O   UNL     1      11.399  21.407  35.830  1.00  0.00    -0.457 OA
BRANCH   9  10
ATOM     10  C   UNL     1      12.589  20.677  35.943  1.00  0.00     0.343 C 
ATOM     11  O   UNL     1      13.065  20.096  34.929  1.00  0.00    -0.248 OA
BRANCH  10  12
ATOM     12  C   UNL     1      13.255  20.538  37.309  1.00  0.00     0.190 C 
BRANCH  12  13
ATOM     13  O   UNL     1      14.652  20.478  37.099  1.00  0.00    -0.374 OA
ATOM     14  H   UNL     1      15.108  20.850  37.900  1.00  0.00     0.212 HD
ENDBRANCH  12  13
BRANCH  12  15
ATOM     15  C   UNL     1      12.850  19.206  38.034  1.00  0.00     0.037 C 
ATOM     16  C   UNL     1      12.086  18.190  37.130  1.00  0.00     0.007 C 
ATOM     17  C   UNL     1      14.038  18.533  38.762  1.00  0.00     0.007 C 
ATOM     18  C   UNL     1      12.228  16.728  37.596  1.00  0.00     0.000 C 
ATOM     19  C   UNL     1      13.573  17.368  39.661  1.00  0.00     0.000 C 
ATOM     20  C   UNL     1      12.328  16.633  39.122  1.00  0.00     0.000 C 
ENDBRANCH  12  15
BRANCH  12  21
ATOM     21  C   UNL     1      12.945  21.737  38.225  1.00  0.00    -0.005 A 
ATOM     22  C   UNL     1      13.795  22.864  38.191  1.00  0.00     0.007 A 
ATOM     23  C   UNL     1      11.867  21.740  39.141  1.00  0.00     0.007 A 
ATOM     24  C   UNL     1      13.558  23.965  39.018  1.00  0.00     0.000 A 
ATOM     25  C   UNL     1      11.631  22.851  39.957  1.00  0.00     0.000 A 
ATOM     26  C   UNL     1      12.474  23.960  39.897  1.00  0.00     0.000 A 
ENDBRANCH  12  21
ENDBRANCH  10  12
ENDBRANCH   9  10
ENDBRANCH   1   9
TORSDOF 10
ENDMDL
MODEL 12
REMARK VINA RESULT:    -6.290     15.590     18.119
REMARK INTER + INTRA:         -10.589
REMARK INTER:                  -9.491
REMARK INTRA:                  -1.098
REMARK UNBOUND:                -0.806
REMARK SMILES CC[N+](C)(CC)CCOC(=O)C(O)(c1ccccc1)C1CCCCC1
REMARK SMILES IDX 8 1 7 2 3 3 4 4 2 5 1 6 5 7 6 8 9 9 10 10 11 11 12 12 13 13
REMARK SMILES IDX 20 15 21 16 25 17 22 18 24 19 23 20 14 21 15 22 19 23 16 24
REMARK SMILES IDX 18 25 17 26
REMARK H PARENT 13 14
REMARK Flexibility Score: inf
ROOT
ATOM      1  C   UNL     1      29.362  18.693  29.159  1.00  0.00     0.294 C 
ENDROOT
BRANCH   1   2
ATOM      2  C   UNL     1      30.488  17.998  29.950  1.00  0.00     0.305 C 
BRANCH   2   3
ATOM      3  N   UNL     1      30.116  16.685  30.580  1.00  0.00    -0.324 N 
ATOM      4  C   UNL     1      31.114  15.646  30.200  1.00  0.00     0.334 C 
BRANCH   3   5
ATOM      5  C   UNL     1      30.100  16.754  32.080  1.00  0.00     0.260 C 
ATOM      6  C   UNL     1      31.172  15.909  32.794  1.00  0.00     0.071 C 
ENDBRANCH   3   5
BRANCH   3   7
ATOM      7  C   UNL     1      28.755  16.263  30.107  1.00  0.00     0.260 C 
ATOM      8  C   UNL     1      28.363  14.806  30.425  1.00  0.00     0.071 C 
ENDBRANCH   3   7
ENDBRANCH   2   3
ENDBRANCH   1   2
BRANCH   1   9
ATOM      9  O   UNL     1      29.382  20.087  29.446  1.00  0.00    -0.457 OA
BRANCH   9  10
ATOM     10  C   UNL     1      28.224  20.808  29.765  1.00  0.00     0.343 C 
ATOM     11  O   UNL     1      27.305  20.925  28.908  1.00  0.00    -0.248 OA
BRANCH  10  12
ATOM     12  C   UNL     1      28.124  21.501  31.121  1.00  0.00     0.190 C 
BRANCH  12  13
ATOM     13  O   UNL     1      29.422  21.533  31.680  1.00  0.00    -0.374 OA
ATOM     14  H   UNL     1      29.341  21.474  32.669  1.00  0.00     0.212 HD
ENDBRANCH  12  13
BRANCH  12  15
ATOM     15  C   UNL     1      27.219  20.706  32.127  1.00  0.00     0.037 C 
ATOM     16  C   UNL     1      27.390  19.157  32.060  1.00  0.00     0.007 C 
ATOM     17  C   UNL     1      27.336  21.225  33.581  1.00  0.00     0.007 C 
ATOM     18  C   UNL     1      27.016  18.441  33.372  1.00  0.00     0.000 C 
ATOM     19  C   UNL     1      26.268  20.597  34.500  1.00  0.00     0.000 C 
ATOM     20  C   UNL     1      25.875  19.161  34.098  1.00  0.00     0.000 C 
ENDBRANCH  12  15
BRANCH  12  21
ATOM     21  C   UNL     1      27.606  22.945  30.993  1.00  0.00    -0.005 A 
ATOM     22  C   UNL     1      26.247  23.160  30.676  1.00  0.00     0.007 A 
ATOM     23  C   UNL     1      28.446  24.074  31.135  1.00  0.00     0.007 A 
ATOM     24  C   UNL     1      25.741  24.455  30.534  1.00  0.00     0.000 A 
ATOM     25  C   UNL     1      27.928  25.366  31.002  1.00  0.00     0.000 A 
ATOM     26  C   UNL     1      26.580  25.557  30.703  1.00  0.00     0.000 A 
ENDBRANCH  12  21
ENDBRANCH  10  12
ENDBRANCH   9  10
ENDBRANCH   1   9
TORSDOF 10
ENDMDL
MODEL 13
REMARK VINA RESULT:    -6.149     15.827     18.234
REMARK INTER + INTRA:         -10.370
REMARK INTER:                  -9.416
REMARK INTRA:                  -0.953
REMARK UNBOUND:                -0.806
REMARK SMILES CC[N+](C)(CC)CCOC(=O)C(O)(c1ccccc1)C1CCCCC1
REMARK SMILES IDX 8 1 7 2 3 3 4 4 2 5 1 6 5 7 6 8 9 9 10 10 11 11 12 12 13 13
REMARK SMILES IDX 20 15 21 16 25 17 22 18 24 19 23 20 14 21 15 22 19 23 16 24
REMARK SMILES IDX 18 25 17 26
REMARK H PARENT 13 14
REMARK Flexibility Score: inf
ROOT
ATOM      1  C   UNL     1      30.032  18.910  29.137  1.00  0.00     0.294 C 
ENDROOT
BRANCH   1   2
ATOM      2  C   UNL     1      30.309  17.951  30.311  1.00  0.00     0.305 C 
BRANCH   2   3
ATOM      3  N   UNL     1      29.551  16.654  30.274  1.00  0.00    -0.324 N 
ATOM      4  C   UNL     1      30.400  15.594  29.658  1.00  0.00     0.334 C 
BRANCH   3   5
ATOM      5  C   UNL     1      29.171  16.173  31.644  1.00  0.00     0.260 C 
ATOM      6  C   UNL     1      30.125  15.139  32.273  1.00  0.00     0.071 C 
ENDBRANCH   3   5
BRANCH   3   7
ATOM      7  C   UNL     1      28.299  16.820  29.462  1.00  0.00     0.260 C 
ATOM      8  C   UNL     1      27.212  15.751  29.689  1.00  0.00     0.071 C 
ENDBRANCH   3   7
ENDBRANCH   2   3
ENDBRANCH   1   2
BRANCH   1   9
ATOM      9  O   UNL     1      29.851  20.228  29.643  1.00  0.00    -0.457 OA
BRANCH   9  10
ATOM     10  C   UNL     1      28.926  21.126  29.097  1.00  0.00     0.343 C 
ATOM     11  O   UNL     1      29.220  21.768  28.051  1.00  0.00    -0.248 OA
BRANCH  10  12
ATOM     12  C   UNL     1      27.601  21.366  29.817  1.00  0.00     0.190 C 
BRANCH  12  13
ATOM     13  O   UNL     1      26.567  20.907  28.970  1.00  0.00    -0.374 OA
ATOM     14  H   UNL     1      26.560  21.466  28.148  1.00  0.00     0.212 HD
ENDBRANCH  12  13
BRANCH  12  15
ATOM     15  C   UNL     1      27.333  22.892  30.071  1.00  0.00     0.037 C 
ATOM     16  C   UNL     1      25.896  23.214  30.584  1.00  0.00     0.007 C 
ATOM     17  C   UNL     1      28.413  23.551  30.963  1.00  0.00     0.007 C 
ATOM     18  C   UNL     1      25.812  24.525  31.389  1.00  0.00     0.000 C 
ATOM     19  C   UNL     1      28.264  25.087  31.000  1.00  0.00     0.000 C 
ATOM     20  C   UNL     1      26.805  25.568  30.867  1.00  0.00     0.000 C 
ENDBRANCH  12  15
BRANCH  12  21
ATOM     21  C   UNL     1      27.524  20.601  31.150  1.00  0.00    -0.005 A 
ATOM     22  C   UNL     1      26.731  19.434  31.227  1.00  0.00     0.007 A 
ATOM     23  C   UNL     1      28.179  21.042  32.324  1.00  0.00     0.007 A 
ATOM     24  C   UNL     1      26.621  18.721  32.423  1.00  0.00     0.000 A 
ATOM     25  C   UNL     1      28.071  20.315  33.514  1.00  0.00     0.000 A 
ATOM     26  C   UNL     1      27.295  19.158  33.564  1.00  0.00     0.000 A 
ENDBRANCH  12  21
ENDBRANCH  10  12
ENDBRANCH   9  10
ENDBRANCH   1   9
TORSDOF 10
ENDMDL
MODEL 14
REMARK VINA RESULT:    -6.084      5.889      9.351
REMARK INTER + INTRA:         -10.269
REMARK INTER:                  -9.154
REMARK INTRA:                  -1.115
REMARK UNBOUND:                -0.806
REMARK SMILES CC[N+](C)(CC)CCOC(=O)C(O)(c1ccccc1)C1CCCCC1
REMARK SMILES IDX 8 1 7 2 3 3 4 4 2 5 1 6 5 7 6 8 9 9 10 10 11 11 12 12 13 13
REMARK SMILES IDX 20 15 21 16 25 17 22 18 24 19 23 20 14 21 15 22 19 23 16 24
REMARK SMILES IDX 18 25 17 26
REMARK H PARENT 13 14
REMARK Flexibility Score: inf
ROOT
ATOM      1  C   UNL     1      10.670  20.199  42.497  1.00  0.00     0.294 C 
ENDROOT
BRANCH   1   2
ATOM      2  C   UNL     1      10.997  21.352  43.465  1.00  0.00     0.305 C 
BRANCH   2   3
ATOM      3  N   UNL     1      11.030  20.980  44.920  1.00  0.00    -0.324 N 
ATOM      4  C   UNL     1      10.017  19.921  45.192  1.00  0.00     0.334 C 
BRANCH   3   5
ATOM      5  C   UNL     1      12.363  20.433  45.341  1.00  0.00     0.260 C 
ATOM      6  C   UNL     1      12.354  18.976  45.841  1.00  0.00     0.071 C 
ENDBRANCH   3   5
BRANCH   3   7
ATOM      7  C   UNL     1      10.723  22.187  45.761  1.00  0.00     0.260 C 
ATOM      8  C   UNL     1      10.541  21.919  47.268  1.00  0.00     0.071 C 
ENDBRANCH   3   7
ENDBRANCH   2   3
ENDBRANCH   1   2
BRANCH   1   9
ATOM      9  O   UNL     1      11.816  19.920  41.699  1.00  0.00    -0.457 OA
BRANCH   9  10
ATOM     10  C   UNL     1      12.309  18.623  41.515  1.00  0.00     0.343 C 
ATOM     11  O   UNL     1      12.331  17.818  42.487  1.00  0.00    -0.248 OA
BRANCH  10  12
ATOM     12  C   UNL     1      12.878  18.225  40.155  1.00  0.00     0.190 C 
BRANCH  12  13
ATOM     13  O   UNL     1      14.103  17.557  40.385  1.00  0.00    -0.374 OA
ATOM     14  H   UNL     1      14.204  17.410  41.363  1.00  0.00     0.212 HD
ENDBRANCH  12  13
BRANCH  12  15
ATOM     15  C   UNL     1      13.205  19.473  39.261  1.00  0.00     0.037 C 
ATOM     16  C   UNL     1      14.527  19.347  38.443  1.00  0.00     0.007 C 
ATOM     17  C   UNL     1      12.020  19.893  38.359  1.00  0.00     0.007 C 
ATOM     18  C   UNL     1      14.544  20.216  37.170  1.00  0.00     0.000 C 
ATOM     19  C   UNL     1      12.275  21.253  37.676  1.00  0.00     0.000 C 
ATOM     20  C   UNL     1      13.763  21.519  37.370  1.00  0.00     0.000 C 
ENDBRANCH  12  15
BRANCH  12  21
ATOM     21  C   UNL     1      11.935  17.277  39.391  1.00  0.00    -0.005 A 
ATOM     22  C   UNL     1      10.549  17.330  39.654  1.00  0.00     0.007 A 
ATOM     23  C   UNL     1      12.404  16.317  38.464  1.00  0.00     0.007 A 
ATOM     24  C   UNL     1       9.662  16.476  38.994  1.00  0.00     0.000 A 
ATOM     25  C   UNL     1      11.507  15.474  37.800  1.00  0.00     0.000 A 
ATOM     26  C   UNL     1      10.140  15.552  38.064  1.00  0.00     0.000 A 
ENDBRANCH  12  21
ENDBRANCH  10  12
ENDBRANCH   9  10
ENDBRANCH   1   9
TORSDOF 10
ENDMDL
MODEL 15
REMARK VINA RESULT:    -6.080     15.691     17.908
REMARK INTER + INTRA:         -10.262
REMARK INTER:                  -9.704
REMARK INTRA:                  -0.558
REMARK UNBOUND:                -0.806
REMARK SMILES CC[N+](C)(CC)CCOC(=O)C(O)(c1ccccc1)C1CCCCC1
REMARK SMILES IDX 8 1 7 2 3 3 4 4 2 5 1 6 5 7 6 8 9 9 10 10 11 11 12 12 13 13
REMARK SMILES IDX 20 15 21 16 25 17 22 18 24 19 23 20 14 21 15 22 19 23 16 24
REMARK SMILES IDX 18 25 17 26
REMARK H PARENT 13 14
REMARK Flexibility Score: inf
ROOT
ATOM      1  C   UNL     1      25.478  16.497  33.218  1.00  0.00     0.294 C 
ENDROOT
BRANCH   1   2
ATOM      2  C   UNL     1      26.290  15.956  34.411  1.00  0.00     0.305 C 
BRANCH   2   3
ATOM      3  N   UNL     1      26.632  14.494  34.347  1.00  0.00    -0.324 N 
ATOM      4  C   UNL     1      26.365  13.976  32.976  1.00  0.00     0.334 C 
BRANCH   3   5
ATOM      5  C   UNL     1      28.080  14.231  34.644  1.00  0.00     0.260 C 
ATOM      6  C   UNL     1      29.071  15.270  34.086  1.00  0.00     0.071 C 
ENDBRANCH   3   5
BRANCH   3   7
ATOM      7  C   UNL     1      25.796  13.733  35.336  1.00  0.00     0.260 C 
ATOM      8  C   UNL     1      25.450  14.488  36.635  1.00  0.00     0.071 C 
ENDBRANCH   3   7
ENDBRANCH   2   3
ENDBRANCH   1   2
BRANCH   1   9
ATOM      9  O   UNL     1      26.363  17.125  32.297  1.00  0.00    -0.457 OA
BRANCH   9  10
ATOM     10  C   UNL     1      26.614  18.503  32.312  1.00  0.00     0.343 C 
ATOM     11  O   UNL     1      26.587  19.131  33.406  1.00  0.00    -0.248 OA
BRANCH  10  12
ATOM     12  C   UNL     1      26.846  19.235  30.993  1.00  0.00     0.190 C 
BRANCH  12  13
ATOM     13  O   UNL     1      25.748  18.952  30.149  1.00  0.00    -0.374 OA
ATOM     14  H   UNL     1      25.097  18.395  30.653  1.00  0.00     0.212 HD
ENDBRANCH  12  13
BRANCH  12  15
ATOM     15  C   UNL     1      28.130  18.724  30.249  1.00  0.00     0.037 C 
ATOM     16  C   UNL     1      28.736  19.746  29.239  1.00  0.00     0.007 C 
ATOM     17  C   UNL     1      29.208  18.178  31.216  1.00  0.00     0.007 C 
ATOM     18  C   UNL     1      30.242  19.539  28.987  1.00  0.00     0.000 C 
ATOM     19  C   UNL     1      30.348  17.465  30.459  1.00  0.00     0.000 C 
ATOM     20  C   UNL     1      30.625  18.058  29.063  1.00  0.00     0.000 C 
ENDBRANCH  12  15
BRANCH  12  21
ATOM     21  C   UNL     1      26.937  20.760  31.189  1.00  0.00    -0.005 A 
ATOM     22  C   UNL     1      25.844  21.567  30.806  1.00  0.00     0.007 A 
ATOM     23  C   UNL     1      28.094  21.397  31.696  1.00  0.00     0.007 A 
ATOM     24  C   UNL     1      25.894  22.956  30.952  1.00  0.00     0.000 A 
ATOM     25  C   UNL     1      28.130  22.787  31.848  1.00  0.00     0.000 A 
ATOM     26  C   UNL     1      27.033  23.564  31.478  1.00  0.00     0.000 A 
ENDBRANCH  12  21
ENDBRANCH  10  12
ENDBRANCH   9  10
ENDBRANCH   1   9
TORSDOF 10
ENDMDL
