MODEL 1
REMARK VINA RESULT:    -8.108      0.000      0.000
REMARK INTER + INTRA:          -8.553
REMARK INTER:                  -9.056
REMARK INTRA:                   0.504
REMARK UNBOUND:                 0.504
REMARK SMILES CC(=O)S[C@@H]1CC2=CC(=O)CC[C@]2(C)[C@H]2CC[C@@]3(C)[C@@H](CC[C@@]34CCC(=O)O4)[C@H]12
REMARK SMILES IDX 4 1 5 2 20 3 21 4 18 5 29 6 22 7 23 8 19 9 17 10 15 11 24 12
REMARK SMILES IDX 28 13 16 14 13 15 6 16 25 17 26 18 7 19 12 20 14 21 27 22
REMARK SMILES IDX 8 23 11 24 9 25 10 26 2 27 1 28 3 29
REMARK H PARENT
REMARK Flexibility Score: inf
ROOT
ATOM      1  S   UNL     1      12.520  79.014   1.047  1.00  0.00    -0.085 SA
ENDROOT
BRANCH   1   2
ATOM      2  C   UNL     1      13.171  77.797  -0.205  1.00  0.00     0.062 C 
ATOM      3  C   UNL     1      10.801  76.848  -0.539  1.00  0.00     0.003 C 
ATOM      4  C   UNL     1      10.936  75.640   0.385  1.00  0.00     0.009 C 
ATOM      5  C   UNL     1       9.699  76.464  -1.527  1.00  0.00     0.011 C 
ATOM      6  C   UNL     1      12.098  77.358  -1.229  1.00  0.00     0.011 C 
ATOM      7  C   UNL     1       9.548  74.991   0.405  1.00  0.00     0.050 C 
ATOM      8  C   UNL     1       8.657  75.808  -0.567  1.00  0.00     0.118 C 
ATOM      9  C   UNL     1      10.147  75.383  -2.574  1.00  0.00     0.016 C 
ATOM     10  C   UNL     1       9.290  77.762  -2.266  1.00  0.00     0.011 C 
ATOM     11  C   UNL     1      11.799  78.529  -2.229  1.00  0.00     0.003 C 
ATOM     12  C   UNL     1       7.728  76.760   0.250  1.00  0.00     0.061 C 
ATOM     13  O   UNL     1       7.753  74.943  -1.250  1.00  0.00    -0.458 OA
ATOM     14  C   UNL     1      10.477  78.344  -3.066  1.00  0.00     0.005 C 
ATOM     15  C   UNL     1      13.060  78.827  -3.129  1.00  0.00    -0.008 C 
ATOM     16  C   UNL     1      14.470  78.341  -0.870  1.00  0.00     0.047 C 
ATOM     17  C   UNL     1       6.406  75.994   0.403  1.00  0.00     0.127 C 
ATOM     18  C   UNL     1       6.492  75.007  -0.692  1.00  0.00     0.306 C 
ATOM     19  C   UNL     1      14.334  78.925  -2.272  1.00  0.00    -0.059 C 
ATOM     20  C   UNL     1      12.869  80.201  -3.858  1.00  0.00     0.019 C 
ATOM     21  C   UNL     1      13.285  77.714  -4.205  1.00  0.00     0.016 C 
ATOM     22  O   UNL     1       5.510  74.330  -1.103  1.00  0.00    -0.252 OA
ATOM     23  C   UNL     1      15.416  79.558  -2.761  1.00  0.00     0.047 C 
ATOM     24  C   UNL     1      14.077  80.574  -4.737  1.00  0.00     0.081 C 
ATOM     25  C   UNL     1      15.373  80.290  -4.042  1.00  0.00     0.155 C 
ATOM     26  O   UNL     1      16.447  80.710  -4.543  1.00  0.00    -0.295 OA
ENDBRANCH   1   2
BRANCH   1  27
ATOM     27  C   UNL     1      13.457  80.417   0.392  1.00  0.00     0.186 C 
ATOM     28  C   UNL     1      12.786  81.428  -0.496  1.00  0.00     0.101 C 
ATOM     29  O   UNL     1      14.642  80.538   0.676  1.00  0.00    -0.288 OA
ENDBRANCH   1  27
TORSDOF 2
ENDMDL
MODEL 2
REMARK VINA RESULT:    -7.477      2.346      7.553
REMARK INTER + INTRA:          -7.848
REMARK INTER:                  -7.589
REMARK INTRA:                  -0.259
REMARK UNBOUND:                 0.504
REMARK SMILES CC(=O)S[C@@H]1CC2=CC(=O)CC[C@]2(C)[C@H]2CC[C@@]3(C)[C@@H](CC[C@@]34CCC(=O)O4)[C@H]12
REMARK SMILES IDX 4 1 5 2 20 3 21 4 18 5 29 6 22 7 23 8 19 9 17 10 15 11 24 12
REMARK SMILES IDX 28 13 16 14 13 15 6 16 25 17 26 18 7 19 12 20 14 21 27 22
REMARK SMILES IDX 8 23 11 24 9 25 10 26 2 27 1 28 3 29
REMARK H PARENT
REMARK Flexibility Score: inf
ROOT
ATOM      1  S   UNL     1      10.138  76.020  -2.888  1.00  0.00    -0.085 SA
ENDROOT
BRANCH   1   2
ATOM      2  C   UNL     1      10.471  76.956  -1.312  1.00  0.00     0.062 C 
ATOM      3  C   UNL     1      12.247  78.379  -2.514  1.00  0.00     0.003 C 
ATOM      4  C   UNL     1      13.476  77.597  -2.055  1.00  0.00     0.009 C 
ATOM      5  C   UNL     1      12.771  79.781  -2.831  1.00  0.00     0.011 C 
ATOM      6  C   UNL     1      11.016  78.381  -1.565  1.00  0.00     0.011 C 
ATOM      7  C   UNL     1      14.660  78.247  -2.778  1.00  0.00     0.050 C 
ATOM      8  C   UNL     1      14.090  79.438  -3.593  1.00  0.00     0.118 C 
ATOM      9  C   UNL     1      13.147  80.611  -1.552  1.00  0.00     0.016 C 
ATOM     10  C   UNL     1      11.650  80.510  -3.611  1.00  0.00     0.011 C 
ATOM     11  C   UNL     1       9.871  79.307  -2.105  1.00  0.00     0.003 C 
ATOM     12  C   UNL     1      13.973  79.036  -5.096  1.00  0.00     0.061 C 
ATOM     13  O   UNL     1      15.018  80.520  -3.594  1.00  0.00    -0.458 OA
ATOM     14  C   UNL     1      10.375  80.653  -2.750  1.00  0.00     0.005 C 
ATOM     15  C   UNL     1       8.767  79.529  -0.999  1.00  0.00    -0.008 C 
ATOM     16  C   UNL     1       9.217  76.931  -0.388  1.00  0.00     0.047 C 
ATOM     17  C   UNL     1      15.265  79.547  -5.749  1.00  0.00     0.127 C 
ATOM     18  C   UNL     1      15.714  80.572  -4.785  1.00  0.00     0.306 C 
ATOM     19  C   UNL     1       8.363  78.193  -0.351  1.00  0.00    -0.059 C 
ATOM     20  C   UNL     1       7.486  80.147  -1.656  1.00  0.00     0.019 C 
ATOM     21  C   UNL     1       9.264  80.487   0.134  1.00  0.00     0.016 C 
ATOM     22  O   UNL     1      16.603  81.430  -5.040  1.00  0.00    -0.252 OA
ATOM     23  C   UNL     1       7.189  78.100   0.300  1.00  0.00     0.047 C 
ATOM     24  C   UNL     1       6.352  80.369  -0.638  1.00  0.00     0.081 C 
ATOM     25  C   UNL     1       6.206  79.201   0.288  1.00  0.00     0.155 C 
ATOM     26  O   UNL     1       5.210  79.139   1.052  1.00  0.00    -0.295 OA
ENDBRANCH   1   2
BRANCH   1  27
ATOM     27  C   UNL     1       9.448  74.568  -2.056  1.00  0.00     0.186 C 
ATOM     28  C   UNL     1       7.999  74.207  -2.238  1.00  0.00     0.101 C 
ATOM     29  O   UNL     1      10.167  73.881  -1.343  1.00  0.00    -0.288 OA
ENDBRANCH   1  27
TORSDOF 2
ENDMDL
MODEL 3
REMARK VINA RESULT:    -6.591      2.860      7.235
REMARK INTER + INTRA:          -6.859
REMARK INTER:                  -6.780
REMARK INTRA:                  -0.079
REMARK UNBOUND:                 0.504
REMARK SMILES CC(=O)S[C@@H]1CC2=CC(=O)CC[C@]2(C)[C@H]2CC[C@@]3(C)[C@@H](CC[C@@]34CCC(=O)O4)[C@H]12
REMARK SMILES IDX 4 1 5 2 20 3 21 4 18 5 29 6 22 7 23 8 19 9 17 10 15 11 24 12
REMARK SMILES IDX 28 13 16 14 13 15 6 16 25 17 26 18 7 19 12 20 14 21 27 22
REMARK SMILES IDX 8 23 11 24 9 25 10 26 2 27 1 28 3 29
REMARK H PARENT
REMARK Flexibility Score: inf
ROOT
ATOM      1  S   UNL     1       7.146  76.126   0.383  1.00  0.00    -0.085 SA
ENDROOT
BRANCH   1   2
ATOM      2  C   UNL     1       7.603  76.137  -1.424  1.00  0.00     0.062 C 
ATOM      3  C   UNL     1       9.114  78.186  -1.047  1.00  0.00     0.003 C 
ATOM      4  C   UNL     1       8.126  79.253  -1.513  1.00  0.00     0.009 C 
ATOM      5  C   UNL     1      10.493  78.818  -1.240  1.00  0.00     0.011 C 
ATOM      6  C   UNL     1       8.986  76.776  -1.689  1.00  0.00     0.011 C 
ATOM      7  C   UNL     1       8.825  80.591  -1.252  1.00  0.00     0.050 C 
ATOM      8  C   UNL     1      10.236  80.260  -0.698  1.00  0.00     0.118 C 
ATOM      9  C   UNL     1      10.922  78.932  -2.746  1.00  0.00     0.016 C 
ATOM     10  C   UNL     1      11.504  77.926  -0.480  1.00  0.00     0.011 C 
ATOM     11  C   UNL     1      10.125  75.814  -1.203  1.00  0.00     0.003 C 
ATOM     12  C   UNL     1      10.252  80.463   0.849  1.00  0.00     0.061 C 
ATOM     13  O   UNL     1      11.187  81.204  -1.182  1.00  0.00    -0.458 OA
ATOM     14  C   UNL     1      11.538  76.498  -1.069  1.00  0.00     0.005 C 
ATOM     15  C   UNL     1      10.156  74.502  -2.080  1.00  0.00    -0.008 C 
ATOM     16  C   UNL     1       7.458  74.709  -2.031  1.00  0.00     0.047 C 
ATOM     17  C   UNL     1      10.790  81.886   1.060  1.00  0.00     0.127 C 
ATOM     18  C   UNL     1      11.481  82.148  -0.219  1.00  0.00     0.306 C 
ATOM     19  C   UNL     1       8.743  73.916  -2.239  1.00  0.00    -0.059 C 
ATOM     20  C   UNL     1      11.043  73.421  -1.372  1.00  0.00     0.019 C 
ATOM     21  C   UNL     1      10.734  74.770  -3.509  1.00  0.00     0.016 C 
ATOM     22  O   UNL     1      12.286  83.103  -0.396  1.00  0.00    -0.252 OA
ATOM     23  C   UNL     1       8.596  72.624  -2.587  1.00  0.00     0.047 C 
ATOM     24  C   UNL     1      11.100  72.099  -2.159  1.00  0.00     0.081 C 
ATOM     25  C   UNL     1       9.750  71.709  -2.679  1.00  0.00     0.155 C 
ATOM     26  O   UNL     1       9.587  70.567  -3.178  1.00  0.00    -0.295 OA
ENDBRANCH   1   2
BRANCH   1  27
ATOM     27  C   UNL     1       5.812  74.918   0.191  1.00  0.00     0.186 C 
ATOM     28  C   UNL     1       4.478  75.341  -0.359  1.00  0.00     0.101 C 
ATOM     29  O   UNL     1       6.003  73.752   0.513  1.00  0.00    -0.288 OA
ENDBRANCH   1  27
TORSDOF 2
ENDMDL
MODEL 4
REMARK VINA RESULT:    -6.550      1.850      7.482
REMARK INTER + INTRA:          -6.813
REMARK INTER:                  -7.530
REMARK INTRA:                   0.718
REMARK UNBOUND:                 0.504
REMARK SMILES CC(=O)S[C@@H]1CC2=CC(=O)CC[C@]2(C)[C@H]2CC[C@@]3(C)[C@@H](CC[C@@]34CCC(=O)O4)[C@H]12
REMARK SMILES IDX 4 1 5 2 20 3 21 4 18 5 29 6 22 7 23 8 19 9 17 10 15 11 24 12
REMARK SMILES IDX 28 13 16 14 13 15 6 16 25 17 26 18 7 19 12 20 14 21 27 22
REMARK SMILES IDX 8 23 11 24 9 25 10 26 2 27 1 28 3 29
REMARK H PARENT
REMARK Flexibility Score: inf
ROOT
ATOM      1  S   UNL     1      11.767  81.549  -1.259  1.00  0.00    -0.085 SA
ENDROOT
BRANCH   1   2
ATOM      2  C   UNL     1      10.925  80.469  -2.523  1.00  0.00     0.062 C 
ATOM      3  C   UNL     1      13.153  80.168  -3.775  1.00  0.00     0.003 C 
ATOM      4  C   UNL     1      12.926  81.230  -4.849  1.00  0.00     0.009 C 
ATOM      5  C   UNL     1      14.158  79.195  -4.394  1.00  0.00     0.011 C 
ATOM      6  C   UNL     1      11.892  79.467  -3.197  1.00  0.00     0.011 C 
ATOM      7  C   UNL     1      14.231  81.279  -5.650  1.00  0.00     0.050 C 
ATOM      8  C   UNL     1      15.163  80.189  -5.057  1.00  0.00     0.118 C 
ATOM      9  C   UNL     1      13.542  78.297  -5.525  1.00  0.00     0.016 C 
ATOM     10  C   UNL     1      14.676  78.297  -3.244  1.00  0.00     0.011 C 
ATOM     11  C   UNL     1      12.274  78.328  -2.188  1.00  0.00     0.003 C 
ATOM     12  C   UNL     1      16.231  80.858  -4.136  1.00  0.00     0.061 C 
ATOM     13  O   UNL     1      15.930  79.582  -6.094  1.00  0.00    -0.458 OA
ATOM     14  C   UNL     1      13.527  77.475  -2.619  1.00  0.00     0.005 C 
ATOM     15  C   UNL     1      11.014  77.443  -1.845  1.00  0.00    -0.008 C 
ATOM     16  C   UNL     1       9.665  79.789  -1.908  1.00  0.00     0.047 C 
ATOM     17  C   UNL     1      17.463  81.055  -5.030  1.00  0.00     0.127 C 
ATOM     18  C   UNL     1      17.215  80.085  -6.117  1.00  0.00     0.306 C 
ATOM     19  C   UNL     1       9.801  78.326  -1.503  1.00  0.00    -0.059 C 
ATOM     20  C   UNL     1      11.324  76.554  -0.593  1.00  0.00     0.019 C 
ATOM     21  C   UNL     1      10.615  76.512  -3.038  1.00  0.00     0.016 C 
ATOM     22  O   UNL     1      18.094  79.723  -6.945  1.00  0.00    -0.252 OA
ATOM     23  C   UNL     1       8.776  77.803  -0.806  1.00  0.00     0.047 C 
ATOM     24  C   UNL     1      10.127  75.678  -0.182  1.00  0.00     0.081 C 
ATOM     25  C   UNL     1       8.841  76.445  -0.231  1.00  0.00     0.155 C 
ATOM     26  O   UNL     1       7.799  75.935   0.254  1.00  0.00    -0.295 OA
ENDBRANCH   1   2
BRANCH   1  27
ATOM     27  C   UNL     1      11.086  80.667   0.167  1.00  0.00     0.186 C 
ATOM     28  C   UNL     1       9.739  81.044   0.720  1.00  0.00     0.101 C 
ATOM     29  O   UNL     1      11.729  79.760   0.680  1.00  0.00    -0.288 OA
ENDBRANCH   1  27
TORSDOF 2
ENDMDL
MODEL 5
REMARK VINA RESULT:    -6.373      2.443      4.047
REMARK INTER + INTRA:          -6.615
REMARK INTER:                  -6.136
REMARK INTRA:                  -0.479
REMARK UNBOUND:                 0.504
REMARK SMILES CC(=O)S[C@@H]1CC2=CC(=O)CC[C@]2(C)[C@H]2CC[C@@]3(C)[C@@H](CC[C@@]34CCC(=O)O4)[C@H]12
REMARK SMILES IDX 4 1 5 2 20 3 21 4 18 5 29 6 22 7 23 8 19 9 17 10 15 11 24 12
REMARK SMILES IDX 28 13 16 14 13 15 6 16 25 17 26 18 7 19 12 20 14 21 27 22
REMARK SMILES IDX 8 23 11 24 9 25 10 26 2 27 1 28 3 29
REMARK H PARENT
REMARK Flexibility Score: inf
ROOT
ATOM      1  S   UNL     1      11.358  75.749  -1.152  1.00  0.00    -0.085 SA
ENDROOT
BRANCH   1   2
ATOM      2  C   UNL     1      10.967  76.820  -2.626  1.00  0.00     0.062 C 
ATOM      3  C   UNL     1       8.992  77.874  -1.356  1.00  0.00     0.003 C 
ATOM      4  C   UNL     1       7.883  77.014  -1.959  1.00  0.00     0.009 C 
ATOM      5  C   UNL     1       8.292  79.158  -0.908  1.00  0.00     0.011 C 
ATOM      6  C   UNL     1      10.245  78.132  -2.240  1.00  0.00     0.011 C 
ATOM      7  C   UNL     1       6.605  77.431  -1.223  1.00  0.00     0.050 C 
ATOM      8  C   UNL     1       6.999  78.576  -0.253  1.00  0.00     0.118 C 
ATOM      9  C   UNL     1       7.861  80.083  -2.101  1.00  0.00     0.016 C 
ATOM     10  C   UNL     1       9.289  79.916   0.002  1.00  0.00     0.011 C 
ATOM     11  C   UNL     1      11.251  79.114  -1.545  1.00  0.00     0.003 C 
ATOM     12  C   UNL     1       7.114  78.015   1.199  1.00  0.00     0.061 C 
ATOM     13  O   UNL     1       5.947  79.535  -0.173  1.00  0.00    -0.458 OA
ATOM     14  C   UNL     1      10.565  80.306  -0.776  1.00  0.00     0.005 C 
ATOM     15  C   UNL     1      12.355  79.593  -2.565  1.00  0.00    -0.008 C 
ATOM     16  C   UNL     1      12.245  77.050  -3.487  1.00  0.00     0.047 C 
ATOM     17  C   UNL     1       5.748  78.292   1.843  1.00  0.00     0.127 C 
ATOM     18  C   UNL     1       5.210  79.364   0.981  1.00  0.00     0.306 C 
ATOM     19  C   UNL     1      12.940  78.399  -3.340  1.00  0.00    -0.059 C 
ATOM     20  C   UNL     1      13.530  80.274  -1.782  1.00  0.00     0.019 C 
ATOM     21  C   UNL     1      11.785  80.613  -3.604  1.00  0.00     0.016 C 
ATOM     22  O   UNL     1       4.216  80.076   1.289  1.00  0.00    -0.252 OA
ATOM     23  C   UNL     1      14.138  78.521  -3.940  1.00  0.00     0.047 C 
ATOM     24  C   UNL     1      14.662  80.745  -2.713  1.00  0.00     0.081 C 
ATOM     25  C   UNL     1      14.979  79.719  -3.758  1.00  0.00     0.155 C 
ATOM     26  O   UNL     1      16.001  79.865  -4.476  1.00  0.00    -0.295 OA
ENDBRANCH   1   2
BRANCH   1  27
ATOM     27  C   UNL     1      10.238  74.413  -1.637  1.00  0.00     0.186 C 
ATOM     28  C   UNL     1       9.909  74.188  -3.087  1.00  0.00     0.101 C 
ATOM     29  O   UNL     1       9.749  73.692  -0.777  1.00  0.00    -0.288 OA
ENDBRANCH   1  27
TORSDOF 2
ENDMDL
MODEL 6
REMARK VINA RESULT:    -6.168      2.655      7.787
REMARK INTER + INTRA:          -6.385
REMARK INTER:                  -6.615
REMARK INTRA:                   0.230
REMARK UNBOUND:                 0.504
REMARK SMILES CC(=O)S[C@@H]1CC2=CC(=O)CC[C@]2(C)[C@H]2CC[C@@]3(C)[C@@H](CC[C@@]34CCC(=O)O4)[C@H]12
REMARK SMILES IDX 4 1 5 2 20 3 21 4 18 5 29 6 22 7 23 8 19 9 17 10 15 11 24 12
REMARK SMILES IDX 28 13 16 14 13 15 6 16 25 17 26 18 7 19 12 20 14 21 27 22
REMARK SMILES IDX 8 23 11 24 9 25 10 26 2 27 1 28 3 29
REMARK H PARENT
REMARK Flexibility Score: inf
ROOT
ATOM      1  S   UNL     1      15.392  78.589  -1.012  1.00  0.00    -0.085 SA
ENDROOT
BRANCH   1   2
ATOM      2  C   UNL     1      14.377  80.113  -1.356  1.00  0.00     0.062 C 
ATOM      3  C   UNL     1      15.259  80.176  -3.773  1.00  0.00     0.003 C 
ATOM      4  C   UNL     1      16.356  81.217  -3.560  1.00  0.00     0.009 C 
ATOM      5  C   UNL     1      14.921  80.263  -5.262  1.00  0.00     0.011 C 
ATOM      6  C   UNL     1      14.011  80.266  -2.851  1.00  0.00     0.011 C 
ATOM      7  C   UNL     1      17.088  81.311  -4.903  1.00  0.00     0.050 C 
ATOM      8  C   UNL     1      16.349  80.363  -5.884  1.00  0.00     0.118 C 
ATOM      9  C   UNL     1      14.127  81.561  -5.648  1.00  0.00     0.016 C 
ATOM     10  C   UNL     1      14.068  79.015  -5.600  1.00  0.00     0.011 C 
ATOM     11  C   UNL     1      12.921  79.211  -3.248  1.00  0.00     0.003 C 
ATOM     12  C   UNL     1      17.162  79.041  -6.046  1.00  0.00     0.061 C 
ATOM     13  O   UNL     1      16.337  80.926  -7.194  1.00  0.00    -0.458 OA
ATOM     14  C   UNL     1      12.745  79.014  -4.801  1.00  0.00     0.005 C 
ATOM     15  C   UNL     1      11.560  79.511  -2.507  1.00  0.00    -0.008 C 
ATOM     16  C   UNL     1      13.140  80.170  -0.410  1.00  0.00     0.047 C 
ATOM     17  C   UNL     1      18.018  79.249  -7.303  1.00  0.00     0.127 C 
ATOM     18  C   UNL     1      17.296  80.337  -7.993  1.00  0.00     0.306 C 
ATOM     19  C   UNL     1      11.797  79.767  -1.008  1.00  0.00    -0.059 C 
ATOM     20  C   UNL     1      10.611  78.271  -2.634  1.00  0.00     0.019 C 
ATOM     21  C   UNL     1      10.836  80.762  -3.104  1.00  0.00     0.016 C 
ATOM     22  O   UNL     1      17.500  80.660  -9.196  1.00  0.00    -0.252 OA
ATOM     23  C   UNL     1      10.774  79.640  -0.144  1.00  0.00     0.047 C 
ATOM     24  C   UNL     1       9.268  78.481  -1.910  1.00  0.00     0.081 C 
ATOM     25  C   UNL     1       9.460  79.119  -0.568  1.00  0.00     0.155 C 
ATOM     26  O   UNL     1       8.489  79.186   0.227  1.00  0.00    -0.295 OA
ENDBRANCH   1   2
BRANCH   1  27
ATOM     27  C   UNL     1      14.501  78.155   0.502  1.00  0.00     0.186 C 
ATOM     28  C   UNL     1      13.406  77.125   0.470  1.00  0.00     0.101 C 
ATOM     29  O   UNL     1      14.796  78.706   1.555  1.00  0.00    -0.288 OA
ENDBRANCH   1  27
TORSDOF 2
ENDMDL
MODEL 7
REMARK VINA RESULT:    -5.493      2.020      2.688
REMARK INTER + INTRA:          -5.632
REMARK INTER:                  -5.901
REMARK INTRA:                   0.269
REMARK UNBOUND:                 0.504
REMARK SMILES CC(=O)S[C@@H]1CC2=CC(=O)CC[C@]2(C)[C@H]2CC[C@@]3(C)[C@@H](CC[C@@]34CCC(=O)O4)[C@H]12
REMARK SMILES IDX 4 1 5 2 20 3 21 4 18 5 29 6 22 7 23 8 19 9 17 10 15 11 24 12
REMARK SMILES IDX 28 13 16 14 13 15 6 16 25 17 26 18 7 19 12 20 14 21 27 22
REMARK SMILES IDX 8 23 11 24 9 25 10 26 2 27 1 28 3 29
REMARK H PARENT
REMARK Flexibility Score: inf
ROOT
ATOM      1  S   UNL     1      14.633  80.521  -0.313  1.00  0.00    -0.085 SA
ENDROOT
BRANCH   1   2
ATOM      2  C   UNL     1      14.661  79.174  -1.601  1.00  0.00     0.062 C 
ATOM      3  C   UNL     1      12.106  78.920  -1.414  1.00  0.00     0.003 C 
ATOM      4  C   UNL     1      12.092  77.720  -0.470  1.00  0.00     0.009 C 
ATOM      5  C   UNL     1      10.765  78.858  -2.146  1.00  0.00     0.011 C 
ATOM      6  C   UNL     1      13.325  79.052  -2.371  1.00  0.00     0.011 C 
ATOM      7  C   UNL     1      10.613  77.481  -0.145  1.00  0.00     0.050 C 
ATOM      8  C   UNL     1       9.801  78.515  -0.967  1.00  0.00     0.118 C 
ATOM      9  C   UNL     1      10.681  77.697  -3.200  1.00  0.00     0.016 C 
ATOM     10  C   UNL     1      10.583  80.220  -2.860  1.00  0.00     0.011 C 
ATOM     11  C   UNL     1      13.160  80.261  -3.355  1.00  0.00     0.003 C 
ATOM     12  C   UNL     1       9.351  79.685  -0.038  1.00  0.00     0.061 C 
ATOM     13  O   UNL     1       8.577  77.936  -1.413  1.00  0.00    -0.458 OA
ATOM     14  C   UNL     1      11.696  80.452  -3.907  1.00  0.00     0.005 C 
ATOM     15  C   UNL     1      14.246  80.200  -4.498  1.00  0.00    -0.008 C 
ATOM     16  C   UNL     1      15.897  79.338  -2.535  1.00  0.00     0.047 C 
ATOM     17  C   UNL     1       7.930  79.316   0.411  1.00  0.00     0.127 C 
ATOM     18  C   UNL     1       7.521  78.345  -0.624  1.00  0.00     0.306 C 
ATOM     19  C   UNL     1      15.645  79.939  -3.912  1.00  0.00    -0.059 C 
ATOM     20  C   UNL     1      14.292  81.574  -5.249  1.00  0.00     0.019 C 
ATOM     21  C   UNL     1      13.937  79.070  -5.536  1.00  0.00     0.016 C 
ATOM     22  O   UNL     1       6.329  77.969  -0.798  1.00  0.00    -0.252 OA
ATOM     23  C   UNL     1      16.735  80.248  -4.637  1.00  0.00     0.047 C 
ATOM     24  C   UNL     1      15.352  81.599  -6.366  1.00  0.00     0.081 C 
ATOM     25  C   UNL     1      16.635  80.966  -5.923  1.00  0.00     0.155 C 
ATOM     26  O   UNL     1      17.658  81.073  -6.645  1.00  0.00    -0.295 OA
ENDBRANCH   1   2
BRANCH   1  27
ATOM     27  C   UNL     1      14.244  79.407   1.059  1.00  0.00     0.186 C 
ATOM     28  C   UNL     1      13.057  79.677   1.942  1.00  0.00     0.101 C 
ATOM     29  O   UNL     1      14.953  78.431   1.265  1.00  0.00    -0.288 OA
ENDBRANCH   1  27
TORSDOF 2
ENDMDL
MODEL 8
REMARK VINA RESULT:    -5.121      2.985      4.800
REMARK INTER + INTRA:          -5.216
REMARK INTER:                  -5.565
REMARK INTRA:                   0.349
REMARK UNBOUND:                 0.504
REMARK SMILES CC(=O)S[C@@H]1CC2=CC(=O)CC[C@]2(C)[C@H]2CC[C@@]3(C)[C@@H](CC[C@@]34CCC(=O)O4)[C@H]12
REMARK SMILES IDX 4 1 5 2 20 3 21 4 18 5 29 6 22 7 23 8 19 9 17 10 15 11 24 12
REMARK SMILES IDX 28 13 16 14 13 15 6 16 25 17 26 18 7 19 12 20 14 21 27 22
REMARK SMILES IDX 8 23 11 24 9 25 10 26 2 27 1 28 3 29
REMARK H PARENT
REMARK Flexibility Score: inf
ROOT
ATOM      1  S   UNL     1       7.187  78.807  -2.378  1.00  0.00    -0.085 SA
ENDROOT
BRANCH   1   2
ATOM      2  C   UNL     1       8.074  78.348  -0.804  1.00  0.00     0.062 C 
ATOM      3  C   UNL     1       8.807  76.113  -1.849  1.00  0.00     0.003 C 
ATOM      4  C   UNL     1       7.717  75.237  -1.236  1.00  0.00     0.009 C 
ATOM      5  C   UNL     1       9.958  75.153  -2.150  1.00  0.00     0.011 C 
ATOM      6  C   UNL     1       9.245  77.366  -1.040  1.00  0.00     0.011 C 
ATOM      7  C   UNL     1       7.926  73.847  -1.847  1.00  0.00     0.050 C 
ATOM      8  C   UNL     1       9.181  73.940  -2.754  1.00  0.00     0.118 C 
ATOM      9  C   UNL     1      10.712  74.658  -0.865  1.00  0.00     0.016 C 
ATOM     10  C   UNL     1      10.945  75.913  -3.069  1.00  0.00     0.011 C 
ATOM     11  C   UNL     1      10.441  78.111  -1.729  1.00  0.00     0.003 C 
ATOM     12  C   UNL     1       8.741  74.036  -4.248  1.00  0.00     0.061 C 
ATOM     13  O   UNL     1       9.925  72.726  -2.689  1.00  0.00    -0.458 OA
ATOM     14  C   UNL     1      11.525  77.155  -2.356  1.00  0.00     0.005 C 
ATOM     15  C   UNL     1      11.059  79.189  -0.756  1.00  0.00    -0.008 C 
ATOM     16  C   UNL     1       8.492  79.628  -0.020  1.00  0.00     0.047 C 
ATOM     17  C   UNL     1       8.790  72.594  -4.773  1.00  0.00     0.127 C 
ATOM     18  C   UNL     1       9.687  71.940  -3.798  1.00  0.00     0.306 C 
ATOM     19  C   UNL     1       9.954  80.047  -0.115  1.00  0.00    -0.059 C 
ATOM     20  C   UNL     1      11.997  80.148  -1.566  1.00  0.00     0.019 C 
ATOM     21  C   UNL     1      11.888  78.528   0.395  1.00  0.00     0.016 C 
ATOM     22  O   UNL     1      10.214  70.809  -3.981  1.00  0.00    -0.252 OA
ATOM     23  C   UNL     1      10.265  81.247   0.407  1.00  0.00     0.047 C 
ATOM     24  C   UNL     1      12.619  81.246  -0.684  1.00  0.00     0.081 C 
ATOM     25  C   UNL     1      11.611  81.834   0.256  1.00  0.00     0.155 C 
ATOM     26  O   UNL     1      11.905  82.867   0.909  1.00  0.00    -0.295 OA
ENDBRANCH   1   2
BRANCH   1  27
ATOM     27  C   UNL     1       7.564  80.573  -2.251  1.00  0.00     0.186 C 
ATOM     28  C   UNL     1       8.730  81.155  -3.001  1.00  0.00     0.101 C 
ATOM     29  O   UNL     1       6.863  81.291  -1.551  1.00  0.00    -0.288 OA
ENDBRANCH   1  27
TORSDOF 2
ENDMDL
