MODEL 1
REMARK VINA RESULT:    -6.645      0.000      0.000
REMARK INTER + INTRA:          -8.141
REMARK INTER:                  -8.199
REMARK INTRA:                   0.058
REMARK UNBOUND:                 0.058
REMARK SMILES CCCC(C)C1(CC)C(=O)NC(=O)NC1=O
REMARK SMILES IDX 4 1 5 2 3 3 2 4 1 5 6 6 9 7 15 8 10 9 11 10 14 11 16 12
REMARK SMILES IDX 12 13 13 16 7 17 8 18
REMARK H PARENT 11 14 14 15
REMARK Flexibility Score: inf
ROOT
ATOM      1  C   UNL     1       8.860  74.017  -2.921  1.00  0.00     0.011 C 
ATOM      2  C   UNL     1      10.244  74.596  -3.300  1.00  0.00     0.009 C 
ENDROOT
BRANCH   1   3
ATOM      3  C   UNL     1       9.043  72.637  -2.220  1.00  0.00     0.004 C 
BRANCH   3   4
ATOM      4  C   UNL     1      10.194  71.817  -2.827  1.00  0.00    -0.003 C 
ATOM      5  C   UNL     1       9.724  71.020  -4.040  1.00  0.00     0.004 C 
ENDBRANCH   3   4
ENDBRANCH   1   3
BRANCH   1   6
ATOM      6  C   UNL     1       7.993  75.072  -2.110  1.00  0.00     0.131 C 
ATOM      7  C   UNL     1       7.483  76.144  -3.084  1.00  0.00     0.243 C 
ATOM      8  C   UNL     1       8.831  75.706  -0.994  1.00  0.00     0.243 C 
ATOM      9  O   UNL     1       7.046  75.804  -4.218  1.00  0.00    -0.273 OA
ATOM     10  N   UNL     1       7.425  77.526  -2.724  1.00  0.00    -0.277 N 
ATOM     11  N   UNL     1       8.812  77.112  -0.735  1.00  0.00    -0.277 N 
ATOM     12  O   UNL     1       9.491  74.968  -0.214  1.00  0.00    -0.273 OA
ATOM     13  C   UNL     1       8.080  78.010  -1.559  1.00  0.00     0.328 C 
ATOM     14  H   UNL     1       6.947  78.204  -3.361  1.00  0.00     0.174 HD
ATOM     15  H   UNL     1       9.338  77.489   0.086  1.00  0.00     0.174 HD
ATOM     16  O   UNL     1       8.028  79.235  -1.269  1.00  0.00    -0.248 OA
BRANCH   6  17
ATOM     17  C   UNL     1       6.738  74.447  -1.417  1.00  0.00     0.024 C 
ATOM     18  C   UNL     1       6.179  75.232  -0.224  1.00  0.00     0.005 C 
ENDBRANCH   6  17
ENDBRANCH   1   6
TORSDOF 4
ENDMDL
MODEL 2
REMARK VINA RESULT:    -6.623      1.701      2.493
REMARK INTER + INTRA:          -8.114
REMARK INTER:                  -8.188
REMARK INTRA:                   0.073
REMARK UNBOUND:                 0.058
REMARK SMILES CCCC(C)C1(CC)C(=O)NC(=O)NC1=O
REMARK SMILES IDX 4 1 5 2 3 3 2 4 1 5 6 6 9 7 15 8 10 9 11 10 14 11 16 12
REMARK SMILES IDX 12 13 13 16 7 17 8 18
REMARK H PARENT 11 14 14 15
REMARK Flexibility Score: inf
ROOT
ATOM      1  C   UNL     1       8.096  74.308  -2.938  1.00  0.00     0.011 C 
ATOM      2  C   UNL     1       7.146  75.114  -3.855  1.00  0.00     0.009 C 
ENDROOT
BRANCH   1   3
ATOM      3  C   UNL     1       9.289  73.755  -3.775  1.00  0.00     0.004 C 
BRANCH   3   4
ATOM      4  C   UNL     1       9.398  72.223  -3.703  1.00  0.00    -0.003 C 
ATOM      5  C   UNL     1       9.478  71.608  -5.097  1.00  0.00     0.004 C 
ENDBRANCH   3   4
ENDBRANCH   1   3
BRANCH   1   6
ATOM      6  C   UNL     1       8.508  75.144  -1.651  1.00  0.00     0.131 C 
ATOM      7  C   UNL     1       7.322  75.165  -0.676  1.00  0.00     0.243 C 
ATOM      8  C   UNL     1       8.912  76.568  -2.048  1.00  0.00     0.243 C 
ATOM      9  O   UNL     1       6.654  74.113  -0.478  1.00  0.00    -0.273 OA
ATOM     10  N   UNL     1       6.981  76.334   0.073  1.00  0.00    -0.277 N 
ATOM     11  N   UNL     1       8.465  77.715  -1.320  1.00  0.00    -0.277 N 
ATOM     12  O   UNL     1       9.736  76.745  -2.985  1.00  0.00    -0.273 OA
ATOM     13  C   UNL     1       7.548  77.599  -0.240  1.00  0.00     0.328 C 
ATOM     14  H   UNL     1       6.257  76.269   0.824  1.00  0.00     0.174 HD
ATOM     15  H   UNL     1       8.829  78.660  -1.579  1.00  0.00     0.174 HD
ATOM     16  O   UNL     1       7.222  78.618   0.425  1.00  0.00    -0.248 OA
BRANCH   6  17
ATOM     17  C   UNL     1       9.727  74.539  -0.879  1.00  0.00     0.024 C 
ATOM     18  C   UNL     1      10.539  75.533  -0.040  1.00  0.00     0.005 C 
ENDBRANCH   6  17
ENDBRANCH   1   6
TORSDOF 4
ENDMDL
MODEL 3
REMARK VINA RESULT:    -6.564      4.860      6.968
REMARK INTER + INTRA:          -8.041
REMARK INTER:                  -8.064
REMARK INTRA:                   0.022
REMARK UNBOUND:                 0.058
REMARK SMILES CCCC(C)C1(CC)C(=O)NC(=O)NC1=O
REMARK SMILES IDX 4 1 5 2 3 3 2 4 1 5 6 6 9 7 15 8 10 9 11 10 14 11 16 12
REMARK SMILES IDX 12 13 13 16 7 17 8 18
REMARK H PARENT 11 14 14 15
REMARK Flexibility Score: inf
ROOT
ATOM      1  C   UNL     1      10.207  79.990  -0.854  1.00  0.00     0.011 C 
ATOM      2  C   UNL     1      10.184  80.847   0.434  1.00  0.00     0.009 C 
ENDROOT
BRANCH   1   3
ATOM      3  C   UNL     1       9.575  80.794  -2.030  1.00  0.00     0.004 C 
BRANCH   3   4
ATOM      4  C   UNL     1       8.105  80.415  -2.278  1.00  0.00    -0.003 C 
ATOM      5  C   UNL     1       7.895  78.909  -2.162  1.00  0.00     0.004 C 
ENDBRANCH   3   4
ENDBRANCH   1   3
BRANCH   1   6
ATOM      6  C   UNL     1      11.658  79.411  -1.139  1.00  0.00     0.131 C 
ATOM      7  C   UNL     1      11.744  77.991  -0.563  1.00  0.00     0.243 C 
ATOM      8  C   UNL     1      12.725  80.317  -0.515  1.00  0.00     0.243 C 
ATOM      9  O   UNL     1      10.777  77.194  -0.710  1.00  0.00    -0.273 OA
ATOM     10  N   UNL     1      12.922  77.511   0.091  1.00  0.00    -0.277 N 
ATOM     11  N   UNL     1      13.838  79.791   0.213  1.00  0.00    -0.277 N 
ATOM     12  O   UNL     1      12.686  81.560  -0.721  1.00  0.00    -0.273 OA
ATOM     13  C   UNL     1      13.963  78.399   0.474  1.00  0.00     0.328 C 
ATOM     14  H   UNL     1      12.991  76.499   0.347  1.00  0.00     0.174 HD
ATOM     15  H   UNL     1      14.582  80.442   0.552  1.00  0.00     0.174 HD
ATOM     16  O   UNL     1      14.986  77.956   1.062  1.00  0.00    -0.248 OA
BRANCH   6  17
ATOM     17  C   UNL     1      12.001  79.310  -2.662  1.00  0.00     0.024 C 
ATOM     18  C   UNL     1      13.276  78.530  -3.004  1.00  0.00     0.005 C 
ENDBRANCH   6  17
ENDBRANCH   1   6
TORSDOF 4
ENDMDL
MODEL 4
REMARK VINA RESULT:    -6.505      1.705      3.238
REMARK INTER + INTRA:          -7.968
REMARK INTER:                  -7.981
REMARK INTRA:                   0.013
REMARK UNBOUND:                 0.058
REMARK SMILES CCCC(C)C1(CC)C(=O)NC(=O)NC1=O
REMARK SMILES IDX 4 1 5 2 3 3 2 4 1 5 6 6 9 7 15 8 10 9 11 10 14 11 16 12
REMARK SMILES IDX 12 13 13 16 7 17 8 18
REMARK H PARENT 11 14 14 15
REMARK Flexibility Score: inf
ROOT
ATOM      1  C   UNL     1      10.182  73.501  -2.538  1.00  0.00     0.011 C 
ATOM      2  C   UNL     1       9.423  72.246  -2.043  1.00  0.00     0.009 C 
ENDROOT
BRANCH   1   3
ATOM      3  C   UNL     1      10.548  73.333  -4.044  1.00  0.00     0.004 C 
BRANCH   3   4
ATOM      4  C   UNL     1      10.480  71.867  -4.505  1.00  0.00    -0.003 C 
ATOM      5  C   UNL     1       9.449  71.683  -5.614  1.00  0.00     0.004 C 
ENDBRANCH   3   4
ENDBRANCH   1   3
BRANCH   1   6
ATOM      6  C   UNL     1       9.392  74.833  -2.184  1.00  0.00     0.131 C 
ATOM      7  C   UNL     1       9.472  75.065  -0.669  1.00  0.00     0.243 C 
ATOM      8  C   UNL     1       7.933  74.725  -2.641  1.00  0.00     0.243 C 
ATOM      9  O   UNL     1      10.562  74.874  -0.061  1.00  0.00    -0.273 OA
ATOM     10  N   UNL     1       8.358  75.557   0.081  1.00  0.00    -0.277 N 
ATOM     11  N   UNL     1       6.845  75.144  -1.814  1.00  0.00    -0.277 N 
ATOM     12  O   UNL     1       7.673  74.344  -3.815  1.00  0.00    -0.273 OA
ATOM     13  C   UNL     1       7.055  75.601  -0.484  1.00  0.00     0.328 C 
ATOM     14  H   UNL     1       8.493  75.831   1.081  1.00  0.00     0.174 HD
ATOM     15  H   UNL     1       5.873  75.125  -2.198  1.00  0.00     0.174 HD
ATOM     16  O   UNL     1       6.085  76.026   0.199  1.00  0.00    -0.248 OA
BRANCH   6  17
ATOM     17  C   UNL     1       9.977  76.107  -2.876  1.00  0.00     0.024 C 
ATOM     18  C   UNL     1       9.452  77.448  -2.349  1.00  0.00     0.005 C 
ENDBRANCH   6  17
ENDBRANCH   1   6
TORSDOF 4
ENDMDL
MODEL 5
REMARK VINA RESULT:    -6.395      1.649      2.159
REMARK INTER + INTRA:          -7.832
REMARK INTER:                  -8.496
REMARK INTRA:                   0.663
REMARK UNBOUND:                 0.058
REMARK SMILES CCCC(C)C1(CC)C(=O)NC(=O)NC1=O
REMARK SMILES IDX 4 1 5 2 3 3 2 4 1 5 6 6 9 7 15 8 10 9 11 10 14 11 16 12
REMARK SMILES IDX 12 13 13 16 7 17 8 18
REMARK H PARENT 11 14 14 15
REMARK Flexibility Score: inf
ROOT
ATOM      1  C   UNL     1       9.634  74.713  -2.470  1.00  0.00     0.011 C 
ATOM      2  C   UNL     1      10.143  74.185  -1.108  1.00  0.00     0.009 C 
ENDROOT
BRANCH   1   3
ATOM      3  C   UNL     1       9.329  73.513  -3.417  1.00  0.00     0.004 C 
BRANCH   3   4
ATOM      4  C   UNL     1       9.797  72.170  -2.832  1.00  0.00    -0.003 C 
ATOM      5  C   UNL     1       9.762  71.066  -3.885  1.00  0.00     0.004 C 
ENDBRANCH   3   4
ENDBRANCH   1   3
BRANCH   1   6
ATOM      6  C   UNL     1       8.438  75.742  -2.283  1.00  0.00     0.131 C 
ATOM      7  C   UNL     1       9.023  77.128  -1.976  1.00  0.00     0.243 C 
ATOM      8  C   UNL     1       7.511  75.281  -1.153  1.00  0.00     0.243 C 
ATOM      9  O   UNL     1      10.030  77.539  -2.617  1.00  0.00    -0.273 OA
ATOM     10  N   UNL     1       8.423  78.007  -1.022  1.00  0.00    -0.277 N 
ATOM     11  N   UNL     1       7.012  76.185  -0.164  1.00  0.00    -0.277 N 
ATOM     12  O   UNL     1       7.091  74.092  -1.136  1.00  0.00    -0.273 OA
ATOM     13  C   UNL     1       7.424  77.545  -0.124  1.00  0.00     0.328 C 
ATOM     14  H   UNL     1       8.769  78.990  -0.941  1.00  0.00     0.174 HD
ATOM     15  H   UNL     1       6.320  75.842   0.541  1.00  0.00     0.174 HD
ATOM     16  O   UNL     1       6.919  78.334   0.719  1.00  0.00    -0.248 OA
BRANCH   6  17
ATOM     17  C   UNL     1       7.541  75.893  -3.555  1.00  0.00     0.024 C 
ATOM     18  C   UNL     1       6.396  74.881  -3.684  1.00  0.00     0.005 C 
ENDBRANCH   6  17
ENDBRANCH   1   6
TORSDOF 4
ENDMDL
MODEL 6
REMARK VINA RESULT:    -6.372      6.810      8.791
REMARK INTER + INTRA:          -7.804
REMARK INTER:                  -8.193
REMARK INTRA:                   0.389
REMARK UNBOUND:                 0.058
REMARK SMILES CCCC(C)C1(CC)C(=O)NC(=O)NC1=O
REMARK SMILES IDX 4 1 5 2 3 3 2 4 1 5 6 6 9 7 15 8 10 9 11 10 14 11 16 12
REMARK SMILES IDX 12 13 13 16 7 17 8 18
REMARK H PARENT 11 14 14 15
REMARK Flexibility Score: inf
ROOT
ATOM      1  C   UNL     1      12.593  79.897  -2.805  1.00  0.00     0.011 C 
ATOM      2  C   UNL     1      11.749  78.653  -2.438  1.00  0.00     0.009 C 
ENDROOT
BRANCH   1   3
ATOM      3  C   UNL     1      13.082  80.602  -1.504  1.00  0.00     0.004 C 
BRANCH   3   4
ATOM      4  C   UNL     1      12.097  80.428  -0.336  1.00  0.00    -0.003 C 
ATOM      5  C   UNL     1      11.252  81.682  -0.133  1.00  0.00     0.004 C 
ENDBRANCH   3   4
ENDBRANCH   1   3
BRANCH   1   6
ATOM      6  C   UNL     1      13.739  79.534  -3.844  1.00  0.00     0.131 C 
ATOM      7  C   UNL     1      15.073  79.437  -3.092  1.00  0.00     0.243 C 
ATOM      8  C   UNL     1      13.812  80.595  -4.948  1.00  0.00     0.243 C 
ATOM      9  O   UNL     1      15.122  78.859  -1.971  1.00  0.00    -0.273 OA
ATOM     10  N   UNL     1      16.294  79.928  -3.652  1.00  0.00    -0.277 N 
ATOM     11  N   UNL     1      15.057  81.126  -5.409  1.00  0.00    -0.277 N 
ATOM     12  O   UNL     1      12.759  80.951  -5.543  1.00  0.00    -0.273 OA
ATOM     13  C   UNL     1      16.291  80.764  -4.802  1.00  0.00     0.328 C 
ATOM     14  H   UNL     1      17.199  79.722  -3.172  1.00  0.00     0.174 HD
ATOM     15  H   UNL     1      15.063  81.789  -6.217  1.00  0.00     0.174 HD
ATOM     16  O   UNL     1      17.377  81.197  -5.270  1.00  0.00    -0.248 OA
BRANCH   6  17
ATOM     17  C   UNL     1      13.516  78.163  -4.564  1.00  0.00     0.024 C 
ATOM     18  C   UNL     1      14.271  77.978  -5.886  1.00  0.00     0.005 C 
ENDBRANCH   6  17
ENDBRANCH   1   6
TORSDOF 4
ENDMDL
MODEL 7
REMARK VINA RESULT:    -6.351      2.260      4.793
REMARK INTER + INTRA:          -7.779
REMARK INTER:                  -7.978
REMARK INTRA:                   0.199
REMARK UNBOUND:                 0.058
REMARK SMILES CCCC(C)C1(CC)C(=O)NC(=O)NC1=O
REMARK SMILES IDX 4 1 5 2 3 3 2 4 1 5 6 6 9 7 15 8 10 9 11 10 14 11 16 12
REMARK SMILES IDX 12 13 13 16 7 17 8 18
REMARK H PARENT 11 14 14 15
REMARK Flexibility Score: inf
ROOT
ATOM      1  C   UNL     1       6.956  75.829  -0.976  1.00  0.00     0.011 C 
ATOM      2  C   UNL     1       6.178  74.531  -0.657  1.00  0.00     0.009 C 
ENDROOT
BRANCH   1   3
ATOM      3  C   UNL     1       7.309  76.569   0.350  1.00  0.00     0.004 C 
BRANCH   3   4
ATOM      4  C   UNL     1       6.073  77.193   1.020  1.00  0.00    -0.003 C 
ATOM      5  C   UNL     1       6.040  78.705   0.818  1.00  0.00     0.004 C 
ENDBRANCH   3   4
ENDBRANCH   1   3
BRANCH   1   6
ATOM      6  C   UNL     1       8.191  75.543  -1.934  1.00  0.00     0.131 C 
ATOM      7  C   UNL     1       7.665  74.981  -3.262  1.00  0.00     0.243 C 
ATOM      8  C   UNL     1       9.162  74.559  -1.273  1.00  0.00     0.243 C 
ATOM      9  O   UNL     1       6.639  75.488  -3.795  1.00  0.00    -0.273 OA
ATOM     10  N   UNL     1       8.340  73.931  -3.959  1.00  0.00    -0.277 N 
ATOM     11  N   UNL     1       9.739  73.464  -1.991  1.00  0.00    -0.277 N 
ATOM     12  O   UNL     1       9.546  74.760  -0.090  1.00  0.00    -0.273 OA
ATOM     13  C   UNL     1       9.370  73.179  -3.334  1.00  0.00     0.328 C 
ATOM     14  H   UNL     1       8.028  73.671  -4.923  1.00  0.00     0.174 HD
ATOM     15  H   UNL     1      10.456  72.866  -1.521  1.00  0.00     0.174 HD
ATOM     16  O   UNL     1       9.942  72.248  -3.962  1.00  0.00    -0.248 OA
BRANCH   6  17
ATOM     17  C   UNL     1       9.024  76.822  -2.275  1.00  0.00     0.024 C 
ATOM     18  C   UNL     1       8.236  78.138  -2.312  1.00  0.00     0.005 C 
ENDBRANCH   6  17
ENDBRANCH   1   6
TORSDOF 4
ENDMDL
MODEL 8
REMARK VINA RESULT:    -6.314      5.345      7.468
REMARK INTER + INTRA:          -7.733
REMARK INTER:                  -7.920
REMARK INTRA:                   0.187
REMARK UNBOUND:                 0.058
REMARK SMILES CCCC(C)C1(CC)C(=O)NC(=O)NC1=O
REMARK SMILES IDX 4 1 5 2 3 3 2 4 1 5 6 6 9 7 15 8 10 9 11 10 14 11 16 12
REMARK SMILES IDX 12 13 13 16 7 17 8 18
REMARK H PARENT 11 14 14 15
REMARK Flexibility Score: inf
ROOT
ATOM      1  C   UNL     1      10.856  80.626  -1.186  1.00  0.00     0.011 C 
ATOM      2  C   UNL     1       9.754  80.443  -2.257  1.00  0.00     0.009 C 
ENDROOT
BRANCH   1   3
ATOM      3  C   UNL     1      10.212  80.640   0.233  1.00  0.00     0.004 C 
BRANCH   3   4
ATOM      4  C   UNL     1      10.906  81.630   1.183  1.00  0.00    -0.003 C 
ATOM      5  C   UNL     1      11.783  80.901   2.197  1.00  0.00     0.004 C 
ENDBRANCH   3   4
ENDBRANCH   1   3
BRANCH   1   6
ATOM      6  C   UNL     1      12.032  79.575  -1.380  1.00  0.00     0.131 C 
ATOM      7  C   UNL     1      11.646  78.268  -0.674  1.00  0.00     0.243 C 
ATOM      8  C   UNL     1      13.343  80.133  -0.813  1.00  0.00     0.243 C 
ATOM      9  O   UNL     1      10.469  77.825  -0.774  1.00  0.00    -0.273 OA
ATOM     10  N   UNL     1      12.602  77.489   0.050  1.00  0.00    -0.277 N 
ATOM     11  N   UNL     1      14.222  79.339  -0.012  1.00  0.00    -0.277 N 
ATOM     12  O   UNL     1      13.716  81.294  -1.132  1.00  0.00    -0.273 OA
ATOM     13  C   UNL     1      13.880  78.015   0.379  1.00  0.00     0.328 C 
ATOM     14  H   UNL     1      12.333  76.541   0.399  1.00  0.00     0.174 HD
ATOM     15  H   UNL     1      15.141  79.737   0.287  1.00  0.00     0.174 HD
ATOM     16  O   UNL     1      14.702  77.317   1.030  1.00  0.00    -0.248 OA
BRANCH   6  17
ATOM     17  C   UNL     1      12.313  79.223  -2.877  1.00  0.00     0.024 C 
ATOM     18  C   UNL     1      13.600  78.432  -3.143  1.00  0.00     0.005 C 
ENDBRANCH   6  17
ENDBRANCH   1   6
TORSDOF 4
ENDMDL
MODEL 9
REMARK VINA RESULT:    -6.232      2.252      5.076
REMARK INTER + INTRA:          -7.631
REMARK INTER:                  -7.893
REMARK INTRA:                   0.262
REMARK UNBOUND:                 0.058
REMARK SMILES CCCC(C)C1(CC)C(=O)NC(=O)NC1=O
REMARK SMILES IDX 4 1 5 2 3 3 2 4 1 5 6 6 9 7 15 8 10 9 11 10 14 11 16 12
REMARK SMILES IDX 12 13 13 16 7 17 8 18
REMARK H PARENT 11 14 14 15
REMARK Flexibility Score: inf
ROOT
ATOM      1  C   UNL     1       9.027  77.025  -1.822  1.00  0.00     0.011 C 
ATOM      2  C   UNL     1      10.305  77.157  -2.685  1.00  0.00     0.009 C 
ENDROOT
BRANCH   1   3
ATOM      3  C   UNL     1       7.973  78.077  -2.283  1.00  0.00     0.004 C 
BRANCH   3   4
ATOM      4  C   UNL     1       8.034  79.371  -1.455  1.00  0.00    -0.003 C 
ATOM      5  C   UNL     1       8.064  80.602  -2.356  1.00  0.00     0.004 C 
ENDBRANCH   3   4
ENDBRANCH   1   3
BRANCH   1   6
ATOM      6  C   UNL     1       8.507  75.525  -1.783  1.00  0.00     0.131 C 
ATOM      7  C   UNL     1       9.633  74.626  -1.253  1.00  0.00     0.243 C 
ATOM      8  C   UNL     1       8.066  75.077  -3.181  1.00  0.00     0.243 C 
ATOM      9  O   UNL     1      10.333  75.009  -0.275  1.00  0.00    -0.273 OA
ATOM     10  N   UNL     1       9.880  73.326  -1.793  1.00  0.00    -0.277 N 
ATOM     11  N   UNL     1       8.421  73.799  -3.716  1.00  0.00    -0.277 N 
ATOM     12  O   UNL     1       7.290  75.807  -3.854  1.00  0.00    -0.273 OA
ATOM     13  C   UNL     1       9.279  72.911  -3.012  1.00  0.00     0.328 C 
ATOM     14  H   UNL     1      10.563  72.693  -1.317  1.00  0.00     0.174 HD
ATOM     15  H   UNL     1       8.032  73.505  -4.641  1.00  0.00     0.174 HD
ATOM     16  O   UNL     1       9.522  71.765  -3.478  1.00  0.00    -0.248 OA
BRANCH   6  17
ATOM     17  C   UNL     1       7.273  75.317  -0.845  1.00  0.00     0.024 C 
ATOM     18  C   UNL     1       7.224  76.217   0.396  1.00  0.00     0.005 C 
ENDBRANCH   6  17
ENDBRANCH   1   6
TORSDOF 4
ENDMDL
MODEL 10
REMARK VINA RESULT:    -6.221      5.863      7.659
REMARK INTER + INTRA:          -7.617
REMARK INTER:                  -7.718
REMARK INTRA:                   0.101
REMARK UNBOUND:                 0.058
REMARK SMILES CCCC(C)C1(CC)C(=O)NC(=O)NC1=O
REMARK SMILES IDX 4 1 5 2 3 3 2 4 1 5 6 6 9 7 15 8 10 9 11 10 14 11 16 12
REMARK SMILES IDX 12 13 13 16 7 17 8 18
REMARK H PARENT 11 14 14 15
REMARK Flexibility Score: inf
ROOT
ATOM      1  C   UNL     1      13.745  80.012  -2.556  1.00  0.00     0.011 C 
ATOM      2  C   UNL     1      14.814  78.941  -2.878  1.00  0.00     0.009 C 
ENDROOT
BRANCH   1   3
ATOM      3  C   UNL     1      12.756  80.143  -3.754  1.00  0.00     0.004 C 
BRANCH   3   4
ATOM      4  C   UNL     1      13.481  80.204  -5.109  1.00  0.00    -0.003 C 
ATOM      5  C   UNL     1      14.151  81.558  -5.317  1.00  0.00     0.004 C 
ENDBRANCH   3   4
ENDBRANCH   1   3
BRANCH   1   6
ATOM      6  C   UNL     1      13.062  79.743  -1.147  1.00  0.00     0.131 C 
ATOM      7  C   UNL     1      14.093  80.005  -0.041  1.00  0.00     0.243 C 
ATOM      8  C   UNL     1      12.539  78.304  -1.074  1.00  0.00     0.243 C 
ATOM      9  O   UNL     1      14.855  81.008  -0.119  1.00  0.00    -0.273 OA
ATOM     10  N   UNL     1      14.180  79.179   1.122  1.00  0.00    -0.277 N 
ATOM     11  N   UNL     1      12.736  77.483   0.080  1.00  0.00    -0.277 N 
ATOM     12  O   UNL     1      11.833  77.848  -2.014  1.00  0.00    -0.273 OA
ATOM     13  C   UNL     1      13.507  77.929   1.188  1.00  0.00     0.328 C 
ATOM     14  H   UNL     1      14.799  79.469   1.914  1.00  0.00     0.174 HD
ATOM     15  H   UNL     1      12.294  76.536   0.115  1.00  0.00     0.174 HD
ATOM     16  O   UNL     1      13.609  77.210   2.217  1.00  0.00    -0.248 OA
BRANCH   6  17
ATOM     17  C   UNL     1      11.836  80.672  -0.862  1.00  0.00     0.024 C 
ATOM     18  C   UNL     1      11.459  80.838   0.615  1.00  0.00     0.005 C 
ENDBRANCH   6  17
ENDBRANCH   1   6
TORSDOF 4
ENDMDL
MODEL 11
REMARK VINA RESULT:    -6.167      1.089      3.002
REMARK INTER + INTRA:          -7.551
REMARK INTER:                  -7.615
REMARK INTRA:                   0.063
REMARK UNBOUND:                 0.058
REMARK SMILES CCCC(C)C1(CC)C(=O)NC(=O)NC1=O
REMARK SMILES IDX 4 1 5 2 3 3 2 4 1 5 6 6 9 7 15 8 10 9 11 10 14 11 16 12
REMARK SMILES IDX 12 13 13 16 7 17 8 18
REMARK H PARENT 11 14 14 15
REMARK Flexibility Score: inf
ROOT
ATOM      1  C   UNL     1       8.405  74.419  -1.972  1.00  0.00     0.011 C 
ATOM      2  C   UNL     1       6.881  74.331  -1.719  1.00  0.00     0.009 C 
ENDROOT
BRANCH   1   3
ATOM      3  C   UNL     1       8.799  73.461  -3.137  1.00  0.00     0.004 C 
BRANCH   3   4
ATOM      4  C   UNL     1       9.657  72.277  -2.660  1.00  0.00    -0.003 C 
ATOM      5  C   UNL     1       9.773  71.208  -3.742  1.00  0.00     0.004 C 
ENDBRANCH   3   4
ENDBRANCH   1   3
BRANCH   1   6
ATOM      6  C   UNL     1       8.878  75.924  -2.151  1.00  0.00     0.131 C 
ATOM      7  C   UNL     1       9.049  76.556  -0.763  1.00  0.00     0.243 C 
ATOM      8  C   UNL     1       7.856  76.708  -2.983  1.00  0.00     0.243 C 
ATOM      9  O   UNL     1       9.597  75.897   0.163  1.00  0.00    -0.273 OA
ATOM     10  N   UNL     1       8.662  77.906  -0.494  1.00  0.00    -0.277 N 
ATOM     11  N   UNL     1       7.428  78.023  -2.618  1.00  0.00    -0.277 N 
ATOM     12  O   UNL     1       7.443  76.231  -4.075  1.00  0.00    -0.273 OA
ATOM     13  C   UNL     1       7.860  78.637  -1.412  1.00  0.00     0.328 C 
ATOM     14  H   UNL     1       8.919  78.341   0.422  1.00  0.00     0.174 HD
ATOM     15  H   UNL     1       6.790  78.549  -3.258  1.00  0.00     0.174 HD
ATOM     16  O   UNL     1       7.519  79.821  -1.147  1.00  0.00    -0.248 OA
BRANCH   6  17
ATOM     17  C   UNL     1      10.249  76.064  -2.892  1.00  0.00     0.024 C 
ATOM     18  C   UNL     1      10.959  77.412  -2.724  1.00  0.00     0.005 C 
ENDBRANCH   6  17
ENDBRANCH   1   6
TORSDOF 4
ENDMDL
MODEL 12
REMARK VINA RESULT:    -6.103      2.207      3.818
REMARK INTER + INTRA:          -7.473
REMARK INTER:                  -7.608
REMARK INTRA:                   0.135
REMARK UNBOUND:                 0.058
REMARK SMILES CCCC(C)C1(CC)C(=O)NC(=O)NC1=O
REMARK SMILES IDX 4 1 5 2 3 3 2 4 1 5 6 6 9 7 15 8 10 9 11 10 14 11 16 12
REMARK SMILES IDX 12 13 13 16 7 17 8 18
REMARK H PARENT 11 14 14 15
REMARK Flexibility Score: inf
ROOT
ATOM      1  C   UNL     1       9.059  76.442  -2.845  1.00  0.00     0.011 C 
ATOM      2  C   UNL     1       8.480  77.828  -2.474  1.00  0.00     0.009 C 
ENDROOT
BRANCH   1   3
ATOM      3  C   UNL     1      10.616  76.496  -2.805  1.00  0.00     0.004 C 
BRANCH   3   4
ATOM      4  C   UNL     1      11.150  77.925  -2.615  1.00  0.00    -0.003 C 
ATOM      5  C   UNL     1      12.508  78.102  -3.288  1.00  0.00     0.004 C 
ENDBRANCH   3   4
ENDBRANCH   1   3
BRANCH   1   6
ATOM      6  C   UNL     1       8.404  75.287  -1.973  1.00  0.00     0.131 C 
ATOM      7  C   UNL     1       6.942  75.112  -2.405  1.00  0.00     0.243 C 
ATOM      8  C   UNL     1       8.493  75.631  -0.482  1.00  0.00     0.243 C 
ATOM      9  O   UNL     1       6.642  75.134  -3.631  1.00  0.00    -0.273 OA
ATOM     10  N   UNL     1       5.900  74.857  -1.460  1.00  0.00    -0.277 N 
ATOM     11  N   UNL     1       7.389  75.446   0.407  1.00  0.00    -0.277 N 
ATOM     12  O   UNL     1       9.595  75.999   0.009  1.00  0.00    -0.273 OA
ATOM     13  C   UNL     1       6.117  75.019  -0.065  1.00  0.00     0.328 C 
ATOM     14  H   UNL     1       4.944  74.609  -1.803  1.00  0.00     0.174 HD
ATOM     15  H   UNL     1       7.520  75.620   1.430  1.00  0.00     0.174 HD
ATOM     16  O   UNL     1       5.181  74.803   0.750  1.00  0.00    -0.248 OA
BRANCH   6  17
ATOM     17  C   UNL     1       9.104  73.900  -2.148  1.00  0.00     0.024 C 
ATOM     18  C   UNL     1       9.156  73.359  -3.582  1.00  0.00     0.005 C 
ENDBRANCH   6  17
ENDBRANCH   1   6
TORSDOF 4
ENDMDL
MODEL 13
REMARK VINA RESULT:    -5.977      4.608      6.056
REMARK INTER + INTRA:          -7.317
REMARK INTER:                  -7.476
REMARK INTRA:                   0.160
REMARK UNBOUND:                 0.058
REMARK SMILES CCCC(C)C1(CC)C(=O)NC(=O)NC1=O
REMARK SMILES IDX 4 1 5 2 3 3 2 4 1 5 6 6 9 7 15 8 10 9 11 10 14 11 16 12
REMARK SMILES IDX 12 13 13 16 7 17 8 18
REMARK H PARENT 11 14 14 15
REMARK Flexibility Score: inf
ROOT
ATOM      1  C   UNL     1      12.274  79.343  -2.716  1.00  0.00     0.011 C 
ATOM      2  C   UNL     1      13.457  80.341  -2.714  1.00  0.00     0.009 C 
ENDROOT
BRANCH   1   3
ATOM      3  C   UNL     1      12.688  78.041  -3.466  1.00  0.00     0.004 C 
BRANCH   3   4
ATOM      4  C   UNL     1      14.091  78.142  -4.088  1.00  0.00    -0.003 C 
ATOM      5  C   UNL     1      14.031  78.034  -5.609  1.00  0.00     0.004 C 
ENDBRANCH   3   4
ENDBRANCH   1   3
BRANCH   1   6
ATOM      6  C   UNL     1      11.701  79.122  -1.252  1.00  0.00     0.131 C 
ATOM      7  C   UNL     1      10.861  80.345  -0.860  1.00  0.00     0.243 C 
ATOM      8  C   UNL     1      12.847  78.908  -0.257  1.00  0.00     0.243 C 
ATOM      9  O   UNL     1      10.078  80.864  -1.702  1.00  0.00    -0.273 OA
ATOM     10  N   UNL     1      10.887  80.888   0.462  1.00  0.00    -0.277 N 
ATOM     11  N   UNL     1      12.875  79.551   1.020  1.00  0.00    -0.277 N 
ATOM     12  O   UNL     1      13.753  78.071  -0.519  1.00  0.00    -0.273 OA
ATOM     13  C   UNL     1      11.882  80.495   1.398  1.00  0.00     0.328 C 
ATOM     14  H   UNL     1      10.202  81.633   0.726  1.00  0.00     0.174 HD
ATOM     15  H   UNL     1      13.636  79.314   1.696  1.00  0.00     0.174 HD
ATOM     16  O   UNL     1      11.894  80.997   2.554  1.00  0.00    -0.248 OA
BRANCH   6  17
ATOM     17  C   UNL     1      10.772  77.869  -1.129  1.00  0.00     0.024 C 
ATOM     18  C   UNL     1       9.617  77.798  -2.135  1.00  0.00     0.005 C 
ENDBRANCH   6  17
ENDBRANCH   1   6
TORSDOF 4
ENDMDL
MODEL 14
REMARK VINA RESULT:    -5.905      5.359      7.209
REMARK INTER + INTRA:          -7.228
REMARK INTER:                  -7.577
REMARK INTRA:                   0.350
REMARK UNBOUND:                 0.058
REMARK SMILES CCCC(C)C1(CC)C(=O)NC(=O)NC1=O
REMARK SMILES IDX 4 1 5 2 3 3 2 4 1 5 6 6 9 7 15 8 10 9 11 10 14 11 16 12
REMARK SMILES IDX 12 13 13 16 7 17 8 18
REMARK H PARENT 11 14 14 15
REMARK Flexibility Score: inf
ROOT
ATOM      1  C   UNL     1      11.956  79.878  -1.831  1.00  0.00     0.011 C 
ATOM      2  C   UNL     1      12.983  79.345  -2.858  1.00  0.00     0.009 C 
ENDROOT
BRANCH   1   3
ATOM      3  C   UNL     1      10.511  79.577  -2.330  1.00  0.00     0.004 C 
BRANCH   3   4
ATOM      4  C   UNL     1       9.624  80.834  -2.353  1.00  0.00    -0.003 C 
ATOM      5  C   UNL     1       8.145  80.469  -2.270  1.00  0.00     0.004 C 
ENDBRANCH   3   4
ENDBRANCH   1   3
BRANCH   1   6
ATOM      6  C   UNL     1      12.282  79.360  -0.365  1.00  0.00     0.131 C 
ATOM      7  C   UNL     1      13.745  79.690  -0.039  1.00  0.00     0.243 C 
ATOM      8  C   UNL     1      12.028  77.852  -0.263  1.00  0.00     0.243 C 
ATOM      9  O   UNL     1      14.223  80.812  -0.363  1.00  0.00    -0.273 OA
ATOM     10  N   UNL     1      14.581  78.783   0.684  1.00  0.00    -0.277 N 
ATOM     11  N   UNL     1      12.945  76.970   0.390  1.00  0.00    -0.277 N 
ATOM     12  O   UNL     1      10.939  77.373  -0.680  1.00  0.00    -0.273 OA
ATOM     13  C   UNL     1      14.187  77.435   0.901  1.00  0.00     0.328 C 
ATOM     14  H   UNL     1      15.526  79.098   1.004  1.00  0.00     0.174 HD
ATOM     15  H   UNL     1      12.692  75.962   0.504  1.00  0.00     0.174 HD
ATOM     16  O   UNL     1      14.946  76.649   1.528  1.00  0.00    -0.248 OA
BRANCH   6  17
ATOM     17  C   UNL     1      11.403  80.030   0.742  1.00  0.00     0.024 C 
ATOM     18  C   UNL     1      11.275  81.556   0.655  1.00  0.00     0.005 C 
ENDBRANCH   6  17
ENDBRANCH   1   6
TORSDOF 4
ENDMDL
MODEL 15
REMARK VINA RESULT:    -5.897      5.297      6.841
REMARK INTER + INTRA:          -7.218
REMARK INTER:                  -7.556
REMARK INTRA:                   0.338
REMARK UNBOUND:                 0.058
REMARK SMILES CCCC(C)C1(CC)C(=O)NC(=O)NC1=O
REMARK SMILES IDX 4 1 5 2 3 3 2 4 1 5 6 6 9 7 15 8 10 9 11 10 14 11 16 12
REMARK SMILES IDX 12 13 13 16 7 17 8 18
REMARK H PARENT 11 14 14 15
REMARK Flexibility Score: inf
ROOT
ATOM      1  C   UNL     1      13.457  79.251  -3.041  1.00  0.00     0.011 C 
ATOM      2  C   UNL     1      13.486  77.871  -3.742  1.00  0.00     0.009 C 
ENDROOT
BRANCH   1   3
ATOM      3  C   UNL     1      12.775  80.298  -3.972  1.00  0.00     0.004 C 
BRANCH   3   4
ATOM      4  C   UNL     1      13.462  80.400  -5.344  1.00  0.00    -0.003 C 
ATOM      5  C   UNL     1      14.418  81.587  -5.397  1.00  0.00     0.004 C 
ENDBRANCH   3   4
ENDBRANCH   1   3
BRANCH   1   6
ATOM      6  C   UNL     1      12.840  79.146  -1.581  1.00  0.00     0.131 C 
ATOM      7  C   UNL     1      11.321  78.960  -1.700  1.00  0.00     0.243 C 
ATOM      8  C   UNL     1      13.172  80.404  -0.771  1.00  0.00     0.243 C 
ATOM      9  O   UNL     1      10.851  78.176  -2.571  1.00  0.00    -0.273 OA
ATOM     10  N   UNL     1      10.408  79.602  -0.807  1.00  0.00    -0.277 N 
ATOM     11  N   UNL     1      12.195  81.067   0.036  1.00  0.00    -0.277 N 
ATOM     12  O   UNL     1      14.359  80.825  -0.730  1.00  0.00    -0.273 OA
ATOM     13  C   UNL     1      10.837  80.645   0.058  1.00  0.00     0.328 C 
ATOM     14  H   UNL     1       9.395  79.343  -0.833  1.00  0.00     0.174 HD
ATOM     15  H   UNL     1      12.486  81.875   0.633  1.00  0.00     0.174 HD
ATOM     16  O   UNL     1      10.013  81.207   0.827  1.00  0.00    -0.248 OA
BRANCH   6  17
ATOM     17  C   UNL     1      13.388  77.935  -0.757  1.00  0.00     0.024 C 
ATOM     18  C   UNL     1      13.267  78.059   0.766  1.00  0.00     0.005 C 
ENDBRANCH   6  17
ENDBRANCH   1   6
TORSDOF 4
ENDMDL
