MODEL 1
REMARK VINA RESULT:    -9.729      0.000      0.000
REMARK INTER + INTRA:         -11.155
REMARK INTER:                 -12.004
REMARK INTRA:                   0.849
REMARK UNBOUND:                 0.849
REMARK SMILES Clc1ccccc1C(c1ccccc1)(c1ccccc1)n1ccnc1
REMARK SMILES IDX 8 1 7 2 1 3 2 4 3 5 4 6 6 7 5 8 21 9 22 10 25 11 23 12 24 13
REMARK SMILES IDX 9 14 10 15 14 16 11 17 13 18 12 19 15 20 16 21 20 22 17 23
REMARK SMILES IDX 19 24 18 25
REMARK H PARENT
REMARK Flexibility Score: inf
ROOT
ATOM      1  C   UNL     1      10.832  78.796  -1.770  1.00  0.00     0.123 C 
ENDROOT
BRANCH   1   2
ATOM      2  C   UNL     1      11.293  79.470  -0.447  1.00  0.00     0.006 A 
ATOM      3  Cl  UNL     1      13.800  78.180  -0.565  1.00  0.00    -0.084 Cl
ATOM      4  C   UNL     1      12.576  79.237   0.137  1.00  0.00     0.047 A 
ATOM      5  C   UNL     1      12.953  79.909   1.308  1.00  0.00     0.021 A 
ATOM      6  C   UNL     1      12.117  80.863   1.881  1.00  0.00     0.002 A 
ATOM      7  C   UNL     1      10.516  80.520   0.108  1.00  0.00     0.008 A 
ATOM      8  C   UNL     1      10.911  81.183   1.270  1.00  0.00     0.001 A 
ENDBRANCH   1   2
BRANCH   1   9
ATOM      9  N   UNL     1       9.566  79.485  -2.138  1.00  0.00    -0.319 N 
ATOM     10  C   UNL     1       8.325  79.101  -1.771  1.00  0.00     0.109 A 
ATOM     11  C   UNL     1       9.398  80.738  -2.627  1.00  0.00     0.200 A 
ATOM     12  C   UNL     1       7.438  80.096  -2.101  1.00  0.00     0.131 A 
ATOM     13  N   UNL     1       8.108  81.133  -2.636  1.00  0.00    -0.245 NA
ENDBRANCH   1   9
BRANCH   1  14
ATOM     14  C   UNL     1      10.600  77.274  -1.616  1.00  0.00    -0.013 A 
ATOM     15  C   UNL     1      10.011  76.531  -2.666  1.00  0.00     0.007 A 
ATOM     16  C   UNL     1      10.773  76.629  -0.369  1.00  0.00     0.007 A 
ATOM     17  C   UNL     1       9.713  75.175  -2.506  1.00  0.00     0.000 A 
ATOM     18  C   UNL     1      10.472  75.272  -0.217  1.00  0.00     0.000 A 
ATOM     19  C   UNL     1       9.954  74.544  -1.287  1.00  0.00     0.000 A 
ENDBRANCH   1  14
BRANCH   1  20
ATOM     20  C   UNL     1      11.886  78.862  -2.893  1.00  0.00    -0.013 A 
ATOM     21  C   UNL     1      12.461  77.678  -3.408  1.00  0.00     0.007 A 
ATOM     22  C   UNL     1      12.478  80.093  -3.262  1.00  0.00     0.007 A 
ATOM     23  C   UNL     1      13.493  77.731  -4.348  1.00  0.00     0.000 A 
ATOM     24  C   UNL     1      13.510  80.140  -4.202  1.00  0.00     0.000 A 
ATOM     25  C   UNL     1      14.009  78.960  -4.755  1.00  0.00     0.000 A 
ENDBRANCH   1  20
TORSDOF 4
ENDMDL
MODEL 2
REMARK VINA RESULT:    -9.247      1.707      4.507
REMARK INTER + INTRA:         -10.560
REMARK INTER:                 -10.752
REMARK INTRA:                   0.192
REMARK UNBOUND:                 0.849
REMARK SMILES Clc1ccccc1C(c1ccccc1)(c1ccccc1)n1ccnc1
REMARK SMILES IDX 8 1 7 2 1 3 2 4 3 5 4 6 6 7 5 8 21 9 22 10 25 11 23 12 24 13
REMARK SMILES IDX 9 14 10 15 14 16 11 17 13 18 12 19 15 20 16 21 20 22 17 23
REMARK SMILES IDX 19 24 18 25
REMARK H PARENT
REMARK Flexibility Score: inf
ROOT
ATOM      1  C   UNL     1      11.354  78.348  -1.514  1.00  0.00     0.123 C 
ENDROOT
BRANCH   1   2
ATOM      2  C   UNL     1      12.342  78.636  -2.679  1.00  0.00     0.006 A 
ATOM      3  Cl  UNL     1      13.081  81.116  -1.551  1.00  0.00    -0.084 Cl
ATOM      4  C   UNL     1      13.121  79.832  -2.759  1.00  0.00     0.047 A 
ATOM      5  C   UNL     1      14.030  80.015  -3.810  1.00  0.00     0.021 A 
ATOM      6  C   UNL     1      14.239  79.013  -4.752  1.00  0.00     0.002 A 
ATOM      7  C   UNL     1      12.658  77.602  -3.597  1.00  0.00     0.008 A 
ATOM      8  C   UNL     1      13.571  77.801  -4.633  1.00  0.00     0.001 A 
ENDBRANCH   1   2
BRANCH   1   9
ATOM      9  N   UNL     1      12.161  78.495  -0.273  1.00  0.00    -0.319 N 
ATOM     10  C   UNL     1      13.331  77.874  -0.017  1.00  0.00     0.109 A 
ATOM     11  C   UNL     1      12.074  79.453   0.682  1.00  0.00     0.200 A 
ATOM     12  C   UNL     1      13.887  78.424   1.111  1.00  0.00     0.131 A 
ATOM     13  N   UNL     1      13.103  79.424   1.554  1.00  0.00    -0.245 NA
ENDBRANCH   1   9
BRANCH   1  14
ATOM     14  C   UNL     1      10.729  76.935  -1.595  1.00  0.00    -0.013 A 
ATOM     15  C   UNL     1       9.870  76.594  -2.665  1.00  0.00     0.007 A 
ATOM     16  C   UNL     1      10.827  76.028  -0.515  1.00  0.00     0.007 A 
ATOM     17  C   UNL     1       9.227  75.353  -2.703  1.00  0.00     0.000 A 
ATOM     18  C   UNL     1      10.181  74.789  -0.559  1.00  0.00     0.000 A 
ATOM     19  C   UNL     1       9.392  74.447  -1.656  1.00  0.00     0.000 A 
ENDBRANCH   1  14
BRANCH   1  20
ATOM     20  C   UNL     1      10.113  79.263  -1.521  1.00  0.00    -0.013 A 
ATOM     21  C   UNL     1       8.990  78.954  -0.721  1.00  0.00     0.007 A 
ATOM     22  C   UNL     1       9.966  80.281  -2.493  1.00  0.00     0.007 A 
ATOM     23  C   UNL     1       7.820  79.714  -0.800  1.00  0.00     0.000 A 
ATOM     24  C   UNL     1       8.794  81.038  -2.568  1.00  0.00     0.000 A 
ATOM     25  C   UNL     1       7.726  80.764  -1.713  1.00  0.00     0.000 A 
ENDBRANCH   1  20
TORSDOF 4
ENDMDL
MODEL 3
REMARK VINA RESULT:    -8.967      1.722      3.017
REMARK INTER + INTRA:         -10.215
REMARK INTER:                 -10.421
REMARK INTRA:                   0.206
REMARK UNBOUND:                 0.849
REMARK SMILES Clc1ccccc1C(c1ccccc1)(c1ccccc1)n1ccnc1
REMARK SMILES IDX 8 1 7 2 1 3 2 4 3 5 4 6 6 7 5 8 21 9 22 10 25 11 23 12 24 13
REMARK SMILES IDX 9 14 10 15 14 16 11 17 13 18 12 19 15 20 16 21 20 22 17 23
REMARK SMILES IDX 19 24 18 25
REMARK H PARENT
REMARK Flexibility Score: inf
ROOT
ATOM      1  C   UNL     1      11.855  78.907  -1.532  1.00  0.00     0.123 C 
ENDROOT
BRANCH   1   2
ATOM      2  C   UNL     1      12.657  78.027  -0.531  1.00  0.00     0.006 A 
ATOM      3  Cl  UNL     1      14.713  79.953  -0.356  1.00  0.00    -0.084 Cl
ATOM      4  C   UNL     1      13.917  78.424   0.013  1.00  0.00     0.047 A 
ATOM      5  C   UNL     1      14.573  77.609   0.947  1.00  0.00     0.021 A 
ATOM      6  C   UNL     1      13.979  76.439   1.409  1.00  0.00     0.002 A 
ATOM      7  C   UNL     1      12.042  76.884   0.040  1.00  0.00     0.008 A 
ATOM      8  C   UNL     1      12.707  76.088   0.973  1.00  0.00     0.001 A 
ENDBRANCH   1   2
BRANCH   1   9
ATOM      9  N   UNL     1      11.491  80.131  -0.769  1.00  0.00    -0.319 N 
ATOM     10  C   UNL     1      10.915  80.156   0.451  1.00  0.00     0.109 A 
ATOM     11  C   UNL     1      11.906  81.406  -0.969  1.00  0.00     0.200 A 
ATOM     12  C   UNL     1      10.941  81.444   0.926  1.00  0.00     0.131 A 
ATOM     13  N   UNL     1      11.569  82.236   0.038  1.00  0.00    -0.245 NA
ENDBRANCH   1   9
BRANCH   1  14
ATOM     14  C   UNL     1      10.588  78.200  -2.067  1.00  0.00    -0.013 A 
ATOM     15  C   UNL     1       9.317  78.803  -1.921  1.00  0.00     0.007 A 
ATOM     16  C   UNL     1      10.633  76.861  -2.521  1.00  0.00     0.007 A 
ATOM     17  C   UNL     1       8.155  78.135  -2.318  1.00  0.00     0.000 A 
ATOM     18  C   UNL     1       9.466  76.199  -2.916  1.00  0.00     0.000 A 
ATOM     19  C   UNL     1       8.231  76.839  -2.825  1.00  0.00     0.000 A 
ENDBRANCH   1  14
BRANCH   1  20
ATOM     20  C   UNL     1      12.630  79.229  -2.826  1.00  0.00    -0.013 A 
ATOM     21  C   UNL     1      12.278  80.348  -3.613  1.00  0.00     0.007 A 
ATOM     22  C   UNL     1      13.535  78.293  -3.382  1.00  0.00     0.007 A 
ATOM     23  C   UNL     1      12.901  80.587  -4.841  1.00  0.00     0.000 A 
ATOM     24  C   UNL     1      14.154  78.537  -4.610  1.00  0.00     0.000 A 
ATOM     25  C   UNL     1      13.848  79.690  -5.333  1.00  0.00     0.000 A 
ENDBRANCH   1  20
TORSDOF 4
ENDMDL
MODEL 4
REMARK VINA RESULT:    -8.672      2.049      4.984
REMARK INTER + INTRA:          -9.850
REMARK INTER:                 -11.008
REMARK INTRA:                   1.158
REMARK UNBOUND:                 0.849
REMARK SMILES Clc1ccccc1C(c1ccccc1)(c1ccccc1)n1ccnc1
REMARK SMILES IDX 8 1 7 2 1 3 2 4 3 5 4 6 6 7 5 8 21 9 22 10 25 11 23 12 24 13
REMARK SMILES IDX 9 14 10 15 14 16 11 17 13 18 12 19 15 20 16 21 20 22 17 23
REMARK SMILES IDX 19 24 18 25
REMARK H PARENT
REMARK Flexibility Score: inf
ROOT
ATOM      1  C   UNL     1      12.038  78.652  -1.066  1.00  0.00     0.123 C 
ENDROOT
BRANCH   1   2
ATOM      2  C   UNL     1      13.013  78.933  -2.243  1.00  0.00     0.006 A 
ATOM      3  Cl  UNL     1      14.689  80.493  -0.593  1.00  0.00    -0.084 Cl
ATOM      4  C   UNL     1      14.186  79.737  -2.105  1.00  0.00     0.047 A 
ATOM      5  C   UNL     1      15.052  79.917  -3.192  1.00  0.00     0.021 A 
ATOM      6  C   UNL     1      14.823  79.265  -4.399  1.00  0.00     0.002 A 
ATOM      7  C   UNL     1      12.871  78.207  -3.454  1.00  0.00     0.008 A 
ATOM      8  C   UNL     1      13.747  78.395  -4.523  1.00  0.00     0.001 A 
ENDBRANCH   1   2
BRANCH   1   9
ATOM      9  N   UNL     1      12.720  77.626  -0.231  1.00  0.00    -0.319 N 
ATOM     10  C   UNL     1      13.947  77.748   0.319  1.00  0.00     0.109 A 
ATOM     11  C   UNL     1      12.184  76.544   0.383  1.00  0.00     0.200 A 
ATOM     12  C   UNL     1      14.143  76.711   1.197  1.00  0.00     0.131 A 
ATOM     13  N   UNL     1      13.034  75.951   1.247  1.00  0.00    -0.245 NA
ENDBRANCH   1   9
BRANCH   1  14
ATOM     14  C   UNL     1      10.658  78.139  -1.541  1.00  0.00    -0.013 A 
ATOM     15  C   UNL     1      10.545  76.890  -2.196  1.00  0.00     0.007 A 
ATOM     16  C   UNL     1       9.519  78.978  -1.525  1.00  0.00     0.007 A 
ATOM     17  C   UNL     1       9.321  76.456  -2.711  1.00  0.00     0.000 A 
ATOM     18  C   UNL     1       8.297  78.538  -2.043  1.00  0.00     0.000 A 
ATOM     19  C   UNL     1       8.196  77.275  -2.624  1.00  0.00     0.000 A 
ENDBRANCH   1  14
BRANCH   1  20
ATOM     20  C   UNL     1      11.666  79.913  -0.260  1.00  0.00    -0.013 A 
ATOM     21  C   UNL     1      11.383  81.129  -0.923  1.00  0.00     0.007 A 
ATOM     22  C   UNL     1      11.838  79.955   1.144  1.00  0.00     0.007 A 
ATOM     23  C   UNL     1      11.151  82.303  -0.201  1.00  0.00     0.000 A 
ATOM     24  C   UNL     1      11.605  81.132   1.860  1.00  0.00     0.000 A 
ATOM     25  C   UNL     1      11.249  82.302   1.190  1.00  0.00     0.000 A 
ENDBRANCH   1  20
TORSDOF 4
ENDMDL
MODEL 5
REMARK VINA RESULT:    -8.631      1.681      4.898
REMARK INTER + INTRA:          -9.801
REMARK INTER:                 -10.710
REMARK INTRA:                   0.910
REMARK UNBOUND:                 0.849
REMARK SMILES Clc1ccccc1C(c1ccccc1)(c1ccccc1)n1ccnc1
REMARK SMILES IDX 8 1 7 2 1 3 2 4 3 5 4 6 6 7 5 8 21 9 22 10 25 11 23 12 24 13
REMARK SMILES IDX 9 14 10 15 14 16 11 17 13 18 12 19 15 20 16 21 20 22 17 23
REMARK SMILES IDX 19 24 18 25
REMARK H PARENT
REMARK Flexibility Score: inf
ROOT
ATOM      1  C   UNL     1      10.977  78.484  -1.762  1.00  0.00     0.123 C 
ENDROOT
BRANCH   1   2
ATOM      2  C   UNL     1       9.710  79.359  -1.979  1.00  0.00     0.006 A 
ATOM      3  Cl  UNL     1       8.178  77.711  -0.275  1.00  0.00    -0.084 Cl
ATOM      4  C   UNL     1       8.453  79.070  -1.364  1.00  0.00     0.047 A 
ATOM      5  C   UNL     1       7.357  79.922  -1.561  1.00  0.00     0.021 A 
ATOM      6  C   UNL     1       7.491  81.094  -2.298  1.00  0.00     0.002 A 
ATOM      7  C   UNL     1       9.831  80.611  -2.636  1.00  0.00     0.008 A 
ATOM      8  C   UNL     1       8.731  81.448  -2.816  1.00  0.00     0.001 A 
ENDBRANCH   1   2
BRANCH   1   9
ATOM      9  N   UNL     1      11.588  78.989  -0.504  1.00  0.00    -0.319 N 
ATOM     10  C   UNL     1      12.787  78.617  -0.006  1.00  0.00     0.109 A 
ATOM     11  C   UNL     1      11.252  80.085   0.219  1.00  0.00     0.200 A 
ATOM     12  C   UNL     1      13.112  79.452   1.034  1.00  0.00     0.131 A 
ATOM     13  N   UNL     1      12.152  80.383   1.178  1.00  0.00    -0.245 NA
ENDBRANCH   1   9
BRANCH   1  14
ATOM     14  C   UNL     1      11.981  78.584  -2.935  1.00  0.00    -0.013 A 
ATOM     15  C   UNL     1      12.547  77.414  -3.493  1.00  0.00     0.007 A 
ATOM     16  C   UNL     1      12.513  79.830  -3.339  1.00  0.00     0.007 A 
ATOM     17  C   UNL     1      13.523  77.493  -4.491  1.00  0.00     0.000 A 
ATOM     18  C   UNL     1      13.489  79.902  -4.338  1.00  0.00     0.000 A 
ATOM     19  C   UNL     1      13.985  78.736  -4.920  1.00  0.00     0.000 A 
ENDBRANCH   1  14
BRANCH   1  20
ATOM     20  C   UNL     1      10.678  76.972  -1.706  1.00  0.00    -0.013 A 
ATOM     21  C   UNL     1       9.976  76.341  -2.757  1.00  0.00     0.007 A 
ATOM     22  C   UNL     1      10.874  76.237  -0.513  1.00  0.00     0.007 A 
ATOM     23  C   UNL     1       9.605  74.996  -2.668  1.00  0.00     0.000 A 
ATOM     24  C   UNL     1      10.500  74.893  -0.429  1.00  0.00     0.000 A 
ATOM     25  C   UNL     1       9.879  74.269  -1.510  1.00  0.00     0.000 A 
ENDBRANCH   1  20
TORSDOF 4
ENDMDL
MODEL 6
REMARK VINA RESULT:    -8.558      2.190      4.883
REMARK INTER + INTRA:          -9.710
REMARK INTER:                 -10.840
REMARK INTRA:                   1.130
REMARK UNBOUND:                 0.849
REMARK SMILES Clc1ccccc1C(c1ccccc1)(c1ccccc1)n1ccnc1
REMARK SMILES IDX 8 1 7 2 1 3 2 4 3 5 4 6 6 7 5 8 21 9 22 10 25 11 23 12 24 13
REMARK SMILES IDX 9 14 10 15 14 16 11 17 13 18 12 19 15 20 16 21 20 22 17 23
REMARK SMILES IDX 19 24 18 25
REMARK H PARENT
REMARK Flexibility Score: inf
ROOT
ATOM      1  C   UNL     1      11.788  78.483  -1.178  1.00  0.00     0.123 C 
ENDROOT
BRANCH   1   2
ATOM      2  C   UNL     1      11.622  79.789  -0.351  1.00  0.00     0.006 A 
ATOM      3  Cl  UNL     1       9.818  80.856  -2.243  1.00  0.00    -0.084 Cl
ATOM      4  C   UNL     1      10.781  80.868  -0.766  1.00  0.00     0.047 A 
ATOM      5  C   UNL     1      10.635  82.003   0.045  1.00  0.00     0.021 A 
ATOM      6  C   UNL     1      11.248  82.068   1.292  1.00  0.00     0.002 A 
ATOM      7  C   UNL     1      12.144  79.852   0.966  1.00  0.00     0.008 A 
ATOM      8  C   UNL     1      11.983  80.987   1.761  1.00  0.00     0.001 A 
ENDBRANCH   1   2
BRANCH   1   9
ATOM      9  N   UNL     1      12.601  77.580  -0.320  1.00  0.00    -0.319 N 
ATOM     10  C   UNL     1      13.847  77.834   0.132  1.00  0.00     0.109 A 
ATOM     11  C   UNL     1      12.192  76.513   0.408  1.00  0.00     0.200 A 
ATOM     12  C   UNL     1      14.180  76.887   1.069  1.00  0.00     0.131 A 
ATOM     13  N   UNL     1      13.139  76.054   1.252  1.00  0.00    -0.245 NA
ENDBRANCH   1   9
BRANCH   1  14
ATOM     14  C   UNL     1      12.488  78.721  -2.537  1.00  0.00    -0.013 A 
ATOM     15  C   UNL     1      12.828  77.628  -3.368  1.00  0.00     0.007 A 
ATOM     16  C   UNL     1      12.989  79.996  -2.890  1.00  0.00     0.007 A 
ATOM     17  C   UNL     1      13.541  77.821  -4.554  1.00  0.00     0.000 A 
ATOM     18  C   UNL     1      13.701  80.182  -4.079  1.00  0.00     0.000 A 
ATOM     19  C   UNL     1      13.967  79.098  -4.915  1.00  0.00     0.000 A 
ENDBRANCH   1  14
BRANCH   1  20
ATOM     20  C   UNL     1      10.448  77.847  -1.599  1.00  0.00    -0.013 A 
ATOM     21  C   UNL     1       9.294  78.014  -0.802  1.00  0.00     0.007 A 
ATOM     22  C   UNL     1      10.394  76.891  -2.641  1.00  0.00     0.007 A 
ATOM     23  C   UNL     1       8.102  77.354  -1.115  1.00  0.00     0.000 A 
ATOM     24  C   UNL     1       9.200  76.234  -2.950  1.00  0.00     0.000 A 
ATOM     25  C   UNL     1       8.052  76.475  -2.196  1.00  0.00     0.000 A 
ENDBRANCH   1  20
TORSDOF 4
ENDMDL
MODEL 7
REMARK VINA RESULT:    -8.384      2.204      5.013
REMARK INTER + INTRA:          -9.495
REMARK INTER:                 -10.043
REMARK INTRA:                   0.547
REMARK UNBOUND:                 0.849
REMARK SMILES Clc1ccccc1C(c1ccccc1)(c1ccccc1)n1ccnc1
REMARK SMILES IDX 8 1 7 2 1 3 2 4 3 5 4 6 6 7 5 8 21 9 22 10 25 11 23 12 24 13
REMARK SMILES IDX 9 14 10 15 14 16 11 17 13 18 12 19 15 20 16 21 20 22 17 23
REMARK SMILES IDX 19 24 18 25
REMARK H PARENT
REMARK Flexibility Score: inf
ROOT
ATOM      1  C   UNL     1      11.932  78.745  -1.093  1.00  0.00     0.123 C 
ENDROOT
BRANCH   1   2
ATOM      2  C   UNL     1      10.549  78.202  -1.550  1.00  0.00     0.006 A 
ATOM      3  Cl  UNL     1      11.754  76.474  -3.429  1.00  0.00    -0.084 Cl
ATOM      4  C   UNL     1      10.402  77.214  -2.573  1.00  0.00     0.047 A 
ATOM      5  C   UNL     1       9.131  76.729  -2.911  1.00  0.00     0.021 A 
ATOM      6  C   UNL     1       8.002  77.148  -2.214  1.00  0.00     0.002 A 
ATOM      7  C   UNL     1       9.390  78.525  -0.799  1.00  0.00     0.008 A 
ATOM      8  C   UNL     1       8.134  78.027  -1.146  1.00  0.00     0.001 A 
ENDBRANCH   1   2
BRANCH   1   9
ATOM      9  N   UNL     1      12.543  77.641  -0.305  1.00  0.00    -0.319 N 
ATOM     10  C   UNL     1      13.755  77.673   0.288  1.00  0.00     0.109 A 
ATOM     11  C   UNL     1      11.941  76.547   0.224  1.00  0.00     0.200 A 
ATOM     12  C   UNL     1      13.878  76.577   1.105  1.00  0.00     0.131 A 
ATOM     13  N   UNL     1      12.737  75.866   1.074  1.00  0.00    -0.245 NA
ENDBRANCH   1   9
BRANCH   1  14
ATOM     14  C   UNL     1      11.818  80.028  -0.238  1.00  0.00    -0.013 A 
ATOM     15  C   UNL     1      12.194  80.015   1.126  1.00  0.00     0.007 A 
ATOM     16  C   UNL     1      11.150  81.176  -0.725  1.00  0.00     0.007 A 
ATOM     17  C   UNL     1      12.011  81.142   1.933  1.00  0.00     0.000 A 
ATOM     18  C   UNL     1      10.970  82.299   0.088  1.00  0.00     0.000 A 
ATOM     19  C   UNL     1      11.410  82.286   1.411  1.00  0.00     0.000 A 
ENDBRANCH   1  14
BRANCH   1  20
ATOM     20  C   UNL     1      12.831  79.200  -2.261  1.00  0.00    -0.013 A 
ATOM     21  C   UNL     1      14.238  79.182  -2.133  1.00  0.00     0.007 A 
ATOM     22  C   UNL     1      12.282  79.870  -3.381  1.00  0.00     0.007 A 
ATOM     23  C   UNL     1      15.058  79.693  -3.142  1.00  0.00     0.000 A 
ATOM     24  C   UNL     1      13.107  80.379  -4.387  1.00  0.00     0.000 A 
ATOM     25  C   UNL     1      14.494  80.278  -4.274  1.00  0.00     0.000 A 
ENDBRANCH   1  20
TORSDOF 4
ENDMDL
MODEL 8
REMARK VINA RESULT:    -8.327      1.784      4.159
REMARK INTER + INTRA:          -9.425
REMARK INTER:                 -10.489
REMARK INTRA:                   1.064
REMARK UNBOUND:                 0.849
REMARK SMILES Clc1ccccc1C(c1ccccc1)(c1ccccc1)n1ccnc1
REMARK SMILES IDX 8 1 7 2 1 3 2 4 3 5 4 6 6 7 5 8 21 9 22 10 25 11 23 12 24 13
REMARK SMILES IDX 9 14 10 15 14 16 11 17 13 18 12 19 15 20 16 21 20 22 17 23
REMARK SMILES IDX 19 24 18 25
REMARK H PARENT
REMARK Flexibility Score: inf
ROOT
ATOM      1  C   UNL     1      10.967  78.209  -1.836  1.00  0.00     0.123 C 
ENDROOT
BRANCH   1   2
ATOM      2  C   UNL     1       9.702  79.104  -1.967  1.00  0.00     0.006 A 
ATOM      3  Cl  UNL     1       8.249  77.454  -0.197  1.00  0.00    -0.084 Cl
ATOM      4  C   UNL     1       8.479  78.824  -1.282  1.00  0.00     0.047 A 
ATOM      5  C   UNL     1       7.386  79.694  -1.403  1.00  0.00     0.021 A 
ATOM      6  C   UNL     1       7.494  80.874  -2.132  1.00  0.00     0.002 A 
ATOM      7  C   UNL     1       9.803  80.363  -2.613  1.00  0.00     0.008 A 
ATOM      8  C   UNL     1       8.706  81.218  -2.717  1.00  0.00     0.001 A 
ENDBRANCH   1   2
BRANCH   1   9
ATOM      9  N   UNL     1      10.452  76.816  -1.759  1.00  0.00    -0.319 N 
ATOM     10  C   UNL     1       9.897  76.124  -2.776  1.00  0.00     0.109 A 
ATOM     11  C   UNL     1      10.686  75.880  -0.806  1.00  0.00     0.200 A 
ATOM     12  C   UNL     1       9.755  74.813  -2.394  1.00  0.00     0.131 A 
ATOM     13  N   UNL     1      10.255  74.651  -1.156  1.00  0.00    -0.245 NA
ENDBRANCH   1   9
BRANCH   1  14
ATOM     14  C   UNL     1      11.814  78.549  -0.587  1.00  0.00    -0.013 A 
ATOM     15  C   UNL     1      11.588  79.750   0.125  1.00  0.00     0.007 A 
ATOM     16  C   UNL     1      12.956  77.788  -0.247  1.00  0.00     0.007 A 
ATOM     17  C   UNL     1      12.405  80.113   1.200  1.00  0.00     0.000 A 
ATOM     18  C   UNL     1      13.769  78.157   0.829  1.00  0.00     0.000 A 
ATOM     19  C   UNL     1      13.487  79.311   1.558  1.00  0.00     0.000 A 
ENDBRANCH   1  14
BRANCH   1  20
ATOM     20  C   UNL     1      11.977  78.400  -2.986  1.00  0.00    -0.013 A 
ATOM     21  C   UNL     1      12.539  77.281  -3.640  1.00  0.00     0.007 A 
ATOM     22  C   UNL     1      12.546  79.669  -3.249  1.00  0.00     0.007 A 
ATOM     23  C   UNL     1      13.534  77.439  -4.608  1.00  0.00     0.000 A 
ATOM     24  C   UNL     1      13.541  79.821  -4.218  1.00  0.00     0.000 A 
ATOM     25  C   UNL     1      14.025  78.709  -4.907  1.00  0.00     0.000 A 
ENDBRANCH   1  20
TORSDOF 4
ENDMDL
MODEL 9
REMARK VINA RESULT:    -8.255      2.009      4.761
REMARK INTER + INTRA:          -9.336
REMARK INTER:                 -10.801
REMARK INTRA:                   1.465
REMARK UNBOUND:                 0.849
REMARK SMILES Clc1ccccc1C(c1ccccc1)(c1ccccc1)n1ccnc1
REMARK SMILES IDX 8 1 7 2 1 3 2 4 3 5 4 6 6 7 5 8 21 9 22 10 25 11 23 12 24 13
REMARK SMILES IDX 9 14 10 15 14 16 11 17 13 18 12 19 15 20 16 21 20 22 17 23
REMARK SMILES IDX 19 24 18 25
REMARK H PARENT
REMARK Flexibility Score: inf
ROOT
ATOM      1  C   UNL     1      11.750  78.422  -1.435  1.00  0.00     0.123 C 
ENDROOT
BRANCH   1   2
ATOM      2  C   UNL     1      11.306  79.659  -0.604  1.00  0.00     0.006 A 
ATOM      3  Cl  UNL     1      13.886  80.793  -0.759  1.00  0.00    -0.084 Cl
ATOM      4  C   UNL     1      12.194  80.727  -0.267  1.00  0.00     0.047 A 
ATOM      5  C   UNL     1      11.725  81.839   0.445  1.00  0.00     0.021 A 
ATOM      6  C   UNL     1      10.379  81.955   0.776  1.00  0.00     0.002 A 
ATOM      7  C   UNL     1       9.927  79.863  -0.339  1.00  0.00     0.008 A 
ATOM      8  C   UNL     1       9.478  80.980   0.366  1.00  0.00     0.001 A 
ENDBRANCH   1   2
BRANCH   1   9
ATOM      9  N   UNL     1      12.590  77.614  -0.512  1.00  0.00    -0.319 N 
ATOM     10  C   UNL     1      13.873  77.874  -0.183  1.00  0.00     0.109 A 
ATOM     11  C   UNL     1      12.198  76.679   0.388  1.00  0.00     0.200 A 
ATOM     12  C   UNL     1      14.239  77.054   0.856  1.00  0.00     0.131 A 
ATOM     13  N   UNL     1      13.186  76.302   1.224  1.00  0.00    -0.245 NA
ENDBRANCH   1   9
BRANCH   1  14
ATOM     14  C   UNL     1      12.547  78.808  -2.703  1.00  0.00    -0.013 A 
ATOM     15  C   UNL     1      12.310  80.044  -3.349  1.00  0.00     0.007 A 
ATOM     16  C   UNL     1      13.371  77.868  -3.365  1.00  0.00     0.007 A 
ATOM     17  C   UNL     1      12.958  80.366  -4.545  1.00  0.00     0.000 A 
ATOM     18  C   UNL     1      14.015  78.196  -4.561  1.00  0.00     0.000 A 
ATOM     19  C   UNL     1      13.818  79.447  -5.144  1.00  0.00     0.000 A 
ENDBRANCH   1  14
BRANCH   1  20
ATOM     20  C   UNL     1      10.570  77.616  -2.015  1.00  0.00    -0.013 A 
ATOM     21  C   UNL     1       9.299  78.214  -2.167  1.00  0.00     0.007 A 
ATOM     22  C   UNL     1      10.659  76.213  -2.176  1.00  0.00     0.007 A 
ATOM     23  C   UNL     1       8.198  77.464  -2.589  1.00  0.00     0.000 A 
ATOM     24  C   UNL     1       9.554  75.468  -2.597  1.00  0.00     0.000 A 
ATOM     25  C   UNL     1       8.328  76.095  -2.817  1.00  0.00     0.000 A 
ENDBRANCH   1  20
TORSDOF 4
ENDMDL
MODEL 10
REMARK VINA RESULT:    -8.122      1.862      3.702
REMARK INTER + INTRA:          -9.172
REMARK INTER:                 -10.525
REMARK INTRA:                   1.354
REMARK UNBOUND:                 0.849
REMARK SMILES Clc1ccccc1C(c1ccccc1)(c1ccccc1)n1ccnc1
REMARK SMILES IDX 8 1 7 2 1 3 2 4 3 5 4 6 6 7 5 8 21 9 22 10 25 11 23 12 24 13
REMARK SMILES IDX 9 14 10 15 14 16 11 17 13 18 12 19 15 20 16 21 20 22 17 23
REMARK SMILES IDX 19 24 18 25
REMARK H PARENT
REMARK Flexibility Score: inf
ROOT
ATOM      1  C   UNL     1      11.441  77.968  -1.781  1.00  0.00     0.123 C 
ENDROOT
BRANCH   1   2
ATOM      2  C   UNL     1      10.246  78.872  -1.365  1.00  0.00     0.006 A 
ATOM      3  Cl  UNL     1      11.919  80.489   0.233  1.00  0.00    -0.084 Cl
ATOM      4  C   UNL     1      10.388  79.986  -0.480  1.00  0.00     0.047 A 
ATOM      5  C   UNL     1       9.282  80.793  -0.177  1.00  0.00     0.021 A 
ATOM      6  C   UNL     1       8.050  80.567  -0.782  1.00  0.00     0.002 A 
ATOM      7  C   UNL     1       9.003  78.738  -2.035  1.00  0.00     0.008 A 
ATOM      8  C   UNL     1       7.916  79.555  -1.725  1.00  0.00     0.001 A 
ENDBRANCH   1   2
BRANCH   1   9
ATOM      9  N   UNL     1      10.855  76.615  -1.977  1.00  0.00    -0.319 N 
ATOM     10  C   UNL     1      10.289  75.855  -1.015  1.00  0.00     0.109 A 
ATOM     11  C   UNL     1      10.500  76.007  -3.135  1.00  0.00     0.200 A 
ATOM     12  C   UNL     1       9.664  74.785  -1.606  1.00  0.00     0.131 A 
ATOM     13  N   UNL     1       9.788  74.877  -2.943  1.00  0.00    -0.245 NA
ENDBRANCH   1   9
BRANCH   1  14
ATOM     14  C   UNL     1      12.562  77.929  -0.716  1.00  0.00    -0.013 A 
ATOM     15  C   UNL     1      13.771  78.634  -0.925  1.00  0.00     0.007 A 
ATOM     16  C   UNL     1      12.501  77.037   0.379  1.00  0.00     0.007 A 
ATOM     17  C   UNL     1      14.826  78.535  -0.014  1.00  0.00     0.000 A 
ATOM     18  C   UNL     1      13.561  76.943   1.286  1.00  0.00     0.000 A 
ATOM     19  C   UNL     1      14.717  77.698   1.096  1.00  0.00     0.000 A 
ENDBRANCH   1  14
BRANCH   1  20
ATOM     20  C   UNL     1      12.186  78.473  -3.033  1.00  0.00    -0.013 A 
ATOM     21  C   UNL     1      13.028  77.605  -3.765  1.00  0.00     0.007 A 
ATOM     22  C   UNL     1      12.244  79.854  -3.336  1.00  0.00     0.007 A 
ATOM     23  C   UNL     1      13.791  78.078  -4.836  1.00  0.00     0.000 A 
ATOM     24  C   UNL     1      13.010  80.321  -4.408  1.00  0.00     0.000 A 
ATOM     25  C   UNL     1      13.772  79.433  -5.166  1.00  0.00     0.000 A 
ENDBRANCH   1  20
TORSDOF 4
ENDMDL
MODEL 11
REMARK VINA RESULT:    -8.085      1.367      4.625
REMARK INTER + INTRA:          -9.127
REMARK INTER:                  -9.935
REMARK INTRA:                   0.809
REMARK UNBOUND:                 0.849
REMARK SMILES Clc1ccccc1C(c1ccccc1)(c1ccccc1)n1ccnc1
REMARK SMILES IDX 8 1 7 2 1 3 2 4 3 5 4 6 6 7 5 8 21 9 22 10 25 11 23 12 24 13
REMARK SMILES IDX 9 14 10 15 14 16 11 17 13 18 12 19 15 20 16 21 20 22 17 23
REMARK SMILES IDX 19 24 18 25
REMARK H PARENT
REMARK Flexibility Score: inf
ROOT
ATOM      1  C   UNL     1      10.494  78.640  -1.455  1.00  0.00     0.123 C 
ENDROOT
BRANCH   1   2
ATOM      2  C   UNL     1      10.115  77.164  -1.151  1.00  0.00     0.006 A 
ATOM      3  Cl  UNL     1       8.345  77.078  -3.348  1.00  0.00    -0.084 Cl
ATOM      4  C   UNL     1       9.175  76.426  -1.936  1.00  0.00     0.047 A 
ATOM      5  C   UNL     1       8.907  75.082  -1.640  1.00  0.00     0.021 A 
ATOM      6  C   UNL     1       9.598  74.426  -0.627  1.00  0.00     0.002 A 
ATOM      7  C   UNL     1      10.868  76.433  -0.197  1.00  0.00     0.008 A 
ATOM      8  C   UNL     1      10.592  75.094   0.079  1.00  0.00     0.001 A 
ENDBRANCH   1   2
BRANCH   1   9
ATOM      9  N   UNL     1       9.212  79.307  -1.811  1.00  0.00    -0.319 N 
ATOM     10  C   UNL     1       8.040  79.158  -1.158  1.00  0.00     0.109 A 
ATOM     11  C   UNL     1       9.012  80.375  -2.620  1.00  0.00     0.200 A 
ATOM     12  C   UNL     1       7.151  80.092  -1.628  1.00  0.00     0.131 A 
ATOM     13  N   UNL     1       7.758  80.867  -2.545  1.00  0.00    -0.245 NA
ENDBRANCH   1   9
BRANCH   1  14
ATOM     14  C   UNL     1      11.516  78.770  -2.609  1.00  0.00    -0.013 A 
ATOM     15  C   UNL     1      12.128  77.618  -3.155  1.00  0.00     0.007 A 
ATOM     16  C   UNL     1      12.018  80.032  -3.005  1.00  0.00     0.007 A 
ATOM     17  C   UNL     1      13.119  77.726  -4.135  1.00  0.00     0.000 A 
ATOM     18  C   UNL     1      13.010  80.133  -3.985  1.00  0.00     0.000 A 
ATOM     19  C   UNL     1      13.551  78.982  -4.557  1.00  0.00     0.000 A 
ENDBRANCH   1  14
BRANCH   1  20
ATOM     20  C   UNL     1      11.218  79.342  -0.288  1.00  0.00    -0.013 A 
ATOM     21  C   UNL     1      10.651  80.482   0.326  1.00  0.00     0.007 A 
ATOM     22  C   UNL     1      12.559  79.023   0.032  1.00  0.00     0.007 A 
ATOM     23  C   UNL     1      11.347  81.189   1.310  1.00  0.00     0.000 A 
ATOM     24  C   UNL     1      13.250  79.733   1.017  1.00  0.00     0.000 A 
ATOM     25  C   UNL     1      12.640  80.807   1.665  1.00  0.00     0.000 A 
ENDBRANCH   1  20
TORSDOF 4
ENDMDL
MODEL 12
REMARK VINA RESULT:    -8.034      1.644      4.521
REMARK INTER + INTRA:          -9.064
REMARK INTER:                 -10.167
REMARK INTRA:                   1.103
REMARK UNBOUND:                 0.849
REMARK SMILES Clc1ccccc1C(c1ccccc1)(c1ccccc1)n1ccnc1
REMARK SMILES IDX 8 1 7 2 1 3 2 4 3 5 4 6 6 7 5 8 21 9 22 10 25 11 23 12 24 13
REMARK SMILES IDX 9 14 10 15 14 16 11 17 13 18 12 19 15 20 16 21 20 22 17 23
REMARK SMILES IDX 19 24 18 25
REMARK H PARENT
REMARK Flexibility Score: inf
ROOT
ATOM      1  C   UNL     1      11.159  78.259  -1.672  1.00  0.00     0.123 C 
ENDROOT
BRANCH   1   2
ATOM      2  C   UNL     1      12.117  78.457  -0.464  1.00  0.00     0.006 A 
ATOM      3  Cl  UNL     1      11.243  81.117  -0.100  1.00  0.00    -0.084 Cl
ATOM      4  C   UNL     1      12.208  79.685   0.261  1.00  0.00     0.047 A 
ATOM      5  C   UNL     1      13.057  79.791   1.371  1.00  0.00     0.021 A 
ATOM      6  C   UNL     1      13.772  78.687   1.826  1.00  0.00     0.002 A 
ATOM      7  C   UNL     1      12.781  77.333   0.091  1.00  0.00     0.008 A 
ATOM      8  C   UNL     1      13.617  77.456   1.201  1.00  0.00     0.001 A 
ENDBRANCH   1   2
BRANCH   1   9
ATOM      9  N   UNL     1      11.969  78.599  -2.872  1.00  0.00    -0.319 N 
ATOM     10  C   UNL     1      12.368  79.839  -3.227  1.00  0.00     0.109 A 
ATOM     11  C   UNL     1      12.703  77.774  -3.658  1.00  0.00     0.200 A 
ATOM     12  C   UNL     1      13.278  79.735  -4.250  1.00  0.00     0.131 A 
ATOM     13  N   UNL     1      13.498  78.437  -4.523  1.00  0.00    -0.245 NA
ENDBRANCH   1   9
BRANCH   1  14
ATOM     14  C   UNL     1       9.900  79.154  -1.591  1.00  0.00    -0.013 A 
ATOM     15  C   UNL     1       8.859  78.844  -0.685  1.00  0.00     0.007 A 
ATOM     16  C   UNL     1       9.660  80.169  -2.546  1.00  0.00     0.007 A 
ATOM     17  C   UNL     1       7.677  79.590  -0.665  1.00  0.00     0.000 A 
ATOM     18  C   UNL     1       8.476  80.912  -2.521  1.00  0.00     0.000 A 
ATOM     19  C   UNL     1       7.491  80.631  -1.575  1.00  0.00     0.000 A 
ENDBRANCH   1  14
BRANCH   1  20
ATOM     20  C   UNL     1      10.556  76.841  -1.752  1.00  0.00    -0.013 A 
ATOM     21  C   UNL     1       9.710  76.482  -2.825  1.00  0.00     0.007 A 
ATOM     22  C   UNL     1      10.630  75.958  -0.649  1.00  0.00     0.007 A 
ATOM     23  C   UNL     1       9.073  75.238  -2.852  1.00  0.00     0.000 A 
ATOM     24  C   UNL     1       9.990  74.716  -0.681  1.00  0.00     0.000 A 
ATOM     25  C   UNL     1       9.223  74.351  -1.787  1.00  0.00     0.000 A 
ENDBRANCH   1  20
TORSDOF 4
ENDMDL
MODEL 13
REMARK VINA RESULT:    -7.961      1.457      5.034
REMARK INTER + INTRA:          -8.974
REMARK INTER:                 -10.159
REMARK INTRA:                   1.185
REMARK UNBOUND:                 0.849
REMARK SMILES Clc1ccccc1C(c1ccccc1)(c1ccccc1)n1ccnc1
REMARK SMILES IDX 8 1 7 2 1 3 2 4 3 5 4 6 6 7 5 8 21 9 22 10 25 11 23 12 24 13
REMARK SMILES IDX 9 14 10 15 14 16 11 17 13 18 12 19 15 20 16 21 20 22 17 23
REMARK SMILES IDX 19 24 18 25
REMARK H PARENT
REMARK Flexibility Score: inf
ROOT
ATOM      1  C   UNL     1      11.120  78.568  -1.562  1.00  0.00     0.123 C 
ENDROOT
BRANCH   1   2
ATOM      2  C   UNL     1      12.185  78.711  -2.686  1.00  0.00     0.006 A 
ATOM      3  Cl  UNL     1      13.004  81.228  -1.705  1.00  0.00    -0.084 Cl
ATOM      4  C   UNL     1      13.035  79.853  -2.809  1.00  0.00     0.047 A 
ATOM      5  C   UNL     1      14.009  79.905  -3.816  1.00  0.00     0.021 A 
ATOM      6  C   UNL     1      14.210  78.822  -4.667  1.00  0.00     0.002 A 
ATOM      7  C   UNL     1      12.489  77.593  -3.504  1.00  0.00     0.008 A 
ATOM      8  C   UNL     1      13.467  77.661  -4.497  1.00  0.00     0.001 A 
ENDBRANCH   1   2
BRANCH   1   9
ATOM      9  N   UNL     1      10.860  77.107  -1.455  1.00  0.00    -0.319 N 
ATOM     10  C   UNL     1      11.012  76.360  -0.341  1.00  0.00     0.109 A 
ATOM     11  C   UNL     1      10.166  76.308  -2.302  1.00  0.00     0.200 A 
ATOM     12  C   UNL     1      10.466  75.120  -0.562  1.00  0.00     0.131 A 
ATOM     13  N   UNL     1       9.926  75.082  -1.794  1.00  0.00    -0.245 NA
ENDBRANCH   1   9
BRANCH   1  14
ATOM     14  C   UNL     1       9.813  79.334  -1.876  1.00  0.00    -0.013 A 
ATOM     15  C   UNL     1       9.850  80.541  -2.612  1.00  0.00     0.007 A 
ATOM     16  C   UNL     1       8.588  78.970  -1.270  1.00  0.00     0.007 A 
ATOM     17  C   UNL     1       8.689  81.289  -2.824  1.00  0.00     0.000 A 
ATOM     18  C   UNL     1       7.430  79.724  -1.486  1.00  0.00     0.000 A 
ATOM     19  C   UNL     1       7.479  80.875  -2.271  1.00  0.00     0.000 A 
ENDBRANCH   1  14
BRANCH   1  20
ATOM     20  C   UNL     1      11.556  79.188  -0.219  1.00  0.00    -0.013 A 
ATOM     21  C   UNL     1      10.856  80.288   0.324  1.00  0.00     0.007 A 
ATOM     22  C   UNL     1      12.794  78.841   0.373  1.00  0.00     0.007 A 
ATOM     23  C   UNL     1      11.306  80.926   1.483  1.00  0.00     0.000 A 
ATOM     24  C   UNL     1      13.240  79.482   1.531  1.00  0.00     0.000 A 
ATOM     25  C   UNL     1      12.490  80.514   2.094  1.00  0.00     0.000 A 
ENDBRANCH   1  20
TORSDOF 4
ENDMDL
MODEL 14
REMARK VINA RESULT:    -7.923      1.928      4.890
REMARK INTER + INTRA:          -8.927
REMARK INTER:                  -9.474
REMARK INTRA:                   0.548
REMARK UNBOUND:                 0.849
REMARK SMILES Clc1ccccc1C(c1ccccc1)(c1ccccc1)n1ccnc1
REMARK SMILES IDX 8 1 7 2 1 3 2 4 3 5 4 6 6 7 5 8 21 9 22 10 25 11 23 12 24 13
REMARK SMILES IDX 9 14 10 15 14 16 11 17 13 18 12 19 15 20 16 21 20 22 17 23
REMARK SMILES IDX 19 24 18 25
REMARK H PARENT
REMARK Flexibility Score: inf
ROOT
ATOM      1  C   UNL     1      11.718  79.055  -1.183  1.00  0.00     0.123 C 
ENDROOT
BRANCH   1   2
ATOM      2  C   UNL     1      10.365  78.436  -1.633  1.00  0.00     0.006 A 
ATOM      3  Cl  UNL     1      11.672  76.610  -3.342  1.00  0.00    -0.084 Cl
ATOM      4  C   UNL     1      10.276  77.370  -2.580  1.00  0.00     0.047 A 
ATOM      5  C   UNL     1       9.029  76.822  -2.913  1.00  0.00     0.021 A 
ATOM      6  C   UNL     1       7.870  77.257  -2.279  1.00  0.00     0.002 A 
ATOM      7  C   UNL     1       9.176  78.779  -0.938  1.00  0.00     0.008 A 
ATOM      8  C   UNL     1       7.945  78.217  -1.279  1.00  0.00     0.001 A 
ENDBRANCH   1   2
BRANCH   1   9
ATOM      9  N   UNL     1      11.356  80.319  -0.487  1.00  0.00    -0.319 N 
ATOM     10  C   UNL     1      10.956  80.424   0.798  1.00  0.00     0.109 A 
ATOM     11  C   UNL     1      11.623  81.595  -0.859  1.00  0.00     0.200 A 
ATOM     12  C   UNL     1      10.932  81.751   1.147  1.00  0.00     0.131 A 
ATOM     13  N   UNL     1      11.357  82.495   0.110  1.00  0.00    -0.245 NA
ENDBRANCH   1   9
BRANCH   1  14
ATOM     14  C   UNL     1      12.670  79.338  -2.368  1.00  0.00    -0.013 A 
ATOM     15  C   UNL     1      14.059  79.099  -2.243  1.00  0.00     0.007 A 
ATOM     16  C   UNL     1      12.223  80.028  -3.519  1.00  0.00     0.007 A 
ATOM     17  C   UNL     1      14.942  79.435  -3.273  1.00  0.00     0.000 A 
ATOM     18  C   UNL     1      13.112  80.361  -4.546  1.00  0.00     0.000 A 
ATOM     19  C   UNL     1      14.467  80.055  -4.428  1.00  0.00     0.000 A 
ENDBRANCH   1  14
BRANCH   1  20
ATOM     20  C   UNL     1      12.559  78.115  -0.295  1.00  0.00    -0.013 A 
ATOM     21  C   UNL     1      12.117  76.801  -0.023  1.00  0.00     0.007 A 
ATOM     22  C   UNL     1      13.649  78.611   0.459  1.00  0.00     0.007 A 
ATOM     23  C   UNL     1      12.815  75.978   0.865  1.00  0.00     0.000 A 
ATOM     24  C   UNL     1      14.342  77.784   1.346  1.00  0.00     0.000 A 
ATOM     25  C   UNL     1      13.934  76.465   1.540  1.00  0.00     0.000 A 
ENDBRANCH   1  20
TORSDOF 4
ENDMDL
MODEL 15
REMARK VINA RESULT:    -7.851      1.751      5.014
REMARK INTER + INTRA:          -8.838
REMARK INTER:                  -9.609
REMARK INTRA:                   0.771
REMARK UNBOUND:                 0.849
REMARK SMILES Clc1ccccc1C(c1ccccc1)(c1ccccc1)n1ccnc1
REMARK SMILES IDX 8 1 7 2 1 3 2 4 3 5 4 6 6 7 5 8 21 9 22 10 25 11 23 12 24 13
REMARK SMILES IDX 9 14 10 15 14 16 11 17 13 18 12 19 15 20 16 21 20 22 17 23
REMARK SMILES IDX 19 24 18 25
REMARK H PARENT
REMARK Flexibility Score: inf
ROOT
ATOM      1  C   UNL     1      10.861  77.710  -1.580  1.00  0.00     0.123 C 
ENDROOT
BRANCH   1   2
ATOM      2  C   UNL     1      10.199  76.340  -1.900  1.00  0.00     0.006 A 
ATOM      3  Cl  UNL     1       8.346  76.648   0.206  1.00  0.00    -0.084 Cl
ATOM      4  C   UNL     1       9.101  75.815  -1.152  1.00  0.00     0.047 A 
ATOM      5  C   UNL     1       8.515  74.595  -1.517  1.00  0.00     0.021 A 
ATOM      6  C   UNL     1       8.946  73.910  -2.649  1.00  0.00     0.002 A 
ATOM      7  C   UNL     1      10.540  75.665  -3.101  1.00  0.00     0.008 A 
ATOM      8  C   UNL     1       9.941  74.455  -3.451  1.00  0.00     0.001 A 
ENDBRANCH   1   2
BRANCH   1   9
ATOM      9  N   UNL     1       9.728  78.643  -1.336  1.00  0.00    -0.319 N 
ATOM     10  C   UNL     1       9.698  79.618  -0.404  1.00  0.00     0.109 A 
ATOM     11  C   UNL     1       8.669  78.913  -2.138  1.00  0.00     0.200 A 
ATOM     12  C   UNL     1       8.599  80.409  -0.627  1.00  0.00     0.131 A 
ATOM     13  N   UNL     1       7.949  79.974  -1.721  1.00  0.00    -0.245 NA
ENDBRANCH   1   9
BRANCH   1  14
ATOM     14  C   UNL     1      11.756  78.226  -2.731  1.00  0.00    -0.013 A 
ATOM     15  C   UNL     1      12.635  77.345  -3.404  1.00  0.00     0.007 A 
ATOM     16  C   UNL     1      11.876  79.609  -3.002  1.00  0.00     0.007 A 
ATOM     17  C   UNL     1      13.514  77.815  -4.383  1.00  0.00     0.000 A 
ATOM     18  C   UNL     1      12.758  80.073  -3.983  1.00  0.00     0.000 A 
ATOM     19  C   UNL     1      13.566  79.177  -4.680  1.00  0.00     0.000 A 
ENDBRANCH   1  14
BRANCH   1  20
ATOM     20  C   UNL     1      11.843  77.655  -0.392  1.00  0.00    -0.013 A 
ATOM     21  C   UNL     1      12.585  78.799  -0.021  1.00  0.00     0.007 A 
ATOM     22  C   UNL     1      12.209  76.418   0.192  1.00  0.00     0.007 A 
ATOM     23  C   UNL     1      13.555  78.733   0.982  1.00  0.00     0.000 A 
ATOM     24  C   UNL     1      13.180  76.358   1.194  1.00  0.00     0.000 A 
ATOM     25  C   UNL     1      13.844  77.516   1.599  1.00  0.00     0.000 A 
ENDBRANCH   1  20
TORSDOF 4
ENDMDL
