MODEL 1
REMARK VINA RESULT:    -8.928      0.000      0.000
REMARK INTER + INTRA:         -13.576
REMARK INTER:                 -12.842
REMARK INTRA:                  -0.734
REMARK UNBOUND:                -0.734
REMARK SMILES Cc1nc(Nc2ncc(C(=O)Nc3c(C)cccc3Cl)s2)cc(N2CCN(CCO)CC2)n1
REMARK SMILES IDX 1 1 2 2 3 3 4 4 22 5 23 6 33 7 5 8 6 10 7 11 21 12 8 13 9 14
REMARK SMILES IDX 10 15 11 16 12 17 13 19 14 20 19 21 15 22 16 23 18 24 20 25
REMARK SMILES IDX 17 26 24 27 25 28 32 29 26 30 31 31 27 32 28 33 29 34 30 35
REMARK H PARENT 5 9 12 18 30 36
REMARK Flexibility Score: inf
ROOT
ATOM      1  C   UNL     1      21.560  45.675  -9.014  1.00  0.00     0.090 C 
ATOM      2  C   UNL     1      20.996  44.297  -8.927  1.00  0.00     0.130 A 
ATOM      3  N   UNL     1      20.832  43.702  -7.717  1.00  0.00    -0.216 NA
ATOM      4  C   UNL     1      20.301  42.454  -7.607  1.00  0.00     0.137 A 
ATOM      5  C   UNL     1      19.908  41.772  -8.765  1.00  0.00     0.094 A 
ATOM      6  C   UNL     1      20.094  42.388 -10.011  1.00  0.00     0.134 A 
ATOM      7  N   UNL     1      20.616  43.646 -10.058  1.00  0.00    -0.216 NA
ENDROOT
BRANCH   4   8
ATOM      8  N   UNL     1      20.111  41.852  -6.316  1.00  0.00    -0.316 N 
ATOM      9  H   UNL     1      19.546  42.362  -5.602  1.00  0.00     0.170 HD
BRANCH   8  10
ATOM     10  C   UNL     1      20.585  40.543  -5.975  1.00  0.00     0.189 A 
ATOM     11  N   UNL     1      20.322  39.925  -4.802  1.00  0.00    -0.228 NA
ATOM     12  S   UNL     1      21.624  39.638  -6.941  1.00  0.00    -0.091 S 
ATOM     13  C   UNL     1      20.954  38.725  -4.711  1.00  0.00     0.139 A 
ATOM     14  C   UNL     1      21.730  38.387  -5.816  1.00  0.00     0.114 A 
BRANCH  14  15
ATOM     15  C   UNL     1      22.537  37.161  -5.955  1.00  0.00     0.267 C 
ATOM     16  O   UNL     1      21.991  36.036  -5.775  1.00  0.00    -0.268 OA
ATOM     17  N   UNL     1      23.927  37.234  -6.303  1.00  0.00    -0.320 N 
ATOM     18  H   UNL     1      24.311  38.123  -6.694  1.00  0.00     0.170 HD
BRANCH  17  19
ATOM     19  C   UNL     1      24.757  36.062  -6.329  1.00  0.00     0.063 A 
ATOM     20  C   UNL     1      25.041  35.422  -7.558  1.00  0.00    -0.026 A 
ATOM     21  C   UNL     1      25.307  35.553  -5.133  1.00  0.00     0.064 A 
ATOM     22  C   UNL     1      24.486  35.961  -8.851  1.00  0.00     0.046 C 
ATOM     23  C   UNL     1      25.853  34.275  -7.567  1.00  0.00     0.005 A 
ATOM     24  C   UNL     1      26.114  34.410  -5.162  1.00  0.00     0.023 A 
ATOM     25  Cl  UNL     1      25.039  36.357  -3.587  1.00  0.00    -0.082 Cl
ATOM     26  C   UNL     1      26.381  33.769  -6.374  1.00  0.00     0.002 A 
ENDBRANCH  17  19
ENDBRANCH  14  15
ENDBRANCH   8  10
ENDBRANCH   4   8
BRANCH   6  27
ATOM     27  N   UNL     1      19.695  41.734 -11.230  1.00  0.00    -0.354 N 
ATOM     28  C   UNL     1      18.497  40.891 -11.234  1.00  0.00     0.133 C 
ATOM     29  C   UNL     1      20.359  42.019 -12.507  1.00  0.00     0.133 C 
ATOM     30  C   UNL     1      18.369  40.134 -12.569  1.00  0.00     0.106 C 
ATOM     31  C   UNL     1      20.678  40.707 -13.248  1.00  0.00     0.106 C 
ATOM     32  N   UNL     1      19.680  39.621 -13.023  1.00  0.00    -0.298 NA
BRANCH  32  33
ATOM     33  C   UNL     1      20.193  38.539 -12.142  1.00  0.00     0.112 C 
BRANCH  33  34
ATOM     34  C   UNL     1      20.384  37.240 -12.932  1.00  0.00     0.171 C 
BRANCH  34  35
ATOM     35  O   UNL     1      19.230  36.924 -13.663  1.00  0.00    -0.395 OA
ATOM     36  H   UNL     1      19.205  37.543 -14.446  1.00  0.00     0.210 HD
ENDBRANCH  34  35
ENDBRANCH  33  34
ENDBRANCH  32  33
ENDBRANCH   6  27
TORSDOF 8
ENDMDL
MODEL 2
REMARK VINA RESULT:    -8.897      2.277      3.136
REMARK INTER + INTRA:         -13.533
REMARK INTER:                 -12.641
REMARK INTRA:                  -0.891
REMARK UNBOUND:                -0.734
REMARK SMILES Cc1nc(Nc2ncc(C(=O)Nc3c(C)cccc3Cl)s2)cc(N2CCN(CCO)CC2)n1
REMARK SMILES IDX 1 1 2 2 3 3 4 4 22 5 23 6 33 7 5 8 6 10 7 11 21 12 8 13 9 14
REMARK SMILES IDX 10 15 11 16 12 17 13 19 14 20 19 21 15 22 16 23 18 24 20 25
REMARK SMILES IDX 17 26 24 27 25 28 32 29 26 30 31 31 27 32 28 33 29 34 30 35
REMARK H PARENT 5 9 12 18 30 36
REMARK Flexibility Score: inf
ROOT
ATOM      1  C   UNL     1      16.520  41.462 -10.609  1.00  0.00     0.090 C 
ATOM      2  C   UNL     1      17.951  41.127 -10.858  1.00  0.00     0.130 A 
ATOM      3  N   UNL     1      18.902  41.487  -9.956  1.00  0.00    -0.216 NA
ATOM      4  C   UNL     1      20.213  41.176 -10.148  1.00  0.00     0.137 A 
ATOM      5  C   UNL     1      20.589  40.462 -11.293  1.00  0.00     0.094 A 
ATOM      6  C   UNL     1      19.602  40.107 -12.224  1.00  0.00     0.134 A 
ATOM      7  N   UNL     1      18.303  40.432 -11.971  1.00  0.00    -0.216 NA
ENDROOT
BRANCH   4   8
ATOM      8  N   UNL     1      21.201  41.543  -9.172  1.00  0.00    -0.316 N 
ATOM      9  H   UNL     1      21.286  42.545  -8.895  1.00  0.00     0.170 HD
BRANCH   8  10
ATOM     10  C   UNL     1      22.029  40.593  -8.487  1.00  0.00     0.189 A 
ATOM     11  N   UNL     1      23.210  40.901  -7.906  1.00  0.00    -0.228 NA
ATOM     12  S   UNL     1      21.702  38.945  -8.408  1.00  0.00    -0.091 S 
ATOM     13  C   UNL     1      23.822  39.800  -7.393  1.00  0.00     0.139 A 
ATOM     14  C   UNL     1      23.127  38.607  -7.573  1.00  0.00     0.114 A 
BRANCH  14  15
ATOM     15  C   UNL     1      23.584  37.274  -7.140  1.00  0.00     0.267 C 
ATOM     16  O   UNL     1      22.733  36.417  -6.770  1.00  0.00    -0.268 OA
ATOM     17  N   UNL     1      24.980  36.941  -7.147  1.00  0.00    -0.320 N 
ATOM     18  H   UNL     1      25.648  37.541  -7.681  1.00  0.00     0.170 HD
BRANCH  17  19
ATOM     19  C   UNL     1      25.455  35.692  -6.620  1.00  0.00     0.063 A 
ATOM     20  C   UNL     1      25.708  34.606  -7.490  1.00  0.00    -0.026 A 
ATOM     21  C   UNL     1      25.690  35.547  -5.235  1.00  0.00     0.064 A 
ATOM     22  C   UNL     1      25.489  34.744  -8.974  1.00  0.00     0.046 C 
ATOM     23  C   UNL     1      26.171  33.389  -6.959  1.00  0.00     0.005 A 
ATOM     24  C   UNL     1      26.152  34.328  -4.725  1.00  0.00     0.023 A 
ATOM     25  Cl  UNL     1      25.457  36.893  -4.121  1.00  0.00    -0.082 Cl
ATOM     26  C   UNL     1      26.386  33.251  -5.584  1.00  0.00     0.002 A 
ENDBRANCH  17  19
ENDBRANCH  14  15
ENDBRANCH   8  10
ENDBRANCH   4   8
BRANCH   6  27
ATOM     27  N   UNL     1      19.934  39.362 -13.410  1.00  0.00    -0.354 N 
ATOM     28  C   UNL     1      19.634  37.929 -13.467  1.00  0.00     0.133 C 
ATOM     29  C   UNL     1      20.413  40.028 -14.627  1.00  0.00     0.133 C 
ATOM     30  C   UNL     1      20.249  37.293 -14.727  1.00  0.00     0.106 C 
ATOM     31  C   UNL     1      21.638  39.287 -15.196  1.00  0.00     0.106 C 
ATOM     32  N   UNL     1      21.612  37.811 -14.979  1.00  0.00    -0.298 NA
BRANCH  32  33
ATOM     33  C   UNL     1      22.580  37.363 -13.944  1.00  0.00     0.112 C 
BRANCH  33  34
ATOM     34  C   UNL     1      23.899  36.921 -14.590  1.00  0.00     0.171 C 
BRANCH  34  35
ATOM     35  O   UNL     1      24.345  35.711 -14.039  1.00  0.00    -0.395 OA
ATOM     36  H   UNL     1      23.712  35.477 -13.303  1.00  0.00     0.210 HD
ENDBRANCH  34  35
ENDBRANCH  33  34
ENDBRANCH  32  33
ENDBRANCH   6  27
TORSDOF 8
ENDMDL
MODEL 3
REMARK VINA RESULT:    -8.887      2.466      3.453
REMARK INTER + INTRA:         -13.517
REMARK INTER:                 -12.667
REMARK INTRA:                  -0.850
REMARK UNBOUND:                -0.734
REMARK SMILES Cc1nc(Nc2ncc(C(=O)Nc3c(C)cccc3Cl)s2)cc(N2CCN(CCO)CC2)n1
REMARK SMILES IDX 1 1 2 2 3 3 4 4 22 5 23 6 33 7 5 8 6 10 7 11 21 12 8 13 9 14
REMARK SMILES IDX 10 15 11 16 12 17 13 19 14 20 19 21 15 22 16 23 18 24 20 25
REMARK SMILES IDX 17 26 24 27 25 28 32 29 26 30 31 31 27 32 28 33 29 34 30 35
REMARK H PARENT 5 9 12 18 30 36
REMARK Flexibility Score: inf
ROOT
ATOM      1  C   UNL     1      16.492  41.435 -10.723  1.00  0.00     0.090 C 
ATOM      2  C   UNL     1      17.937  41.108 -10.889  1.00  0.00     0.130 A 
ATOM      3  N   UNL     1      18.830  41.456  -9.925  1.00  0.00    -0.216 NA
ATOM      4  C   UNL     1      20.151  41.151 -10.041  1.00  0.00     0.137 A 
ATOM      5  C   UNL     1      20.599  40.457 -11.171  1.00  0.00     0.094 A 
ATOM      6  C   UNL     1      19.673  40.114 -12.167  1.00  0.00     0.134 A 
ATOM      7  N   UNL     1      18.360  40.431 -11.989  1.00  0.00    -0.216 NA
ENDROOT
BRANCH   4   8
ATOM      8  N   UNL     1      21.076  41.505  -9.000  1.00  0.00    -0.316 N 
ATOM      9  H   UNL     1      21.099  42.492  -8.662  1.00  0.00     0.170 HD
BRANCH   8  10
ATOM     10  C   UNL     1      21.920  40.556  -8.334  1.00  0.00     0.189 A 
ATOM     11  N   UNL     1      23.088  40.874  -7.733  1.00  0.00    -0.228 NA
ATOM     12  S   UNL     1      21.629  38.899  -8.301  1.00  0.00    -0.091 S 
ATOM     13  C   UNL     1      23.720  39.774  -7.244  1.00  0.00     0.139 A 
ATOM     14  C   UNL     1      23.055  38.571  -7.463  1.00  0.00     0.114 A 
BRANCH  14  15
ATOM     15  C   UNL     1      23.539  37.238  -7.062  1.00  0.00     0.267 C 
ATOM     16  O   UNL     1      22.705  36.356  -6.710  1.00  0.00    -0.268 OA
ATOM     17  N   UNL     1      24.940  36.931  -7.080  1.00  0.00    -0.320 N 
ATOM     18  H   UNL     1      25.595  37.556  -7.602  1.00  0.00     0.170 HD
BRANCH  17  19
ATOM     19  C   UNL     1      25.441  35.680  -6.583  1.00  0.00     0.063 A 
ATOM     20  C   UNL     1      25.704  35.518  -5.203  1.00  0.00    -0.026 A 
ATOM     21  C   UNL     1      25.657  34.600  -7.467  1.00  0.00     0.064 A 
ATOM     22  C   UNL     1      25.458  36.648  -4.237  1.00  0.00     0.046 C 
ATOM     23  C   UNL     1      26.196  34.288  -4.733  1.00  0.00     0.005 A 
ATOM     24  C   UNL     1      26.146  33.382  -6.981  1.00  0.00     0.023 A 
ATOM     25  Cl  UNL     1      25.276  34.730  -9.183  1.00  0.00    -0.082 Cl
ATOM     26  C   UNL     1      26.421  33.229  -5.619  1.00  0.00     0.002 A 
ENDBRANCH  17  19
ENDBRANCH  14  15
ENDBRANCH   8  10
ENDBRANCH   4   8
BRANCH   6  27
ATOM     27  N   UNL     1      20.080  39.390 -13.342  1.00  0.00    -0.354 N 
ATOM     28  C   UNL     1      19.741  37.969 -13.465  1.00  0.00     0.133 C 
ATOM     29  C   UNL     1      20.680  40.070 -14.496  1.00  0.00     0.133 C 
ATOM     30  C   UNL     1      20.439  37.346 -14.687  1.00  0.00     0.106 C 
ATOM     31  C   UNL     1      21.924  39.303 -14.982  1.00  0.00     0.106 C 
ATOM     32  N   UNL     1      21.834  37.824 -14.810  1.00  0.00    -0.298 NA
BRANCH  32  33
ATOM     33  C   UNL     1      22.698  37.317 -13.711  1.00  0.00     0.112 C 
BRANCH  33  34
ATOM     34  C   UNL     1      24.071  36.899 -14.250  1.00  0.00     0.171 C 
BRANCH  34  35
ATOM     35  O   UNL     1      24.405  35.607 -13.819  1.00  0.00    -0.395 OA
ATOM     36  H   UNL     1      24.520  35.049 -14.640  1.00  0.00     0.210 HD
ENDBRANCH  34  35
ENDBRANCH  33  34
ENDBRANCH  32  33
ENDBRANCH   6  27
TORSDOF 8
ENDMDL
MODEL 4
REMARK VINA RESULT:    -8.633      3.556      5.366
REMARK INTER + INTRA:         -13.153
REMARK INTER:                 -12.020
REMARK INTRA:                  -1.133
REMARK UNBOUND:                -0.734
REMARK SMILES Cc1nc(Nc2ncc(C(=O)Nc3c(C)cccc3Cl)s2)cc(N2CCN(CCO)CC2)n1
REMARK SMILES IDX 1 1 2 2 3 3 4 4 22 5 23 6 33 7 5 8 6 10 7 11 21 12 8 13 9 14
REMARK SMILES IDX 10 15 11 16 12 17 13 19 14 20 19 21 15 22 16 23 18 24 20 25
REMARK SMILES IDX 17 26 24 27 25 28 32 29 26 30 31 31 27 32 28 33 29 34 30 35
REMARK H PARENT 5 9 12 18 30 36
REMARK Flexibility Score: inf
ROOT
ATOM      1  C   UNL     1      18.187  40.204 -15.616  1.00  0.00     0.090 C 
ATOM      2  C   UNL     1      19.369  39.566 -14.969  1.00  0.00     0.130 A 
ATOM      3  N   UNL     1      19.207  38.799 -13.859  1.00  0.00    -0.216 NA
ATOM      4  C   UNL     1      20.265  38.188 -13.260  1.00  0.00     0.137 A 
ATOM      5  C   UNL     1      21.546  38.345 -13.803  1.00  0.00     0.094 A 
ATOM      6  C   UNL     1      21.706  39.150 -14.940  1.00  0.00     0.134 A 
ATOM      7  N   UNL     1      20.607  39.723 -15.507  1.00  0.00    -0.216 NA
ENDROOT
BRANCH   4   8
ATOM      8  N   UNL     1      20.070  37.360 -12.102  1.00  0.00    -0.316 N 
ATOM      9  H   UNL     1      19.459  36.517 -12.184  1.00  0.00     0.170 HD
BRANCH   8  10
ATOM     10  C   UNL     1      20.737  37.576 -10.852  1.00  0.00     0.189 A 
ATOM     11  N   UNL     1      20.447  38.590 -10.006  1.00  0.00    -0.228 NA
ATOM     12  S   UNL     1      22.046  36.666 -10.313  1.00  0.00    -0.091 S 
ATOM     13  C   UNL     1      21.279  38.604  -8.931  1.00  0.00     0.139 A 
ATOM     14  C   UNL     1      22.242  37.599  -8.923  1.00  0.00     0.114 A 
BRANCH  14  15
ATOM     15  C   UNL     1      23.278  37.411  -7.891  1.00  0.00     0.267 C 
ATOM     16  O   UNL     1      24.131  38.323  -7.696  1.00  0.00    -0.268 OA
ATOM     17  N   UNL     1      23.320  36.212  -7.104  1.00  0.00    -0.320 N 
ATOM     18  H   UNL     1      22.486  35.583  -7.084  1.00  0.00     0.170 HD
BRANCH  17  19
ATOM     19  C   UNL     1      24.388  35.959  -6.177  1.00  0.00     0.063 A 
ATOM     20  C   UNL     1      25.508  35.195  -6.578  1.00  0.00    -0.026 A 
ATOM     21  C   UNL     1      24.333  36.487  -4.869  1.00  0.00     0.064 A 
ATOM     22  C   UNL     1      25.600  34.642  -7.976  1.00  0.00     0.046 C 
ATOM     23  C   UNL     1      26.544  34.954  -5.658  1.00  0.00     0.005 A 
ATOM     24  C   UNL     1      25.375  36.238  -3.967  1.00  0.00     0.023 A 
ATOM     25  Cl  UNL     1      22.992  37.505  -4.347  1.00  0.00    -0.082 Cl
ATOM     26  C   UNL     1      26.473  35.468  -4.359  1.00  0.00     0.002 A 
ENDBRANCH  17  19
ENDBRANCH  14  15
ENDBRANCH   8  10
ENDBRANCH   4   8
BRANCH   6  27
ATOM     27  N   UNL     1      22.999  39.333 -15.545  1.00  0.00    -0.354 N 
ATOM     28  C   UNL     1      23.218  38.886 -16.923  1.00  0.00     0.133 C 
ATOM     29  C   UNL     1      24.056  40.103 -14.879  1.00  0.00     0.133 C 
ATOM     30  C   UNL     1      24.708  38.990 -17.298  1.00  0.00     0.106 C 
ATOM     31  C   UNL     1      25.395  39.343 -14.948  1.00  0.00     0.106 C 
ATOM     32  N   UNL     1      25.574  38.534 -16.189  1.00  0.00    -0.298 NA
BRANCH  32  33
ATOM     33  C   UNL     1      25.451  37.073 -15.947  1.00  0.00     0.112 C 
BRANCH  33  34
ATOM     34  C   UNL     1      25.246  36.784 -14.455  1.00  0.00     0.171 C 
BRANCH  34  35
ATOM     35  O   UNL     1      24.415  35.669 -14.271  1.00  0.00    -0.395 OA
ATOM     36  H   UNL     1      25.008  34.866 -14.257  1.00  0.00     0.210 HD
ENDBRANCH  34  35
ENDBRANCH  33  34
ENDBRANCH  32  33
ENDBRANCH   6  27
TORSDOF 8
ENDMDL
MODEL 5
REMARK VINA RESULT:    -8.624      4.647      7.650
REMARK INTER + INTRA:         -13.139
REMARK INTER:                 -12.375
REMARK INTRA:                  -0.764
REMARK UNBOUND:                -0.734
REMARK SMILES Cc1nc(Nc2ncc(C(=O)Nc3c(C)cccc3Cl)s2)cc(N2CCN(CCO)CC2)n1
REMARK SMILES IDX 1 1 2 2 3 3 4 4 22 5 23 6 33 7 5 8 6 10 7 11 21 12 8 13 9 14
REMARK SMILES IDX 10 15 11 16 12 17 13 19 14 20 19 21 15 22 16 23 18 24 20 25
REMARK SMILES IDX 17 26 24 27 25 28 32 29 26 30 31 31 27 32 28 33 29 34 30 35
REMARK H PARENT 5 9 12 18 30 36
REMARK Flexibility Score: inf
ROOT
ATOM      1  C   UNL     1      15.588  43.919  -5.959  1.00  0.00     0.090 C 
ATOM      2  C   UNL     1      16.991  43.718  -5.495  1.00  0.00     0.130 A 
ATOM      3  N   UNL     1      17.849  42.961  -6.228  1.00  0.00    -0.216 NA
ATOM      4  C   UNL     1      19.140  42.777  -5.838  1.00  0.00     0.137 A 
ATOM      5  C   UNL     1      19.597  43.388  -4.665  1.00  0.00     0.094 A 
ATOM      6  C   UNL     1      18.700  44.157  -3.907  1.00  0.00     0.134 A 
ATOM      7  N   UNL     1      17.423  44.319  -4.355  1.00  0.00    -0.216 NA
ENDROOT
BRANCH   4   8
ATOM      8  N   UNL     1      20.040  41.994  -6.640  1.00  0.00    -0.316 N 
ATOM      9  H   UNL     1      20.423  42.410  -7.517  1.00  0.00     0.170 HD
BRANCH   8  10
ATOM     10  C   UNL     1      20.513  40.696  -6.260  1.00  0.00     0.189 A 
ATOM     11  N   UNL     1      20.216  40.096  -5.085  1.00  0.00    -0.228 NA
ATOM     12  S   UNL     1      21.592  39.784  -7.173  1.00  0.00    -0.091 S 
ATOM     13  C   UNL     1      20.854  38.904  -4.951  1.00  0.00     0.139 A 
ATOM     14  C   UNL     1      21.671  38.553  -6.023  1.00  0.00     0.114 A 
BRANCH  14  15
ATOM     15  C   UNL     1      22.491  37.332  -6.114  1.00  0.00     0.267 C 
ATOM     16  O   UNL     1      21.953  36.207  -5.912  1.00  0.00    -0.268 OA
ATOM     17  N   UNL     1      23.887  37.410  -6.438  1.00  0.00    -0.320 N 
ATOM     18  H   UNL     1      24.270  38.292  -6.847  1.00  0.00     0.170 HD
BRANCH  17  19
ATOM     19  C   UNL     1      24.729  36.246  -6.417  1.00  0.00     0.063 A 
ATOM     20  C   UNL     1      25.365  35.853  -5.216  1.00  0.00    -0.026 A 
ATOM     21  C   UNL     1      24.911  35.479  -7.588  1.00  0.00     0.064 A 
ATOM     22  C   UNL     1      25.167  36.641  -3.948  1.00  0.00     0.046 C 
ATOM     23  C   UNL     1      26.188  34.713  -5.213  1.00  0.00     0.005 A 
ATOM     24  C   UNL     1      25.733  34.346  -7.565  1.00  0.00     0.023 A 
ATOM     25  Cl  UNL     1      24.082  35.888  -9.089  1.00  0.00    -0.082 Cl
ATOM     26  C   UNL     1      26.375  33.969  -6.383  1.00  0.00     0.002 A 
ENDBRANCH  17  19
ENDBRANCH  14  15
ENDBRANCH   8  10
ENDBRANCH   4   8
BRANCH   6  27
ATOM     27  N   UNL     1      19.122  44.816  -2.700  1.00  0.00    -0.354 N 
ATOM     28  C   UNL     1      19.522  44.010  -1.542  1.00  0.00     0.133 C 
ATOM     29  C   UNL     1      19.322  46.269  -2.647  1.00  0.00     0.133 C 
ATOM     30  C   UNL     1      19.738  44.903  -0.306  1.00  0.00     0.106 C 
ATOM     31  C   UNL     1      18.663  46.854  -1.383  1.00  0.00     0.106 C 
ATOM     32  N   UNL     1      18.689  45.940  -0.204  1.00  0.00    -0.298 NA
BRANCH  32  33
ATOM     33  C   UNL     1      17.356  45.359   0.106  1.00  0.00     0.112 C 
BRANCH  33  34
ATOM     34  C   UNL     1      17.202  45.126   1.613  1.00  0.00     0.171 C 
BRANCH  34  35
ATOM     35  O   UNL     1      16.506  43.936   1.867  1.00  0.00    -0.395 OA
ATOM     36  H   UNL     1      16.654  43.714   2.830  1.00  0.00     0.210 HD
ENDBRANCH  34  35
ENDBRANCH  33  34
ENDBRANCH  32  33
ENDBRANCH   6  27
TORSDOF 8
ENDMDL
MODEL 6
REMARK VINA RESULT:    -8.611      4.592      7.413
REMARK INTER + INTRA:         -13.120
REMARK INTER:                 -12.267
REMARK INTRA:                  -0.853
REMARK UNBOUND:                -0.734
REMARK SMILES Cc1nc(Nc2ncc(C(=O)Nc3c(C)cccc3Cl)s2)cc(N2CCN(CCO)CC2)n1
REMARK SMILES IDX 1 1 2 2 3 3 4 4 22 5 23 6 33 7 5 8 6 10 7 11 21 12 8 13 9 14
REMARK SMILES IDX 10 15 11 16 12 17 13 19 14 20 19 21 15 22 16 23 18 24 20 25
REMARK SMILES IDX 17 26 24 27 25 28 32 29 26 30 31 31 27 32 28 33 29 34 30 35
REMARK H PARENT 5 9 12 18 30 36
REMARK Flexibility Score: inf
ROOT
ATOM      1  C   UNL     1      19.965  46.501  -7.071  1.00  0.00     0.090 C 
ATOM      2  C   UNL     1      19.660  45.456  -6.053  1.00  0.00     0.130 A 
ATOM      3  N   UNL     1      19.470  44.166  -6.436  1.00  0.00    -0.216 NA
ATOM      4  C   UNL     1      19.212  43.188  -5.525  1.00  0.00     0.137 A 
ATOM      5  C   UNL     1      19.149  43.516  -4.166  1.00  0.00     0.094 A 
ATOM      6  C   UNL     1      19.332  44.852  -3.781  1.00  0.00     0.134 A 
ATOM      7  N   UNL     1      19.605  45.785  -4.735  1.00  0.00    -0.216 NA
ENDROOT
BRANCH   4   8
ATOM      8  N   UNL     1      19.039  41.825  -5.946  1.00  0.00    -0.316 N 
ATOM      9  H   UNL     1      18.075  41.481  -6.151  1.00  0.00     0.170 HD
BRANCH   8  10
ATOM     10  C   UNL     1      20.129  40.925  -6.184  1.00  0.00     0.189 A 
ATOM     11  N   UNL     1      20.973  41.020  -7.236  1.00  0.00    -0.228 NA
ATOM     12  S   UNL     1      20.445  39.563  -5.248  1.00  0.00    -0.091 S 
ATOM     13  C   UNL     1      21.868  39.997  -7.258  1.00  0.00     0.139 A 
ATOM     14  C   UNL     1      21.733  39.078  -6.221  1.00  0.00     0.114 A 
BRANCH  14  15
ATOM     15  C   UNL     1      22.555  37.868  -6.034  1.00  0.00     0.267 C 
ATOM     16  O   UNL     1      22.025  36.828  -5.551  1.00  0.00    -0.268 OA
ATOM     17  N   UNL     1      23.941  37.860  -6.405  1.00  0.00    -0.320 N 
ATOM     18  H   UNL     1      24.310  38.614  -7.026  1.00  0.00     0.170 HD
BRANCH  17  19
ATOM     19  C   UNL     1      24.786  36.733  -6.124  1.00  0.00     0.063 A 
ATOM     20  C   UNL     1      25.133  35.831  -7.158  1.00  0.00    -0.026 A 
ATOM     21  C   UNL     1      25.288  36.528  -4.820  1.00  0.00     0.064 A 
ATOM     22  C   UNL     1      24.629  36.042  -8.561  1.00  0.00     0.046 C 
ATOM     23  C   UNL     1      25.959  34.732  -6.866  1.00  0.00     0.005 A 
ATOM     24  C   UNL     1      26.110  35.428  -4.549  1.00  0.00     0.023 A 
ATOM     25  Cl  UNL     1      24.942  37.662  -3.517  1.00  0.00    -0.082 Cl
ATOM     26  C   UNL     1      26.439  34.529  -5.568  1.00  0.00     0.002 A 
ENDBRANCH  17  19
ENDBRANCH  14  15
ENDBRANCH   8  10
ENDBRANCH   4   8
BRANCH   6  27
ATOM     27  N   UNL     1      19.290  45.239  -2.395  1.00  0.00    -0.354 N 
ATOM     28  C   UNL     1      19.405  44.210  -1.357  1.00  0.00     0.133 C 
ATOM     29  C   UNL     1      19.300  46.649  -1.990  1.00  0.00     0.133 C 
ATOM     30  C   UNL     1      19.133  44.809   0.035  1.00  0.00     0.106 C 
ATOM     31  C   UNL     1      18.226  46.905  -0.916  1.00  0.00     0.106 C 
ATOM     32  N   UNL     1      17.993  45.751   0.000  1.00  0.00    -0.298 NA
BRANCH  32  33
ATOM     33  C   UNL     1      16.703  45.060  -0.259  1.00  0.00     0.112 C 
BRANCH  33  34
ATOM     34  C   UNL     1      16.187  44.379   1.013  1.00  0.00     0.171 C 
BRANCH  34  35
ATOM     35  O   UNL     1      15.048  43.607   0.741  1.00  0.00    -0.395 OA
ATOM     36  H   UNL     1      14.300  44.245   0.570  1.00  0.00     0.210 HD
ENDBRANCH  34  35
ENDBRANCH  33  34
ENDBRANCH  32  33
ENDBRANCH   6  27
TORSDOF 8
ENDMDL
MODEL 7
REMARK VINA RESULT:    -8.596      3.969      6.581
REMARK INTER + INTRA:         -13.099
REMARK INTER:                 -12.040
REMARK INTRA:                  -1.059
REMARK UNBOUND:                -0.734
REMARK SMILES Cc1nc(Nc2ncc(C(=O)Nc3c(C)cccc3Cl)s2)cc(N2CCN(CCO)CC2)n1
REMARK SMILES IDX 1 1 2 2 3 3 4 4 22 5 23 6 33 7 5 8 6 10 7 11 21 12 8 13 9 14
REMARK SMILES IDX 10 15 11 16 12 17 13 19 14 20 19 21 15 22 16 23 18 24 20 25
REMARK SMILES IDX 17 26 24 27 25 28 32 29 26 30 31 31 27 32 28 33 29 34 30 35
REMARK H PARENT 5 9 12 18 30 36
REMARK Flexibility Score: inf
ROOT
ATOM      1  C   UNL     1      18.701  38.982 -18.226  1.00  0.00     0.090 C 
ATOM      2  C   UNL     1      19.602  38.842 -17.047  1.00  0.00     0.130 A 
ATOM      3  N   UNL     1      19.087  38.524 -15.830  1.00  0.00    -0.216 NA
ATOM      4  C   UNL     1      19.888  38.369 -14.741  1.00  0.00     0.137 A 
ATOM      5  C   UNL     1      21.272  38.532 -14.878  1.00  0.00     0.094 A 
ATOM      6  C   UNL     1      21.793  38.874 -16.135  1.00  0.00     0.134 A 
ATOM      7  N   UNL     1      20.944  38.999 -17.193  1.00  0.00    -0.216 NA
ENDROOT
BRANCH   4   8
ATOM      8  N   UNL     1      19.328  38.007 -13.468  1.00  0.00    -0.316 N 
ATOM      9  H   UNL     1      18.308  37.798 -13.409  1.00  0.00     0.170 HD
BRANCH   8  10
ATOM     10  C   UNL     1      20.110  37.834 -12.279  1.00  0.00     0.189 A 
ATOM     11  N   UNL     1      20.596  36.645 -11.859  1.00  0.00    -0.228 NA
ATOM     12  S   UNL     1      20.440  39.068 -11.183  1.00  0.00    -0.091 S 
ATOM     13  C   UNL     1      21.239  36.754 -10.666  1.00  0.00     0.139 A 
ATOM     14  C   UNL     1      21.260  38.038 -10.129  1.00  0.00     0.114 A 
BRANCH  14  15
ATOM     15  C   UNL     1      21.863  38.419  -8.839  1.00  0.00     0.267 C 
ATOM     16  O   UNL     1      22.543  39.481  -8.761  1.00  0.00    -0.268 OA
ATOM     17  N   UNL     1      21.676  37.602  -7.674  1.00  0.00    -0.320 N 
ATOM     18  H   UNL     1      20.923  36.878  -7.670  1.00  0.00     0.170 HD
BRANCH  17  19
ATOM     19  C   UNL     1      22.349  37.892  -6.438  1.00  0.00     0.063 A 
ATOM     20  C   UNL     1      23.533  37.197  -6.096  1.00  0.00    -0.026 A 
ATOM     21  C   UNL     1      21.844  38.882  -5.568  1.00  0.00     0.064 A 
ATOM     22  C   UNL     1      24.105  36.154  -7.019  1.00  0.00     0.046 C 
ATOM     23  C   UNL     1      24.179  37.491  -4.882  1.00  0.00     0.005 A 
ATOM     24  C   UNL     1      22.501  39.161  -4.364  1.00  0.00     0.023 A 
ATOM     25  Cl  UNL     1      20.413  39.823  -5.985  1.00  0.00    -0.082 Cl
ATOM     26  C   UNL     1      23.661  38.463  -4.019  1.00  0.00     0.002 A 
ENDBRANCH  17  19
ENDBRANCH  14  15
ENDBRANCH   8  10
ENDBRANCH   4   8
BRANCH   6  27
ATOM     27  N   UNL     1      23.209  39.040 -16.332  1.00  0.00    -0.354 N 
ATOM     28  C   UNL     1      23.867  38.343 -17.441  1.00  0.00     0.133 C 
ATOM     29  C   UNL     1      23.983  40.016 -15.557  1.00  0.00     0.133 C 
ATOM     30  C   UNL     1      25.397  38.495 -17.347  1.00  0.00     0.106 C 
ATOM     31  C   UNL     1      25.284  39.374 -15.037  1.00  0.00     0.106 C 
ATOM     32  N   UNL     1      25.866  38.349 -15.951  1.00  0.00    -0.298 NA
BRANCH  32  33
ATOM     33  C   UNL     1      25.695  36.962 -15.446  1.00  0.00     0.112 C 
BRANCH  33  34
ATOM     34  C   UNL     1      24.934  36.959 -14.115  1.00  0.00     0.171 C 
BRANCH  34  35
ATOM     35  O   UNL     1      24.408  35.688 -13.841  1.00  0.00    -0.395 OA
ATOM     36  H   UNL     1      25.184  35.064 -13.766  1.00  0.00     0.210 HD
ENDBRANCH  34  35
ENDBRANCH  33  34
ENDBRANCH  32  33
ENDBRANCH   6  27
TORSDOF 8
ENDMDL
MODEL 8
REMARK VINA RESULT:    -8.536      1.165      1.623
REMARK INTER + INTRA:         -13.012
REMARK INTER:                 -12.387
REMARK INTRA:                  -0.625
REMARK UNBOUND:                -0.734
REMARK SMILES Cc1nc(Nc2ncc(C(=O)Nc3c(C)cccc3Cl)s2)cc(N2CCN(CCO)CC2)n1
REMARK SMILES IDX 1 1 2 2 3 3 4 4 22 5 23 6 33 7 5 8 6 10 7 11 21 12 8 13 9 14
REMARK SMILES IDX 10 15 11 16 12 17 13 19 14 20 19 21 15 22 16 23 18 24 20 25
REMARK SMILES IDX 17 26 24 27 25 28 32 29 26 30 31 31 27 32 28 33 29 34 30 35
REMARK H PARENT 5 9 12 18 30 36
REMARK Flexibility Score: inf
ROOT
ATOM      1  C   UNL     1      21.565  45.534  -8.907  1.00  0.00     0.090 C 
ATOM      2  C   UNL     1      21.024  44.144  -8.926  1.00  0.00     0.130 A 
ATOM      3  N   UNL     1      20.750  43.503  -7.760  1.00  0.00    -0.216 NA
ATOM      4  C   UNL     1      20.236  42.244  -7.748  1.00  0.00     0.137 A 
ATOM      5  C   UNL     1      19.975  41.598  -8.962  1.00  0.00     0.094 A 
ATOM      6  C   UNL     1      20.274  42.262 -10.161  1.00  0.00     0.134 A 
ATOM      7  N   UNL     1      20.772  43.529 -10.111  1.00  0.00    -0.216 NA
ENDROOT
BRANCH   4   8
ATOM      8  N   UNL     1      19.929  41.591  -6.505  1.00  0.00    -0.316 N 
ATOM      9  H   UNL     1      19.194  42.004  -5.889  1.00  0.00     0.170 HD
BRANCH   8  10
ATOM     10  C   UNL     1      20.518  40.351  -6.095  1.00  0.00     0.189 A 
ATOM     11  N   UNL     1      20.526  39.903  -4.819  1.00  0.00    -0.228 NA
ATOM     12  S   UNL     1      21.376  39.332  -7.122  1.00  0.00    -0.091 S 
ATOM     13  C   UNL     1      21.214  38.736  -4.698  1.00  0.00     0.139 A 
ATOM     14  C   UNL     1      21.763  38.255  -5.884  1.00  0.00     0.114 A 
BRANCH  14  15
ATOM     15  C   UNL     1      22.576  37.033  -6.019  1.00  0.00     0.267 C 
ATOM     16  O   UNL     1      22.031  35.905  -5.855  1.00  0.00    -0.268 OA
ATOM     17  N   UNL     1      23.971  37.113  -6.344  1.00  0.00    -0.320 N 
ATOM     18  H   UNL     1      24.358  38.006  -6.724  1.00  0.00     0.170 HD
BRANCH  17  19
ATOM     19  C   UNL     1      24.805  35.944  -6.366  1.00  0.00     0.063 A 
ATOM     20  C   UNL     1      25.086  35.296  -7.592  1.00  0.00    -0.026 A 
ATOM     21  C   UNL     1      25.364  35.447  -5.169  1.00  0.00     0.064 A 
ATOM     22  C   UNL     1      24.521  35.822  -8.885  1.00  0.00     0.046 C 
ATOM     23  C   UNL     1      25.902  34.151  -7.596  1.00  0.00     0.005 A 
ATOM     24  C   UNL     1      26.175  34.307  -5.193  1.00  0.00     0.023 A 
ATOM     25  Cl  UNL     1      25.101  36.262  -3.628  1.00  0.00    -0.082 Cl
ATOM     26  C   UNL     1      26.438  33.657  -6.402  1.00  0.00     0.002 A 
ENDBRANCH  17  19
ENDBRANCH  14  15
ENDBRANCH   8  10
ENDBRANCH   4   8
BRANCH   6  27
ATOM     27  N   UNL     1      20.013  41.647 -11.436  1.00  0.00    -0.354 N 
ATOM     28  C   UNL     1      19.324  42.415 -12.478  1.00  0.00     0.133 C 
ATOM     29  C   UNL     1      20.561  40.330 -11.781  1.00  0.00     0.133 C 
ATOM     30  C   UNL     1      18.968  41.513 -13.674  1.00  0.00     0.106 C 
ATOM     31  C   UNL     1      19.469  39.445 -12.412  1.00  0.00     0.106 C 
ATOM     32  N   UNL     1      18.467  40.197 -13.222  1.00  0.00    -0.298 NA
BRANCH  32  33
ATOM     33  C   UNL     1      17.144  40.301 -12.553  1.00  0.00     0.112 C 
BRANCH  33  34
ATOM     34  C   UNL     1      16.054  40.681 -13.561  1.00  0.00     0.171 C 
BRANCH  34  35
ATOM     35  O   UNL     1      15.056  39.696 -13.615  1.00  0.00    -0.395 OA
ATOM     36  H   UNL     1      15.522  38.817 -13.693  1.00  0.00     0.210 HD
ENDBRANCH  34  35
ENDBRANCH  33  34
ENDBRANCH  32  33
ENDBRANCH   6  27
TORSDOF 8
ENDMDL
MODEL 9
REMARK VINA RESULT:    -8.520      3.408      5.399
REMARK INTER + INTRA:         -12.990
REMARK INTER:                 -11.822
REMARK INTRA:                  -1.167
REMARK UNBOUND:                -0.734
REMARK SMILES Cc1nc(Nc2ncc(C(=O)Nc3c(C)cccc3Cl)s2)cc(N2CCN(CCO)CC2)n1
REMARK SMILES IDX 1 1 2 2 3 3 4 4 22 5 23 6 33 7 5 8 6 10 7 11 21 12 8 13 9 14
REMARK SMILES IDX 10 15 11 16 12 17 13 19 14 20 19 21 15 22 16 23 18 24 20 25
REMARK SMILES IDX 17 26 24 27 25 28 32 29 26 30 31 31 27 32 28 33 29 34 30 35
REMARK H PARENT 5 9 12 18 30 36
REMARK Flexibility Score: inf
ROOT
ATOM      1  C   UNL     1      19.008  38.829 -16.355  1.00  0.00     0.090 C 
ATOM      2  C   UNL     1      19.913  38.803 -15.171  1.00  0.00     0.130 A 
ATOM      3  N   UNL     1      19.409  38.989 -13.923  1.00  0.00    -0.216 NA
ATOM      4  C   UNL     1      20.210  38.949 -12.823  1.00  0.00     0.137 A 
ATOM      5  C   UNL     1      21.579  38.702 -12.979  1.00  0.00     0.094 A 
ATOM      6  C   UNL     1      22.092  38.524 -14.272  1.00  0.00     0.134 A 
ATOM      7  N   UNL     1      21.240  38.559 -15.335  1.00  0.00    -0.216 NA
ENDROOT
BRANCH   4   8
ATOM      8  N   UNL     1      19.655  39.123 -11.509  1.00  0.00    -0.316 N 
ATOM      9  H   UNL     1      18.639  39.345 -11.418  1.00  0.00     0.170 HD
BRANCH   8  10
ATOM     10  C   UNL     1      20.401  38.927 -10.301  1.00  0.00     0.189 A 
ATOM     11  N   UNL     1      20.898  39.934  -9.548  1.00  0.00    -0.228 NA
ATOM     12  S   UNL     1      20.858  37.419  -9.712  1.00  0.00    -0.091 S 
ATOM     13  C   UNL     1      21.626  39.467  -8.499  1.00  0.00     0.139 A 
ATOM     14  C   UNL     1      21.717  38.080  -8.420  1.00  0.00     0.114 A 
BRANCH  14  15
ATOM     15  C   UNL     1      22.469  37.326  -7.402  1.00  0.00     0.267 C 
ATOM     16  O   UNL     1      21.848  36.554  -6.618  1.00  0.00    -0.268 OA
ATOM     17  N   UNL     1      23.894  37.452  -7.301  1.00  0.00    -0.320 N 
ATOM     18  H   UNL     1      24.429  37.879  -8.091  1.00  0.00     0.170 HD
BRANCH  17  19
ATOM     19  C   UNL     1      24.631  36.818  -6.244  1.00  0.00     0.063 A 
ATOM     20  C   UNL     1      25.446  35.695  -6.521  1.00  0.00    -0.026 A 
ATOM     21  C   UNL     1      24.561  37.321  -4.926  1.00  0.00     0.064 A 
ATOM     22  C   UNL     1      25.556  35.155  -7.923  1.00  0.00     0.046 C 
ATOM     23  C   UNL     1      26.159  35.084  -5.475  1.00  0.00     0.005 A 
ATOM     24  C   UNL     1      25.279  36.700  -3.898  1.00  0.00     0.023 A 
ATOM     25  Cl  UNL     1      23.616  38.759  -4.545  1.00  0.00    -0.082 Cl
ATOM     26  C   UNL     1      26.070  35.581  -4.170  1.00  0.00     0.002 A 
ENDBRANCH  17  19
ENDBRANCH  14  15
ENDBRANCH   8  10
ENDBRANCH   4   8
BRANCH   6  27
ATOM     27  N   UNL     1      23.490  38.255 -14.486  1.00  0.00    -0.354 N 
ATOM     28  C   UNL     1      24.404  39.368 -14.757  1.00  0.00     0.133 C 
ATOM     29  C   UNL     1      24.055  36.917 -14.278  1.00  0.00     0.133 C 
ATOM     30  C   UNL     1      25.797  38.845 -15.154  1.00  0.00     0.106 C 
ATOM     31  C   UNL     1      24.970  36.533 -15.457  1.00  0.00     0.106 C 
ATOM     32  N   UNL     1      25.695  37.685 -16.066  1.00  0.00    -0.298 NA
BRANCH  32  33
ATOM     33  C   UNL     1      25.155  38.067 -17.398  1.00  0.00     0.112 C 
BRANCH  33  34
ATOM     34  C   UNL     1      24.120  37.043 -17.878  1.00  0.00     0.171 C 
BRANCH  34  35
ATOM     35  O   UNL     1      22.825  37.578 -17.824  1.00  0.00    -0.395 OA
ATOM     36  H   UNL     1      22.645  37.806 -16.869  1.00  0.00     0.210 HD
ENDBRANCH  34  35
ENDBRANCH  33  34
ENDBRANCH  32  33
ENDBRANCH   6  27
TORSDOF 8
ENDMDL
MODEL 10
REMARK VINA RESULT:    -8.509      3.552      5.995
REMARK INTER + INTRA:         -12.974
REMARK INTER:                 -11.761
REMARK INTRA:                  -1.212
REMARK UNBOUND:                -0.734
REMARK SMILES Cc1nc(Nc2ncc(C(=O)Nc3c(C)cccc3Cl)s2)cc(N2CCN(CCO)CC2)n1
REMARK SMILES IDX 1 1 2 2 3 3 4 4 22 5 23 6 33 7 5 8 6 10 7 11 21 12 8 13 9 14
REMARK SMILES IDX 10 15 11 16 12 17 13 19 14 20 19 21 15 22 16 23 18 24 20 25
REMARK SMILES IDX 17 26 24 27 25 28 32 29 26 30 31 31 27 32 28 33 29 34 30 35
REMARK H PARENT 5 9 12 18 30 36
REMARK Flexibility Score: inf
ROOT
ATOM      1  C   UNL     1      21.470  46.536  -8.874  1.00  0.00     0.090 C 
ATOM      2  C   UNL     1      20.916  45.250  -8.361  1.00  0.00     0.130 A 
ATOM      3  N   UNL     1      21.258  44.076  -8.951  1.00  0.00    -0.216 NA
ATOM      4  C   UNL     1      20.784  42.887  -8.490  1.00  0.00     0.137 A 
ATOM      5  C   UNL     1      19.932  42.872  -7.379  1.00  0.00     0.094 A 
ATOM      6  C   UNL     1      19.573  44.091  -6.784  1.00  0.00     0.134 A 
ATOM      7  N   UNL     1      20.092  45.249  -7.279  1.00  0.00    -0.216 NA
ENDROOT
BRANCH   4   8
ATOM      8  N   UNL     1      21.178  41.652  -9.111  1.00  0.00    -0.316 N 
ATOM      9  H   UNL     1      20.899  41.478 -10.102  1.00  0.00     0.170 HD
BRANCH   8  10
ATOM     10  C   UNL     1      22.008  40.674  -8.473  1.00  0.00     0.189 A 
ATOM     11  N   UNL     1      23.156  40.965  -7.821  1.00  0.00    -0.228 NA
ATOM     12  S   UNL     1      21.727  39.016  -8.539  1.00  0.00    -0.091 S 
ATOM     13  C   UNL     1      23.781  39.843  -7.375  1.00  0.00     0.139 A 
ATOM     14  C   UNL     1      23.130  38.650  -7.678  1.00  0.00     0.114 A 
BRANCH  14  15
ATOM     15  C   UNL     1      23.611  37.299  -7.336  1.00  0.00     0.267 C 
ATOM     16  O   UNL     1      22.776  36.361  -7.198  1.00  0.00    -0.268 OA
ATOM     17  N   UNL     1      25.012  37.041  -7.169  1.00  0.00    -0.320 N 
ATOM     18  H   UNL     1      25.707  37.736  -7.524  1.00  0.00     0.170 HD
BRANCH  17  19
ATOM     19  C   UNL     1      25.492  35.763  -6.722  1.00  0.00     0.063 A 
ATOM     20  C   UNL     1      25.712  35.530  -5.344  1.00  0.00    -0.026 A 
ATOM     21  C   UNL     1      25.729  34.728  -7.652  1.00  0.00     0.064 A 
ATOM     22  C   UNL     1      25.443  36.610  -4.330  1.00  0.00     0.046 C 
ATOM     23  C   UNL     1      26.184  34.274  -4.924  1.00  0.00     0.005 A 
ATOM     24  C   UNL     1      26.198  33.484  -7.215  1.00  0.00     0.023 A 
ATOM     25  Cl  UNL     1      25.402  34.948  -9.370  1.00  0.00    -0.082 Cl
ATOM     26  C   UNL     1      26.431  33.260  -5.855  1.00  0.00     0.002 A 
ENDBRANCH  17  19
ENDBRANCH  14  15
ENDBRANCH   8  10
ENDBRANCH   4   8
BRANCH   6  27
ATOM     27  N   UNL     1      18.711  44.130  -5.633  1.00  0.00    -0.354 N 
ATOM     28  C   UNL     1      17.445  44.865  -5.706  1.00  0.00     0.133 C 
ATOM     29  C   UNL     1      18.983  43.318  -4.441  1.00  0.00     0.133 C 
ATOM     30  C   UNL     1      16.783  44.949  -4.318  1.00  0.00     0.106 C 
ATOM     31  C   UNL     1      18.829  44.170  -3.167  1.00  0.00     0.106 C 
ATOM     32  N   UNL     1      17.782  45.228  -3.263  1.00  0.00    -0.298 NA
BRANCH  32  33
ATOM     33  C   UNL     1      18.352  46.596  -3.380  1.00  0.00     0.112 C 
BRANCH  33  34
ATOM     34  C   UNL     1      19.883  46.543  -3.442  1.00  0.00     0.171 C 
BRANCH  34  35
ATOM     35  O   UNL     1      20.353  47.064  -4.656  1.00  0.00    -0.395 OA
ATOM     36  H   UNL     1      19.551  47.236  -5.227  1.00  0.00     0.210 HD
ENDBRANCH  34  35
ENDBRANCH  33  34
ENDBRANCH  32  33
ENDBRANCH   6  27
TORSDOF 8
ENDMDL
MODEL 11
REMARK VINA RESULT:    -8.399      3.747      5.967
REMARK INTER + INTRA:         -12.816
REMARK INTER:                 -11.707
REMARK INTRA:                  -1.109
REMARK UNBOUND:                -0.734
REMARK SMILES Cc1nc(Nc2ncc(C(=O)Nc3c(C)cccc3Cl)s2)cc(N2CCN(CCO)CC2)n1
REMARK SMILES IDX 1 1 2 2 3 3 4 4 22 5 23 6 33 7 5 8 6 10 7 11 21 12 8 13 9 14
REMARK SMILES IDX 10 15 11 16 12 17 13 19 14 20 19 21 15 22 16 23 18 24 20 25
REMARK SMILES IDX 17 26 24 27 25 28 32 29 26 30 31 31 27 32 28 33 29 34 30 35
REMARK H PARENT 5 9 12 18 30 36
REMARK Flexibility Score: inf
ROOT
ATOM      1  C   UNL     1      18.826  39.016 -16.624  1.00  0.00     0.090 C 
ATOM      2  C   UNL     1      19.797  38.617 -15.565  1.00  0.00     0.130 A 
ATOM      3  N   UNL     1      19.381  38.466 -14.281  1.00  0.00    -0.216 NA
ATOM      4  C   UNL     1      20.241  38.082 -13.299  1.00  0.00     0.137 A 
ATOM      5  C   UNL     1      21.580  37.828 -13.620  1.00  0.00     0.094 A 
ATOM      6  C   UNL     1      22.003  37.999 -14.946  1.00  0.00     0.134 A 
ATOM      7  N   UNL     1      21.093  38.370 -15.890  1.00  0.00    -0.216 NA
ENDROOT
BRANCH   4   8
ATOM      8  N   UNL     1      19.777  37.903 -11.951  1.00  0.00    -0.316 N 
ATOM      9  H   UNL     1      18.822  37.511 -11.796  1.00  0.00     0.170 HD
BRANCH   8  10
ATOM     10  C   UNL     1      20.586  38.154 -10.794  1.00  0.00     0.189 A 
ATOM     11  N   UNL     1      20.666  39.352 -10.173  1.00  0.00    -0.228 NA
ATOM     12  S   UNL     1      21.633  37.026 -10.116  1.00  0.00    -0.091 S 
ATOM     13  C   UNL     1      21.561  39.332  -9.150  1.00  0.00     0.139 A 
ATOM     14  C   UNL     1      22.204  38.112  -8.959  1.00  0.00     0.114 A 
BRANCH  14  15
ATOM     15  C   UNL     1      23.235  37.835  -7.943  1.00  0.00     0.267 C 
ATOM     16  O   UNL     1      24.057  38.743  -7.630  1.00  0.00    -0.268 OA
ATOM     17  N   UNL     1      23.306  36.554  -7.302  1.00  0.00    -0.320 N 
ATOM     18  H   UNL     1      22.492  35.902  -7.367  1.00  0.00     0.170 HD
BRANCH  17  19
ATOM     19  C   UNL     1      24.371  36.226  -6.396  1.00  0.00     0.063 A 
ATOM     20  C   UNL     1      24.221  36.460  -5.009  1.00  0.00    -0.026 A 
ATOM     21  C   UNL     1      25.566  35.651  -6.882  1.00  0.00     0.064 A 
ATOM     22  C   UNL     1      22.947  37.049  -4.463  1.00  0.00     0.046 C 
ATOM     23  C   UNL     1      25.275  36.135  -4.136  1.00  0.00     0.005 A 
ATOM     24  C   UNL     1      26.603  35.333  -5.998  1.00  0.00     0.023 A 
ATOM     25  Cl  UNL     1      25.771  35.275  -8.592  1.00  0.00    -0.082 Cl
ATOM     26  C   UNL     1      26.460  35.581  -4.630  1.00  0.00     0.002 A 
ENDBRANCH  17  19
ENDBRANCH  14  15
ENDBRANCH   8  10
ENDBRANCH   4   8
BRANCH   6  27
ATOM     27  N   UNL     1      23.365  37.739 -15.330  1.00  0.00    -0.354 N 
ATOM     28  C   UNL     1      24.345  37.372 -14.304  1.00  0.00     0.133 C 
ATOM     29  C   UNL     1      23.766  37.669 -16.740  1.00  0.00     0.133 C 
ATOM     30  C   UNL     1      25.766  37.339 -14.895  1.00  0.00     0.106 C 
ATOM     31  C   UNL     1      25.055  38.481 -16.971  1.00  0.00     0.106 C 
ATOM     32  N   UNL     1      25.993  38.478 -15.811  1.00  0.00    -0.298 NA
BRANCH  32  33
ATOM     33  C   UNL     1      26.025  39.778 -15.091  1.00  0.00     0.112 C 
BRANCH  33  34
ATOM     34  C   UNL     1      25.469  40.901 -15.974  1.00  0.00     0.171 C 
BRANCH  34  35
ATOM     35  O   UNL     1      24.573  41.706 -15.256  1.00  0.00    -0.395 OA
ATOM     36  H   UNL     1      25.028  42.581 -15.104  1.00  0.00     0.210 HD
ENDBRANCH  34  35
ENDBRANCH  33  34
ENDBRANCH  32  33
ENDBRANCH   6  27
TORSDOF 8
ENDMDL
MODEL 12
REMARK VINA RESULT:    -8.374      2.223      2.722
REMARK INTER + INTRA:         -12.780
REMARK INTER:                 -11.782
REMARK INTRA:                  -0.997
REMARK UNBOUND:                -0.734
REMARK SMILES Cc1nc(Nc2ncc(C(=O)Nc3c(C)cccc3Cl)s2)cc(N2CCN(CCO)CC2)n1
REMARK SMILES IDX 1 1 2 2 3 3 4 4 22 5 23 6 33 7 5 8 6 10 7 11 21 12 8 13 9 14
REMARK SMILES IDX 10 15 11 16 12 17 13 19 14 20 19 21 15 22 16 23 18 24 20 25
REMARK SMILES IDX 17 26 24 27 25 28 32 29 26 30 31 31 27 32 28 33 29 34 30 35
REMARK H PARENT 5 9 12 18 30 36
REMARK Flexibility Score: inf
ROOT
ATOM      1  C   UNL     1      21.581  45.925  -8.537  1.00  0.00     0.090 C 
ATOM      2  C   UNL     1      20.612  44.796  -8.432  1.00  0.00     0.130 A 
ATOM      3  N   UNL     1      20.858  43.763  -7.584  1.00  0.00    -0.216 NA
ATOM      4  C   UNL     1      19.981  42.731  -7.454  1.00  0.00     0.137 A 
ATOM      5  C   UNL     1      18.798  42.736  -8.201  1.00  0.00     0.094 A 
ATOM      6  C   UNL     1      18.559  43.800  -9.084  1.00  0.00     0.134 A 
ATOM      7  N   UNL     1      19.465  44.815  -9.161  1.00  0.00    -0.216 NA
ENDROOT
BRANCH   4   8
ATOM      8  N   UNL     1      20.246  41.660  -6.533  1.00  0.00    -0.316 N 
ATOM      9  H   UNL     1      19.840  41.711  -5.573  1.00  0.00     0.170 HD
BRANCH   8  10
ATOM     10  C   UNL     1      20.973  40.475  -6.884  1.00  0.00     0.189 A 
ATOM     11  N   UNL     1      21.098  40.010  -8.147  1.00  0.00    -0.228 NA
ATOM     12  S   UNL     1      21.680  39.439  -5.762  1.00  0.00    -0.091 S 
ATOM     13  C   UNL     1      21.775  38.832  -8.187  1.00  0.00     0.139 A 
ATOM     14  C   UNL     1      22.187  38.351  -6.947  1.00  0.00     0.114 A 
BRANCH  14  15
ATOM     15  C   UNL     1      22.908  37.087  -6.713  1.00  0.00     0.267 C 
ATOM     16  O   UNL     1      22.269  36.074  -6.313  1.00  0.00    -0.268 OA
ATOM     17  N   UNL     1      24.321  36.997  -6.946  1.00  0.00    -0.320 N 
ATOM     18  H   UNL     1      24.797  37.738  -7.507  1.00  0.00     0.170 HD
BRANCH  17  19
ATOM     19  C   UNL     1      25.062  35.812  -6.614  1.00  0.00     0.063 A 
ATOM     20  C   UNL     1      25.422  34.893  -7.628  1.00  0.00    -0.026 A 
ATOM     21  C   UNL     1      25.449  35.566  -5.279  1.00  0.00     0.064 A 
ATOM     22  C   UNL     1      25.041  35.146  -9.063  1.00  0.00     0.046 C 
ATOM     23  C   UNL     1      26.145  33.737  -7.286  1.00  0.00     0.005 A 
ATOM     24  C   UNL     1      26.170  34.410  -4.958  1.00  0.00     0.023 A 
ATOM     25  Cl  UNL     1      25.086  36.716  -3.993  1.00  0.00    -0.082 Cl
ATOM     26  C   UNL     1      26.511  33.495  -5.958  1.00  0.00     0.002 A 
ENDBRANCH  17  19
ENDBRANCH  14  15
ENDBRANCH   8  10
ENDBRANCH   4   8
BRANCH   6  27
ATOM     27  N   UNL     1      17.352  43.860  -9.866  1.00  0.00    -0.354 N 
ATOM     28  C   UNL     1      16.069  43.537  -9.234  1.00  0.00     0.133 C 
ATOM     29  C   UNL     1      17.347  44.394 -11.232  1.00  0.00     0.133 C 
ATOM     30  C   UNL     1      14.947  43.465 -10.286  1.00  0.00     0.106 C 
ATOM     31  C   UNL     1      16.553  43.462 -12.168  1.00  0.00     0.106 C 
ATOM     32  N   UNL     1      15.404  42.774 -11.511  1.00  0.00    -0.298 NA
BRANCH  32  33
ATOM     33  C   UNL     1      15.654  41.327 -11.277  1.00  0.00     0.112 C 
BRANCH  33  34
ATOM     34  C   UNL     1      16.917  40.869 -12.016  1.00  0.00     0.171 C 
BRANCH  34  35
ATOM     35  O   UNL     1      16.734  39.596 -12.577  1.00  0.00    -0.395 OA
ATOM     36  H   UNL     1      15.790  39.555 -12.901  1.00  0.00     0.210 HD
ENDBRANCH  34  35
ENDBRANCH  33  34
ENDBRANCH  32  33
ENDBRANCH   6  27
TORSDOF 8
ENDMDL
MODEL 13
REMARK VINA RESULT:    -8.362      2.686      3.814
REMARK INTER + INTRA:         -12.763
REMARK INTER:                 -11.649
REMARK INTRA:                  -1.114
REMARK UNBOUND:                -0.734
REMARK SMILES Cc1nc(Nc2ncc(C(=O)Nc3c(C)cccc3Cl)s2)cc(N2CCN(CCO)CC2)n1
REMARK SMILES IDX 1 1 2 2 3 3 4 4 22 5 23 6 33 7 5 8 6 10 7 11 21 12 8 13 9 14
REMARK SMILES IDX 10 15 11 16 12 17 13 19 14 20 19 21 15 22 16 23 18 24 20 25
REMARK SMILES IDX 17 26 24 27 25 28 32 29 26 30 31 31 27 32 28 33 29 34 30 35
REMARK H PARENT 5 9 12 18 30 36
REMARK Flexibility Score: inf
ROOT
ATOM      1  C   UNL     1      19.916  44.003 -12.931  1.00  0.00     0.090 C 
ATOM      2  C   UNL     1      20.362  42.582 -12.840  1.00  0.00     0.130 A 
ATOM      3  N   UNL     1      19.865  41.773 -11.868  1.00  0.00    -0.216 NA
ATOM      4  C   UNL     1      20.239  40.468 -11.775  1.00  0.00     0.137 A 
ATOM      5  C   UNL     1      21.146  39.946 -12.705  1.00  0.00     0.094 A 
ATOM      6  C   UNL     1      21.664  40.792 -13.696  1.00  0.00     0.134 A 
ATOM      7  N   UNL     1      21.241  42.086 -13.750  1.00  0.00    -0.216 NA
ENDROOT
BRANCH   4   8
ATOM      8  N   UNL     1      19.683  39.620 -10.756  1.00  0.00    -0.316 N 
ATOM      9  H   UNL     1      18.720  39.240 -10.889  1.00  0.00     0.170 HD
BRANCH   8  10
ATOM     10  C   UNL     1      20.411  39.194  -9.597  1.00  0.00     0.189 A 
ATOM     11  N   UNL     1      20.761  40.013  -8.581  1.00  0.00    -0.228 NA
ATOM     12  S   UNL     1      21.025  37.641  -9.391  1.00  0.00    -0.091 S 
ATOM     13  C   UNL     1      21.507  39.367  -7.646  1.00  0.00     0.139 A 
ATOM     14  C   UNL     1      21.759  38.026  -7.922  1.00  0.00     0.114 A 
BRANCH  14  15
ATOM     15  C   UNL     1      22.564  37.114  -7.089  1.00  0.00     0.267 C 
ATOM     16  O   UNL     1      21.985  36.210  -6.423  1.00  0.00    -0.268 OA
ATOM     17  N   UNL     1      23.992  37.237  -7.039  1.00  0.00    -0.320 N 
ATOM     18  H   UNL     1      24.484  37.801  -7.767  1.00  0.00     0.170 HD
BRANCH  17  19
ATOM     19  C   UNL     1      24.783  36.437  -6.146  1.00  0.00     0.063 A 
ATOM     20  C   UNL     1      25.493  35.316  -6.638  1.00  0.00    -0.026 A 
ATOM     21  C   UNL     1      24.871  36.773  -4.778  1.00  0.00     0.064 A 
ATOM     22  C   UNL     1      25.435  34.952  -8.098  1.00  0.00     0.046 C 
ATOM     23  C   UNL     1      26.261  34.542  -5.751  1.00  0.00     0.005 A 
ATOM     24  C   UNL     1      25.642  35.991  -3.910  1.00  0.00     0.023 A 
ATOM     25  Cl  UNL     1      24.063  38.201  -4.132  1.00  0.00    -0.082 Cl
ATOM     26  C   UNL     1      26.329  34.875  -4.394  1.00  0.00     0.002 A 
ENDBRANCH  17  19
ENDBRANCH  14  15
ENDBRANCH   8  10
ENDBRANCH   4   8
BRANCH   6  27
ATOM     27  N   UNL     1      22.590  40.302 -14.682  1.00  0.00    -0.354 N 
ATOM     28  C   UNL     1      22.076  39.756 -15.942  1.00  0.00     0.133 C 
ATOM     29  C   UNL     1      24.038  40.483 -14.535  1.00  0.00     0.133 C 
ATOM     30  C   UNL     1      23.210  39.108 -16.757  1.00  0.00     0.106 C 
ATOM     31  C   UNL     1      24.776  39.166 -14.843  1.00  0.00     0.106 C 
ATOM     32  N   UNL     1      24.119  38.329 -15.888  1.00  0.00    -0.298 NA
BRANCH  32  33
ATOM     33  C   UNL     1      23.458  37.121 -15.327  1.00  0.00     0.112 C 
BRANCH  33  34
ATOM     34  C   UNL     1      23.969  36.830 -13.911  1.00  0.00     0.171 C 
BRANCH  34  35
ATOM     35  O   UNL     1      24.450  35.516 -13.813  1.00  0.00    -0.395 OA
ATOM     36  H   UNL     1      25.016  35.354 -14.619  1.00  0.00     0.210 HD
ENDBRANCH  34  35
ENDBRANCH  33  34
ENDBRANCH  32  33
ENDBRANCH   6  27
TORSDOF 8
ENDMDL
MODEL 14
REMARK VINA RESULT:    -8.301      3.749      6.494
REMARK INTER + INTRA:         -12.675
REMARK INTER:                 -11.825
REMARK INTRA:                  -0.850
REMARK UNBOUND:                -0.734
REMARK SMILES Cc1nc(Nc2ncc(C(=O)Nc3c(C)cccc3Cl)s2)cc(N2CCN(CCO)CC2)n1
REMARK SMILES IDX 1 1 2 2 3 3 4 4 22 5 23 6 33 7 5 8 6 10 7 11 21 12 8 13 9 14
REMARK SMILES IDX 10 15 11 16 12 17 13 19 14 20 19 21 15 22 16 23 18 24 20 25
REMARK SMILES IDX 17 26 24 27 25 28 32 29 26 30 31 31 27 32 28 33 29 34 30 35
REMARK H PARENT 5 9 12 18 30 36
REMARK Flexibility Score: inf
ROOT
ATOM      1  C   UNL     1      16.273  43.564  -8.810  1.00  0.00     0.090 C 
ATOM      2  C   UNL     1      17.464  43.620  -7.915  1.00  0.00     0.130 A 
ATOM      3  N   UNL     1      18.578  42.904  -8.217  1.00  0.00    -0.216 NA
ATOM      4  C   UNL     1      19.687  42.953  -7.429  1.00  0.00     0.137 A 
ATOM      5  C   UNL     1      19.682  43.765  -6.288  1.00  0.00     0.094 A 
ATOM      6  C   UNL     1      18.523  44.489  -5.976  1.00  0.00     0.134 A 
ATOM      7  N   UNL     1      17.449  44.414  -6.811  1.00  0.00    -0.216 NA
ENDROOT
BRANCH   4   8
ATOM      8  N   UNL     1      20.865  42.209  -7.779  1.00  0.00    -0.316 N 
ATOM      9  H   UNL     1      21.560  42.644  -8.425  1.00  0.00     0.170 HD
BRANCH   8  10
ATOM     10  C   UNL     1      21.187  40.928  -7.224  1.00  0.00     0.189 A 
ATOM     11  N   UNL     1      20.745  40.491  -6.023  1.00  0.00    -0.228 NA
ATOM     12  S   UNL     1      22.247  39.833  -7.937  1.00  0.00    -0.091 S 
ATOM     13  C   UNL     1      21.259  39.273  -5.708  1.00  0.00     0.139 A 
ATOM     14  C   UNL     1      22.122  38.738  -6.661  1.00  0.00     0.114 A 
BRANCH  14  15
ATOM     15  C   UNL     1      22.833  37.452  -6.549  1.00  0.00     0.267 C 
ATOM     16  O   UNL     1      22.195  36.419  -6.198  1.00  0.00    -0.268 OA
ATOM     17  N   UNL     1      24.234  37.361  -6.844  1.00  0.00    -0.320 N 
ATOM     18  H   UNL     1      24.699  38.136  -7.368  1.00  0.00     0.170 HD
BRANCH  17  19
ATOM     19  C   UNL     1      24.970  36.146  -6.629  1.00  0.00     0.063 A 
ATOM     20  C   UNL     1      25.243  35.281  -7.715  1.00  0.00    -0.026 A 
ATOM     21  C   UNL     1      25.439  35.817  -5.339  1.00  0.00     0.064 A 
ATOM     22  C   UNL     1      24.774  35.623  -9.105  1.00  0.00     0.046 C 
ATOM     23  C   UNL     1      25.962  34.095  -7.488  1.00  0.00     0.005 A 
ATOM     24  C   UNL     1      26.154  34.632  -5.132  1.00  0.00     0.023 A 
ATOM     25  Cl  UNL     1      25.185  36.897  -3.969  1.00  0.00    -0.082 Cl
ATOM     26  C   UNL     1      26.409  33.770  -6.203  1.00  0.00     0.002 A 
ENDBRANCH  17  19
ENDBRANCH  14  15
ENDBRANCH   8  10
ENDBRANCH   4   8
BRANCH   6  27
ATOM     27  N   UNL     1      18.471  45.347  -4.822  1.00  0.00    -0.354 N 
ATOM     28  C   UNL     1      19.707  45.956  -4.322  1.00  0.00     0.133 C 
ATOM     29  C   UNL     1      17.194  45.763  -4.230  1.00  0.00     0.133 C 
ATOM     30  C   UNL     1      19.461  46.662  -2.976  1.00  0.00     0.106 C 
ATOM     31  C   UNL     1      17.239  45.609  -2.698  1.00  0.00     0.106 C 
ATOM     32  N   UNL     1      18.583  45.856  -2.100  1.00  0.00    -0.298 NA
BRANCH  32  33
ATOM     33  C   UNL     1      19.248  44.609  -1.638  1.00  0.00     0.112 C 
BRANCH  33  34
ATOM     34  C   UNL     1      19.077  44.431  -0.125  1.00  0.00     0.171 C 
BRANCH  34  35
ATOM     35  O   UNL     1      17.874  43.772   0.169  1.00  0.00    -0.395 OA
ATOM     36  H   UNL     1      17.783  43.028  -0.491  1.00  0.00     0.210 HD
ENDBRANCH  34  35
ENDBRANCH  33  34
ENDBRANCH  32  33
ENDBRANCH   6  27
TORSDOF 8
ENDMDL
MODEL 15
REMARK VINA RESULT:    -8.247      3.533      5.393
REMARK INTER + INTRA:         -12.597
REMARK INTER:                 -11.703
REMARK INTRA:                  -0.894
REMARK UNBOUND:                -0.734
REMARK SMILES Cc1nc(Nc2ncc(C(=O)Nc3c(C)cccc3Cl)s2)cc(N2CCN(CCO)CC2)n1
REMARK SMILES IDX 1 1 2 2 3 3 4 4 22 5 23 6 33 7 5 8 6 10 7 11 21 12 8 13 9 14
REMARK SMILES IDX 10 15 11 16 12 17 13 19 14 20 19 21 15 22 16 23 18 24 20 25
REMARK SMILES IDX 17 26 24 27 25 28 32 29 26 30 31 31 27 32 28 33 29 34 30 35
REMARK H PARENT 5 9 12 18 30 36
REMARK Flexibility Score: inf
ROOT
ATOM      1  C   UNL     1      21.886  45.937  -8.882  1.00  0.00     0.090 C 
ATOM      2  C   UNL     1      20.888  45.024  -8.254  1.00  0.00     0.130 A 
ATOM      3  N   UNL     1      20.870  43.706  -8.582  1.00  0.00    -0.216 NA
ATOM      4  C   UNL     1      19.983  42.847  -8.009  1.00  0.00     0.137 A 
ATOM      5  C   UNL     1      19.079  43.329  -7.055  1.00  0.00     0.094 A 
ATOM      6  C   UNL     1      19.096  44.694  -6.733  1.00  0.00     0.134 A 
ATOM      7  N   UNL     1      20.017  45.503  -7.327  1.00  0.00    -0.216 NA
ENDROOT
BRANCH   4   8
ATOM      8  N   UNL     1      19.995  41.451  -8.349  1.00  0.00    -0.316 N 
ATOM      9  H   UNL     1      19.533  41.146  -9.234  1.00  0.00     0.170 HD
BRANCH   8  10
ATOM     10  C   UNL     1      20.681  40.454  -7.581  1.00  0.00     0.189 A 
ATOM     11  N   UNL     1      21.013  40.599  -6.278  1.00  0.00    -0.228 NA
ATOM     12  S   UNL     1      21.266  39.011  -8.220  1.00  0.00    -0.091 S 
ATOM     13  C   UNL     1      21.722  39.534  -5.817  1.00  0.00     0.139 A 
ATOM     14  C   UNL     1      21.961  38.537  -6.759  1.00  0.00     0.114 A 
BRANCH  14  15
ATOM     15  C   UNL     1      22.727  37.300  -6.524  1.00  0.00     0.267 C 
ATOM     16  O   UNL     1      22.143  36.294  -6.030  1.00  0.00    -0.268 OA
ATOM     17  N   UNL     1      24.120  37.226  -6.859  1.00  0.00    -0.320 N 
ATOM     18  H   UNL     1      24.535  37.949  -7.488  1.00  0.00     0.170 HD
BRANCH  17  19
ATOM     19  C   UNL     1      24.910  36.072  -6.531  1.00  0.00     0.063 A 
ATOM     20  C   UNL     1      25.236  35.128  -7.533  1.00  0.00    -0.026 A 
ATOM     21  C   UNL     1      25.381  35.883  -5.213  1.00  0.00     0.064 A 
ATOM     22  C   UNL     1      24.767  35.320  -8.951  1.00  0.00     0.046 C 
ATOM     23  C   UNL     1      26.009  34.003  -7.195  1.00  0.00     0.005 A 
ATOM     24  C   UNL     1      26.150  34.758  -4.896  1.00  0.00     0.023 A 
ATOM     25  Cl  UNL     1      25.061  37.069  -3.948  1.00  0.00    -0.082 Cl
ATOM     26  C   UNL     1      26.457  33.817  -5.883  1.00  0.00     0.002 A 
ENDBRANCH  17  19
ENDBRANCH  14  15
ENDBRANCH   8  10
ENDBRANCH   4   8
BRANCH   6  27
ATOM     27  N   UNL     1      18.196  45.237  -5.751  1.00  0.00    -0.354 N 
ATOM     28  C   UNL     1      18.188  44.678  -4.395  1.00  0.00     0.133 C 
ATOM     29  C   UNL     1      17.402  46.442  -6.018  1.00  0.00     0.133 C 
ATOM     30  C   UNL     1      17.023  45.259  -3.574  1.00  0.00     0.106 C 
ATOM     31  C   UNL     1      15.941  46.229  -5.577  1.00  0.00     0.106 C 
ATOM     32  N   UNL     1      15.787  45.348  -4.383  1.00  0.00    -0.298 NA
BRANCH  32  33
ATOM     33  C   UNL     1      15.243  44.007  -4.723  1.00  0.00     0.112 C 
BRANCH  33  34
ATOM     34  C   UNL     1      14.409  44.068  -6.007  1.00  0.00     0.171 C 
BRANCH  34  35
ATOM     35  O   UNL     1      13.093  43.646  -5.771  1.00  0.00    -0.395 OA
ATOM     36  H   UNL     1      13.062  43.307  -4.832  1.00  0.00     0.210 HD
ENDBRANCH  34  35
ENDBRANCH  33  34
ENDBRANCH  32  33
ENDBRANCH   6  27
TORSDOF 8
ENDMDL
