MODEL 1
REMARK VINA RESULT:    -7.652      0.000      0.000
REMARK INTER + INTRA:          -9.030
REMARK INTER:                  -8.547
REMARK INTRA:                  -0.483
REMARK UNBOUND:                -0.483
REMARK SMILES CCC1(c2ccccc2)C(=O)NC(=O)NC1=O
REMARK SMILES IDX 3 1 10 2 11 3 12 4 13 5 14 6 15 7 16 8 17 9 2 12 1 13 4 14
REMARK SMILES IDX 5 15 9 16 6 17 8 18 7 19
REMARK H PARENT 12 10 15 11
REMARK Flexibility Score: inf
ROOT
ATOM      1  C   UNL     1       8.219  74.618  -2.031  1.00  0.00     0.153 C 
ATOM      2  C   UNL     1       7.692  75.438  -3.202  1.00  0.00     0.248 C 
ATOM      3  O   UNL     1       7.132  74.846  -4.166  1.00  0.00    -0.273 OA
ATOM      4  N   UNL     1       7.788  76.865  -3.235  1.00  0.00    -0.277 N 
ATOM      5  C   UNL     1       8.445  77.588  -2.199  1.00  0.00     0.328 C 
ATOM      6  O   UNL     1       8.503  78.845  -2.248  1.00  0.00    -0.248 OA
ATOM      7  N   UNL     1       9.044  76.890  -1.111  1.00  0.00    -0.277 N 
ATOM      8  C   UNL     1       8.985  75.463  -1.018  1.00  0.00     0.248 C 
ATOM      9  O   UNL     1       9.564  74.893  -0.054  1.00  0.00    -0.273 OA
ATOM     10  H   UNL     1       7.376  77.388  -4.040  1.00  0.00     0.174 HD
ATOM     11  H   UNL     1       9.545  77.430  -0.371  1.00  0.00     0.174 HD
ENDROOT
BRANCH   1  12
ATOM     12  C   UNL     1       7.000  73.973  -1.301  1.00  0.00     0.028 C 
ATOM     13  C   UNL     1       6.121  74.977  -0.543  1.00  0.00     0.006 C 
ENDBRANCH   1  12
BRANCH   1  14
ATOM     14  C   UNL     1       9.204  73.581  -2.601  1.00  0.00    -0.023 A 
ATOM     15  C   UNL     1      10.202  74.016  -3.502  1.00  0.00     0.005 A 
ATOM     16  C   UNL     1       9.163  72.207  -2.270  1.00  0.00     0.005 A 
ATOM     17  C   UNL     1      11.120  73.116  -4.048  1.00  0.00     0.000 A 
ATOM     18  C   UNL     1      10.086  71.312  -2.821  1.00  0.00     0.000 A 
ATOM     19  C   UNL     1      11.063  71.765  -3.708  1.00  0.00     0.000 A 
ENDBRANCH   1  14
TORSDOF 2
ENDMDL
MODEL 2
REMARK VINA RESULT:    -7.641      1.835      2.384
REMARK INTER + INTRA:          -9.017
REMARK INTER:                  -8.451
REMARK INTRA:                  -0.566
REMARK UNBOUND:                -0.483
REMARK SMILES CCC1(c2ccccc2)C(=O)NC(=O)NC1=O
REMARK SMILES IDX 3 1 10 2 11 3 12 4 13 5 14 6 15 7 16 8 17 9 2 12 1 13 4 14
REMARK SMILES IDX 5 15 9 16 6 17 8 18 7 19
REMARK H PARENT 12 10 15 11
REMARK Flexibility Score: inf
ROOT
ATOM      1  C   UNL     1       9.336  74.504  -2.132  1.00  0.00     0.153 C 
ATOM      2  C   UNL     1       7.885  74.752  -1.737  1.00  0.00     0.248 C 
ATOM      3  O   UNL     1       7.190  73.789  -1.311  1.00  0.00    -0.273 OA
ATOM      4  N   UNL     1       7.290  76.051  -1.809  1.00  0.00    -0.277 N 
ATOM      5  C   UNL     1       8.009  77.169  -2.318  1.00  0.00     0.328 C 
ATOM      6  O   UNL     1       7.463  78.303  -2.357  1.00  0.00    -0.248 OA
ATOM      7  N   UNL     1       9.342  77.004  -2.792  1.00  0.00    -0.277 N 
ATOM      8  C   UNL     1       9.995  75.732  -2.750  1.00  0.00     0.248 C 
ATOM      9  O   UNL     1      11.163  75.634  -3.217  1.00  0.00    -0.273 OA
ATOM     10  H   UNL     1       6.304  76.180  -1.488  1.00  0.00     0.174 HD
ATOM     11  H   UNL     1       9.849  77.827  -3.189  1.00  0.00     0.174 HD
ENDROOT
BRANCH   1  12
ATOM     12  C   UNL     1      10.132  74.123  -0.844  1.00  0.00     0.028 C 
ATOM     13  C   UNL     1      10.108  75.200   0.249  1.00  0.00     0.006 C 
ENDBRANCH   1  12
BRANCH   1  14
ATOM     14  C   UNL     1       9.339  73.395  -3.199  1.00  0.00    -0.023 A 
ATOM     15  C   UNL     1       9.859  72.126  -2.858  1.00  0.00     0.005 A 
ATOM     16  C   UNL     1       8.847  73.579  -4.512  1.00  0.00     0.005 A 
ATOM     17  C   UNL     1       9.885  71.085  -3.790  1.00  0.00     0.000 A 
ATOM     18  C   UNL     1       8.876  72.531  -5.438  1.00  0.00     0.000 A 
ATOM     19  C   UNL     1       9.394  71.287  -5.079  1.00  0.00     0.000 A 
ENDBRANCH   1  14
TORSDOF 2
ENDMDL
MODEL 3
REMARK VINA RESULT:    -7.481      1.522      3.266
REMARK INTER + INTRA:          -8.839
REMARK INTER:                  -8.277
REMARK INTRA:                  -0.562
REMARK UNBOUND:                -0.483
REMARK SMILES CCC1(c2ccccc2)C(=O)NC(=O)NC1=O
REMARK SMILES IDX 3 1 10 2 11 3 12 4 13 5 14 6 15 7 16 8 17 9 2 12 1 13 4 14
REMARK SMILES IDX 5 15 9 16 6 17 8 18 7 19
REMARK H PARENT 12 10 15 11
REMARK Flexibility Score: inf
ROOT
ATOM      1  C   UNL     1       8.904  75.087  -2.276  1.00  0.00     0.153 C 
ATOM      2  C   UNL     1       9.011  75.136  -0.757  1.00  0.00     0.248 C 
ATOM      3  O   UNL     1      10.153  75.132  -0.220  1.00  0.00    -0.273 OA
ATOM      4  N   UNL     1       7.856  75.212   0.084  1.00  0.00    -0.277 N 
ATOM      5  C   UNL     1       6.541  75.178  -0.459  1.00  0.00     0.328 C 
ATOM      6  O   UNL     1       5.543  75.260   0.305  1.00  0.00    -0.248 OA
ATOM      7  N   UNL     1       6.352  75.043  -1.864  1.00  0.00    -0.277 N 
ATOM      8  C   UNL     1       7.464  74.960  -2.761  1.00  0.00     0.248 C 
ATOM      9  O   UNL     1       7.240  74.804  -3.992  1.00  0.00    -0.273 OA
ATOM     10  H   UNL     1       7.980  75.286   1.119  1.00  0.00     0.174 HD
ATOM     11  H   UNL     1       5.381  74.993  -2.247  1.00  0.00     0.174 HD
ENDROOT
BRANCH   1  12
ATOM     12  C   UNL     1       9.494  76.414  -2.849  1.00  0.00     0.028 C 
ATOM     13  C   UNL     1       8.829  77.682  -2.299  1.00  0.00     0.006 C 
ENDBRANCH   1  12
BRANCH   1  14
ATOM     14  C   UNL     1       9.659  73.832  -2.750  1.00  0.00    -0.023 A 
ATOM     15  C   UNL     1       9.308  72.579  -2.199  1.00  0.00     0.005 A 
ATOM     16  C   UNL     1      10.694  73.866  -3.715  1.00  0.00     0.005 A 
ATOM     17  C   UNL     1       9.962  71.410  -2.595  1.00  0.00     0.000 A 
ATOM     18  C   UNL     1      11.343  72.690  -4.106  1.00  0.00     0.000 A 
ATOM     19  C   UNL     1      10.979  71.465  -3.548  1.00  0.00     0.000 A 
ENDBRANCH   1  14
TORSDOF 2
ENDMDL
MODEL 4
REMARK VINA RESULT:    -7.361      2.049      4.777
REMARK INTER + INTRA:          -8.705
REMARK INTER:                  -8.125
REMARK INTRA:                  -0.581
REMARK UNBOUND:                -0.483
REMARK SMILES CCC1(c2ccccc2)C(=O)NC(=O)NC1=O
REMARK SMILES IDX 3 1 10 2 11 3 12 4 13 5 14 6 15 7 16 8 17 9 2 12 1 13 4 14
REMARK SMILES IDX 5 15 9 16 6 17 8 18 7 19
REMARK H PARENT 12 10 15 11
REMARK Flexibility Score: inf
ROOT
ATOM      1  C   UNL     1       8.658  75.653  -1.774  1.00  0.00     0.153 C 
ATOM      2  C   UNL     1       8.066  75.235  -3.114  1.00  0.00     0.248 C 
ATOM      3  O   UNL     1       7.220  75.985  -3.675  1.00  0.00    -0.273 OA
ATOM      4  N   UNL     1       8.456  74.027  -3.773  1.00  0.00    -0.277 N 
ATOM      5  C   UNL     1       9.374  73.118  -3.174  1.00  0.00     0.328 C 
ATOM      6  O   UNL     1       9.709  72.069  -3.784  1.00  0.00    -0.248 OA
ATOM      7  N   UNL     1       9.906  73.391  -1.881  1.00  0.00    -0.277 N 
ATOM      8  C   UNL     1       9.556  74.580  -1.167  1.00  0.00     0.248 C 
ATOM      9  O   UNL     1      10.027  74.754  -0.010  1.00  0.00    -0.273 OA
ATOM     10  H   UNL     1       8.054  73.802  -4.711  1.00  0.00     0.174 HD
ATOM     11  H   UNL     1      10.558  72.703  -1.441  1.00  0.00     0.174 HD
ENDROOT
BRANCH   1  12
ATOM     12  C   UNL     1       9.520  76.934  -2.002  1.00  0.00     0.028 C 
ATOM     13  C   UNL     1      10.760  76.707  -2.876  1.00  0.00     0.006 C 
ENDBRANCH   1  12
BRANCH   1  14
ATOM     14  C   UNL     1       7.486  75.874  -0.801  1.00  0.00    -0.023 A 
ATOM     15  C   UNL     1       7.390  77.110  -0.122  1.00  0.00     0.005 A 
ATOM     16  C   UNL     1       6.491  74.900  -0.549  1.00  0.00     0.005 A 
ATOM     17  C   UNL     1       6.345  77.360   0.771  1.00  0.00     0.000 A 
ATOM     18  C   UNL     1       5.449  75.160   0.346  1.00  0.00     0.000 A 
ATOM     19  C   UNL     1       5.375  76.387   1.005  1.00  0.00     0.000 A 
ENDBRANCH   1  14
TORSDOF 2
ENDMDL
MODEL 5
REMARK VINA RESULT:    -7.327      5.760      7.425
REMARK INTER + INTRA:          -8.667
REMARK INTER:                  -8.216
REMARK INTRA:                  -0.450
REMARK UNBOUND:                -0.483
REMARK SMILES CCC1(c2ccccc2)C(=O)NC(=O)NC1=O
REMARK SMILES IDX 3 1 10 2 11 3 12 4 13 5 14 6 15 7 16 8 17 9 2 12 1 13 4 14
REMARK SMILES IDX 5 15 9 16 6 17 8 18 7 19
REMARK H PARENT 12 10 15 11
REMARK Flexibility Score: inf
ROOT
ATOM      1  C   UNL     1      13.159  79.408  -1.156  1.00  0.00     0.153 C 
ATOM      2  C   UNL     1      14.523  79.519  -0.486  1.00  0.00     0.248 C 
ATOM      3  O   UNL     1      15.303  80.450  -0.827  1.00  0.00    -0.273 OA
ATOM      4  N   UNL     1      14.941  78.613   0.540  1.00  0.00    -0.277 N 
ATOM      5  C   UNL     1      14.124  77.518   0.940  1.00  0.00     0.328 C 
ATOM      6  O   UNL     1      14.513  76.745   1.855  1.00  0.00    -0.248 OA
ATOM      7  N   UNL     1      12.872  77.291   0.301  1.00  0.00    -0.277 N 
ATOM      8  C   UNL     1      12.395  78.158  -0.733  1.00  0.00     0.248 C 
ATOM      9  O   UNL     1      11.297  77.889  -1.292  1.00  0.00    -0.273 OA
ATOM     10  H   UNL     1      15.869  78.753   0.999  1.00  0.00     0.174 HD
ATOM     11  H   UNL     1      12.294  76.468   0.585  1.00  0.00     0.174 HD
ENDROOT
BRANCH   1  12
ATOM     12  C   UNL     1      12.313  80.655  -0.746  1.00  0.00     0.028 C 
ATOM     13  C   UNL     1      12.006  80.736   0.755  1.00  0.00     0.006 C 
ENDBRANCH   1  12
BRANCH   1  14
ATOM     14  C   UNL     1      13.398  79.308  -2.673  1.00  0.00    -0.023 A 
ATOM     15  C   UNL     1      13.196  80.458  -3.470  1.00  0.00     0.005 A 
ATOM     16  C   UNL     1      13.813  78.119  -3.318  1.00  0.00     0.005 A 
ATOM     17  C   UNL     1      13.399  80.421  -4.851  1.00  0.00     0.000 A 
ATOM     18  C   UNL     1      14.014  78.091  -4.702  1.00  0.00     0.000 A 
ATOM     19  C   UNL     1      13.809  79.239  -5.467  1.00  0.00     0.000 A 
ENDBRANCH   1  14
TORSDOF 2
ENDMDL
MODEL 6
REMARK VINA RESULT:    -7.198      2.355      4.929
REMARK INTER + INTRA:          -8.523
REMARK INTER:                  -7.957
REMARK INTRA:                  -0.566
REMARK UNBOUND:                -0.483
REMARK SMILES CCC1(c2ccccc2)C(=O)NC(=O)NC1=O
REMARK SMILES IDX 3 1 10 2 11 3 12 4 13 5 14 6 15 7 16 8 17 9 2 12 1 13 4 14
REMARK SMILES IDX 5 15 9 16 6 17 8 18 7 19
REMARK H PARENT 12 10 15 11
REMARK Flexibility Score: inf
ROOT
ATOM      1  C   UNL     1       9.129  76.296  -1.518  1.00  0.00     0.153 C 
ATOM      2  C   UNL     1      10.031  75.238  -0.895  1.00  0.00     0.248 C 
ATOM      3  O   UNL     1      10.752  75.547   0.093  1.00  0.00    -0.273 OA
ATOM      4  N   UNL     1      10.068  73.892  -1.379  1.00  0.00    -0.277 N 
ATOM      5  C   UNL     1       9.310  73.491  -2.515  1.00  0.00     0.328 C 
ATOM      6  O   UNL     1       9.353  72.296  -2.911  1.00  0.00    -0.248 OA
ATOM      7  N   UNL     1       8.510  74.442  -3.211  1.00  0.00    -0.277 N 
ATOM      8  C   UNL     1       8.429  75.804  -2.780  1.00  0.00     0.248 C 
ATOM      9  O   UNL     1       7.734  76.613  -3.454  1.00  0.00    -0.273 OA
ATOM     10  H   UNL     1      10.671  73.190  -0.894  1.00  0.00     0.174 HD
ATOM     11  H   UNL     1       7.979  74.141  -4.059  1.00  0.00     0.174 HD
ENDROOT
BRANCH   1  12
ATOM     12  C   UNL     1       8.034  76.679  -0.473  1.00  0.00     0.028 C 
ATOM     13  C   UNL     1       7.072  75.535  -0.128  1.00  0.00     0.006 C 
ENDBRANCH   1  12
BRANCH   1  14
ATOM     14  C   UNL     1      10.024  77.482  -1.923  1.00  0.00    -0.023 A 
ATOM     15  C   UNL     1       9.671  78.779  -1.486  1.00  0.00     0.005 A 
ATOM     16  C   UNL     1      11.188  77.342  -2.714  1.00  0.00     0.005 A 
ATOM     17  C   UNL     1      10.450  79.888  -1.825  1.00  0.00     0.000 A 
ATOM     18  C   UNL     1      11.961  78.459  -3.049  1.00  0.00     0.000 A 
ATOM     19  C   UNL     1      11.594  79.729  -2.606  1.00  0.00     0.000 A 
ENDBRANCH   1  14
TORSDOF 2
ENDMDL
MODEL 7
REMARK VINA RESULT:    -7.072      5.278      6.954
REMARK INTER + INTRA:          -8.383
REMARK INTER:                  -7.940
REMARK INTRA:                  -0.442
REMARK UNBOUND:                -0.483
REMARK SMILES CCC1(c2ccccc2)C(=O)NC(=O)NC1=O
REMARK SMILES IDX 3 1 10 2 11 3 12 4 13 5 14 6 15 7 16 8 17 9 2 12 1 13 4 14
REMARK SMILES IDX 5 15 9 16 6 17 8 18 7 19
REMARK H PARENT 12 10 15 11
REMARK Flexibility Score: inf
ROOT
ATOM      1  C   UNL     1      12.808  79.237  -1.792  1.00  0.00     0.153 C 
ATOM      2  C   UNL     1      11.556  78.485  -2.227  1.00  0.00     0.248 C 
ATOM      3  O   UNL     1      11.666  77.522  -3.035  1.00  0.00    -0.273 OA
ATOM      4  N   UNL     1      10.258  78.819  -1.728  1.00  0.00    -0.277 N 
ATOM      5  C   UNL     1      10.063  79.920  -0.847  1.00  0.00     0.328 C 
ATOM      6  O   UNL     1       8.910  80.183  -0.413  1.00  0.00    -0.248 OA
ATOM      7  N   UNL     1      11.169  80.730  -0.462  1.00  0.00    -0.277 N 
ATOM      8  C   UNL     1      12.494  80.452  -0.926  1.00  0.00     0.248 C 
ATOM      9  O   UNL     1      13.431  81.223  -0.585  1.00  0.00    -0.273 OA
ATOM     10  H   UNL     1       9.434  78.248  -2.023  1.00  0.00     0.174 HD
ATOM     11  H   UNL     1      11.009  81.552   0.164  1.00  0.00     0.174 HD
ENDROOT
BRANCH   1  12
ATOM     12  C   UNL     1      13.696  78.262  -0.957  1.00  0.00     0.028 C 
ATOM     13  C   UNL     1      13.050  77.796   0.354  1.00  0.00     0.006 C 
ENDBRANCH   1  12
BRANCH   1  14
ATOM     14  C   UNL     1      13.502  79.750  -3.067  1.00  0.00    -0.023 A 
ATOM     15  C   UNL     1      14.908  79.636  -3.168  1.00  0.00     0.005 A 
ATOM     16  C   UNL     1      12.804  80.332  -4.151  1.00  0.00     0.005 A 
ATOM     17  C   UNL     1      15.586  80.086  -4.303  1.00  0.00     0.000 A 
ATOM     18  C   UNL     1      13.492  80.780  -5.284  1.00  0.00     0.000 A 
ATOM     19  C   UNL     1      14.879  80.657  -5.361  1.00  0.00     0.000 A 
ENDBRANCH   1  14
TORSDOF 2
ENDMDL
MODEL 8
REMARK VINA RESULT:    -7.006      1.827      4.676
REMARK INTER + INTRA:          -8.308
REMARK INTER:                  -7.723
REMARK INTRA:                  -0.585
REMARK UNBOUND:                -0.483
REMARK SMILES CCC1(c2ccccc2)C(=O)NC(=O)NC1=O
REMARK SMILES IDX 3 1 10 2 11 3 12 4 13 5 14 6 15 7 16 8 17 9 2 12 1 13 4 14
REMARK SMILES IDX 5 15 9 16 6 17 8 18 7 19
REMARK H PARENT 12 10 15 11
REMARK Flexibility Score: inf
ROOT
ATOM      1  C   UNL     1       8.747  75.471  -1.543  1.00  0.00     0.153 C 
ATOM      2  C   UNL     1       9.916  75.453  -0.566  1.00  0.00     0.248 C 
ATOM      3  O   UNL     1       9.916  74.617   0.379  1.00  0.00    -0.273 OA
ATOM      4  N   UNL     1      11.031  76.340  -0.699  1.00  0.00    -0.277 N 
ATOM      5  C   UNL     1      11.071  77.333  -1.719  1.00  0.00     0.328 C 
ATOM      6  O   UNL     1      12.072  78.091  -1.820  1.00  0.00    -0.248 OA
ATOM      7  N   UNL     1       9.977  77.475  -2.619  1.00  0.00    -0.277 N 
ATOM      8  C   UNL     1       8.831  76.622  -2.540  1.00  0.00     0.248 C 
ATOM      9  O   UNL     1       7.874  76.816  -3.338  1.00  0.00    -0.273 OA
ATOM     10  H   UNL     1      11.829  76.263  -0.029  1.00  0.00     0.174 HD
ATOM     11  H   UNL     1      10.007  78.225  -3.346  1.00  0.00     0.174 HD
ENDROOT
BRANCH   1  12
ATOM     12  C   UNL     1       8.764  74.133  -2.346  1.00  0.00     0.028 C 
ATOM     13  C   UNL     1      10.038  73.914  -3.172  1.00  0.00     0.006 C 
ENDBRANCH   1  12
BRANCH   1  14
ATOM     14  C   UNL     1       7.462  75.670  -0.720  1.00  0.00    -0.023 A 
ATOM     15  C   UNL     1       7.346  76.822   0.090  1.00  0.00     0.005 A 
ATOM     16  C   UNL     1       6.384  74.754  -0.729  1.00  0.00     0.005 A 
ATOM     17  C   UNL     1       6.200  77.050   0.857  1.00  0.00     0.000 A 
ATOM     18  C   UNL     1       5.241  74.990   0.041  1.00  0.00     0.000 A 
ATOM     19  C   UNL     1       5.148  76.135   0.833  1.00  0.00     0.000 A 
ENDBRANCH   1  14
TORSDOF 2
ENDMDL
MODEL 9
REMARK VINA RESULT:    -6.881      4.972      6.938
REMARK INTER + INTRA:          -8.169
REMARK INTER:                  -7.805
REMARK INTRA:                  -0.365
REMARK UNBOUND:                -0.483
REMARK SMILES CCC1(c2ccccc2)C(=O)NC(=O)NC1=O
REMARK SMILES IDX 3 1 10 2 11 3 12 4 13 5 14 6 15 7 16 8 17 9 2 12 1 13 4 14
REMARK SMILES IDX 5 15 9 16 6 17 8 18 7 19
REMARK H PARENT 12 10 15 11
REMARK Flexibility Score: inf
ROOT
ATOM      1  C   UNL     1      11.768  78.821  -1.505  1.00  0.00     0.153 C 
ATOM      2  C   UNL     1      12.595  80.053  -1.156  1.00  0.00     0.248 C 
ATOM      3  O   UNL     1      12.279  80.741  -0.147  1.00  0.00    -0.273 OA
ATOM      4  N   UNL     1      13.738  80.442  -1.923  1.00  0.00    -0.277 N 
ATOM      5  C   UNL     1      14.121  79.731  -3.096  1.00  0.00     0.328 C 
ATOM      6  O   UNL     1      15.140  80.089  -3.744  1.00  0.00    -0.248 OA
ATOM      7  N   UNL     1      13.348  78.621  -3.541  1.00  0.00    -0.277 N 
ATOM      8  C   UNL     1      12.193  78.180  -2.822  1.00  0.00     0.248 C 
ATOM      9  O   UNL     1      11.524  77.215  -3.281  1.00  0.00    -0.273 OA
ATOM     10  H   UNL     1      14.299  81.270  -1.622  1.00  0.00     0.174 HD
ATOM     11  H   UNL     1      13.625  78.124  -4.418  1.00  0.00     0.174 HD
ENDROOT
BRANCH   1  12
ATOM     12  C   UNL     1      11.961  77.768  -0.369  1.00  0.00     0.028 C 
ATOM     13  C   UNL     1      13.415  77.601   0.090  1.00  0.00     0.006 C 
ENDBRANCH   1  12
BRANCH   1  14
ATOM     14  C   UNL     1      10.307  79.279  -1.668  1.00  0.00    -0.023 A 
ATOM     15  C   UNL     1       9.281  78.496  -1.091  1.00  0.00     0.005 A 
ATOM     16  C   UNL     1       9.934  80.449  -2.371  1.00  0.00     0.005 A 
ATOM     17  C   UNL     1       7.940  78.868  -1.210  1.00  0.00     0.000 A 
ATOM     18  C   UNL     1       8.588  80.813  -2.485  1.00  0.00     0.000 A 
ATOM     19  C   UNL     1       7.593  80.025  -1.906  1.00  0.00     0.000 A 
ENDBRANCH   1  14
TORSDOF 2
ENDMDL
MODEL 10
REMARK VINA RESULT:    -6.861      5.147      7.088
REMARK INTER + INTRA:          -8.146
REMARK INTER:                  -7.593
REMARK INTRA:                  -0.553
REMARK UNBOUND:                -0.483
REMARK SMILES CCC1(c2ccccc2)C(=O)NC(=O)NC1=O
REMARK SMILES IDX 3 1 10 2 11 3 12 4 13 5 14 6 15 7 16 8 17 9 2 12 1 13 4 14
REMARK SMILES IDX 5 15 9 16 6 17 8 18 7 19
REMARK H PARENT 12 10 15 11
REMARK Flexibility Score: inf
ROOT
ATOM      1  C   UNL     1      11.737  79.418  -1.387  1.00  0.00     0.153 C 
ATOM      2  C   UNL     1      11.852  77.919  -1.135  1.00  0.00     0.248 C 
ATOM      3  O   UNL     1      11.261  77.117  -1.909  1.00  0.00    -0.273 OA
ATOM      4  N   UNL     1      12.632  77.387  -0.060  1.00  0.00    -0.277 N 
ATOM      5  C   UNL     1      13.289  78.240   0.872  1.00  0.00     0.328 C 
ATOM      6  O   UNL     1      13.980  77.744   1.801  1.00  0.00    -0.248 OA
ATOM      7  N   UNL     1      13.158  79.654   0.760  1.00  0.00    -0.277 N 
ATOM      8  C   UNL     1      12.392  80.251  -0.290  1.00  0.00     0.248 C 
ATOM      9  O   UNL     1      12.279  81.506  -0.321  1.00  0.00    -0.273 OA
ATOM     10  H   UNL     1      12.715  76.352   0.049  1.00  0.00     0.174 HD
ATOM     11  H   UNL     1      13.623  80.268   1.467  1.00  0.00     0.174 HD
ENDROOT
BRANCH   1  12
ATOM     12  C   UNL     1      12.455  79.740  -2.735  1.00  0.00     0.028 C 
ATOM     13  C   UNL     1      13.952  79.406  -2.743  1.00  0.00     0.006 C 
ENDBRANCH   1  12
BRANCH   1  14
ATOM     14  C   UNL     1      10.239  79.769  -1.397  1.00  0.00    -0.023 A 
ATOM     15  C   UNL     1       9.723  80.518  -2.478  1.00  0.00     0.005 A 
ATOM     16  C   UNL     1       9.343  79.378  -0.374  1.00  0.00     0.005 A 
ATOM     17  C   UNL     1       8.371  80.863  -2.535  1.00  0.00     0.000 A 
ATOM     18  C   UNL     1       7.990  79.728  -0.439  1.00  0.00     0.000 A 
ATOM     19  C   UNL     1       7.504  80.468  -1.517  1.00  0.00     0.000 A 
ENDBRANCH   1  14
TORSDOF 2
ENDMDL
MODEL 11
REMARK VINA RESULT:    -6.777      2.207      4.413
REMARK INTER + INTRA:          -8.053
REMARK INTER:                  -7.553
REMARK INTRA:                  -0.500
REMARK UNBOUND:                -0.483
REMARK SMILES CCC1(c2ccccc2)C(=O)NC(=O)NC1=O
REMARK SMILES IDX 3 1 10 2 11 3 12 4 13 5 14 6 15 7 16 8 17 9 2 12 1 13 4 14
REMARK SMILES IDX 5 15 9 16 6 17 8 18 7 19
REMARK H PARENT 12 10 15 11
REMARK Flexibility Score: inf
ROOT
ATOM      1  C   UNL     1       9.458  75.976  -2.060  1.00  0.00     0.153 C 
ATOM      2  C   UNL     1       7.997  76.110  -2.472  1.00  0.00     0.248 C 
ATOM      3  O   UNL     1       7.719  76.539  -3.626  1.00  0.00    -0.273 OA
ATOM      4  N   UNL     1       6.925  75.740  -1.600  1.00  0.00    -0.277 N 
ATOM      5  C   UNL     1       7.172  75.288  -0.272  1.00  0.00     0.328 C 
ATOM      6  O   UNL     1       6.209  74.957   0.469  1.00  0.00    -0.248 OA
ATOM      7  N   UNL     1       8.506  75.219   0.222  1.00  0.00    -0.277 N 
ATOM      8  C   UNL     1       9.623  75.576  -0.598  1.00  0.00     0.248 C 
ATOM      9  O   UNL     1      10.781  75.532  -0.099  1.00  0.00    -0.273 OA
ATOM     10  H   UNL     1       5.940  75.810  -1.941  1.00  0.00     0.174 HD
ATOM     11  H   UNL     1       8.672  74.912   1.206  1.00  0.00     0.174 HD
ENDROOT
BRANCH   1  12
ATOM     12  C   UNL     1      10.113  74.867  -2.943  1.00  0.00     0.028 C 
ATOM     13  C   UNL     1       9.437  73.495  -2.828  1.00  0.00     0.006 C 
ENDBRANCH   1  12
BRANCH   1  14
ATOM     14  C   UNL     1      10.114  77.358  -2.235  1.00  0.00    -0.023 A 
ATOM     15  C   UNL     1      11.367  77.438  -2.884  1.00  0.00     0.005 A 
ATOM     16  C   UNL     1       9.525  78.560  -1.777  1.00  0.00     0.005 A 
ATOM     17  C   UNL     1      12.003  78.668  -3.068  1.00  0.00     0.000 A 
ATOM     18  C   UNL     1      10.170  79.787  -1.966  1.00  0.00     0.000 A 
ATOM     19  C   UNL     1      11.406  79.841  -2.610  1.00  0.00     0.000 A 
ENDBRANCH   1  14
TORSDOF 2
ENDMDL
MODEL 12
REMARK VINA RESULT:    -6.770      5.525      6.783
REMARK INTER + INTRA:          -8.045
REMARK INTER:                  -7.591
REMARK INTRA:                  -0.454
REMARK UNBOUND:                -0.483
REMARK SMILES CCC1(c2ccccc2)C(=O)NC(=O)NC1=O
REMARK SMILES IDX 3 1 10 2 11 3 12 4 13 5 14 6 15 7 16 8 17 9 2 12 1 13 4 14
REMARK SMILES IDX 5 15 9 16 6 17 8 18 7 19
REMARK H PARENT 12 10 15 11
REMARK Flexibility Score: inf
ROOT
ATOM      1  C   UNL     1      12.776  79.093  -1.662  1.00  0.00     0.153 C 
ATOM      2  C   UNL     1      11.273  79.343  -1.624  1.00  0.00     0.248 C 
ATOM      3  O   UNL     1      10.508  78.600  -2.299  1.00  0.00    -0.273 OA
ATOM      4  N   UNL     1      10.695  80.379  -0.825  1.00  0.00    -0.277 N 
ATOM      5  C   UNL     1      11.507  81.275  -0.073  1.00  0.00     0.328 C 
ATOM      6  O   UNL     1      10.969  82.170   0.631  1.00  0.00    -0.248 OA
ATOM      7  N   UNL     1      12.926  81.167  -0.125  1.00  0.00    -0.277 N 
ATOM      8  C   UNL     1      13.568  80.154  -0.905  1.00  0.00     0.248 C 
ATOM      9  O   UNL     1      14.828  80.126  -0.945  1.00  0.00    -0.273 OA
ATOM     10  H   UNL     1       9.656  80.486  -0.799  1.00  0.00     0.174 HD
ATOM     11  H   UNL     1      13.510  81.848   0.410  1.00  0.00     0.174 HD
ENDROOT
BRANCH   1  12
ATOM     12  C   UNL     1      13.056  77.710  -0.994  1.00  0.00     0.028 C 
ATOM     13  C   UNL     1      13.030  77.739   0.540  1.00  0.00     0.006 C 
ENDBRANCH   1  12
BRANCH   1  14
ATOM     14  C   UNL     1      13.216  79.156  -3.136  1.00  0.00    -0.023 A 
ATOM     15  C   UNL     1      13.598  77.959  -3.783  1.00  0.00     0.005 A 
ATOM     16  C   UNL     1      13.258  80.357  -3.883  1.00  0.00     0.005 A 
ATOM     17  C   UNL     1      14.005  77.963  -5.119  1.00  0.00     0.000 A 
ATOM     18  C   UNL     1      13.667  80.351  -5.220  1.00  0.00     0.000 A 
ATOM     19  C   UNL     1      14.040  79.157  -5.838  1.00  0.00     0.000 A 
ENDBRANCH   1  14
TORSDOF 2
ENDMDL
MODEL 13
REMARK VINA RESULT:    -6.724      3.159      4.503
REMARK INTER + INTRA:          -7.993
REMARK INTER:                  -7.577
REMARK INTRA:                  -0.417
REMARK UNBOUND:                -0.483
REMARK SMILES CCC1(c2ccccc2)C(=O)NC(=O)NC1=O
REMARK SMILES IDX 3 1 10 2 11 3 12 4 13 5 14 6 15 7 16 8 17 9 2 12 1 13 4 14
REMARK SMILES IDX 5 15 9 16 6 17 8 18 7 19
REMARK H PARENT 12 10 15 11
REMARK Flexibility Score: inf
ROOT
ATOM      1  C   UNL     1       8.772  77.330  -1.795  1.00  0.00     0.153 C 
ATOM      2  C   UNL     1       7.856  78.522  -1.542  1.00  0.00     0.248 C 
ATOM      3  O   UNL     1       7.908  79.514  -2.319  1.00  0.00    -0.273 OA
ATOM      4  N   UNL     1       6.916  78.541  -0.464  1.00  0.00    -0.277 N 
ATOM      5  C   UNL     1       6.838  77.470   0.470  1.00  0.00     0.328 C 
ATOM      6  O   UNL     1       5.991  77.508   1.403  1.00  0.00    -0.248 OA
ATOM      7  N   UNL     1       7.722  76.359   0.358  1.00  0.00    -0.277 N 
ATOM      8  C   UNL     1       8.686  76.277  -0.696  1.00  0.00     0.248 C 
ATOM      9  O   UNL     1       9.469  75.289  -0.727  1.00  0.00    -0.273 OA
ATOM     10  H   UNL     1       6.279  79.362  -0.355  1.00  0.00     0.174 HD
ATOM     11  H   UNL     1       7.672  75.592   1.066  1.00  0.00     0.174 HD
ENDROOT
BRANCH   1  12
ATOM     12  C   UNL     1       8.344  76.664  -3.140  1.00  0.00     0.028 C 
ATOM     13  C   UNL     1       7.144  75.717  -3.016  1.00  0.00     0.006 C 
ENDBRANCH   1  12
BRANCH   1  14
ATOM     14  C   UNL     1      10.218  77.858  -1.812  1.00  0.00    -0.023 A 
ATOM     15  C   UNL     1      11.061  77.498  -2.887  1.00  0.00     0.005 A 
ATOM     16  C   UNL     1      10.753  78.691  -0.800  1.00  0.00     0.005 A 
ATOM     17  C   UNL     1      12.381  77.951  -2.950  1.00  0.00     0.000 A 
ATOM     18  C   UNL     1      12.076  79.139  -0.871  1.00  0.00     0.000 A 
ATOM     19  C   UNL     1      12.889  78.771  -1.943  1.00  0.00     0.000 A 
ENDBRANCH   1  14
TORSDOF 2
ENDMDL
MODEL 14
REMARK VINA RESULT:    -6.537      3.801      6.581
REMARK INTER + INTRA:          -7.784
REMARK INTER:                  -8.181
REMARK INTRA:                   0.396
REMARK UNBOUND:                -0.483
REMARK SMILES CCC1(c2ccccc2)C(=O)NC(=O)NC1=O
REMARK SMILES IDX 3 1 10 2 11 3 12 4 13 5 14 6 15 7 16 8 17 9 2 12 1 13 4 14
REMARK SMILES IDX 5 15 9 16 6 17 8 18 7 19
REMARK H PARENT 12 10 15 11
REMARK Flexibility Score: inf
ROOT
ATOM      1  C   UNL     1      10.057  79.407  -1.524  1.00  0.00     0.153 C 
ATOM      2  C   UNL     1       9.102  78.341  -0.999  1.00  0.00     0.248 C 
ATOM      3  O   UNL     1       8.275  78.646  -0.096  1.00  0.00    -0.273 OA
ATOM      4  N   UNL     1       9.094  77.007  -1.516  1.00  0.00    -0.277 N 
ATOM      5  C   UNL     1      10.028  76.590  -2.506  1.00  0.00     0.328 C 
ATOM      6  O   UNL     1       9.989  75.413  -2.952  1.00  0.00    -0.248 OA
ATOM      7  N   UNL     1      11.014  77.500  -2.985  1.00  0.00    -0.277 N 
ATOM      8  C   UNL     1      11.078  78.848  -2.509  1.00  0.00     0.248 C 
ATOM      9  O   UNL     1      11.993  79.601  -2.940  1.00  0.00    -0.273 OA
ATOM     10  H   UNL     1       8.393  76.322  -1.154  1.00  0.00     0.174 HD
ATOM     11  H   UNL     1      11.710  77.174  -3.692  1.00  0.00     0.174 HD
ENDROOT
BRANCH   1  12
ATOM     12  C   UNL     1       9.214  80.494  -2.262  1.00  0.00     0.028 C 
ATOM     13  C   UNL     1       7.704  80.224  -2.258  1.00  0.00     0.006 C 
ENDBRANCH   1  12
BRANCH   1  14
ATOM     14  C   UNL     1      10.838  79.959  -0.318  1.00  0.00    -0.023 A 
ATOM     15  C   UNL     1      11.990  79.266   0.121  1.00  0.00     0.005 A 
ATOM     16  C   UNL     1      10.462  81.130   0.381  1.00  0.00     0.005 A 
ATOM     17  C   UNL     1      12.733  79.726   1.210  1.00  0.00     0.000 A 
ATOM     18  C   UNL     1      11.213  81.582   1.471  1.00  0.00     0.000 A 
ATOM     19  C   UNL     1      12.346  80.882   1.885  1.00  0.00     0.000 A 
ENDBRANCH   1  14
TORSDOF 2
ENDMDL
MODEL 15
REMARK VINA RESULT:    -6.378      4.603      6.559
REMARK INTER + INTRA:          -7.607
REMARK INTER:                  -7.122
REMARK INTRA:                  -0.485
REMARK UNBOUND:                -0.483
REMARK SMILES CCC1(c2ccccc2)C(=O)NC(=O)NC1=O
REMARK SMILES IDX 3 1 10 2 11 3 12 4 13 5 14 6 15 7 16 8 17 9 2 12 1 13 4 14
REMARK SMILES IDX 5 15 9 16 6 17 8 18 7 19
REMARK H PARENT 12 10 15 11
REMARK Flexibility Score: inf
ROOT
ATOM      1  C   UNL     1      12.135  79.349  -1.709  1.00  0.00     0.153 C 
ATOM      2  C   UNL     1      12.358  78.052  -0.941  1.00  0.00     0.248 C 
ATOM      3  O   UNL     1      13.529  77.737  -0.591  1.00  0.00    -0.273 OA
ATOM      4  N   UNL     1      11.277  77.187  -0.580  1.00  0.00    -0.277 N 
ATOM      5  C   UNL     1       9.939  77.466  -0.980  1.00  0.00     0.328 C 
ATOM      6  O   UNL     1       9.006  76.694  -0.637  1.00  0.00    -0.248 OA
ATOM      7  N   UNL     1       9.657  78.612  -1.777  1.00  0.00    -0.277 N 
ATOM      8  C   UNL     1      10.692  79.517  -2.174  1.00  0.00     0.248 C 
ATOM      9  O   UNL     1      10.393  80.495  -2.911  1.00  0.00    -0.273 OA
ATOM     10  H   UNL     1      11.473  76.329  -0.017  1.00  0.00     0.174 HD
ATOM     11  H   UNL     1       8.675  78.791  -2.087  1.00  0.00     0.174 HD
ENDROOT
BRANCH   1  12
ATOM     12  C   UNL     1      12.480  80.540  -0.761  1.00  0.00     0.028 C 
ATOM     13  C   UNL     1      11.542  80.674   0.445  1.00  0.00     0.006 C 
ENDBRANCH   1  12
BRANCH   1  14
ATOM     14  C   UNL     1      13.020  79.297  -2.967  1.00  0.00    -0.023 A 
ATOM     15  C   UNL     1      13.011  78.124  -3.756  1.00  0.00     0.005 A 
ATOM     16  C   UNL     1      13.848  80.367  -3.380  1.00  0.00     0.005 A 
ATOM     17  C   UNL     1      13.796  78.025  -4.907  1.00  0.00     0.000 A 
ATOM     18  C   UNL     1      14.630  80.260  -4.534  1.00  0.00     0.000 A 
ATOM     19  C   UNL     1      14.605  79.092  -5.297  1.00  0.00     0.000 A 
ENDBRANCH   1  14
TORSDOF 2
ENDMDL
