MODEL 1
REMARK VINA RESULT:     1.134      0.000      0.000
REMARK INTER + INTRA:           3.591
REMARK INTER:                   2.426
REMARK INTRA:                   1.165
REMARK UNBOUND:                 1.165
REMARK SMILES CC(=O)O[C@H]1C(=O)[C@@]2(C)[C@H]([C@H](OC(=O)c3ccccc3)[C@]3(O)C[C@H](OC(=O)[C@H](O)[C@@H](NC(=O)c4ccccc4)c4ccccc4)C(C)=C1C3(C)C)[C@]1(OC(C)=O)CO[C@@H]1C[C@@H]2O
REMARK SMILES IDX 25 1 24 2 21 3 23 4 49 5 48 6 50 7 51 8 46 9 47 10 11 11
REMARK SMILES IDX 10 12 8 13 52 14 9 15 61 16 59 17 57 18 60 19 58 20 6 21
REMARK SMILES IDX 7 22 53 24 54 25 55 26 56 27 62 28 12 30 13 31 14 32 15 33
REMARK SMILES IDX 16 34 20 35 17 36 19 37 18 38 22 39 5 41 4 43 2 44 1 45 3 46
REMARK SMILES IDX 26 47 27 48 28 49 29 50 30 52 31 53 32 54 33 56 34 57 35 58
REMARK SMILES IDX 39 59 36 60 38 61 37 62 40 63 41 64 45 65 42 66 44 67 43 68
REMARK H PARENT 62 29 22 40 29 51 31 55
REMARK Flexibility Score: 100.00
ROOT
ATOM      1  O   UNL     1       8.727  77.322  -1.812  1.00  0.00    -0.456 OA
ENDROOT
BRANCH   1   2
ATOM      2  C   UNL     1      10.107  77.103  -2.128  1.00  0.00     0.205 C 
ATOM      3  C   UNL     1      12.248  78.539  -2.822  1.00  0.00     0.115 C 
ATOM      4  C   UNL     1      10.684  78.312  -2.926  1.00  0.00     0.090 C 
ATOM      5  C   UNL     1      12.968  77.256  -2.235  1.00  0.00     0.023 C 
ATOM      6  C   UNL     1      12.275  76.972  -0.884  1.00  0.00    -0.011 C 
ATOM      7  C   UNL     1      14.519  77.439  -2.159  1.00  0.00     0.019 C 
ATOM      8  C   UNL     1      12.806  75.995  -3.156  1.00  0.00     0.019 C 
ATOM      9  C   UNL     1      10.911  76.805  -0.872  1.00  0.00    -0.029 C 
ATOM     10  C   UNL     1      10.189  76.281   0.354  1.00  0.00     0.043 C 
BRANCH   3  11
ATOM     11  C   UNL     1      12.560  79.864  -1.980  1.00  0.00     0.218 C 
BRANCH  11  12
ATOM     12  C   UNL     1      11.942  80.009  -0.514  1.00  0.00     0.098 C 
ATOM     13  C   UNL     1      12.955  79.795   0.704  1.00  0.00     0.067 C 
ATOM     14  C   UNL     1      11.022  81.287  -0.357  1.00  0.00     0.169 C 
ATOM     15  C   UNL     1      14.047  80.917   0.754  1.00  0.00     0.023 C 
ATOM     16  C   UNL     1      12.121  79.838   2.020  1.00  0.00     0.131 C 
ATOM     17  C   UNL     1      10.767  81.861   1.039  1.00  0.00     0.168 C 
ATOM     18  C   UNL     1      11.669  82.647  -0.590  1.00  0.00     0.212 C 
ATOM     19  C   UNL     1      11.434  81.200   2.266  1.00  0.00     0.069 C 
ATOM     20  O   UNL     1      11.415  83.077   0.726  1.00  0.00    -0.370 OA
BRANCH  13  21
ATOM     21  C   UNL     1      13.699  78.421   0.672  1.00  0.00     0.186 CG0
ATOM     22  O   UNL     1      14.885  78.397   0.975  1.00  0.00    -0.294 OA
ATOM     23  G   UNL     1      13.057  77.064   0.420  1.00  0.00     0.000 G0
ENDBRANCH  13  21
BRANCH  14  24
ATOM     24  O   UNL     1       9.815  81.205  -1.130  1.00  0.00    -0.454 OA
BRANCH  24  25
ATOM     25  C   UNL     1       8.685  80.469  -0.761  1.00  0.00     0.303 C 
ATOM     26  C   UNL     1       7.475  80.563  -1.619  1.00  0.00     0.139 C 
ATOM     27  O   UNL     1       8.677  79.747   0.271  1.00  0.00    -0.253 OA
ENDBRANCH  24  25
ENDBRANCH  14  24
BRANCH  16  28
ATOM     28  O   UNL     1      12.938  79.525   3.123  1.00  0.00    -0.392 OA
ATOM     29  H   UNL     1      13.876  79.727   2.860  1.00  0.00     0.210 HD
ENDBRANCH  16  28
ENDBRANCH  11  12
BRANCH  11  30
ATOM     30  O   UNL     1      12.205  80.996  -2.789  1.00  0.00    -0.455 OA
BRANCH  30  31
ATOM     31  C   UNL     1      12.558  81.131  -4.144  1.00  0.00     0.338 C 
ATOM     32  O   UNL     1      11.657  81.197  -5.034  1.00  0.00    -0.246 OA
BRANCH  31  33
ATOM     33  C   UNL     1      13.987  81.173  -4.530  1.00  0.00     0.060 A 
ATOM     34  C   UNL     1      14.403  81.873  -5.676  1.00  0.00     0.015 A 
ATOM     35  C   UNL     1      14.951  80.498  -3.753  1.00  0.00     0.015 A 
ATOM     36  C   UNL     1      15.751  81.885  -6.049  1.00  0.00     0.001 A 
ATOM     37  C   UNL     1      16.300  80.516  -4.130  1.00  0.00     0.001 A 
ATOM     38  C   UNL     1      16.696  81.202  -5.279  1.00  0.00     0.000 A 
ENDBRANCH  31  33
ENDBRANCH  30  31
ENDBRANCH  11  30
ENDBRANCH   3  11
BRANCH   3  39
ATOM     39  O   UNL     1      12.756  78.791  -4.121  1.00  0.00    -0.385 OA
ATOM     40  H   UNL     1      12.249  78.263  -4.788  1.00  0.00     0.211 HD
ENDBRANCH   3  39
BRANCH   6  41
ATOM     41  C   UNL     1      13.052  77.041   0.423  1.00  0.00     0.270 CG0
ATOM     42  G   UNL     1      13.719  78.391   0.647  1.00  0.00     0.000 G0
BRANCH  41  43
ATOM     43  O   UNL     1      14.031  75.993   0.399  1.00  0.00    -0.450 OA
BRANCH  43  44
ATOM     44  C   UNL     1      14.580  75.405   1.543  1.00  0.00     0.303 C 
ATOM     45  C   UNL     1      15.733  74.472   1.400  1.00  0.00     0.139 C 
ATOM     46  O   UNL     1      14.064  75.591   2.686  1.00  0.00    -0.253 OA
ENDBRANCH  43  44
ENDBRANCH  41  43
ENDBRANCH   6  41
ENDBRANCH   1   2
BRANCH   1  47
ATOM     47  C   UNL     1       7.710  77.238  -2.772  1.00  0.00     0.338 C 
ATOM     48  O   UNL     1       6.878  78.175  -2.905  1.00  0.00    -0.249 OA
BRANCH  47  49
ATOM     49  C   UNL     1       7.691  76.092  -3.747  1.00  0.00     0.251 C 
BRANCH  49  50
ATOM     50  O   UNL     1       6.682  76.322  -4.698  1.00  0.00    -0.379 OA
ATOM     51  H   UNL     1       6.819  75.676  -5.443  1.00  0.00     0.211 HD
ENDBRANCH  49  50
BRANCH  49  52
ATOM     52  C   UNL     1       7.399  74.753  -3.031  1.00  0.00     0.153 C 
BRANCH  52  53
ATOM     53  N   UNL     1       8.654  74.090  -2.659  1.00  0.00    -0.342 N 
ATOM     54  C   UNL     1       9.265  73.066  -3.466  1.00  0.00     0.251 C 
ATOM     55  H   UNL     1       9.177  74.454  -1.831  1.00  0.00     0.164 HD
ATOM     56  O   UNL     1       8.877  72.897  -4.655  1.00  0.00    -0.269 OA
BRANCH  54  57
ATOM     57  C   UNL     1      10.361  72.215  -2.938  1.00  0.00     0.039 A 
ATOM     58  C   UNL     1      11.712  72.480  -3.244  1.00  0.00     0.014 A 
ATOM     59  C   UNL     1      10.063  71.143  -2.072  1.00  0.00     0.014 A 
ATOM     60  C   UNL     1      12.731  71.678  -2.718  1.00  0.00     0.001 A 
ATOM     61  C   UNL     1      11.087  70.351  -1.539  1.00  0.00     0.001 A 
ATOM     62  C   UNL     1      12.418  70.614  -1.871  1.00  0.00     0.000 A 
ENDBRANCH  54  57
ENDBRANCH  52  53
BRANCH  52  63
ATOM     63  C   UNL     1       6.530  74.937  -1.796  1.00  0.00    -0.022 A 
ATOM     64  C   UNL     1       5.127  74.821  -1.867  1.00  0.00     0.006 A 
ATOM     65  C   UNL     1       7.131  75.184  -0.547  1.00  0.00     0.006 A 
ATOM     66  C   UNL     1       4.349  74.947  -0.711  1.00  0.00     0.000 A 
ATOM     67  C   UNL     1       6.350  75.305   0.605  1.00  0.00     0.000 A 
ATOM     68  C   UNL     1       4.959  75.179   0.525  1.00  0.00     0.000 A 
ENDBRANCH  52  63
ENDBRANCH  49  52
ENDBRANCH  47  49
ENDBRANCH   1  47
TORSDOF 17
ENDMDL
MODEL 2
REMARK VINA RESULT:     1.178      1.067      3.222
REMARK INTER + INTRA:           3.687
REMARK INTER:                  -1.058
REMARK INTRA:                   4.744
REMARK UNBOUND:                 1.165
REMARK SMILES CC(=O)O[C@H]1C(=O)[C@@]2(C)[C@H]([C@H](OC(=O)c3ccccc3)[C@]3(O)C[C@H](OC(=O)[C@H](O)[C@@H](NC(=O)c4ccccc4)c4ccccc4)C(C)=C1C3(C)C)[C@]1(OC(C)=O)CO[C@@H]1C[C@@H]2O
REMARK SMILES IDX 25 1 24 2 21 3 23 4 49 5 48 6 50 7 51 8 46 9 47 10 11 11
REMARK SMILES IDX 10 12 8 13 52 14 9 15 61 16 59 17 57 18 60 19 58 20 6 21
REMARK SMILES IDX 7 22 53 24 54 25 55 26 56 27 62 28 12 30 13 31 14 32 15 33
REMARK SMILES IDX 16 34 20 35 17 36 19 37 18 38 22 39 5 41 4 43 2 44 1 45 3 46
REMARK SMILES IDX 26 47 27 48 28 49 29 50 30 52 31 53 32 54 33 56 34 57 35 58
REMARK SMILES IDX 39 59 36 60 38 61 37 62 40 63 41 64 45 65 42 66 44 67 43 68
REMARK H PARENT 62 29 22 40 29 51 31 55
REMARK Flexibility Score: 100.00
ROOT
ATOM      1  O   UNL     1       9.384  77.532  -2.479  1.00  0.00    -0.456 OA
ENDROOT
BRANCH   1   2
ATOM      2  C   UNL     1      10.803  77.350  -2.555  1.00  0.00     0.205 C 
ATOM      3  C   UNL     1      12.990  78.839  -2.912  1.00  0.00     0.115 C 
ATOM      4  C   UNL     1      11.472  78.563  -3.272  1.00  0.00     0.090 C 
ATOM      5  C   UNL     1      13.637  77.589  -2.187  1.00  0.00     0.023 C 
ATOM      6  C   UNL     1      12.735  77.306  -0.964  1.00  0.00    -0.011 C 
ATOM      7  C   UNL     1      15.146  77.822  -1.856  1.00  0.00     0.019 C 
ATOM      8  C   UNL     1      13.666  76.308  -3.095  1.00  0.00     0.019 C 
ATOM      9  C   UNL     1      11.393  77.098  -1.176  1.00  0.00    -0.029 C 
ATOM     10  C   UNL     1      10.491  76.572  -0.077  1.00  0.00     0.043 C 
BRANCH   3  11
ATOM     11  C   UNL     1      13.119  80.187  -2.059  1.00  0.00     0.218 C 
BRANCH  11  12
ATOM     12  C   UNL     1      12.250  80.344  -0.728  1.00  0.00     0.098 C 
ATOM     13  C   UNL     1      13.036  80.176   0.654  1.00  0.00     0.067 C 
ATOM     14  C   UNL     1      11.289  81.601  -0.763  1.00  0.00     0.169 C 
ATOM     15  C   UNL     1      14.078  81.326   0.870  1.00  0.00     0.023 C 
ATOM     16  C   UNL     1      11.982  80.222   1.802  1.00  0.00     0.131 C 
ATOM     17  C   UNL     1      10.780  82.193   0.554  1.00  0.00     0.168 C 
ATOM     18  C   UNL     1      11.938  82.972  -0.909  1.00  0.00     0.212 C 
ATOM     19  C   UNL     1      11.235  81.571   1.893  1.00  0.00     0.069 C 
ATOM     20  O   UNL     1      11.447  83.419   0.332  1.00  0.00    -0.370 OA
BRANCH  13  21
ATOM     21  C   UNL     1      13.803  78.821   0.783  1.00  0.00     0.186 CG0
ATOM     22  O   UNL     1      14.917  78.831   1.292  1.00  0.00    -0.294 OA
ATOM     23  G   UNL     1      13.245  77.444   0.451  1.00  0.00     0.000 G0
ENDBRANCH  13  21
BRANCH  14  24
ATOM     24  O   UNL     1      10.240  81.475  -1.734  1.00  0.00    -0.454 OA
BRANCH  24  25
ATOM     25  C   UNL     1       9.070  80.732  -1.548  1.00  0.00     0.303 C 
ATOM     26  C   UNL     1       8.017  80.805  -2.593  1.00  0.00     0.139 C 
ATOM     27  O   UNL     1       8.898  80.021  -0.522  1.00  0.00    -0.253 OA
ENDBRANCH  24  25
ENDBRANCH  14  24
BRANCH  16  28
ATOM     28  O   UNL     1      12.599  79.950   3.038  1.00  0.00    -0.392 OA
ATOM     29  H   UNL     1      12.333  79.029   3.302  1.00  0.00     0.210 HD
ENDBRANCH  16  28
ENDBRANCH  11  12
BRANCH  11  30
ATOM     30  O   UNL     1      12.888  81.295  -2.942  1.00  0.00    -0.455 OA
BRANCH  30  31
ATOM     31  C   UNL     1      13.131  81.255  -4.328  1.00  0.00     0.338 C 
ATOM     32  O   UNL     1      12.165  81.137  -5.141  1.00  0.00    -0.246 OA
BRANCH  31  33
ATOM     33  C   UNL     1      14.521  81.329  -4.832  1.00  0.00     0.060 A 
ATOM     34  C   UNL     1      14.812  81.967  -6.050  1.00  0.00     0.015 A 
ATOM     35  C   UNL     1      15.573  80.746  -4.097  1.00  0.00     0.015 A 
ATOM     36  C   UNL     1      16.124  82.007  -6.533  1.00  0.00     0.001 A 
ATOM     37  C   UNL     1      16.885  80.792  -4.583  1.00  0.00     0.001 A 
ATOM     38  C   UNL     1      17.158  81.416  -5.802  1.00  0.00     0.000 A 
ENDBRANCH  31  33
ENDBRANCH  30  31
ENDBRANCH  11  30
ENDBRANCH   3  11
BRANCH   3  39
ATOM     39  O   UNL     1      13.701  79.085  -4.113  1.00  0.00    -0.385 OA
ATOM     40  H   UNL     1      13.546  78.346  -4.753  1.00  0.00     0.211 HD
ENDBRANCH   3  39
BRANCH   6  41
ATOM     41  C   UNL     1      13.280  77.421   0.453  1.00  0.00     0.270 CG0
ATOM     42  G   UNL     1      13.793  78.816   0.781  1.00  0.00     0.000 G0
BRANCH  41  43
ATOM     43  O   UNL     1      14.328  76.452   0.592  1.00  0.00    -0.450 OA
BRANCH  43  44
ATOM     44  C   UNL     1      14.491  75.626   1.708  1.00  0.00     0.303 C 
ATOM     45  C   UNL     1      15.567  74.596   1.701  1.00  0.00     0.139 C 
ATOM     46  O   UNL     1      13.691  75.687   2.689  1.00  0.00    -0.253 OA
ENDBRANCH  43  44
ENDBRANCH  41  43
ENDBRANCH   6  41
ENDBRANCH   1   2
BRANCH   1  47
ATOM     47  C   UNL     1       8.483  76.755  -3.219  1.00  0.00     0.338 C 
ATOM     48  O   UNL     1       7.375  77.234  -3.581  1.00  0.00    -0.249 OA
BRANCH  47  49
ATOM     49  C   UNL     1       8.892  75.392  -3.709  1.00  0.00     0.251 C 
BRANCH  49  50
ATOM     50  O   UNL     1       7.759  74.734  -4.216  1.00  0.00    -0.379 OA
ATOM     51  H   UNL     1       8.004  74.355  -5.103  1.00  0.00     0.211 HD
ENDBRANCH  49  50
BRANCH  49  52
ATOM     52  C   UNL     1       9.485  74.540  -2.563  1.00  0.00     0.153 C 
BRANCH  52  53
ATOM     53  N   UNL     1       8.717  74.742  -1.328  1.00  0.00    -0.342 N 
ATOM     54  C   UNL     1       7.278  74.813  -1.308  1.00  0.00     0.251 C 
ATOM     55  H   UNL     1       9.231  74.726  -0.420  1.00  0.00     0.164 HD
ATOM     56  O   UNL     1       6.623  74.434  -2.318  1.00  0.00    -0.269 OA
BRANCH  54  57
ATOM     57  C   UNL     1       6.544  75.301  -0.114  1.00  0.00     0.039 A 
ATOM     58  C   UNL     1       6.725  76.609   0.378  1.00  0.00     0.014 A 
ATOM     59  C   UNL     1       5.606  74.463   0.525  1.00  0.00     0.014 A 
ATOM     60  C   UNL     1       6.007  77.057   1.493  1.00  0.00     0.001 A 
ATOM     61  C   UNL     1       4.882  74.919   1.633  1.00  0.00     0.001 A 
ATOM     62  C   UNL     1       5.090  76.211   2.120  1.00  0.00     0.000 A 
ENDBRANCH  54  57
ENDBRANCH  52  53
BRANCH  52  63
ATOM     63  C   UNL     1       9.524  73.058  -2.906  1.00  0.00    -0.022 A 
ATOM     64  C   UNL     1       9.378  72.614  -4.235  1.00  0.00     0.006 A 
ATOM     65  C   UNL     1       9.751  72.109  -1.890  1.00  0.00     0.006 A 
ATOM     66  C   UNL     1       9.463  71.250  -4.537  1.00  0.00     0.000 A 
ATOM     67  C   UNL     1       9.839  70.750  -2.197  1.00  0.00     0.000 A 
ATOM     68  C   UNL     1       9.703  70.320  -3.521  1.00  0.00     0.000 A 
ENDBRANCH  52  63
ENDBRANCH  49  52
ENDBRANCH  47  49
ENDBRANCH   1  47
TORSDOF 17
ENDMDL
MODEL 3
REMARK VINA RESULT:     2.423      1.933      4.237
REMARK INTER + INTRA:           6.350
REMARK INTER:                   3.850
REMARK INTRA:                   2.500
REMARK UNBOUND:                 1.165
REMARK SMILES CC(=O)O[C@H]1C(=O)[C@@]2(C)[C@H]([C@H](OC(=O)c3ccccc3)[C@]3(O)C[C@H](OC(=O)[C@H](O)[C@@H](NC(=O)c4ccccc4)c4ccccc4)C(C)=C1C3(C)C)[C@]1(OC(C)=O)CO[C@@H]1C[C@@H]2O
REMARK SMILES IDX 25 1 24 2 21 3 23 4 49 5 48 6 50 7 51 8 46 9 47 10 11 11
REMARK SMILES IDX 10 12 8 13 52 14 9 15 61 16 59 17 57 18 60 19 58 20 6 21
REMARK SMILES IDX 7 22 53 24 54 25 55 26 56 27 62 28 12 30 13 31 14 32 15 33
REMARK SMILES IDX 16 34 20 35 17 36 19 37 18 38 22 39 5 41 4 43 2 44 1 45 3 46
REMARK SMILES IDX 26 47 27 48 28 49 29 50 30 52 31 53 32 54 33 56 34 57 35 58
REMARK SMILES IDX 39 59 36 60 38 61 37 62 40 63 41 64 45 65 42 66 44 67 43 68
REMARK H PARENT 62 29 22 40 29 51 31 55
REMARK Flexibility Score: 100.00
ROOT
ATOM      1  O   UNL     1      11.209  75.286  -2.036  1.00  0.00    -0.456 OA
ENDROOT
BRANCH   1   2
ATOM      2  C   UNL     1      12.378  76.018  -1.647  1.00  0.00     0.205 C 
ATOM      3  C   UNL     1      13.557  78.344  -2.215  1.00  0.00     0.115 C 
ATOM      4  C   UNL     1      12.737  77.087  -2.723  1.00  0.00     0.090 C 
ATOM      5  C   UNL     1      14.184  78.072  -0.787  1.00  0.00     0.023 C 
ATOM      6  C   UNL     1      12.996  77.680   0.120  1.00  0.00    -0.011 C 
ATOM      7  C   UNL     1      15.032  79.283  -0.280  1.00  0.00     0.019 C 
ATOM      8  C   UNL     1      15.220  76.891  -0.793  1.00  0.00     0.019 C 
ATOM      9  C   UNL     1      12.200  76.627  -0.264  1.00  0.00    -0.029 C 
ATOM     10  C   UNL     1      11.178  76.023   0.678  1.00  0.00     0.043 C 
BRANCH   3  11
ATOM     11  C   UNL     1      12.639  79.654  -2.251  1.00  0.00     0.218 C 
BRANCH  11  12
ATOM     12  C   UNL     1      11.268  79.657  -1.431  1.00  0.00     0.098 C 
ATOM     13  C   UNL     1      11.270  80.466  -0.052  1.00  0.00     0.067 C 
ATOM     14  C   UNL     1      10.007  79.956  -2.340  1.00  0.00     0.169 C 
ATOM     15  C   UNL     1      11.455  82.005  -0.283  1.00  0.00     0.023 C 
ATOM     16  C   UNL     1       9.895  80.217   0.639  1.00  0.00     0.131 C 
ATOM     17  C   UNL     1       8.726  80.491  -1.694  1.00  0.00     0.168 C 
ATOM     18  C   UNL     1       9.972  81.295  -3.068  1.00  0.00     0.212 C 
ATOM     19  C   UNL     1       8.695  80.754  -0.172  1.00  0.00     0.069 C 
ATOM     20  O   UNL     1       8.804  81.712  -2.401  1.00  0.00    -0.370 OA
BRANCH  13  21
ATOM     21  C   UNL     1      12.381  80.008   0.946  1.00  0.00     0.186 CG0
ATOM     22  O   UNL     1      13.016  80.868   1.542  1.00  0.00    -0.294 OA
ATOM     23  G   UNL     1      12.674  78.572   1.358  1.00  0.00     0.000 G0
ENDBRANCH  13  21
BRANCH  14  24
ATOM     24  O   UNL     1       9.735  78.906  -3.280  1.00  0.00    -0.454 OA
BRANCH  24  25
ATOM     25  C   UNL     1       8.986  77.761  -2.996  1.00  0.00     0.303 C 
ATOM     26  C   UNL     1       7.542  77.924  -2.685  1.00  0.00     0.139 C 
ATOM     27  O   UNL     1       9.510  76.615  -2.995  1.00  0.00    -0.253 OA
ENDBRANCH  24  25
ENDBRANCH  14  24
BRANCH  16  28
ATOM     28  O   UNL     1       9.885  80.799   1.921  1.00  0.00    -0.392 OA
ATOM     29  H   UNL     1       9.633  81.754   1.808  1.00  0.00     0.210 HD
ENDBRANCH  16  28
ENDBRANCH  11  12
BRANCH  11  30
ATOM     30  O   UNL     1      12.403  79.993  -3.625  1.00  0.00    -0.455 OA
BRANCH  30  31
ATOM     31  C   UNL     1      13.342  80.652  -4.441  1.00  0.00     0.338 C 
ATOM     32  O   UNL     1      13.377  81.919  -4.477  1.00  0.00    -0.246 OA
BRANCH  31  33
ATOM     33  C   UNL     1      14.274  79.860  -5.275  1.00  0.00     0.060 A 
ATOM     34  C   UNL     1      13.871  78.639  -5.844  1.00  0.00     0.015 A 
ATOM     35  C   UNL     1      15.588  80.318  -5.499  1.00  0.00     0.015 A 
ATOM     36  C   UNL     1      14.767  77.883  -6.607  1.00  0.00     0.001 A 
ATOM     37  C   UNL     1      16.480  79.558  -6.266  1.00  0.00     0.001 A 
ATOM     38  C   UNL     1      16.071  78.341  -6.813  1.00  0.00     0.000 A 
ENDBRANCH  31  33
ENDBRANCH  30  31
ENDBRANCH  11  30
ENDBRANCH   3  11
BRANCH   3  39
ATOM     39  O   UNL     1      14.609  78.597  -3.132  1.00  0.00    -0.385 OA
ATOM     40  H   UNL     1      14.253  79.064  -3.929  1.00  0.00     0.211 HD
ENDBRANCH   3  39
BRANCH   6  41
ATOM     41  C   UNL     1      12.611  78.536   1.318  1.00  0.00     0.270 CG0
ATOM     42  G   UNL     1      12.443  80.008   0.967  1.00  0.00     0.000 G0
BRANCH  41  43
ATOM     43  O   UNL     1      13.630  78.368   2.314  1.00  0.00    -0.450 OA
BRANCH  43  44
ATOM     44  C   UNL     1      13.849  77.182   3.020  1.00  0.00     0.303 C 
ATOM     45  C   UNL     1      14.407  76.000   2.303  1.00  0.00     0.139 C 
ATOM     46  O   UNL     1      13.509  77.072   4.236  1.00  0.00    -0.253 OA
ENDBRANCH  43  44
ENDBRANCH  41  43
ENDBRANCH   6  41
ENDBRANCH   1   2
BRANCH   1  47
ATOM     47  C   UNL     1      11.270  73.981  -2.543  1.00  0.00     0.338 C 
ATOM     48  O   UNL     1      11.918  73.734  -3.596  1.00  0.00    -0.249 OA
BRANCH  47  49
ATOM     49  C   UNL     1      10.683  72.841  -1.756  1.00  0.00     0.251 C 
BRANCH  49  50
ATOM     50  O   UNL     1      11.440  71.683  -2.000  1.00  0.00    -0.379 OA
ATOM     51  H   UNL     1      11.375  71.105  -1.192  1.00  0.00     0.211 HD
ENDBRANCH  49  50
BRANCH  49  52
ATOM     52  C   UNL     1       9.219  72.569  -2.172  1.00  0.00     0.153 C 
BRANCH  52  53
ATOM     53  N   UNL     1       8.370  73.717  -1.827  1.00  0.00    -0.342 N 
ATOM     54  C   UNL     1       8.409  74.355  -0.536  1.00  0.00     0.251 C 
ATOM     55  H   UNL     1       7.797  74.151  -2.584  1.00  0.00     0.164 HD
ATOM     56  O   UNL     1       9.367  74.114   0.248  1.00  0.00    -0.269 OA
BRANCH  54  57
ATOM     57  C   UNL     1       7.355  75.311  -0.114  1.00  0.00     0.039 A 
ATOM     58  C   UNL     1       6.000  74.930  -0.040  1.00  0.00     0.014 A 
ATOM     59  C   UNL     1       7.708  76.621   0.269  1.00  0.00     0.014 A 
ATOM     60  C   UNL     1       5.025  75.841   0.381  1.00  0.00     0.001 A 
ATOM     61  C   UNL     1       6.731  77.526   0.701  1.00  0.00     0.001 A 
ATOM     62  C   UNL     1       5.391  77.137   0.746  1.00  0.00     0.000 A 
ENDBRANCH  54  57
ENDBRANCH  52  53
BRANCH  52  63
ATOM     63  C   UNL     1       9.088  72.264  -3.657  1.00  0.00    -0.022 A 
ATOM     64  C   UNL     1       8.604  73.231  -4.560  1.00  0.00     0.006 A 
ATOM     65  C   UNL     1       9.496  71.010  -4.153  1.00  0.00     0.006 A 
ATOM     66  C   UNL     1       8.536  72.947  -5.929  1.00  0.00     0.000 A 
ATOM     67  C   UNL     1       9.429  70.733  -5.520  1.00  0.00     0.000 A 
ATOM     68  C   UNL     1       8.957  71.704  -6.410  1.00  0.00     0.000 A 
ENDBRANCH  52  63
ENDBRANCH  49  52
ENDBRANCH  47  49
ENDBRANCH   1  47
TORSDOF 17
ENDMDL
