MODEL 1
REMARK VINA RESULT:    -7.621      0.000      0.000
REMARK INTER + INTRA:          -8.738
REMARK INTER:                  -8.735
REMARK INTRA:                  -0.003
REMARK UNBOUND:                -0.003
REMARK SMILES O=c1c(-c2ccc(O)cc2)coc2cc(O)cc(O)c12
REMARK SMILES IDX 3 1 11 2 12 3 13 4 20 5 18 6 17 7 15 8 14 9 2 10 1 11 4 12
REMARK SMILES IDX 7 13 6 14 9 15 5 16 10 17 8 18 19 20 16 22
REMARK H PARENT 8 19 19 21 16 23
REMARK Flexibility Score: inf
ROOT
ATOM      1  C   UNL     1      14.510  11.094  17.917  1.00  0.00     0.065 A 
ATOM      2  C   UNL     1      14.566  10.358  19.107  1.00  0.00     0.208 A 
ATOM      3  O   UNL     1      13.921   9.207  19.224  1.00  0.00    -0.463 OA
ATOM      4  C   UNL     1      13.214   8.672  18.237  1.00  0.00     0.145 A 
ATOM      5  C   UNL     1      13.126   9.314  16.973  1.00  0.00     0.107 A 
ATOM      6  C   UNL     1      12.386   8.671  15.935  1.00  0.00     0.134 A 
ATOM      7  C   UNL     1      11.699   7.483  16.209  1.00  0.00     0.093 A 
ATOM      8  C   UNL     1      11.777   6.879  17.463  1.00  0.00     0.123 A 
ATOM      9  C   UNL     1      12.547   7.466  18.469  1.00  0.00     0.094 A 
ATOM     10  C   UNL     1      13.754  10.578  16.846  1.00  0.00     0.204 A 
ATOM     11  O   UNL     1      13.605  11.279  15.811  1.00  0.00    -0.288 OA
ENDROOT
BRANCH   1  12
ATOM     12  C   UNL     1      15.223  12.393  17.818  1.00  0.00    -0.011 A 
ATOM     13  C   UNL     1      16.582  14.848  17.610  1.00  0.00     0.115 A 
ATOM     14  C   UNL     1      17.294  13.672  17.878  1.00  0.00     0.047 A 
ATOM     15  C   UNL     1      15.195  14.797  17.443  1.00  0.00     0.047 A 
ATOM     16  C   UNL     1      16.620  12.450  17.978  1.00  0.00     0.013 A 
ATOM     17  C   UNL     1      14.519  13.578  17.544  1.00  0.00     0.013 A 
BRANCH  13  18
ATOM     18  O   UNL     1      17.243  16.070  17.508  1.00  0.00    -0.508 OA
ATOM     19  H   UNL     1      16.969  16.869  18.068  1.00  0.00     0.293 HD
ENDBRANCH  13  18
ENDBRANCH   1  12
BRANCH   6  20
ATOM     20  O   UNL     1      12.324   9.138  14.618  1.00  0.00    -0.507 OA
ATOM     21  H   UNL     1      12.878   8.778  13.855  1.00  0.00     0.293 HD
ENDBRANCH   6  20
BRANCH   8  22
ATOM     22  O   UNL     1      11.094   5.688  17.697  1.00  0.00    -0.508 OA
ATOM     23  H   UNL     1      10.815   5.410  18.631  1.00  0.00     0.293 HD
ENDBRANCH   8  22
TORSDOF 4
ENDMDL
MODEL 2
REMARK VINA RESULT:    -7.562      3.353      4.935
REMARK INTER + INTRA:          -8.669
REMARK INTER:                  -8.521
REMARK INTRA:                  -0.148
REMARK UNBOUND:                -0.003
REMARK SMILES O=c1c(-c2ccc(O)cc2)coc2cc(O)cc(O)c12
REMARK SMILES IDX 3 1 11 2 12 3 13 4 20 5 18 6 17 7 15 8 14 9 2 10 1 11 4 12
REMARK SMILES IDX 7 13 6 14 9 15 5 16 10 17 8 18 19 20 16 22
REMARK H PARENT 8 19 19 21 16 23
REMARK Flexibility Score: inf
ROOT
ATOM      1  C   UNL     1      12.403  10.856  18.264  1.00  0.00     0.065 A 
ATOM      2  C   UNL     1      11.884  11.695  19.256  1.00  0.00     0.208 A 
ATOM      3  O   UNL     1      11.955  11.358  20.536  1.00  0.00    -0.463 OA
ATOM      4  C   UNL     1      12.531  10.240  20.957  1.00  0.00     0.145 A 
ATOM      5  C   UNL     1      13.128   9.338  20.037  1.00  0.00     0.107 A 
ATOM      6  C   UNL     1      13.771   8.171  20.551  1.00  0.00     0.134 A 
ATOM      7  C   UNL     1      13.720   7.901  21.924  1.00  0.00     0.093 A 
ATOM      8  C   UNL     1      13.109   8.787  22.809  1.00  0.00     0.123 A 
ATOM      9  C   UNL     1      12.530   9.962  22.326  1.00  0.00     0.094 A 
ATOM     10  C   UNL     1      13.006   9.645  18.659  1.00  0.00     0.204 A 
ATOM     11  O   UNL     1      13.379   8.832  17.774  1.00  0.00    -0.288 OA
ENDROOT
BRANCH   1  12
ATOM     12  C   UNL     1      12.291  11.245  16.835  1.00  0.00    -0.011 A 
ATOM     13  C   UNL     1      12.060  11.996  14.132  1.00  0.00     0.115 A 
ATOM     14  C   UNL     1      11.291  10.939  14.637  1.00  0.00     0.047 A 
ATOM     15  C   UNL     1      12.939  12.678  14.978  1.00  0.00     0.047 A 
ATOM     16  C   UNL     1      11.403  10.567  15.981  1.00  0.00     0.013 A 
ATOM     17  C   UNL     1      13.054  12.309  16.321  1.00  0.00     0.013 A 
BRANCH  13  18
ATOM     18  O   UNL     1      11.956  12.374  12.796  1.00  0.00    -0.508 OA
ATOM     19  H   UNL     1      12.767  12.398  12.188  1.00  0.00     0.293 HD
ENDBRANCH  13  18
ENDBRANCH   1  12
BRANCH   6  20
ATOM     20  O   UNL     1      14.495   7.270  19.764  1.00  0.00    -0.507 OA
ATOM     21  H   UNL     1      15.140   7.537  19.034  1.00  0.00     0.293 HD
ENDBRANCH   6  20
BRANCH   8  22
ATOM     22  O   UNL     1      13.092   8.496  24.171  1.00  0.00    -0.508 OA
ATOM     23  H   UNL     1      13.910   8.133  24.647  1.00  0.00     0.293 HD
ENDBRANCH   8  22
TORSDOF 4
ENDMDL
MODEL 3
REMARK VINA RESULT:    -7.536      5.388      7.158
REMARK INTER + INTRA:          -8.640
REMARK INTER:                  -8.424
REMARK INTRA:                  -0.216
REMARK UNBOUND:                -0.003
REMARK SMILES O=c1c(-c2ccc(O)cc2)coc2cc(O)cc(O)c12
REMARK SMILES IDX 3 1 11 2 12 3 13 4 20 5 18 6 17 7 15 8 14 9 2 10 1 11 4 12
REMARK SMILES IDX 7 13 6 14 9 15 5 16 10 17 8 18 19 20 16 22
REMARK H PARENT 8 19 19 21 16 23
REMARK Flexibility Score: inf
ROOT
ATOM      1  C   UNL     1      11.384  12.579  14.622  1.00  0.00     0.065 A 
ATOM      2  C   UNL     1      11.600  12.821  13.260  1.00  0.00     0.208 A 
ATOM      3  O   UNL     1      10.722  13.509  12.545  1.00  0.00    -0.463 OA
ATOM      4  C   UNL     1       9.615  14.026  13.064  1.00  0.00     0.145 A 
ATOM      5  C   UNL     1       9.320  13.877  14.445  1.00  0.00     0.107 A 
ATOM      6  C   UNL     1       8.137  14.490  14.956  1.00  0.00     0.134 A 
ATOM      7  C   UNL     1       7.259  15.139  14.079  1.00  0.00     0.093 A 
ATOM      8  C   UNL     1       7.554  15.255  12.722  1.00  0.00     0.123 A 
ATOM      9  C   UNL     1       8.739  14.712  12.220  1.00  0.00     0.094 A 
ATOM     10  C   UNL     1      10.212  13.089  15.215  1.00  0.00     0.204 A 
ATOM     11  O   UNL     1       9.951  12.787  16.408  1.00  0.00    -0.288 OA
ENDROOT
BRANCH   1  12
ATOM     12  C   UNL     1      12.373  11.786  15.396  1.00  0.00    -0.011 A 
ATOM     13  C   UNL     1      14.232  10.283  16.881  1.00  0.00     0.115 A 
ATOM     14  C   UNL     1      14.137  11.668  17.069  1.00  0.00     0.047 A 
ATOM     15  C   UNL     1      13.396   9.651  15.956  1.00  0.00     0.047 A 
ATOM     16  C   UNL     1      13.211  12.415  16.333  1.00  0.00     0.013 A 
ATOM     17  C   UNL     1      12.471  10.395  15.218  1.00  0.00     0.013 A 
BRANCH  13  18
ATOM     18  O   UNL     1      15.150   9.530  17.607  1.00  0.00    -0.508 OA
ATOM     19  H   UNL     1      15.455   8.616  17.291  1.00  0.00     0.293 HD
ENDBRANCH  13  18
ENDBRANCH   1  12
BRANCH   6  20
ATOM     20  O   UNL     1       7.797  14.518  16.313  1.00  0.00    -0.507 OA
ATOM     21  H   UNL     1       6.860  14.415  16.671  1.00  0.00     0.293 HD
ENDBRANCH   6  20
BRANCH   8  22
ATOM     22  O   UNL     1       6.667  15.922  11.880  1.00  0.00    -0.508 OA
ATOM     23  H   UNL     1       6.917  16.162  10.927  1.00  0.00     0.293 HD
ENDBRANCH   8  22
TORSDOF 4
ENDMDL
MODEL 4
REMARK VINA RESULT:    -7.441      4.934      5.944
REMARK INTER + INTRA:          -8.531
REMARK INTER:                  -8.243
REMARK INTRA:                  -0.288
REMARK UNBOUND:                -0.003
REMARK SMILES O=c1c(-c2ccc(O)cc2)coc2cc(O)cc(O)c12
REMARK SMILES IDX 3 1 11 2 12 3 13 4 20 5 18 6 17 7 15 8 14 9 2 10 1 11 4 12
REMARK SMILES IDX 7 13 6 14 9 15 5 16 10 17 8 18 19 20 16 22
REMARK H PARENT 8 19 19 21 16 23
REMARK Flexibility Score: inf
ROOT
ATOM      1  C   UNL     1      10.822  12.775  14.637  1.00  0.00     0.065 A 
ATOM      2  C   UNL     1      10.087  13.814  15.220  1.00  0.00     0.208 A 
ATOM      3  O   UNL     1       9.424  13.624  16.351  1.00  0.00    -0.463 OA
ATOM      4  C   UNL     1       9.429  12.471  17.006  1.00  0.00     0.145 A 
ATOM      5  C   UNL     1      10.177  11.363  16.526  1.00  0.00     0.107 A 
ATOM      6  C   UNL     1      10.180  10.161  17.295  1.00  0.00     0.134 A 
ATOM      7  C   UNL     1       9.384  10.072  18.443  1.00  0.00     0.093 A 
ATOM      8  C   UNL     1       8.638  11.162  18.887  1.00  0.00     0.123 A 
ATOM      9  C   UNL     1       8.675  12.363  18.177  1.00  0.00     0.094 A 
ATOM     10  C   UNL     1      10.842  11.523  15.284  1.00  0.00     0.204 A 
ATOM     11  O   UNL     1      11.406  10.552  14.717  1.00  0.00    -0.288 OA
ENDROOT
BRANCH   1  12
ATOM     12  C   UNL     1      11.539  13.006  13.357  1.00  0.00    -0.011 A 
ATOM     13  C   UNL     1      12.889  13.466  10.931  1.00  0.00     0.115 A 
ATOM     14  C   UNL     1      11.535  13.107  10.925  1.00  0.00     0.047 A 
ATOM     15  C   UNL     1      13.565  13.599  12.146  1.00  0.00     0.047 A 
ATOM     16  C   UNL     1      10.862  12.881  12.131  1.00  0.00     0.013 A 
ATOM     17  C   UNL     1      12.897  13.373  13.353  1.00  0.00     0.013 A 
BRANCH  13  18
ATOM     18  O   UNL     1      13.568  13.693   9.736  1.00  0.00    -0.508 OA
ATOM     19  H   UNL     1      14.130  12.971   9.301  1.00  0.00     0.293 HD
ENDBRANCH  13  18
ENDBRANCH   1  12
BRANCH   6  20
ATOM     20  O   UNL     1      10.968   9.045  16.993  1.00  0.00    -0.507 OA
ATOM     21  H   UNL     1      11.911   8.903  17.324  1.00  0.00     0.293 HD
ENDBRANCH   6  20
BRANCH   8  22
ATOM     22  O   UNL     1       7.870  11.044  20.043  1.00  0.00    -0.508 OA
ATOM     23  H   UNL     1       7.973  10.255  20.672  1.00  0.00     0.293 HD
ENDBRANCH   8  22
TORSDOF 4
ENDMDL
MODEL 5
REMARK VINA RESULT:    -7.403      4.963      6.555
REMARK INTER + INTRA:          -8.488
REMARK INTER:                  -8.289
REMARK INTRA:                  -0.199
REMARK UNBOUND:                -0.003
REMARK SMILES O=c1c(-c2ccc(O)cc2)coc2cc(O)cc(O)c12
REMARK SMILES IDX 3 1 11 2 12 3 13 4 20 5 18 6 17 7 15 8 14 9 2 10 1 11 4 12
REMARK SMILES IDX 7 13 6 14 9 15 5 16 10 17 8 18 19 20 16 22
REMARK H PARENT 8 19 19 21 16 23
REMARK Flexibility Score: inf
ROOT
ATOM      1  C   UNL     1      10.925  13.635  14.905  1.00  0.00     0.065 A 
ATOM      2  C   UNL     1      11.628  14.478  15.774  1.00  0.00     0.208 A 
ATOM      3  O   UNL     1      12.625  14.013  16.512  1.00  0.00    -0.463 OA
ATOM      4  C   UNL     1      13.033  12.751  16.462  1.00  0.00     0.145 A 
ATOM      5  C   UNL     1      12.417  11.821  15.583  1.00  0.00     0.107 A 
ATOM      6  C   UNL     1      12.924  10.487  15.540  1.00  0.00     0.134 A 
ATOM      7  C   UNL     1      13.945  10.108  16.420  1.00  0.00     0.093 A 
ATOM      8  C   UNL     1      14.523  11.029  17.293  1.00  0.00     0.123 A 
ATOM      9  C   UNL     1      14.076  12.351  17.300  1.00  0.00     0.094 A 
ATOM     10  C   UNL     1      11.305  12.280  14.832  1.00  0.00     0.204 A 
ATOM     11  O   UNL     1      10.614  11.489  14.140  1.00  0.00    -0.288 OA
ENDROOT
BRANCH   1  12
ATOM     12  C   UNL     1       9.796  14.176  14.105  1.00  0.00    -0.011 A 
ATOM     13  C   UNL     1       7.652  15.179  12.583  1.00  0.00     0.115 A 
ATOM     14  C   UNL     1       8.855  14.828  11.958  1.00  0.00     0.047 A 
ATOM     15  C   UNL     1       7.520  15.025  13.966  1.00  0.00     0.047 A 
ATOM     16  C   UNL     1       9.921  14.327  12.713  1.00  0.00     0.013 A 
ATOM     17  C   UNL     1       8.582  14.525  14.724  1.00  0.00     0.013 A 
BRANCH  13  18
ATOM     18  O   UNL     1       6.586  15.680  11.841  1.00  0.00    -0.508 OA
ATOM     19  H   UNL     1       6.663  16.546  11.321  1.00  0.00     0.293 HD
ENDBRANCH  13  18
ENDBRANCH   1  12
BRANCH   6  20
ATOM     20  O   UNL     1      12.485   9.515  14.636  1.00  0.00    -0.507 OA
ATOM     21  H   UNL     1      12.600   8.520  14.764  1.00  0.00     0.293 HD
ENDBRANCH   6  20
BRANCH   8  22
ATOM     22  O   UNL     1      15.548  10.621  18.142  1.00  0.00    -0.508 OA
ATOM     23  H   UNL     1      15.424  10.590  19.148  1.00  0.00     0.293 HD
ENDBRANCH   8  22
TORSDOF 4
ENDMDL
MODEL 6
REMARK VINA RESULT:    -7.377      5.465      7.335
REMARK INTER + INTRA:          -8.458
REMARK INTER:                  -8.220
REMARK INTRA:                  -0.239
REMARK UNBOUND:                -0.003
REMARK SMILES O=c1c(-c2ccc(O)cc2)coc2cc(O)cc(O)c12
REMARK SMILES IDX 3 1 11 2 12 3 13 4 20 5 18 6 17 7 15 8 14 9 2 10 1 11 4 12
REMARK SMILES IDX 7 13 6 14 9 15 5 16 10 17 8 18 19 20 16 22
REMARK H PARENT 8 19 19 21 16 23
REMARK Flexibility Score: inf
ROOT
ATOM      1  C   UNL     1      11.331  12.559  14.438  1.00  0.00     0.065 A 
ATOM      2  C   UNL     1      10.226  13.118  15.092  1.00  0.00     0.208 A 
ATOM      3  O   UNL     1       9.404  13.939  14.454  1.00  0.00    -0.463 OA
ATOM      4  C   UNL     1       9.554  14.261  13.176  1.00  0.00     0.145 A 
ATOM      5  C   UNL     1      10.617  13.716  12.407  1.00  0.00     0.107 A 
ATOM      6  C   UNL     1      10.704  14.065  11.026  1.00  0.00     0.134 A 
ATOM      7  C   UNL     1       9.805  14.994  10.489  1.00  0.00     0.093 A 
ATOM      8  C   UNL     1       8.782  15.537  11.265  1.00  0.00     0.123 A 
ATOM      9  C   UNL     1       8.649  15.157  12.602  1.00  0.00     0.094 A 
ATOM     10  C   UNL     1      11.546  12.888  13.085  1.00  0.00     0.204 A 
ATOM     11  O   UNL     1      12.593  12.482  12.517  1.00  0.00    -0.288 OA
ENDROOT
BRANCH   1  12
ATOM     12  C   UNL     1      12.250  11.660  15.181  1.00  0.00    -0.011 A 
ATOM     13  C   UNL     1      13.977   9.957  16.608  1.00  0.00     0.115 A 
ATOM     14  C   UNL     1      14.013  11.340  16.828  1.00  0.00     0.047 A 
ATOM     15  C   UNL     1      13.077   9.426  15.680  1.00  0.00     0.047 A 
ATOM     16  C   UNL     1      13.153  12.187  16.122  1.00  0.00     0.013 A 
ATOM     17  C   UNL     1      12.217  10.270  14.971  1.00  0.00     0.013 A 
BRANCH  13  18
ATOM     18  O   UNL     1      14.830   9.104  17.306  1.00  0.00    -0.508 OA
ATOM     19  H   UNL     1      14.507   8.569  18.104  1.00  0.00     0.293 HD
ENDBRANCH  13  18
ENDBRANCH   1  12
BRANCH   6  20
ATOM     20  O   UNL     1      11.628  13.505  10.137  1.00  0.00    -0.507 OA
ATOM     21  H   UNL     1      11.604  13.624   9.135  1.00  0.00     0.293 HD
ENDBRANCH   6  20
BRANCH   8  22
ATOM     22  O   UNL     1       7.894  16.446  10.694  1.00  0.00    -0.508 OA
ATOM     23  H   UNL     1       7.934  17.435  10.913  1.00  0.00     0.293 HD
ENDBRANCH   8  22
TORSDOF 4
ENDMDL
MODEL 7
REMARK VINA RESULT:    -7.369      5.029      6.215
REMARK INTER + INTRA:          -8.449
REMARK INTER:                  -8.202
REMARK INTRA:                  -0.247
REMARK UNBOUND:                -0.003
REMARK SMILES O=c1c(-c2ccc(O)cc2)coc2cc(O)cc(O)c12
REMARK SMILES IDX 3 1 11 2 12 3 13 4 20 5 18 6 17 7 15 8 14 9 2 10 1 11 4 12
REMARK SMILES IDX 7 13 6 14 9 15 5 16 10 17 8 18 19 20 16 22
REMARK H PARENT 8 19 19 21 16 23
REMARK Flexibility Score: inf
ROOT
ATOM      1  C   UNL     1       9.947  12.957  16.521  1.00  0.00     0.065 A 
ATOM      2  C   UNL     1      11.145  13.386  15.938  1.00  0.00     0.208 A 
ATOM      3  O   UNL     1      12.167  12.554  15.797  1.00  0.00    -0.463 OA
ATOM      4  C   UNL     1      12.118  11.281  16.168  1.00  0.00     0.145 A 
ATOM      5  C   UNL     1      10.936  10.732  16.731  1.00  0.00     0.107 A 
ATOM      6  C   UNL     1      10.927   9.346  17.073  1.00  0.00     0.134 A 
ATOM      7  C   UNL     1      12.097   8.591  16.930  1.00  0.00     0.093 A 
ATOM      8  C   UNL     1      13.256   9.152  16.396  1.00  0.00     0.123 A 
ATOM      9  C   UNL     1      13.259  10.492  16.002  1.00  0.00     0.094 A 
ATOM     10  C   UNL     1       9.853  11.619  16.952  1.00  0.00     0.204 A 
ATOM     11  O   UNL     1       8.825  11.250  17.577  1.00  0.00    -0.288 OA
ENDROOT
BRANCH   1  12
ATOM     12  C   UNL     1       8.825  13.915  16.689  1.00  0.00    -0.011 A 
ATOM     13  C   UNL     1       6.712  15.748  17.003  1.00  0.00     0.115 A 
ATOM     14  C   UNL     1       7.575  15.479  18.073  1.00  0.00     0.047 A 
ATOM     15  C   UNL     1       6.908  15.105  15.777  1.00  0.00     0.047 A 
ATOM     16  C   UNL     1       8.627  14.570  17.917  1.00  0.00     0.013 A 
ATOM     17  C   UNL     1       7.957  14.196  15.618  1.00  0.00     0.013 A 
BRANCH  13  18
ATOM     18  O   UNL     1       5.661  16.650  17.148  1.00  0.00    -0.508 OA
ATOM     19  H   UNL     1       5.175  16.760  18.030  1.00  0.00     0.293 HD
ENDBRANCH  13  18
ENDBRANCH   1  12
BRANCH   6  20
ATOM     20  O   UNL     1       9.793   8.661  17.522  1.00  0.00    -0.507 OA
ATOM     21  H   UNL     1       9.765   7.674  17.732  1.00  0.00     0.293 HD
ENDBRANCH   6  20
BRANCH   8  22
ATOM     22  O   UNL     1      14.398   8.368  16.252  1.00  0.00    -0.508 OA
ATOM     23  H   UNL     1      15.328   8.763  16.334  1.00  0.00     0.293 HD
ENDBRANCH   8  22
TORSDOF 4
ENDMDL
MODEL 8
REMARK VINA RESULT:    -7.309      4.605      5.461
REMARK INTER + INTRA:          -8.380
REMARK INTER:                  -8.183
REMARK INTRA:                  -0.197
REMARK UNBOUND:                -0.003
REMARK SMILES O=c1c(-c2ccc(O)cc2)coc2cc(O)cc(O)c12
REMARK SMILES IDX 3 1 11 2 12 3 13 4 20 5 18 6 17 7 15 8 14 9 2 10 1 11 4 12
REMARK SMILES IDX 7 13 6 14 9 15 5 16 10 17 8 18 19 20 16 22
REMARK H PARENT 8 19 19 21 16 23
REMARK Flexibility Score: inf
ROOT
ATOM      1  C   UNL     1      10.873  11.635  15.773  1.00  0.00     0.065 A 
ATOM      2  C   UNL     1      11.103  10.263  15.930  1.00  0.00     0.208 A 
ATOM      3  O   UNL     1      10.575   9.599  16.947  1.00  0.00    -0.463 OA
ATOM      4  C   UNL     1       9.791  10.169  17.853  1.00  0.00     0.145 A 
ATOM      5  C   UNL     1       9.458  11.546  17.765  1.00  0.00     0.107 A 
ATOM      6  C   UNL     1       8.577  12.096  18.744  1.00  0.00     0.134 A 
ATOM      7  C   UNL     1       8.137  11.297  19.806  1.00  0.00     0.093 A 
ATOM      8  C   UNL     1       8.493   9.952  19.889  1.00  0.00     0.123 A 
ATOM      9  C   UNL     1       9.306   9.387  18.905  1.00  0.00     0.094 A 
ATOM     10  C   UNL     1      10.064  12.291  16.722  1.00  0.00     0.204 A 
ATOM     11  O   UNL     1       9.939  13.542  16.657  1.00  0.00    -0.288 OA
ENDROOT
BRANCH   1  12
ATOM     12  C   UNL     1      11.494  12.362  14.637  1.00  0.00    -0.011 A 
ATOM     13  C   UNL     1      12.654  13.756  12.485  1.00  0.00     0.115 A 
ATOM     14  C   UNL     1      11.534  12.941  12.273  1.00  0.00     0.047 A 
ATOM     15  C   UNL     1      13.190  13.876  13.770  1.00  0.00     0.047 A 
ATOM     16  C   UNL     1      10.955  12.251  13.343  1.00  0.00     0.013 A 
ATOM     17  C   UNL     1      12.614  13.187  14.841  1.00  0.00     0.013 A 
BRANCH  13  18
ATOM     18  O   UNL     1      13.239  14.447  11.427  1.00  0.00    -0.508 OA
ATOM     19  H   UNL     1      13.160  15.455  11.344  1.00  0.00     0.293 HD
ENDBRANCH  13  18
ENDBRANCH   1  12
BRANCH   6  20
ATOM     20  O   UNL     1       8.080  13.403  18.699  1.00  0.00    -0.507 OA
ATOM     21  H   UNL     1       7.246  13.682  18.204  1.00  0.00     0.293 HD
ENDBRANCH   6  20
BRANCH   8  22
ATOM     22  O   UNL     1       8.025   9.181  20.951  1.00  0.00    -0.508 OA
ATOM     23  H   UNL     1       8.392   9.290  21.889  1.00  0.00     0.293 HD
ENDBRANCH   8  22
TORSDOF 4
ENDMDL
MODEL 9
REMARK VINA RESULT:    -7.278      3.904      5.702
REMARK INTER + INTRA:          -8.344
REMARK INTER:                  -8.056
REMARK INTRA:                  -0.288
REMARK UNBOUND:                -0.003
REMARK SMILES O=c1c(-c2ccc(O)cc2)coc2cc(O)cc(O)c12
REMARK SMILES IDX 3 1 11 2 12 3 13 4 20 5 18 6 17 7 15 8 14 9 2 10 1 11 4 12
REMARK SMILES IDX 7 13 6 14 9 15 5 16 10 17 8 18 19 20 16 22
REMARK H PARENT 8 19 19 21 16 23
REMARK Flexibility Score: inf
ROOT
ATOM      1  C   UNL     1      12.648  12.502  14.663  1.00  0.00     0.065 A 
ATOM      2  C   UNL     1      13.113  13.532  15.489  1.00  0.00     0.208 A 
ATOM      3  O   UNL     1      13.606  13.268  16.690  1.00  0.00    -0.463 OA
ATOM      4  C   UNL     1      13.711  12.037  17.173  1.00  0.00     0.145 A 
ATOM      5  C   UNL     1      13.308  10.915  16.401  1.00  0.00     0.107 A 
ATOM      6  C   UNL     1      13.484   9.611  16.955  1.00  0.00     0.134 A 
ATOM      7  C   UNL     1      13.960   9.474  18.265  1.00  0.00     0.093 A 
ATOM      8  C   UNL     1      14.329  10.589  19.016  1.00  0.00     0.123 A 
ATOM      9  C   UNL     1      14.219  11.866  18.463  1.00  0.00     0.094 A 
ATOM     10  C   UNL     1      12.718  11.178  15.140  1.00  0.00     0.204 A 
ATOM     11  O   UNL     1      12.203  10.255  14.456  1.00  0.00    -0.288 OA
ENDROOT
BRANCH   1  12
ATOM     12  C   UNL     1      12.080  12.825  13.329  1.00  0.00    -0.011 A 
ATOM     13  C   UNL     1      11.005  13.461  10.807  1.00  0.00     0.115 A 
ATOM     14  C   UNL     1      10.193  13.502  11.948  1.00  0.00     0.047 A 
ATOM     15  C   UNL     1      12.352  13.107  10.928  1.00  0.00     0.047 A 
ATOM     16  C   UNL     1      10.727  13.189  13.202  1.00  0.00     0.013 A 
ATOM     17  C   UNL     1      12.888  12.793  12.179  1.00  0.00     0.013 A 
BRANCH  13  18
ATOM     18  O   UNL     1      10.484  13.770   9.554  1.00  0.00    -0.508 OA
ATOM     19  H   UNL     1      10.627  14.680   9.129  1.00  0.00     0.293 HD
ENDBRANCH  13  18
ENDBRANCH   1  12
BRANCH   6  20
ATOM     20  O   UNL     1      13.239   8.427  16.253  1.00  0.00    -0.507 OA
ATOM     21  H   UNL     1      13.484   7.505  16.581  1.00  0.00     0.293 HD
ENDBRANCH   6  20
BRANCH   8  22
ATOM     22  O   UNL     1      14.815  10.415  20.310  1.00  0.00    -0.508 OA
ATOM     23  H   UNL     1      14.624  11.089  21.044  1.00  0.00     0.293 HD
ENDBRANCH   8  22
TORSDOF 4
ENDMDL
MODEL 10
REMARK VINA RESULT:    -7.257      3.093      4.531
REMARK INTER + INTRA:          -8.320
REMARK INTER:                  -8.079
REMARK INTRA:                  -0.241
REMARK UNBOUND:                -0.003
REMARK SMILES O=c1c(-c2ccc(O)cc2)coc2cc(O)cc(O)c12
REMARK SMILES IDX 3 1 11 2 12 3 13 4 20 5 18 6 17 7 15 8 14 9 2 10 1 11 4 12
REMARK SMILES IDX 7 13 6 14 9 15 5 16 10 17 8 18 19 20 16 22
REMARK H PARENT 8 19 19 21 16 23
REMARK Flexibility Score: inf
ROOT
ATOM      1  C   UNL     1      12.452  11.235  16.308  1.00  0.00     0.065 A 
ATOM      2  C   UNL     1      13.624  11.681  16.929  1.00  0.00     0.208 A 
ATOM      3  O   UNL     1      14.213  10.955  17.868  1.00  0.00    -0.463 OA
ATOM      4  C   UNL     1      13.757   9.772  18.258  1.00  0.00     0.145 A 
ATOM      5  C   UNL     1      12.599   9.205  17.663  1.00  0.00     0.107 A 
ATOM      6  C   UNL     1      12.178   7.911  18.093  1.00  0.00     0.134 A 
ATOM      7  C   UNL     1      12.856   7.276  19.140  1.00  0.00     0.093 A 
ATOM      8  C   UNL     1      13.978   7.857  19.729  1.00  0.00     0.123 A 
ATOM      9  C   UNL     1      14.435   9.096  19.276  1.00  0.00     0.094 A 
ATOM     10  C   UNL     1      11.915   9.993  16.703  1.00  0.00     0.204 A 
ATOM     11  O   UNL     1      10.805   9.631  16.234  1.00  0.00    -0.288 OA
ENDROOT
BRANCH   1  12
ATOM     12  C   UNL     1      11.798  12.077  15.274  1.00  0.00    -0.011 A 
ATOM     13  C   UNL     1      10.548  13.655  13.308  1.00  0.00     0.115 A 
ATOM     14  C   UNL     1      11.633  12.836  12.967  1.00  0.00     0.047 A 
ATOM     15  C   UNL     1      10.087  13.682  14.627  1.00  0.00     0.047 A 
ATOM     16  C   UNL     1      12.253  12.049  13.943  1.00  0.00     0.013 A 
ATOM     17  C   UNL     1      10.705  12.897  15.605  1.00  0.00     0.013 A 
BRANCH  13  18
ATOM     18  O   UNL     1       9.924  14.443  12.344  1.00  0.00    -0.508 OA
ATOM     19  H   UNL     1      10.211  15.400  12.174  1.00  0.00     0.293 HD
ENDBRANCH  13  18
ENDBRANCH   1  12
BRANCH   6  20
ATOM     20  O   UNL     1      11.129   7.197  17.505  1.00  0.00    -0.507 OA
ATOM     21  H   UNL     1      10.176   7.201  17.837  1.00  0.00     0.293 HD
ENDBRANCH   6  20
BRANCH   8  22
ATOM     22  O   UNL     1      14.639   7.190  20.758  1.00  0.00    -0.508 OA
ATOM     23  H   UNL     1      15.361   7.643  21.307  1.00  0.00     0.293 HD
ENDBRANCH   8  22
TORSDOF 4
ENDMDL
MODEL 11
REMARK VINA RESULT:    -7.256      2.930      6.816
REMARK INTER + INTRA:          -8.320
REMARK INTER:                  -8.042
REMARK INTRA:                  -0.278
REMARK UNBOUND:                -0.003
REMARK SMILES O=c1c(-c2ccc(O)cc2)coc2cc(O)cc(O)c12
REMARK SMILES IDX 3 1 11 2 12 3 13 4 20 5 18 6 17 7 15 8 14 9 2 10 1 11 4 12
REMARK SMILES IDX 7 13 6 14 9 15 5 16 10 17 8 18 19 20 16 22
REMARK H PARENT 8 19 19 21 16 23
REMARK Flexibility Score: inf
ROOT
ATOM      1  C   UNL     1      15.208  11.884  18.415  1.00  0.00     0.065 A 
ATOM      2  C   UNL     1      16.395  12.533  18.054  1.00  0.00     0.208 A 
ATOM      3  O   UNL     1      17.101  13.206  18.951  1.00  0.00    -0.463 OA
ATOM      4  C   UNL     1      16.753  13.290  20.228  1.00  0.00     0.145 A 
ATOM      5  C   UNL     1      15.590  12.633  20.711  1.00  0.00     0.107 A 
ATOM      6  C   UNL     1      15.288  12.723  22.103  1.00  0.00     0.134 A 
ATOM      7  C   UNL     1      16.084  13.520  22.934  1.00  0.00     0.093 A 
ATOM      8  C   UNL     1      17.210  14.177  22.438  1.00  0.00     0.123 A 
ATOM      9  C   UNL     1      17.550  14.047  21.090  1.00  0.00     0.094 A 
ATOM     10  C   UNL     1      14.785  11.962  19.757  1.00  0.00     0.204 A 
ATOM     11  O   UNL     1      13.667  11.478  20.072  1.00  0.00    -0.288 OA
ENDROOT
BRANCH   1  12
ATOM     12  C   UNL     1      14.424  11.155  17.387  1.00  0.00    -0.011 A 
ATOM     13  C   UNL     1      12.922   9.766  15.454  1.00  0.00     0.115 A 
ATOM     14  C   UNL     1      13.815   9.074  16.282  1.00  0.00     0.047 A 
ATOM     15  C   UNL     1      12.777  11.149  15.595  1.00  0.00     0.047 A 
ATOM     16  C   UNL     1      14.560   9.762  17.245  1.00  0.00     0.013 A 
ATOM     17  C   UNL     1      13.521  11.841  16.555  1.00  0.00     0.013 A 
BRANCH  13  18
ATOM     18  O   UNL     1      12.176   9.090  14.492  1.00  0.00    -0.508 OA
ATOM     19  H   UNL     1      11.300   9.462  14.142  1.00  0.00     0.293 HD
ENDBRANCH  13  18
ENDBRANCH   1  12
BRANCH   6  20
ATOM     20  O   UNL     1      14.243  12.027  22.720  1.00  0.00    -0.507 OA
ATOM     21  H   UNL     1      14.107  11.964  23.718  1.00  0.00     0.293 HD
ENDBRANCH   6  20
BRANCH   8  22
ATOM     22  O   UNL     1      17.990  14.948  23.296  1.00  0.00    -0.508 OA
ATOM     23  H   UNL     1      18.455  15.791  22.978  1.00  0.00     0.293 HD
ENDBRANCH   8  22
TORSDOF 4
ENDMDL
MODEL 12
REMARK VINA RESULT:    -7.247      5.271      6.228
REMARK INTER + INTRA:          -8.309
REMARK INTER:                  -8.031
REMARK INTRA:                  -0.277
REMARK UNBOUND:                -0.003
REMARK SMILES O=c1c(-c2ccc(O)cc2)coc2cc(O)cc(O)c12
REMARK SMILES IDX 3 1 11 2 12 3 13 4 20 5 18 6 17 7 15 8 14 9 2 10 1 11 4 12
REMARK SMILES IDX 7 13 6 14 9 15 5 16 10 17 8 18 19 20 16 22
REMARK H PARENT 8 19 19 21 16 23
REMARK Flexibility Score: inf
ROOT
ATOM      1  C   UNL     1      10.944  12.392  14.789  1.00  0.00     0.065 A 
ATOM      2  C   UNL     1      11.159  11.104  15.293  1.00  0.00     0.208 A 
ATOM      3  O   UNL     1      10.651  10.738  16.461  1.00  0.00    -0.463 OA
ATOM      4  C   UNL     1       9.901  11.541  17.205  1.00  0.00     0.145 A 
ATOM      5  C   UNL     1       9.586  12.855  16.767  1.00  0.00     0.107 A 
ATOM      6  C   UNL     1       8.740  13.660  17.589  1.00  0.00     0.134 A 
ATOM      7  C   UNL     1       8.320  13.174  18.833  1.00  0.00     0.093 A 
ATOM      8  C   UNL     1       8.658  11.890  19.257  1.00  0.00     0.123 A 
ATOM      9  C   UNL     1       9.435  11.071  18.435  1.00  0.00     0.094 A 
ATOM     10  C   UNL     1      10.172  13.290  15.552  1.00  0.00     0.204 A 
ATOM     11  O   UNL     1      10.063  14.482  15.166  1.00  0.00    -0.288 OA
ENDROOT
BRANCH   1  12
ATOM     12  C   UNL     1      11.543  12.784  13.488  1.00  0.00    -0.011 A 
ATOM     13  C   UNL     1      12.688  13.506  11.020  1.00  0.00     0.115 A 
ATOM     14  C   UNL     1      13.460  13.535  12.189  1.00  0.00     0.047 A 
ATOM     15  C   UNL     1      11.348  13.114  11.084  1.00  0.00     0.047 A 
ATOM     16  C   UNL     1      12.893  13.173  13.415  1.00  0.00     0.013 A 
ATOM     17  C   UNL     1      10.778  12.753  12.308  1.00  0.00     0.013 A 
BRANCH  13  18
ATOM     18  O   UNL     1      13.243  13.865   9.794  1.00  0.00    -0.508 OA
ATOM     19  H   UNL     1      12.913  14.674   9.280  1.00  0.00     0.293 HD
ENDBRANCH  13  18
ENDBRANCH   1  12
BRANCH   6  20
ATOM     20  O   UNL     1       8.261  14.919  17.216  1.00  0.00    -0.507 OA
ATOM     21  H   UNL     1       7.572  15.081  16.497  1.00  0.00     0.293 HD
ENDBRANCH   6  20
BRANCH   8  22
ATOM     22  O   UNL     1       8.210  11.433  20.493  1.00  0.00    -0.508 OA
ATOM     23  H   UNL     1       8.782  10.835  21.078  1.00  0.00     0.293 HD
ENDBRANCH   8  22
TORSDOF 4
ENDMDL
MODEL 13
REMARK VINA RESULT:    -7.219      3.451      5.008
REMARK INTER + INTRA:          -8.277
REMARK INTER:                  -8.000
REMARK INTRA:                  -0.277
REMARK UNBOUND:                -0.003
REMARK SMILES O=c1c(-c2ccc(O)cc2)coc2cc(O)cc(O)c12
REMARK SMILES IDX 3 1 11 2 12 3 13 4 20 5 18 6 17 7 15 8 14 9 2 10 1 11 4 12
REMARK SMILES IDX 7 13 6 14 9 15 5 16 10 17 8 18 19 20 16 22
REMARK H PARENT 8 19 19 21 16 23
REMARK Flexibility Score: inf
ROOT
ATOM      1  C   UNL     1      12.192  11.210  15.126  1.00  0.00     0.065 A 
ATOM      2  C   UNL     1      11.837   9.873  14.907  1.00  0.00     0.208 A 
ATOM      3  O   UNL     1      12.188   8.928  15.766  1.00  0.00    -0.463 OA
ATOM      4  C   UNL     1      12.863   9.179  16.880  1.00  0.00     0.145 A 
ATOM      5  C   UNL     1      13.237  10.506  17.221  1.00  0.00     0.107 A 
ATOM      6  C   UNL     1      13.926  10.723  18.453  1.00  0.00     0.134 A 
ATOM      7  C   UNL     1      14.291   9.626  19.242  1.00  0.00     0.093 A 
ATOM      8  C   UNL     1      13.937   8.328  18.880  1.00  0.00     0.123 A 
ATOM      9  C   UNL     1      13.210   8.109  17.708  1.00  0.00     0.094 A 
ATOM     10  C   UNL     1      12.929  11.525  16.284  1.00  0.00     0.204 A 
ATOM     11  O   UNL     1      13.349  12.701  16.439  1.00  0.00    -0.288 OA
ENDROOT
BRANCH   1  12
ATOM     12  C   UNL     1      11.806  12.247  14.136  1.00  0.00    -0.011 A 
ATOM     13  C   UNL     1      11.080  14.231  12.276  1.00  0.00     0.115 A 
ATOM     14  C   UNL     1      10.214  13.901  13.326  1.00  0.00     0.047 A 
ATOM     15  C   UNL     1      12.308  13.574  12.159  1.00  0.00     0.047 A 
ATOM     16  C   UNL     1      10.575  12.917  14.253  1.00  0.00     0.013 A 
ATOM     17  C   UNL     1      12.672  12.589  13.082  1.00  0.00     0.013 A 
BRANCH  13  18
ATOM     18  O   UNL     1      10.730  15.208  11.348  1.00  0.00    -0.508 OA
ATOM     19  H   UNL     1      11.425  15.821  10.937  1.00  0.00     0.293 HD
ENDBRANCH  13  18
ENDBRANCH   1  12
BRANCH   6  20
ATOM     20  O   UNL     1      14.241  11.988  18.957  1.00  0.00    -0.507 OA
ATOM     21  H   UNL     1      15.177  12.310  19.153  1.00  0.00     0.293 HD
ENDBRANCH   6  20
BRANCH   8  22
ATOM     22  O   UNL     1      14.302   7.261  19.697  1.00  0.00    -0.508 OA
ATOM     23  H   UNL     1      13.635   6.549  19.971  1.00  0.00     0.293 HD
ENDBRANCH   8  22
TORSDOF 4
ENDMDL
MODEL 14
REMARK VINA RESULT:    -7.144      4.875      5.991
REMARK INTER + INTRA:          -8.191
REMARK INTER:                  -7.905
REMARK INTRA:                  -0.286
REMARK UNBOUND:                -0.003
REMARK SMILES O=c1c(-c2ccc(O)cc2)coc2cc(O)cc(O)c12
REMARK SMILES IDX 3 1 11 2 12 3 13 4 20 5 18 6 17 7 15 8 14 9 2 10 1 11 4 12
REMARK SMILES IDX 7 13 6 14 9 15 5 16 10 17 8 18 19 20 16 22
REMARK H PARENT 8 19 19 21 16 23
REMARK Flexibility Score: inf
ROOT
ATOM      1  C   UNL     1       9.547  12.301  17.221  1.00  0.00     0.065 A 
ATOM      2  C   UNL     1       8.982  11.031  17.385  1.00  0.00     0.208 A 
ATOM      3  O   UNL     1       9.733   9.941  17.330  1.00  0.00    -0.463 OA
ATOM      4  C   UNL     1      11.046   9.979  17.144  1.00  0.00     0.145 A 
ATOM      5  C   UNL     1      11.728  11.217  17.009  1.00  0.00     0.107 A 
ATOM      6  C   UNL     1      13.147  11.199  16.854  1.00  0.00     0.134 A 
ATOM      7  C   UNL     1      13.815   9.973  16.750  1.00  0.00     0.093 A 
ATOM      8  C   UNL     1      13.126   8.766  16.861  1.00  0.00     0.123 A 
ATOM      9  C   UNL     1      11.746   8.772  17.074  1.00  0.00     0.094 A 
ATOM     10  C   UNL     1      10.935  12.393  16.999  1.00  0.00     0.204 A 
ATOM     11  O   UNL     1      11.439  13.517  16.742  1.00  0.00    -0.288 OA
ENDROOT
BRANCH   1  12
ATOM     12  C   UNL     1       8.680  13.506  17.265  1.00  0.00    -0.011 A 
ATOM     13  C   UNL     1       7.017  15.775  17.347  1.00  0.00     0.115 A 
ATOM     14  C   UNL     1       7.246  15.115  16.133  1.00  0.00     0.047 A 
ATOM     15  C   UNL     1       7.615  15.300  18.518  1.00  0.00     0.047 A 
ATOM     16  C   UNL     1       8.070  13.985  16.091  1.00  0.00     0.013 A 
ATOM     17  C   UNL     1       8.439  14.172  18.480  1.00  0.00     0.013 A 
BRANCH  13  18
ATOM     18  O   UNL     1       6.199  16.901  17.399  1.00  0.00    -0.508 OA
ATOM     19  H   UNL     1       5.761  17.198  18.264  1.00  0.00     0.293 HD
ENDBRANCH  13  18
ENDBRANCH   1  12
BRANCH   6  20
ATOM     20  O   UNL     1      13.943  12.348  16.831  1.00  0.00    -0.507 OA
ATOM     21  H   UNL     1      13.590  13.291  16.890  1.00  0.00     0.293 HD
ENDBRANCH   6  20
BRANCH   8  22
ATOM     22  O   UNL     1      13.824   7.564  16.769  1.00  0.00    -0.508 OA
ATOM     23  H   UNL     1      14.403   7.227  17.530  1.00  0.00     0.293 HD
ENDBRANCH   8  22
TORSDOF 4
ENDMDL
MODEL 15
REMARK VINA RESULT:    -7.068      3.731      5.071
REMARK INTER + INTRA:          -8.104
REMARK INTER:                  -7.846
REMARK INTRA:                  -0.258
REMARK UNBOUND:                -0.003
REMARK SMILES O=c1c(-c2ccc(O)cc2)coc2cc(O)cc(O)c12
REMARK SMILES IDX 3 1 11 2 12 3 13 4 20 5 18 6 17 7 15 8 14 9 2 10 1 11 4 12
REMARK SMILES IDX 7 13 6 14 9 15 5 16 10 17 8 18 19 20 16 22
REMARK H PARENT 8 19 19 21 16 23
REMARK Flexibility Score: inf
ROOT
ATOM      1  C   UNL     1      11.261  11.666  17.288  1.00  0.00     0.065 A 
ATOM      2  C   UNL     1      12.386  12.187  17.938  1.00  0.00     0.208 A 
ATOM      3  O   UNL     1      13.213  11.394  18.604  1.00  0.00    -0.463 OA
ATOM      4  C   UNL     1      13.049  10.080  18.679  1.00  0.00     0.145 A 
ATOM      5  C   UNL     1      11.964   9.442  18.021  1.00  0.00     0.107 A 
ATOM      6  C   UNL     1      11.862   8.021  18.102  1.00  0.00     0.134 A 
ATOM      7  C   UNL     1      12.770   7.306  18.892  1.00  0.00     0.093 A 
ATOM      8  C   UNL     1      13.815   7.951  19.550  1.00  0.00     0.123 A 
ATOM      9  C   UNL     1      13.962   9.334  19.430  1.00  0.00     0.094 A 
ATOM     10  C   UNL     1      11.031  10.278  17.358  1.00  0.00     0.204 A 
ATOM     11  O   UNL     1       9.967   9.810  16.873  1.00  0.00    -0.288 OA
ENDROOT
BRANCH   1  12
ATOM     12  C   UNL     1      10.337  12.578  16.567  1.00  0.00    -0.011 A 
ATOM     13  C   UNL     1       8.596  14.325  15.212  1.00  0.00     0.115 A 
ATOM     14  C   UNL     1       8.313  13.930  16.526  1.00  0.00     0.047 A 
ATOM     15  C   UNL     1       9.748  13.851  14.579  1.00  0.00     0.047 A 
ATOM     16  C   UNL     1       9.180  13.064  17.202  1.00  0.00     0.013 A 
ATOM     17  C   UNL     1      10.616  12.985  15.250  1.00  0.00     0.013 A 
BRANCH  13  18
ATOM     18  O   UNL     1       7.740  15.186  14.531  1.00  0.00    -0.508 OA
ATOM     19  H   UNL     1       8.078  15.798  13.796  1.00  0.00     0.293 HD
ENDBRANCH  13  18
ENDBRANCH   1  12
BRANCH   6  20
ATOM     20  O   UNL     1      10.913   7.267  17.403  1.00  0.00    -0.507 OA
ATOM     21  H   UNL     1      11.002   6.283  17.196  1.00  0.00     0.293 HD
ENDBRANCH   6  20
BRANCH   8  22
ATOM     22  O   UNL     1      14.710   7.207  20.315  1.00  0.00    -0.508 OA
ATOM     23  H   UNL     1      14.394   6.471  20.936  1.00  0.00     0.293 HD
ENDBRANCH   8  22
TORSDOF 4
ENDMDL
