MODEL 1
REMARK VINA RESULT:    -9.594      0.000      0.000
REMARK INTER + INTRA:         -14.490
REMARK INTER:                 -13.801
REMARK INTRA:                  -0.689
REMARK UNBOUND:                -0.689
REMARK SMILES Cc1nc(Nc2ncc(C(=O)Nc3c(C)cccc3Cl)s2)cc(N2CCN(CCO)CC2)n1
REMARK SMILES IDX 1 1 2 2 3 3 4 4 22 5 23 6 33 7 5 8 6 10 7 11 21 12 8 13 9 14
REMARK SMILES IDX 10 15 11 16 12 17 13 19 14 20 19 21 15 22 16 23 18 24 20 25
REMARK SMILES IDX 17 26 24 27 25 28 32 29 26 30 31 31 27 32 28 33 29 34 30 35
REMARK H PARENT 5 9 12 18 30 36
REMARK Flexibility Score: inf
ROOT
ATOM      1  C   UNL     1      32.950   3.963   8.643  1.00  0.00     0.090 C 
ATOM      2  C   UNL     1      33.551   5.095   7.881  1.00  0.00     0.130 A 
ATOM      3  N   UNL     1      33.398   6.371   8.322  1.00  0.00    -0.216 NA
ATOM      4  C   UNL     1      33.953   7.421   7.658  1.00  0.00     0.137 A 
ATOM      5  C   UNL     1      34.705   7.181   6.501  1.00  0.00     0.094 A 
ATOM      6  C   UNL     1      34.846   5.862   6.046  1.00  0.00     0.134 A 
ATOM      7  N   UNL     1      34.281   4.849   6.761  1.00  0.00    -0.216 NA
ENDROOT
BRANCH   4   8
ATOM      8  N   UNL     1      33.802   8.761   8.153  1.00  0.00    -0.316 N 
ATOM      9  H   UNL     1      34.527   9.471   7.910  1.00  0.00     0.170 HD
BRANCH   8  10
ATOM     10  C   UNL     1      32.662   9.206   8.900  1.00  0.00     0.189 A 
ATOM     11  N   UNL     1      32.733  10.029   9.969  1.00  0.00    -0.228 NA
ATOM     12  S   UNL     1      31.089   8.679   8.617  1.00  0.00    -0.091 S 
ATOM     13  C   UNL     1      31.512  10.231  10.532  1.00  0.00     0.139 A 
ATOM     14  C   UNL     1      30.462   9.559   9.911  1.00  0.00     0.114 A 
BRANCH  14  15
ATOM     15  C   UNL     1      29.053   9.585  10.341  1.00  0.00     0.267 C 
ATOM     16  O   UNL     1      28.776   9.459  11.567  1.00  0.00    -0.268 OA
ATOM     17  N   UNL     1      27.999   9.763   9.384  1.00  0.00    -0.320 N 
ATOM     18  H   UNL     1      28.228  10.116   8.428  1.00  0.00     0.170 HD
BRANCH  17  19
ATOM     19  C   UNL     1      26.616   9.675   9.765  1.00  0.00     0.063 A 
ATOM     20  C   UNL     1      25.950   8.428   9.734  1.00  0.00    -0.026 A 
ATOM     21  C   UNL     1      25.921  10.828  10.189  1.00  0.00     0.064 A 
ATOM     22  C   UNL     1      26.677   7.179   9.308  1.00  0.00     0.046 C 
ATOM     23  C   UNL     1      24.596   8.359  10.107  1.00  0.00     0.005 A 
ATOM     24  C   UNL     1      24.574  10.740  10.559  1.00  0.00     0.023 A 
ATOM     25  Cl  UNL     1      26.728  12.390  10.313  1.00  0.00    -0.082 Cl
ATOM     26  C   UNL     1      23.912   9.510  10.511  1.00  0.00     0.002 A 
ENDBRANCH  17  19
ENDBRANCH  14  15
ENDBRANCH   8  10
ENDBRANCH   4   8
BRANCH   6  27
ATOM     27  N   UNL     1      35.619   5.561   4.870  1.00  0.00    -0.354 N 
ATOM     28  C   UNL     1      35.210   6.118   3.577  1.00  0.00     0.133 C 
ATOM     29  C   UNL     1      36.899   4.847   4.953  1.00  0.00     0.133 C 
ATOM     30  C   UNL     1      36.044   5.512   2.434  1.00  0.00     0.106 C 
ATOM     31  C   UNL     1      36.961   3.734   3.890  1.00  0.00     0.106 C 
ATOM     32  N   UNL     1      36.240   4.058   2.625  1.00  0.00    -0.298 NA
BRANCH  32  33
ATOM     33  C   UNL     1      34.972   3.298   2.472  1.00  0.00     0.112 C 
BRANCH  33  34
ATOM     34  C   UNL     1      34.547   3.240   1.000  1.00  0.00     0.171 C 
BRANCH  34  35
ATOM     35  O   UNL     1      33.217   3.657   0.846  1.00  0.00    -0.395 OA
ATOM     36  H   UNL     1      33.002   4.235   1.631  1.00  0.00     0.210 HD
ENDBRANCH  34  35
ENDBRANCH  33  34
ENDBRANCH  32  33
ENDBRANCH   6  27
TORSDOF 8
ENDMDL
MODEL 2
REMARK VINA RESULT:    -9.566      1.147      1.934
REMARK INTER + INTRA:         -14.449
REMARK INTER:                 -13.841
REMARK INTRA:                  -0.609
REMARK UNBOUND:                -0.689
REMARK SMILES Cc1nc(Nc2ncc(C(=O)Nc3c(C)cccc3Cl)s2)cc(N2CCN(CCO)CC2)n1
REMARK SMILES IDX 1 1 2 2 3 3 4 4 22 5 23 6 33 7 5 8 6 10 7 11 21 12 8 13 9 14
REMARK SMILES IDX 10 15 11 16 12 17 13 19 14 20 19 21 15 22 16 23 18 24 20 25
REMARK SMILES IDX 17 26 24 27 25 28 32 29 26 30 31 31 27 32 28 33 29 34 30 35
REMARK H PARENT 5 9 12 18 30 36
REMARK Flexibility Score: inf
ROOT
ATOM      1  C   UNL     1      35.663  10.170   5.652  1.00  0.00     0.090 C 
ATOM      2  C   UNL     1      35.318   8.795   6.115  1.00  0.00     0.130 A 
ATOM      3  N   UNL     1      34.592   8.619   7.249  1.00  0.00    -0.216 NA
ATOM      4  C   UNL     1      34.246   7.376   7.683  1.00  0.00     0.137 A 
ATOM      5  C   UNL     1      34.638   6.256   6.940  1.00  0.00     0.094 A 
ATOM      6  C   UNL     1      35.399   6.446   5.777  1.00  0.00     0.134 A 
ATOM      7  N   UNL     1      35.702   7.715   5.383  1.00  0.00    -0.216 NA
ENDROOT
BRANCH   4   8
ATOM      8  N   UNL     1      33.456   7.211   8.872  1.00  0.00    -0.316 N 
ATOM      9  H   UNL     1      33.677   6.420   9.516  1.00  0.00     0.170 HD
BRANCH   8  10
ATOM     10  C   UNL     1      32.426   8.124   9.272  1.00  0.00     0.189 A 
ATOM     11  N   UNL     1      32.657   9.391   9.682  1.00  0.00    -0.228 NA
ATOM     12  S   UNL     1      30.799   7.713   9.390  1.00  0.00    -0.091 S 
ATOM     13  C   UNL     1      31.512  10.012  10.072  1.00  0.00     0.139 A 
ATOM     14  C   UNL     1      30.362   9.233   9.978  1.00  0.00     0.114 A 
BRANCH  14  15
ATOM     15  C   UNL     1      29.004   9.656  10.363  1.00  0.00     0.267 C 
ATOM     16  O   UNL     1      28.784  10.027  11.551  1.00  0.00    -0.268 OA
ATOM     17  N   UNL     1      27.938   9.660   9.404  1.00  0.00    -0.320 N 
ATOM     18  H   UNL     1      28.164   9.601   8.385  1.00  0.00     0.170 HD
BRANCH  17  19
ATOM     19  C   UNL     1      26.585   9.956   9.786  1.00  0.00     0.063 A 
ATOM     20  C   UNL     1      25.662   8.906  10.001  1.00  0.00    -0.026 A 
ATOM     21  C   UNL     1      26.174  11.295   9.965  1.00  0.00     0.064 A 
ATOM     22  C   UNL     1      26.084   7.469   9.839  1.00  0.00     0.046 C 
ATOM     23  C   UNL     1      24.342   9.213  10.372  1.00  0.00     0.005 A 
ATOM     24  C   UNL     1      24.855  11.581  10.336  1.00  0.00     0.023 A 
ATOM     25  Cl  UNL     1      27.306  12.633   9.779  1.00  0.00    -0.082 Cl
ATOM     26  C   UNL     1      23.940  10.543  10.532  1.00  0.00     0.002 A 
ENDBRANCH  17  19
ENDBRANCH  14  15
ENDBRANCH   8  10
ENDBRANCH   4   8
BRANCH   6  27
ATOM     27  N   UNL     1      35.817   5.330   4.971  1.00  0.00    -0.354 N 
ATOM     28  C   UNL     1      36.626   5.570   3.773  1.00  0.00     0.133 C 
ATOM     29  C   UNL     1      35.596   3.945   5.404  1.00  0.00     0.133 C 
ATOM     30  C   UNL     1      36.786   4.275   2.956  1.00  0.00     0.106 C 
ATOM     31  C   UNL     1      35.026   3.107   4.243  1.00  0.00     0.106 C 
ATOM     32  N   UNL     1      35.517   3.517   2.896  1.00  0.00    -0.298 NA
BRANCH  32  33
ATOM     33  C   UNL     1      34.482   4.221   2.094  1.00  0.00     0.112 C 
BRANCH  33  34
ATOM     34  C   UNL     1      33.833   3.266   1.086  1.00  0.00     0.171 C 
BRANCH  34  35
ATOM     35  O   UNL     1      32.557   3.716   0.719  1.00  0.00    -0.395 OA
ATOM     36  H   UNL     1      32.617   4.708   0.621  1.00  0.00     0.210 HD
ENDBRANCH  34  35
ENDBRANCH  33  34
ENDBRANCH  32  33
ENDBRANCH   6  27
TORSDOF 8
ENDMDL
MODEL 3
REMARK VINA RESULT:    -9.396      1.610      2.623
REMARK INTER + INTRA:         -14.205
REMARK INTER:                 -13.414
REMARK INTRA:                  -0.791
REMARK UNBOUND:                -0.689
REMARK SMILES Cc1nc(Nc2ncc(C(=O)Nc3c(C)cccc3Cl)s2)cc(N2CCN(CCO)CC2)n1
REMARK SMILES IDX 1 1 2 2 3 3 4 4 22 5 23 6 33 7 5 8 6 10 7 11 21 12 8 13 9 14
REMARK SMILES IDX 10 15 11 16 12 17 13 19 14 20 19 21 15 22 16 23 18 24 20 25
REMARK SMILES IDX 17 26 24 27 25 28 32 29 26 30 31 31 27 32 28 33 29 34 30 35
REMARK H PARENT 5 9 12 18 30 36
REMARK Flexibility Score: inf
ROOT
ATOM      1  C   UNL     1      35.469  11.050   5.233  1.00  0.00     0.090 C 
ATOM      2  C   UNL     1      35.349   9.619   5.634  1.00  0.00     0.130 A 
ATOM      3  N   UNL     1      34.760   9.289   6.813  1.00  0.00    -0.216 NA
ATOM      4  C   UNL     1      34.619   7.990   7.194  1.00  0.00     0.137 A 
ATOM      5  C   UNL     1      35.082   6.973   6.351  1.00  0.00     0.094 A 
ATOM      6  C   UNL     1      35.701   7.324   5.142  1.00  0.00     0.134 A 
ATOM      7  N   UNL     1      35.800   8.640   4.806  1.00  0.00    -0.216 NA
ENDROOT
BRANCH   4   8
ATOM      8  N   UNL     1      33.971   7.659   8.433  1.00  0.00    -0.316 N 
ATOM      9  H   UNL     1      34.351   6.872   9.004  1.00  0.00     0.170 HD
BRANCH   8  10
ATOM     10  C   UNL     1      32.873   8.403   8.977  1.00  0.00     0.189 A 
ATOM     11  N   UNL     1      33.006   9.586   9.619  1.00  0.00    -0.228 NA
ATOM     12  S   UNL     1      31.281   7.859   8.989  1.00  0.00    -0.091 S 
ATOM     13  C   UNL     1      31.815  10.037  10.096  1.00  0.00     0.139 A 
ATOM     14  C   UNL     1      30.729   9.206   9.839  1.00  0.00     0.114 A 
BRANCH  14  15
ATOM     15  C   UNL     1      29.341   9.449  10.272  1.00  0.00     0.267 C 
ATOM     16  O   UNL     1      29.048   9.350  11.497  1.00  0.00    -0.268 OA
ATOM     17  N   UNL     1      28.328   9.805   9.320  1.00  0.00    -0.320 N 
ATOM     18  H   UNL     1      28.611  10.132   8.369  1.00  0.00     0.170 HD
BRANCH  17  19
ATOM     19  C   UNL     1      26.950   9.932   9.703  1.00  0.00     0.063 A 
ATOM     20  C   UNL     1      26.415  11.203  10.019  1.00  0.00    -0.026 A 
ATOM     21  C   UNL     1      26.117   8.793   9.749  1.00  0.00     0.064 A 
ATOM     22  C   UNL     1      27.277  12.436   9.954  1.00  0.00     0.046 C 
ATOM     23  C   UNL     1      25.064  11.310  10.394  1.00  0.00     0.005 A 
ATOM     24  C   UNL     1      24.774   8.919  10.124  1.00  0.00     0.023 A 
ATOM     25  Cl  UNL     1      26.719   7.200   9.295  1.00  0.00    -0.082 Cl
ATOM     26  C   UNL     1      24.251  10.173  10.452  1.00  0.00     0.002 A 
ENDBRANCH  17  19
ENDBRANCH  14  15
ENDBRANCH   8  10
ENDBRANCH   4   8
BRANCH   6  27
ATOM     27  N   UNL     1      36.183   6.317   4.234  1.00  0.00    -0.354 N 
ATOM     28  C   UNL     1      36.157   6.577   2.792  1.00  0.00     0.133 C 
ATOM     29  C   UNL     1      36.852   5.103   4.717  1.00  0.00     0.133 C 
ATOM     30  C   UNL     1      36.520   5.305   2.003  1.00  0.00     0.106 C 
ATOM     31  C   UNL     1      36.291   3.861   3.999  1.00  0.00     0.106 C 
ATOM     32  N   UNL     1      35.876   4.109   2.587  1.00  0.00    -0.298 NA
BRANCH  32  33
ATOM     33  C   UNL     1      34.400   4.127   2.414  1.00  0.00     0.112 C 
BRANCH  33  34
ATOM     34  C   UNL     1      33.993   3.375   1.141  1.00  0.00     0.171 C 
BRANCH  34  35
ATOM     35  O   UNL     1      32.700   3.738   0.737  1.00  0.00    -0.395 OA
ATOM     36  H   UNL     1      32.300   2.938   0.294  1.00  0.00     0.210 HD
ENDBRANCH  34  35
ENDBRANCH  33  34
ENDBRANCH  32  33
ENDBRANCH   6  27
TORSDOF 8
ENDMDL
MODEL 4
REMARK VINA RESULT:    -9.256      1.496      2.345
REMARK INTER + INTRA:         -14.003
REMARK INTER:                 -13.140
REMARK INTRA:                  -0.864
REMARK UNBOUND:                -0.689
REMARK SMILES Cc1nc(Nc2ncc(C(=O)Nc3c(C)cccc3Cl)s2)cc(N2CCN(CCO)CC2)n1
REMARK SMILES IDX 1 1 2 2 3 3 4 4 22 5 23 6 33 7 5 8 6 10 7 11 21 12 8 13 9 14
REMARK SMILES IDX 10 15 11 16 12 17 13 19 14 20 19 21 15 22 16 23 18 24 20 25
REMARK SMILES IDX 17 26 24 27 25 28 32 29 26 30 31 31 27 32 28 33 29 34 30 35
REMARK H PARENT 5 9 12 18 30 36
REMARK Flexibility Score: inf
ROOT
ATOM      1  C   UNL     1      35.412  11.048   4.874  1.00  0.00     0.090 C 
ATOM      2  C   UNL     1      35.344   9.735   5.577  1.00  0.00     0.130 A 
ATOM      3  N   UNL     1      34.854   9.664   6.842  1.00  0.00    -0.216 NA
ATOM      4  C   UNL     1      34.761   8.476   7.499  1.00  0.00     0.137 A 
ATOM      5  C   UNL     1      35.170   7.302   6.856  1.00  0.00     0.094 A 
ATOM      6  C   UNL     1      35.688   7.387   5.556  1.00  0.00     0.134 A 
ATOM      7  N   UNL     1      35.742   8.602   4.941  1.00  0.00    -0.216 NA
ENDROOT
BRANCH   4   8
ATOM      8  N   UNL     1      34.216   8.417   8.828  1.00  0.00    -0.316 N 
ATOM      9  H   UNL     1      34.867   8.474   9.641  1.00  0.00     0.170 HD
BRANCH   8  10
ATOM     10  C   UNL     1      32.810   8.368   9.106  1.00  0.00     0.189 A 
ATOM     11  N   UNL     1      31.999   7.355   8.727  1.00  0.00    -0.228 NA
ATOM     12  S   UNL     1      31.954   9.614   9.845  1.00  0.00    -0.091 S 
ATOM     13  C   UNL     1      30.702   7.598   9.054  1.00  0.00     0.139 A 
ATOM     14  C   UNL     1      30.477   8.814   9.692  1.00  0.00     0.114 A 
BRANCH  14  15
ATOM     15  C   UNL     1      29.164   9.328  10.122  1.00  0.00     0.267 C 
ATOM     16  O   UNL     1      28.997   9.673  11.326  1.00  0.00    -0.268 OA
ATOM     17  N   UNL     1      28.083   9.448   9.187  1.00  0.00    -0.320 N 
ATOM     18  H   UNL     1      28.284   9.409   8.163  1.00  0.00     0.170 HD
BRANCH  17  19
ATOM     19  C   UNL     1      26.765   9.835   9.609  1.00  0.00     0.063 A 
ATOM     20  C   UNL     1      25.789   8.848   9.881  1.00  0.00    -0.026 A 
ATOM     21  C   UNL     1      26.443  11.200   9.772  1.00  0.00     0.064 A 
ATOM     22  C   UNL     1      26.116   7.385   9.738  1.00  0.00     0.046 C 
ATOM     23  C   UNL     1      24.503   9.243  10.290  1.00  0.00     0.005 A 
ATOM     24  C   UNL     1      25.158  11.574  10.182  1.00  0.00     0.023 A 
ATOM     25  Cl  UNL     1      27.646  12.462   9.515  1.00  0.00    -0.082 Cl
ATOM     26  C   UNL     1      24.189  10.599  10.433  1.00  0.00     0.002 A 
ENDBRANCH  17  19
ENDBRANCH  14  15
ENDBRANCH   8  10
ENDBRANCH   4   8
BRANCH   6  27
ATOM     27  N   UNL     1      36.111   6.208   4.846  1.00  0.00    -0.354 N 
ATOM     28  C   UNL     1      36.613   6.336   3.475  1.00  0.00     0.133 C 
ATOM     29  C   UNL     1      36.209   4.904   5.511  1.00  0.00     0.133 C 
ATOM     30  C   UNL     1      36.815   4.949   2.838  1.00  0.00     0.106 C 
ATOM     31  C   UNL     1      35.562   3.810   4.642  1.00  0.00     0.106 C 
ATOM     32  N   UNL     1      35.700   4.036   3.174  1.00  0.00    -0.298 NA
BRANCH  32  33
ATOM     33  C   UNL     1      34.425   4.451   2.532  1.00  0.00     0.112 C 
BRANCH  33  34
ATOM     34  C   UNL     1      34.043   3.481   1.408  1.00  0.00     0.171 C 
BRANCH  34  35
ATOM     35  O   UNL     1      32.847   3.877   0.790  1.00  0.00    -0.395 OA
ATOM     36  H   UNL     1      32.406   3.046   0.455  1.00  0.00     0.210 HD
ENDBRANCH  34  35
ENDBRANCH  33  34
ENDBRANCH  32  33
ENDBRANCH   6  27
TORSDOF 8
ENDMDL
MODEL 5
REMARK VINA RESULT:    -9.185      2.876      4.059
REMARK INTER + INTRA:         -13.902
REMARK INTER:                 -12.877
REMARK INTRA:                  -1.025
REMARK UNBOUND:                -0.689
REMARK SMILES Cc1nc(Nc2ncc(C(=O)Nc3c(C)cccc3Cl)s2)cc(N2CCN(CCO)CC2)n1
REMARK SMILES IDX 1 1 2 2 3 3 4 4 22 5 23 6 33 7 5 8 6 10 7 11 21 12 8 13 9 14
REMARK SMILES IDX 10 15 11 16 12 17 13 19 14 20 19 21 15 22 16 23 18 24 20 25
REMARK SMILES IDX 17 26 24 27 25 28 32 29 26 30 31 31 27 32 28 33 29 34 30 35
REMARK H PARENT 5 9 12 18 30 36
REMARK Flexibility Score: inf
ROOT
ATOM      1  C   UNL     1      38.898   8.904  11.153  1.00  0.00     0.090 C 
ATOM      2  C   UNL     1      37.664   9.058  10.330  1.00  0.00     0.130 A 
ATOM      3  N   UNL     1      36.804  10.081  10.575  1.00  0.00    -0.216 NA
ATOM      4  C   UNL     1      35.682  10.257   9.826  1.00  0.00     0.137 A 
ATOM      5  C   UNL     1      35.412   9.372   8.776  1.00  0.00     0.094 A 
ATOM      6  C   UNL     1      36.297   8.311   8.539  1.00  0.00     0.134 A 
ATOM      7  N   UNL     1      37.414   8.194   9.311  1.00  0.00    -0.216 NA
ENDROOT
BRANCH   4   8
ATOM      8  N   UNL     1      34.797  11.360  10.084  1.00  0.00    -0.316 N 
ATOM      9  H   UNL     1      35.209  12.288  10.328  1.00  0.00     0.170 HD
BRANCH   8  10
ATOM     10  C   UNL     1      33.373  11.283   9.944  1.00  0.00     0.189 A 
ATOM     11  N   UNL     1      32.639  12.138   9.197  1.00  0.00    -0.228 NA
ATOM     12  S   UNL     1      32.404  10.187  10.776  1.00  0.00    -0.091 S 
ATOM     13  C   UNL     1      31.308  11.882   9.299  1.00  0.00     0.139 A 
ATOM     14  C   UNL     1      30.978  10.821  10.138  1.00  0.00     0.114 A 
BRANCH  14  15
ATOM     15  C   UNL     1      29.611  10.360  10.442  1.00  0.00     0.267 C 
ATOM     16  O   UNL     1      29.374   9.819  11.559  1.00  0.00    -0.268 OA
ATOM     17  N   UNL     1      28.552  10.531   9.490  1.00  0.00    -0.320 N 
ATOM     18  H   UNL     1      28.682  11.191   8.691  1.00  0.00     0.170 HD
BRANCH  17  19
ATOM     19  C   UNL     1      27.243   9.986   9.719  1.00  0.00     0.063 A 
ATOM     20  C   UNL     1      26.199  10.819  10.187  1.00  0.00    -0.026 A 
ATOM     21  C   UNL     1      26.985   8.622   9.462  1.00  0.00     0.064 A 
ATOM     22  C   UNL     1      26.444  12.283  10.446  1.00  0.00     0.046 C 
ATOM     23  C   UNL     1      24.924  10.270  10.408  1.00  0.00     0.005 A 
ATOM     24  C   UNL     1      25.708   8.093   9.686  1.00  0.00     0.023 A 
ATOM     25  Cl  UNL     1      28.233   7.561   8.810  1.00  0.00    -0.082 Cl
ATOM     26  C   UNL     1      24.683   8.914  10.165  1.00  0.00     0.002 A 
ENDBRANCH  17  19
ENDBRANCH  14  15
ENDBRANCH   8  10
ENDBRANCH   4   8
BRANCH   6  27
ATOM     27  N   UNL     1      36.072   7.381   7.464  1.00  0.00    -0.354 N 
ATOM     28  C   UNL     1      34.902   7.552   6.598  1.00  0.00     0.133 C 
ATOM     29  C   UNL     1      37.067   6.363   7.107  1.00  0.00     0.133 C 
ATOM     30  C   UNL     1      34.742   6.346   5.655  1.00  0.00     0.106 C 
ATOM     31  C   UNL     1      36.387   4.994   6.915  1.00  0.00     0.106 C 
ATOM     32  N   UNL     1      35.004   5.073   6.362  1.00  0.00    -0.298 NA
BRANCH  32  33
ATOM     33  C   UNL     1      33.959   4.770   7.375  1.00  0.00     0.112 C 
BRANCH  33  34
ATOM     34  C   UNL     1      34.207   3.400   8.017  1.00  0.00     0.171 C 
BRANCH  34  35
ATOM     35  O   UNL     1      33.828   3.405   9.367  1.00  0.00    -0.395 OA
ATOM     36  H   UNL     1      33.176   4.151   9.482  1.00  0.00     0.210 HD
ENDBRANCH  34  35
ENDBRANCH  33  34
ENDBRANCH  32  33
ENDBRANCH   6  27
TORSDOF 8
ENDMDL
MODEL 6
REMARK VINA RESULT:    -9.121      2.717      3.991
REMARK INTER + INTRA:         -13.810
REMARK INTER:                 -12.720
REMARK INTRA:                  -1.089
REMARK UNBOUND:                -0.689
REMARK SMILES Cc1nc(Nc2ncc(C(=O)Nc3c(C)cccc3Cl)s2)cc(N2CCN(CCO)CC2)n1
REMARK SMILES IDX 1 1 2 2 3 3 4 4 22 5 23 6 33 7 5 8 6 10 7 11 21 12 8 13 9 14
REMARK SMILES IDX 10 15 11 16 12 17 13 19 14 20 19 21 15 22 16 23 18 24 20 25
REMARK SMILES IDX 17 26 24 27 25 28 32 29 26 30 31 31 27 32 28 33 29 34 30 35
REMARK H PARENT 5 9 12 18 30 36
REMARK Flexibility Score: inf
ROOT
ATOM      1  C   UNL     1      34.903  10.337   9.356  1.00  0.00     0.090 C 
ATOM      2  C   UNL     1      34.329   9.010   8.994  1.00  0.00     0.130 A 
ATOM      3  N   UNL     1      33.086   8.665   9.421  1.00  0.00    -0.216 NA
ATOM      4  C   UNL     1      32.529   7.469   9.088  1.00  0.00     0.137 A 
ATOM      5  C   UNL     1      33.247   6.579   8.281  1.00  0.00     0.094 A 
ATOM      6  C   UNL     1      34.535   6.937   7.856  1.00  0.00     0.134 A 
ATOM      7  N   UNL     1      35.035   8.155   8.207  1.00  0.00    -0.216 NA
ENDROOT
BRANCH   4   8
ATOM      8  N   UNL     1      31.203   7.132   9.528  1.00  0.00    -0.316 N 
ATOM      9  H   UNL     1      31.071   6.282  10.119  1.00  0.00     0.170 HD
BRANCH   8  10
ATOM     10  C   UNL     1      30.052   7.947   9.270  1.00  0.00     0.189 A 
ATOM     11  N   UNL     1      29.296   7.857   8.153  1.00  0.00    -0.228 NA
ATOM     12  S   UNL     1      29.546   9.203  10.270  1.00  0.00    -0.091 S 
ATOM     13  C   UNL     1      28.313   8.795   8.132  1.00  0.00     0.139 A 
ATOM     14  C   UNL     1      28.288   9.643   9.236  1.00  0.00     0.114 A 
BRANCH  14  15
ATOM     15  C   UNL     1      27.346  10.757   9.442  1.00  0.00     0.267 C 
ATOM     16  O   UNL     1      26.750  11.257   8.447  1.00  0.00    -0.268 OA
ATOM     17  N   UNL     1      27.094  11.269  10.759  1.00  0.00    -0.320 N 
ATOM     18  H   UNL     1      27.381  10.707  11.591  1.00  0.00     0.170 HD
BRANCH  17  19
ATOM     19  C   UNL     1      26.271  12.428  10.968  1.00  0.00     0.063 A 
ATOM     20  C   UNL     1      24.892  12.278  11.243  1.00  0.00    -0.026 A 
ATOM     21  C   UNL     1      26.837  13.721  10.919  1.00  0.00     0.064 A 
ATOM     22  C   UNL     1      24.270  10.908  11.325  1.00  0.00     0.046 C 
ATOM     23  C   UNL     1      24.099  13.421  11.444  1.00  0.00     0.005 A 
ATOM     24  C   UNL     1      26.032  14.848  11.123  1.00  0.00     0.023 A 
ATOM     25  Cl  UNL     1      28.563  13.955  10.651  1.00  0.00    -0.082 Cl
ATOM     26  C   UNL     1      24.667  14.699  11.378  1.00  0.00     0.002 A 
ENDBRANCH  17  19
ENDBRANCH  14  15
ENDBRANCH   8  10
ENDBRANCH   4   8
BRANCH   6  27
ATOM     27  N   UNL     1      35.310   6.063   7.014  1.00  0.00    -0.354 N 
ATOM     28  C   UNL     1      34.716   5.539   5.781  1.00  0.00     0.133 C 
ATOM     29  C   UNL     1      36.733   5.813   7.269  1.00  0.00     0.133 C 
ATOM     30  C   UNL     1      35.630   4.476   5.145  1.00  0.00     0.106 C 
ATOM     31  C   UNL     1      37.037   4.306   7.173  1.00  0.00     0.106 C 
ATOM     32  N   UNL     1      36.204   3.579   6.172  1.00  0.00    -0.298 NA
BRANCH  32  33
ATOM     33  C   UNL     1      35.171   2.714   6.799  1.00  0.00     0.112 C 
BRANCH  33  34
ATOM     34  C   UNL     1      35.416   2.582   8.307  1.00  0.00     0.171 C 
BRANCH  34  35
ATOM     35  O   UNL     1      34.289   2.991   9.034  1.00  0.00    -0.395 OA
ATOM     36  H   UNL     1      33.941   3.815   8.591  1.00  0.00     0.210 HD
ENDBRANCH  34  35
ENDBRANCH  33  34
ENDBRANCH  32  33
ENDBRANCH   6  27
TORSDOF 8
ENDMDL
MODEL 7
REMARK VINA RESULT:    -9.047      1.803      2.641
REMARK INTER + INTRA:         -13.702
REMARK INTER:                 -13.146
REMARK INTRA:                  -0.556
REMARK UNBOUND:                -0.689
REMARK SMILES Cc1nc(Nc2ncc(C(=O)Nc3c(C)cccc3Cl)s2)cc(N2CCN(CCO)CC2)n1
REMARK SMILES IDX 1 1 2 2 3 3 4 4 22 5 23 6 33 7 5 8 6 10 7 11 21 12 8 13 9 14
REMARK SMILES IDX 10 15 11 16 12 17 13 19 14 20 19 21 15 22 16 23 18 24 20 25
REMARK SMILES IDX 17 26 24 27 25 28 32 29 26 30 31 31 27 32 28 33 29 34 30 35
REMARK H PARENT 5 9 12 18 30 36
REMARK Flexibility Score: inf
ROOT
ATOM      1  C   UNL     1      35.784   9.691   8.719  1.00  0.00     0.090 C 
ATOM      2  C   UNL     1      35.033   8.429   8.458  1.00  0.00     0.130 A 
ATOM      3  N   UNL     1      33.765   8.282   8.924  1.00  0.00    -0.216 NA
ATOM      4  C   UNL     1      33.050   7.150   8.683  1.00  0.00     0.137 A 
ATOM      5  C   UNL     1      33.627   6.120   7.932  1.00  0.00     0.094 A 
ATOM      6  C   UNL     1      34.941   6.275   7.467  1.00  0.00     0.134 A 
ATOM      7  N   UNL     1      35.604   7.437   7.725  1.00  0.00    -0.216 NA
ENDROOT
BRANCH   4   8
ATOM      8  N   UNL     1      31.701   7.023   9.162  1.00  0.00    -0.316 N 
ATOM      9  H   UNL     1      31.454   6.201   9.755  1.00  0.00     0.170 HD
BRANCH   8  10
ATOM     10  C   UNL     1      30.685   8.010   8.941  1.00  0.00     0.189 A 
ATOM     11  N   UNL     1      30.849   9.103   8.162  1.00  0.00    -0.228 NA
ATOM     12  S   UNL     1      29.186   8.005   9.705  1.00  0.00    -0.091 S 
ATOM     13  C   UNL     1      29.755   9.909   8.186  1.00  0.00     0.139 A 
ATOM     14  C   UNL     1      28.714   9.459   8.994  1.00  0.00     0.114 A 
BRANCH  14  15
ATOM     15  C   UNL     1      27.436  10.158   9.216  1.00  0.00     0.267 C 
ATOM     16  O   UNL     1      27.003  10.954   8.335  1.00  0.00    -0.268 OA
ATOM     17  N   UNL     1      26.678   9.936  10.414  1.00  0.00    -0.320 N 
ATOM     18  H   UNL     1      26.896   9.108  11.013  1.00  0.00     0.170 HD
BRANCH  17  19
ATOM     19  C   UNL     1      25.492  10.693  10.702  1.00  0.00     0.063 A 
ATOM     20  C   UNL     1      24.222  10.070  10.650  1.00  0.00    -0.026 A 
ATOM     21  C   UNL     1      25.587  12.056  11.058  1.00  0.00     0.064 A 
ATOM     22  C   UNL     1      24.097   8.611  10.297  1.00  0.00     0.046 C 
ATOM     23  C   UNL     1      23.071  10.825  10.933  1.00  0.00     0.005 A 
ATOM     24  C   UNL     1      24.429  12.792  11.337  1.00  0.00     0.023 A 
ATOM     25  Cl  UNL     1      27.150  12.857  11.207  1.00  0.00    -0.082 Cl
ATOM     26  C   UNL     1      23.175  12.179  11.268  1.00  0.00     0.002 A 
ENDBRANCH  17  19
ENDBRANCH  14  15
ENDBRANCH   8  10
ENDBRANCH   4   8
BRANCH   6  27
ATOM     27  N   UNL     1      35.576   5.251   6.679  1.00  0.00    -0.354 N 
ATOM     28  C   UNL     1      36.854   5.539   6.020  1.00  0.00     0.133 C 
ATOM     29  C   UNL     1      35.066   3.875   6.651  1.00  0.00     0.133 C 
ATOM     30  C   UNL     1      37.250   4.390   5.075  1.00  0.00     0.106 C 
ATOM     31  C   UNL     1      35.005   3.357   5.202  1.00  0.00     0.106 C 
ATOM     32  N   UNL     1      36.081   3.891   4.318  1.00  0.00    -0.298 NA
BRANCH  32  33
ATOM     33  C   UNL     1      35.580   4.892   3.339  1.00  0.00     0.112 C 
BRANCH  33  34
ATOM     34  C   UNL     1      34.881   4.199   2.164  1.00  0.00     0.171 C 
BRANCH  34  35
ATOM     35  O   UNL     1      33.509   4.493   2.154  1.00  0.00    -0.395 OA
ATOM     36  H   UNL     1      33.047   3.702   1.757  1.00  0.00     0.210 HD
ENDBRANCH  34  35
ENDBRANCH  33  34
ENDBRANCH  32  33
ENDBRANCH   6  27
TORSDOF 8
ENDMDL
MODEL 8
REMARK VINA RESULT:    -8.955      3.357      4.950
REMARK INTER + INTRA:         -13.570
REMARK INTER:                 -12.854
REMARK INTRA:                  -0.716
REMARK UNBOUND:                -0.689
REMARK SMILES Cc1nc(Nc2ncc(C(=O)Nc3c(C)cccc3Cl)s2)cc(N2CCN(CCO)CC2)n1
REMARK SMILES IDX 1 1 2 2 3 3 4 4 22 5 23 6 33 7 5 8 6 10 7 11 21 12 8 13 9 14
REMARK SMILES IDX 10 15 11 16 12 17 13 19 14 20 19 21 15 22 16 23 18 24 20 25
REMARK SMILES IDX 17 26 24 27 25 28 32 29 26 30 31 31 27 32 28 33 29 34 30 35
REMARK H PARENT 5 9 12 18 30 36
REMARK Flexibility Score: inf
ROOT
ATOM      1  C   UNL     1      34.424   4.262   7.028  1.00  0.00     0.090 C 
ATOM      2  C   UNL     1      34.047   5.569   7.637  1.00  0.00     0.130 A 
ATOM      3  N   UNL     1      32.869   5.697   8.302  1.00  0.00    -0.216 NA
ATOM      4  C   UNL     1      32.509   6.872   8.885  1.00  0.00     0.137 A 
ATOM      5  C   UNL     1      33.373   7.971   8.807  1.00  0.00     0.094 A 
ATOM      6  C   UNL     1      34.581   7.834   8.106  1.00  0.00     0.134 A 
ATOM      7  N   UNL     1      34.896   6.628   7.556  1.00  0.00    -0.216 NA
ENDROOT
BRANCH   4   8
ATOM      8  N   UNL     1      31.271   6.981   9.607  1.00  0.00    -0.316 N 
ATOM      9  H   UNL     1      31.141   6.410  10.471  1.00  0.00     0.170 HD
BRANCH   8  10
ATOM     10  C   UNL     1      30.226   7.896   9.254  1.00  0.00     0.189 A 
ATOM     11  N   UNL     1      30.203   8.613   8.108  1.00  0.00    -0.228 NA
ATOM     12  S   UNL     1      28.939   8.289  10.264  1.00  0.00    -0.091 S 
ATOM     13  C   UNL     1      29.138   9.456   8.060  1.00  0.00     0.139 A 
ATOM     14  C   UNL     1      28.310   9.416   9.179  1.00  0.00     0.114 A 
BRANCH  14  15
ATOM     15  C   UNL     1      27.111  10.247   9.389  1.00  0.00     0.267 C 
ATOM     16  O   UNL     1      26.683  10.969   8.444  1.00  0.00    -0.268 OA
ATOM     17  N   UNL     1      26.424  10.236  10.648  1.00  0.00    -0.320 N 
ATOM     18  H   UNL     1      26.616   9.468  11.331  1.00  0.00     0.170 HD
BRANCH  17  19
ATOM     19  C   UNL     1      25.325  11.123  10.912  1.00  0.00     0.063 A 
ATOM     20  C   UNL     1      25.567  12.492  11.175  1.00  0.00    -0.026 A 
ATOM     21  C   UNL     1      23.999  10.639  10.894  1.00  0.00     0.064 A 
ATOM     22  C   UNL     1      26.971  13.037  11.176  1.00  0.00     0.046 C 
ATOM     23  C   UNL     1      24.482  13.348  11.434  1.00  0.00     0.005 A 
ATOM     24  C   UNL     1      22.931  11.506  11.153  1.00  0.00     0.023 A 
ATOM     25  Cl  UNL     1      23.644   8.958  10.501  1.00  0.00    -0.082 Cl
ATOM     26  C   UNL     1      23.173  12.855  11.428  1.00  0.00     0.002 A 
ENDBRANCH  17  19
ENDBRANCH  14  15
ENDBRANCH   8  10
ENDBRANCH   4   8
BRANCH   6  27
ATOM     27  N   UNL     1      35.510   8.929   8.006  1.00  0.00    -0.354 N 
ATOM     28  C   UNL     1      35.594   9.902   9.099  1.00  0.00     0.133 C 
ATOM     29  C   UNL     1      36.492   9.007   6.918  1.00  0.00     0.133 C 
ATOM     30  C   UNL     1      36.491  11.089   8.702  1.00  0.00     0.106 C 
ATOM     31  C   UNL     1      36.514  10.426   6.319  1.00  0.00     0.106 C 
ATOM     32  N   UNL     1      36.239  11.510   7.306  1.00  0.00    -0.298 NA
BRANCH  32  33
ATOM     33  C   UNL     1      34.892  12.115   7.139  1.00  0.00     0.112 C 
BRANCH  33  34
ATOM     34  C   UNL     1      34.371  11.895   5.714  1.00  0.00     0.171 C 
BRANCH  34  35
ATOM     35  O   UNL     1      33.083  11.340   5.733  1.00  0.00    -0.395 OA
ATOM     36  H   UNL     1      32.522  11.889   5.116  1.00  0.00     0.210 HD
ENDBRANCH  34  35
ENDBRANCH  33  34
ENDBRANCH  32  33
ENDBRANCH   6  27
TORSDOF 8
ENDMDL
MODEL 9
REMARK VINA RESULT:    -8.924      2.049      2.904
REMARK INTER + INTRA:         -13.526
REMARK INTER:                 -12.701
REMARK INTRA:                  -0.826
REMARK UNBOUND:                -0.689
REMARK SMILES Cc1nc(Nc2ncc(C(=O)Nc3c(C)cccc3Cl)s2)cc(N2CCN(CCO)CC2)n1
REMARK SMILES IDX 1 1 2 2 3 3 4 4 22 5 23 6 33 7 5 8 6 10 7 11 21 12 8 13 9 14
REMARK SMILES IDX 10 15 11 16 12 17 13 19 14 20 19 21 15 22 16 23 18 24 20 25
REMARK SMILES IDX 17 26 24 27 25 28 32 29 26 30 31 31 27 32 28 33 29 34 30 35
REMARK H PARENT 5 9 12 18 30 36
REMARK Flexibility Score: inf
ROOT
ATOM      1  C   UNL     1      37.689   9.327  10.292  1.00  0.00     0.090 C 
ATOM      2  C   UNL     1      36.775   8.766   9.256  1.00  0.00     0.130 A 
ATOM      3  N   UNL     1      35.564   9.340   9.032  1.00  0.00    -0.216 NA
ATOM      4  C   UNL     1      34.719   8.860   8.078  1.00  0.00     0.137 A 
ATOM      5  C   UNL     1      35.109   7.759   7.307  1.00  0.00     0.094 A 
ATOM      6  C   UNL     1      36.355   7.164   7.555  1.00  0.00     0.134 A 
ATOM      7  N   UNL     1      37.166   7.698   8.512  1.00  0.00    -0.216 NA
ENDROOT
BRANCH   4   8
ATOM      8  N   UNL     1      33.453   9.496   7.838  1.00  0.00    -0.316 N 
ATOM      9  H   UNL     1      33.386  10.210   7.079  1.00  0.00     0.170 HD
BRANCH   8  10
ATOM     10  C   UNL     1      32.247   9.146   8.528  1.00  0.00     0.189 A 
ATOM     11  N   UNL     1      31.904   7.881   8.857  1.00  0.00    -0.228 NA
ATOM     12  S   UNL     1      31.038  10.247   8.926  1.00  0.00    -0.091 S 
ATOM     13  C   UNL     1      30.677   7.825   9.439  1.00  0.00     0.139 A 
ATOM     14  C   UNL     1      30.034   9.054   9.568  1.00  0.00     0.114 A 
BRANCH  14  15
ATOM     15  C   UNL     1      28.690   9.263  10.135  1.00  0.00     0.267 C 
ATOM     16  O   UNL     1      28.475   8.974  11.346  1.00  0.00    -0.268 OA
ATOM     17  N   UNL     1      27.632   9.801   9.329  1.00  0.00    -0.320 N 
ATOM     18  H   UNL     1      27.863  10.271   8.425  1.00  0.00     0.170 HD
BRANCH  17  19
ATOM     19  C   UNL     1      26.288   9.905   9.826  1.00  0.00     0.063 A 
ATOM     20  C   UNL     1      25.764  11.165  10.197  1.00  0.00    -0.026 A 
ATOM     21  C   UNL     1      25.478   8.753   9.931  1.00  0.00     0.064 A 
ATOM     22  C   UNL     1      26.600  12.412  10.071  1.00  0.00     0.046 C 
ATOM     23  C   UNL     1      24.448  11.249  10.684  1.00  0.00     0.005 A 
ATOM     24  C   UNL     1      24.169   8.856  10.417  1.00  0.00     0.023 A 
ATOM     25  Cl  UNL     1      26.063   7.172   9.415  1.00  0.00    -0.082 Cl
ATOM     26  C   UNL     1      23.659  10.100  10.799  1.00  0.00     0.002 A 
ENDBRANCH  17  19
ENDBRANCH  14  15
ENDBRANCH   8  10
ENDBRANCH   4   8
BRANCH   6  27
ATOM     27  N   UNL     1      36.808   6.038   6.782  1.00  0.00    -0.354 N 
ATOM     28  C   UNL     1      37.166   6.230   5.374  1.00  0.00     0.133 C 
ATOM     29  C   UNL     1      37.079   4.737   7.405  1.00  0.00     0.133 C 
ATOM     30  C   UNL     1      37.424   4.876   4.688  1.00  0.00     0.106 C 
ATOM     31  C   UNL     1      36.448   3.604   6.573  1.00  0.00     0.106 C 
ATOM     32  N   UNL     1      36.427   3.865   5.105  1.00  0.00    -0.298 NA
BRANCH  32  33
ATOM     33  C   UNL     1      35.067   4.177   4.593  1.00  0.00     0.112 C 
BRANCH  33  34
ATOM     34  C   UNL     1      34.995   3.964   3.076  1.00  0.00     0.171 C 
BRANCH  34  35
ATOM     35  O   UNL     1      33.821   4.521   2.548  1.00  0.00    -0.395 OA
ATOM     36  H   UNL     1      33.152   3.782   2.489  1.00  0.00     0.210 HD
ENDBRANCH  34  35
ENDBRANCH  33  34
ENDBRANCH  32  33
ENDBRANCH   6  27
TORSDOF 8
ENDMDL
MODEL 10
REMARK VINA RESULT:    -8.910      2.402      3.171
REMARK INTER + INTRA:         -13.505
REMARK INTER:                 -12.661
REMARK INTRA:                  -0.844
REMARK UNBOUND:                -0.689
REMARK SMILES Cc1nc(Nc2ncc(C(=O)Nc3c(C)cccc3Cl)s2)cc(N2CCN(CCO)CC2)n1
REMARK SMILES IDX 1 1 2 2 3 3 4 4 22 5 23 6 33 7 5 8 6 10 7 11 21 12 8 13 9 14
REMARK SMILES IDX 10 15 11 16 12 17 13 19 14 20 19 21 15 22 16 23 18 24 20 25
REMARK SMILES IDX 17 26 24 27 25 28 32 29 26 30 31 31 27 32 28 33 29 34 30 35
REMARK H PARENT 5 9 12 18 30 36
REMARK Flexibility Score: inf
ROOT
ATOM      1  C   UNL     1      37.227   9.118  10.308  1.00  0.00     0.090 C 
ATOM      2  C   UNL     1      36.273   8.900   9.183  1.00  0.00     0.130 A 
ATOM      3  N   UNL     1      35.174   9.689   9.059  1.00  0.00    -0.216 NA
ATOM      4  C   UNL     1      34.298   9.525   8.030  1.00  0.00     0.137 A 
ATOM      5  C   UNL     1      34.539   8.530   7.075  1.00  0.00     0.094 A 
ATOM      6  C   UNL     1      35.668   7.711   7.220  1.00  0.00     0.134 A 
ATOM      7  N   UNL     1      36.519   7.932   8.261  1.00  0.00    -0.216 NA
ENDROOT
BRANCH   4   8
ATOM      8  N   UNL     1      33.155  10.386   7.901  1.00  0.00    -0.316 N 
ATOM      9  H   UNL     1      33.180  11.151   7.191  1.00  0.00     0.170 HD
BRANCH   8  10
ATOM     10  C   UNL     1      31.938  10.204   8.637  1.00  0.00     0.189 A 
ATOM     11  N   UNL     1      31.417   8.996   8.949  1.00  0.00    -0.228 NA
ATOM     12  S   UNL     1      30.933  11.464   9.119  1.00  0.00    -0.091 S 
ATOM     13  C   UNL     1      30.222   9.111   9.586  1.00  0.00     0.139 A 
ATOM     14  C   UNL     1      29.784  10.419   9.776  1.00  0.00     0.114 A 
BRANCH  14  15
ATOM     15  C   UNL     1      28.513  10.815  10.410  1.00  0.00     0.267 C 
ATOM     16  O   UNL     1      28.493  11.082  11.645  1.00  0.00    -0.268 OA
ATOM     17  N   UNL     1      27.308  10.910   9.637  1.00  0.00    -0.320 N 
ATOM     18  H   UNL     1      27.368  10.940   8.594  1.00  0.00     0.170 HD
BRANCH  17  19
ATOM     19  C   UNL     1      26.040  11.180  10.255  1.00  0.00     0.063 A 
ATOM     20  C   UNL     1      25.109  10.133  10.452  1.00  0.00    -0.026 A 
ATOM     21  C   UNL     1      25.722  12.487  10.685  1.00  0.00     0.064 A 
ATOM     22  C   UNL     1      25.436   8.726  10.024  1.00  0.00     0.046 C 
ATOM     23  C   UNL     1      23.871  10.414  11.056  1.00  0.00     0.005 A 
ATOM     24  C   UNL     1      24.485  12.747  11.285  1.00  0.00     0.023 A 
ATOM     25  Cl  UNL     1      26.876  13.809  10.526  1.00  0.00    -0.082 Cl
ATOM     26  C   UNL     1      23.560  11.715  11.464  1.00  0.00     0.002 A 
ENDBRANCH  17  19
ENDBRANCH  14  15
ENDBRANCH   8  10
ENDBRANCH   4   8
BRANCH   6  27
ATOM     27  N   UNL     1      35.968   6.682   6.259  1.00  0.00    -0.354 N 
ATOM     28  C   UNL     1      34.926   6.246   5.324  1.00  0.00     0.133 C 
ATOM     29  C   UNL     1      37.332   6.173   6.078  1.00  0.00     0.133 C 
ATOM     30  C   UNL     1      35.390   5.010   4.531  1.00  0.00     0.106 C 
ATOM     31  C   UNL     1      37.326   4.634   6.025  1.00  0.00     0.106 C 
ATOM     32  N   UNL     1      36.102   4.050   5.402  1.00  0.00    -0.298 NA
BRANCH  32  33
ATOM     33  C   UNL     1      35.196   3.416   6.395  1.00  0.00     0.112 C 
BRANCH  33  34
ATOM     34  C   UNL     1      35.903   3.244   7.744  1.00  0.00     0.171 C 
BRANCH  34  35
ATOM     35  O   UNL     1      35.140   2.451   8.613  1.00  0.00    -0.395 OA
ATOM     36  H   UNL     1      35.694   1.652   8.837  1.00  0.00     0.210 HD
ENDBRANCH  34  35
ENDBRANCH  33  34
ENDBRANCH  32  33
ENDBRANCH   6  27
TORSDOF 8
ENDMDL
MODEL 11
REMARK VINA RESULT:    -8.902      4.970      7.657
REMARK INTER + INTRA:         -13.494
REMARK INTER:                 -12.510
REMARK INTRA:                  -0.985
REMARK UNBOUND:                -0.689
REMARK SMILES Cc1nc(Nc2ncc(C(=O)Nc3c(C)cccc3Cl)s2)cc(N2CCN(CCO)CC2)n1
REMARK SMILES IDX 1 1 2 2 3 3 4 4 22 5 23 6 33 7 5 8 6 10 7 11 21 12 8 13 9 14
REMARK SMILES IDX 10 15 11 16 12 17 13 19 14 20 19 21 15 22 16 23 18 24 20 25
REMARK SMILES IDX 17 26 24 27 25 28 32 29 26 30 31 31 27 32 28 33 29 34 30 35
REMARK H PARENT 5 9 12 18 30 36
REMARK Flexibility Score: inf
ROOT
ATOM      1  C   UNL     1      37.592   9.060  10.440  1.00  0.00     0.090 C 
ATOM      2  C   UNL     1      36.377   9.829  10.045  1.00  0.00     0.130 A 
ATOM      3  N   UNL     1      35.393   9.228   9.327  1.00  0.00    -0.216 NA
ATOM      4  C   UNL     1      34.264   9.901   8.972  1.00  0.00     0.137 A 
ATOM      5  C   UNL     1      34.110  11.236   9.361  1.00  0.00     0.094 A 
ATOM      6  C   UNL     1      35.137  11.853  10.090  1.00  0.00     0.134 A 
ATOM      7  N   UNL     1      36.237  11.125  10.432  1.00  0.00    -0.216 NA
ENDROOT
BRANCH   4   8
ATOM      8  N   UNL     1      33.223   9.241   8.234  1.00  0.00    -0.316 N 
ATOM      9  H   UNL     1      33.477   8.704   7.376  1.00  0.00     0.170 HD
BRANCH   8  10
ATOM     10  C   UNL     1      31.853   9.206   8.656  1.00  0.00     0.189 A 
ATOM     11  N   UNL     1      31.272   8.141   9.253  1.00  0.00    -0.228 NA
ATOM     12  S   UNL     1      30.749  10.443   8.369  1.00  0.00    -0.091 S 
ATOM     13  C   UNL     1      29.948   8.350   9.481  1.00  0.00     0.139 A 
ATOM     14  C   UNL     1      29.470   9.587   9.057  1.00  0.00     0.114 A 
BRANCH  14  15
ATOM     15  C   UNL     1      28.073  10.048   9.159  1.00  0.00     0.267 C 
ATOM     16  O   UNL     1      27.536  10.622   8.170  1.00  0.00    -0.268 OA
ATOM     17  N   UNL     1      27.320   9.841  10.363  1.00  0.00    -0.320 N 
ATOM     18  H   UNL     1      27.666   9.158  11.073  1.00  0.00     0.170 HD
BRANCH  17  19
ATOM     19  C   UNL     1      26.000  10.384  10.525  1.00  0.00     0.063 A 
ATOM     20  C   UNL     1      24.867   9.553  10.366  1.00  0.00    -0.026 A 
ATOM     21  C   UNL     1      25.827  11.745  10.861  1.00  0.00     0.064 A 
ATOM     22  C   UNL     1      25.027   8.093  10.032  1.00  0.00     0.046 C 
ATOM     23  C   UNL     1      23.582  10.100  10.526  1.00  0.00     0.005 A 
ATOM     24  C   UNL     1      24.540  12.271  11.017  1.00  0.00     0.023 A 
ATOM     25  Cl  UNL     1      27.209  12.802  11.139  1.00  0.00    -0.082 Cl
ATOM     26  C   UNL     1      23.421  11.453  10.843  1.00  0.00     0.002 A 
ENDBRANCH  17  19
ENDBRANCH  14  15
ENDBRANCH   8  10
ENDBRANCH   4   8
BRANCH   6  27
ATOM     27  N   UNL     1      35.022  13.220  10.526  1.00  0.00    -0.354 N 
ATOM     28  C   UNL     1      34.574  13.504  11.892  1.00  0.00     0.133 C 
ATOM     29  C   UNL     1      35.499  14.333   9.697  1.00  0.00     0.133 C 
ATOM     30  C   UNL     1      34.328  15.012  12.082  1.00  0.00     0.106 C 
ATOM     31  C   UNL     1      34.443  15.454   9.650  1.00  0.00     0.106 C 
ATOM     32  N   UNL     1      33.649  15.597  10.905  1.00  0.00    -0.298 NA
BRANCH  32  33
ATOM     33  C   UNL     1      32.253  15.106  10.763  1.00  0.00     0.112 C 
BRANCH  33  34
ATOM     34  C   UNL     1      31.527  15.135  12.113  1.00  0.00     0.171 C 
BRANCH  34  35
ATOM     35  O   UNL     1      30.773  13.968  12.302  1.00  0.00    -0.395 OA
ATOM     36  H   UNL     1      31.130  13.287  11.665  1.00  0.00     0.210 HD
ENDBRANCH  34  35
ENDBRANCH  33  34
ENDBRANCH  32  33
ENDBRANCH   6  27
TORSDOF 8
ENDMDL
MODEL 12
REMARK VINA RESULT:    -8.889      3.800      6.354
REMARK INTER + INTRA:         -13.476
REMARK INTER:                 -12.504
REMARK INTRA:                  -0.972
REMARK UNBOUND:                -0.689
REMARK SMILES Cc1nc(Nc2ncc(C(=O)Nc3c(C)cccc3Cl)s2)cc(N2CCN(CCO)CC2)n1
REMARK SMILES IDX 1 1 2 2 3 3 4 4 22 5 23 6 33 7 5 8 6 10 7 11 21 12 8 13 9 14
REMARK SMILES IDX 10 15 11 16 12 17 13 19 14 20 19 21 15 22 16 23 18 24 20 25
REMARK SMILES IDX 17 26 24 27 25 28 32 29 26 30 31 31 27 32 28 33 29 34 30 35
REMARK H PARENT 5 9 12 18 30 36
REMARK Flexibility Score: inf
ROOT
ATOM      1  C   UNL     1      34.031   4.764   7.177  1.00  0.00     0.090 C 
ATOM      2  C   UNL     1      33.552   5.974   7.904  1.00  0.00     0.130 A 
ATOM      3  N   UNL     1      32.353   5.956   8.542  1.00  0.00    -0.216 NA
ATOM      4  C   UNL     1      31.901   7.040   9.230  1.00  0.00     0.137 A 
ATOM      5  C   UNL     1      32.691   8.194   9.290  1.00  0.00     0.094 A 
ATOM      6  C   UNL     1      33.921   8.208   8.616  1.00  0.00     0.134 A 
ATOM      7  N   UNL     1      34.330   7.088   7.956  1.00  0.00    -0.216 NA
ENDROOT
BRANCH   4   8
ATOM      8  N   UNL     1      30.642   6.993   9.921  1.00  0.00    -0.316 N 
ATOM      9  H   UNL     1      30.513   6.291  10.683  1.00  0.00     0.170 HD
BRANCH   8  10
ATOM     10  C   UNL     1      29.572   7.916   9.681  1.00  0.00     0.189 A 
ATOM     11  N   UNL     1      28.615   7.737   8.742  1.00  0.00    -0.228 NA
ATOM     12  S   UNL     1      29.418   9.401  10.457  1.00  0.00    -0.091 S 
ATOM     13  C   UNL     1      27.767   8.798   8.677  1.00  0.00     0.139 A 
ATOM     14  C   UNL     1      28.053   9.831   9.565  1.00  0.00     0.114 A 
BRANCH  14  15
ATOM     15  C   UNL     1      27.309  11.099   9.675  1.00  0.00     0.267 C 
ATOM     16  O   UNL     1      26.905  11.673   8.625  1.00  0.00    -0.268 OA
ATOM     17  N   UNL     1      27.033  11.677  10.958  1.00  0.00    -0.320 N 
ATOM     18  H   UNL     1      27.137  11.092  11.818  1.00  0.00     0.170 HD
BRANCH  17  19
ATOM     19  C   UNL     1      26.413  12.967  11.083  1.00  0.00     0.063 A 
ATOM     20  C   UNL     1      25.045  13.066  11.426  1.00  0.00    -0.026 A 
ATOM     21  C   UNL     1      27.170  14.142  10.881  1.00  0.00     0.064 A 
ATOM     22  C   UNL     1      24.223  11.828  11.670  1.00  0.00     0.046 C 
ATOM     23  C   UNL     1      24.453  14.336  11.542  1.00  0.00     0.005 A 
ATOM     24  C   UNL     1      26.563  15.397  11.002  1.00  0.00     0.023 A 
ATOM     25  Cl  UNL     1      28.894  14.070  10.522  1.00  0.00    -0.082 Cl
ATOM     26  C   UNL     1      25.207  15.494  11.324  1.00  0.00     0.002 A 
ENDBRANCH  17  19
ENDBRANCH  14  15
ENDBRANCH   8  10
ENDBRANCH   4   8
BRANCH   6  27
ATOM     27  N   UNL     1      34.777   9.365   8.656  1.00  0.00    -0.354 N 
ATOM     28  C   UNL     1      35.835   9.442   9.667  1.00  0.00     0.133 C 
ATOM     29  C   UNL     1      34.728  10.394   7.611  1.00  0.00     0.133 C 
ATOM     30  C   UNL     1      36.490  10.835   9.664  1.00  0.00     0.106 C 
ATOM     31  C   UNL     1      34.708  11.798   8.243  1.00  0.00     0.106 C 
ATOM     32  N   UNL     1      35.479  11.905   9.516  1.00  0.00    -0.298 NA
BRANCH  32  33
ATOM     33  C   UNL     1      34.604  12.016  10.713  1.00  0.00     0.112 C 
BRANCH  33  34
ATOM     34  C   UNL     1      34.620  13.445  11.267  1.00  0.00     0.171 C 
BRANCH  34  35
ATOM     35  O   UNL     1      33.472  13.699  12.031  1.00  0.00    -0.395 OA
ATOM     36  H   UNL     1      33.217  14.650  11.862  1.00  0.00     0.210 HD
ENDBRANCH  34  35
ENDBRANCH  33  34
ENDBRANCH  32  33
ENDBRANCH   6  27
TORSDOF 8
ENDMDL
MODEL 13
REMARK VINA RESULT:    -8.887      1.922      3.049
REMARK INTER + INTRA:         -13.473
REMARK INTER:                 -12.743
REMARK INTRA:                  -0.730
REMARK UNBOUND:                -0.689
REMARK SMILES Cc1nc(Nc2ncc(C(=O)Nc3c(C)cccc3Cl)s2)cc(N2CCN(CCO)CC2)n1
REMARK SMILES IDX 1 1 2 2 3 3 4 4 22 5 23 6 33 7 5 8 6 10 7 11 21 12 8 13 9 14
REMARK SMILES IDX 10 15 11 16 12 17 13 19 14 20 19 21 15 22 16 23 18 24 20 25
REMARK SMILES IDX 17 26 24 27 25 28 32 29 26 30 31 31 27 32 28 33 29 34 30 35
REMARK H PARENT 5 9 12 18 30 36
REMARK Flexibility Score: inf
ROOT
ATOM      1  C   UNL     1      35.327  11.637   5.031  1.00  0.00     0.090 C 
ATOM      2  C   UNL     1      35.048  10.556   6.019  1.00  0.00     0.130 A 
ATOM      3  N   UNL     1      34.392  10.840   7.174  1.00  0.00    -0.216 NA
ATOM      4  C   UNL     1      34.106   9.869   8.083  1.00  0.00     0.137 A 
ATOM      5  C   UNL     1      34.488   8.548   7.820  1.00  0.00     0.094 A 
ATOM      6  C   UNL     1      35.178   8.266   6.631  1.00  0.00     0.134 A 
ATOM      7  N   UNL     1      35.422   9.277   5.750  1.00  0.00    -0.216 NA
ENDROOT
BRANCH   4   8
ATOM      8  N   UNL     1      33.388  10.184   9.287  1.00  0.00    -0.316 N 
ATOM      9  H   UNL     1      33.925  10.313  10.173  1.00  0.00     0.170 HD
BRANCH   8  10
ATOM     10  C   UNL     1      31.974  10.416   9.329  1.00  0.00     0.189 A 
ATOM     11  N   UNL     1      31.202  10.580   8.231  1.00  0.00    -0.228 NA
ATOM     12  S   UNL     1      31.097  10.625  10.749  1.00  0.00    -0.091 S 
ATOM     13  C   UNL     1      29.912  10.857   8.559  1.00  0.00     0.139 A 
ATOM     14  C   UNL     1      29.655  10.921   9.925  1.00  0.00     0.114 A 
BRANCH  14  15
ATOM     15  C   UNL     1      28.353  11.234  10.541  1.00  0.00     0.267 C 
ATOM     16  O   UNL     1      28.286  11.426  11.788  1.00  0.00    -0.268 OA
ATOM     17  N   UNL     1      27.168  11.332   9.737  1.00  0.00    -0.320 N 
ATOM     18  H   UNL     1      27.258  11.426   8.701  1.00  0.00     0.170 HD
BRANCH  17  19
ATOM     19  C   UNL     1      25.873  11.520  10.330  1.00  0.00     0.063 A 
ATOM     20  C   UNL     1      25.005  10.416  10.503  1.00  0.00    -0.026 A 
ATOM     21  C   UNL     1      25.466  12.802  10.758  1.00  0.00     0.064 A 
ATOM     22  C   UNL     1      25.427   9.035  10.076  1.00  0.00     0.046 C 
ATOM     23  C   UNL     1      23.740  10.617  11.082  1.00  0.00     0.005 A 
ATOM     24  C   UNL     1      24.203  12.983  11.334  1.00  0.00     0.023 A 
ATOM     25  Cl  UNL     1      26.540  14.194  10.629  1.00  0.00    -0.082 Cl
ATOM     26  C   UNL     1      23.341  11.895  11.489  1.00  0.00     0.002 A 
ENDBRANCH  17  19
ENDBRANCH  14  15
ENDBRANCH   8  10
ENDBRANCH   4   8
BRANCH   6  27
ATOM     27  N   UNL     1      35.582   6.924   6.308  1.00  0.00    -0.354 N 
ATOM     28  C   UNL     1      36.747   6.712   5.444  1.00  0.00     0.133 C 
ATOM     29  C   UNL     1      34.962   5.758   6.949  1.00  0.00     0.133 C 
ATOM     30  C   UNL     1      36.879   5.226   5.063  1.00  0.00     0.106 C 
ATOM     31  C   UNL     1      34.611   4.691   5.895  1.00  0.00     0.106 C 
ATOM     32  N   UNL     1      35.561   4.634   4.746  1.00  0.00    -0.298 NA
BRANCH  32  33
ATOM     33  C   UNL     1      34.985   5.189   3.493  1.00  0.00     0.112 C 
BRANCH  33  34
ATOM     34  C   UNL     1      34.730   4.074   2.472  1.00  0.00     0.171 C 
BRANCH  34  35
ATOM     35  O   UNL     1      33.500   4.259   1.825  1.00  0.00    -0.395 OA
ATOM     36  H   UNL     1      33.324   3.432   1.295  1.00  0.00     0.210 HD
ENDBRANCH  34  35
ENDBRANCH  33  34
ENDBRANCH  32  33
ENDBRANCH   6  27
TORSDOF 8
ENDMDL
MODEL 14
REMARK VINA RESULT:    -8.881      2.435      3.485
REMARK INTER + INTRA:         -13.464
REMARK INTER:                 -12.491
REMARK INTRA:                  -0.973
REMARK UNBOUND:                -0.689
REMARK SMILES Cc1nc(Nc2ncc(C(=O)Nc3c(C)cccc3Cl)s2)cc(N2CCN(CCO)CC2)n1
REMARK SMILES IDX 1 1 2 2 3 3 4 4 22 5 23 6 33 7 5 8 6 10 7 11 21 12 8 13 9 14
REMARK SMILES IDX 10 15 11 16 12 17 13 19 14 20 19 21 15 22 16 23 18 24 20 25
REMARK SMILES IDX 17 26 24 27 25 28 32 29 26 30 31 31 27 32 28 33 29 34 30 35
REMARK H PARENT 5 9 12 18 30 36
REMARK Flexibility Score: inf
ROOT
ATOM      1  C   UNL     1      35.731  10.404   4.597  1.00  0.00     0.090 C 
ATOM      2  C   UNL     1      35.550   9.219   5.485  1.00  0.00     0.130 A 
ATOM      3  N   UNL     1      35.031   9.375   6.731  1.00  0.00    -0.216 NA
ATOM      4  C   UNL     1      34.836   8.309   7.554  1.00  0.00     0.137 A 
ATOM      5  C   UNL     1      35.168   7.025   7.105  1.00  0.00     0.094 A 
ATOM      6  C   UNL     1      35.717   6.876   5.823  1.00  0.00     0.134 A 
ATOM      7  N   UNL     1      35.874   7.978   5.037  1.00  0.00    -0.216 NA
ENDROOT
BRANCH   4   8
ATOM      8  N   UNL     1      34.262   8.490   8.859  1.00  0.00    -0.316 N 
ATOM      9  H   UNL     1      34.886   8.766   9.648  1.00  0.00     0.170 HD
BRANCH   8  10
ATOM     10  C   UNL     1      32.857   8.393   9.127  1.00  0.00     0.189 A 
ATOM     11  N   UNL     1      32.071   7.386   8.684  1.00  0.00    -0.228 NA
ATOM     12  S   UNL     1      31.970   9.572   9.935  1.00  0.00    -0.091 S 
ATOM     13  C   UNL     1      30.767   7.580   9.019  1.00  0.00     0.139 A 
ATOM     14  C   UNL     1      30.512   8.751   9.727  1.00  0.00     0.114 A 
BRANCH  14  15
ATOM     15  C   UNL     1      29.187   9.208  10.181  1.00  0.00     0.267 C 
ATOM     16  O   UNL     1      28.967   9.343  11.418  1.00  0.00    -0.268 OA
ATOM     17  N   UNL     1      28.152   9.510   9.234  1.00  0.00    -0.320 N 
ATOM     18  H   UNL     1      28.401   9.643   8.228  1.00  0.00     0.170 HD
BRANCH  17  19
ATOM     19  C   UNL     1      26.821   9.844   9.657  1.00  0.00     0.063 A 
ATOM     20  C   UNL     1      26.454  11.197   9.843  1.00  0.00    -0.026 A 
ATOM     21  C   UNL     1      25.867   8.826   9.872  1.00  0.00     0.064 A 
ATOM     22  C   UNL     1      27.448  12.302   9.596  1.00  0.00     0.046 C 
ATOM     23  C   UNL     1      25.148  11.508  10.260  1.00  0.00     0.005 A 
ATOM     24  C   UNL     1      24.570   9.154  10.286  1.00  0.00     0.023 A 
ATOM     25  Cl  UNL     1      26.255   7.131   9.585  1.00  0.00    -0.082 Cl
ATOM     26  C   UNL     1      24.215  10.490  10.485  1.00  0.00     0.002 A 
ENDBRANCH  17  19
ENDBRANCH  14  15
ENDBRANCH   8  10
ENDBRANCH   4   8
BRANCH   6  27
ATOM     27  N   UNL     1      36.063   5.577   5.310  1.00  0.00    -0.354 N 
ATOM     28  C   UNL     1      35.051   4.791   4.599  1.00  0.00     0.133 C 
ATOM     29  C   UNL     1      37.446   5.085   5.332  1.00  0.00     0.133 C 
ATOM     30  C   UNL     1      35.565   3.367   4.318  1.00  0.00     0.106 C 
ATOM     31  C   UNL     1      37.490   3.635   5.850  1.00  0.00     0.106 C 
ATOM     32  N   UNL     1      36.295   2.820   5.483  1.00  0.00    -0.298 NA
BRANCH  32  33
ATOM     33  C   UNL     1      35.395   2.564   6.638  1.00  0.00     0.112 C 
BRANCH  33  34
ATOM     34  C   UNL     1      36.006   3.110   7.934  1.00  0.00     0.171 C 
BRANCH  34  35
ATOM     35  O   UNL     1      35.565   2.374   9.043  1.00  0.00    -0.395 OA
ATOM     36  H   UNL     1      35.731   1.411   8.837  1.00  0.00     0.210 HD
ENDBRANCH  34  35
ENDBRANCH  33  34
ENDBRANCH  32  33
ENDBRANCH   6  27
TORSDOF 8
ENDMDL
MODEL 15
REMARK VINA RESULT:    -8.785      2.053      3.117
REMARK INTER + INTRA:         -13.326
REMARK INTER:                 -12.555
REMARK INTRA:                  -0.770
REMARK UNBOUND:                -0.689
REMARK SMILES Cc1nc(Nc2ncc(C(=O)Nc3c(C)cccc3Cl)s2)cc(N2CCN(CCO)CC2)n1
REMARK SMILES IDX 1 1 2 2 3 3 4 4 22 5 23 6 33 7 5 8 6 10 7 11 21 12 8 13 9 14
REMARK SMILES IDX 10 15 11 16 12 17 13 19 14 20 19 21 15 22 16 23 18 24 20 25
REMARK SMILES IDX 17 26 24 27 25 28 32 29 26 30 31 31 27 32 28 33 29 34 30 35
REMARK H PARENT 5 9 12 18 30 36
REMARK Flexibility Score: inf
ROOT
ATOM      1  C   UNL     1      35.847   9.469   4.149  1.00  0.00     0.090 C 
ATOM      2  C   UNL     1      35.405   8.283   4.938  1.00  0.00     0.130 A 
ATOM      3  N   UNL     1      34.975   8.437   6.217  1.00  0.00    -0.216 NA
ATOM      4  C   UNL     1      34.547   7.375   6.952  1.00  0.00     0.137 A 
ATOM      5  C   UNL     1      34.541   6.099   6.376  1.00  0.00     0.094 A 
ATOM      6  C   UNL     1      35.000   5.948   5.060  1.00  0.00     0.134 A 
ATOM      7  N   UNL     1      35.401   7.050   4.366  1.00  0.00    -0.216 NA
ENDROOT
BRANCH   4   8
ATOM      8  N   UNL     1      34.071   7.561   8.296  1.00  0.00    -0.316 N 
ATOM      9  H   UNL     1      34.674   7.251   9.089  1.00  0.00     0.170 HD
BRANCH   8  10
ATOM     10  C   UNL     1      32.843   8.227   8.616  1.00  0.00     0.189 A 
ATOM     11  N   UNL     1      32.676   9.568   8.567  1.00  0.00    -0.228 NA
ATOM     12  S   UNL     1      31.474   7.445   9.202  1.00  0.00    -0.091 S 
ATOM     13  C   UNL     1      31.438   9.938   8.991  1.00  0.00     0.139 A 
ATOM     14  C   UNL     1      30.616   8.886   9.386  1.00  0.00     0.114 A 
BRANCH  14  15
ATOM     15  C   UNL     1      29.245   9.018   9.911  1.00  0.00     0.267 C 
ATOM     16  O   UNL     1      29.006   8.693  11.109  1.00  0.00    -0.268 OA
ATOM     17  N   UNL     1      28.188   9.520   9.081  1.00  0.00    -0.320 N 
ATOM     18  H   UNL     1      28.425  10.018   8.194  1.00  0.00     0.170 HD
BRANCH  17  19
ATOM     19  C   UNL     1      26.826   9.547   9.536  1.00  0.00     0.063 A 
ATOM     20  C   UNL     1      26.241  10.766   9.953  1.00  0.00    -0.026 A 
ATOM     21  C   UNL     1      26.057   8.363   9.552  1.00  0.00     0.064 A 
ATOM     22  C   UNL     1      27.033  12.047   9.922  1.00  0.00     0.046 C 
ATOM     23  C   UNL     1      24.908  10.775  10.397  1.00  0.00     0.005 A 
ATOM     24  C   UNL     1      24.730   8.392   9.996  1.00  0.00     0.023 A 
ATOM     25  Cl  UNL     1      26.719   6.834   8.974  1.00  0.00    -0.082 Cl
ATOM     26  C   UNL     1      24.160   9.593  10.424  1.00  0.00     0.002 A 
ENDBRANCH  17  19
ENDBRANCH  14  15
ENDBRANCH   8  10
ENDBRANCH   4   8
BRANCH   6  27
ATOM     27  N   UNL     1      35.003   4.660   4.417  1.00  0.00    -0.354 N 
ATOM     28  C   UNL     1      35.201   3.453   5.225  1.00  0.00     0.133 C 
ATOM     29  C   UNL     1      34.648   4.506   3.001  1.00  0.00     0.133 C 
ATOM     30  C   UNL     1      35.372   2.216   4.324  1.00  0.00     0.106 C 
ATOM     31  C   UNL     1      35.667   3.595   2.291  1.00  0.00     0.106 C 
ATOM     32  N   UNL     1      36.228   2.517   3.156  1.00  0.00    -0.298 NA
BRANCH  32  33
ATOM     33  C   UNL     1      37.640   2.769   3.548  1.00  0.00     0.112 C 
BRANCH  33  34
ATOM     34  C   UNL     1      38.190   1.601   4.375  1.00  0.00     0.171 C 
BRANCH  34  35
ATOM     35  O   UNL     1      38.151   0.406   3.642  1.00  0.00    -0.395 OA
ATOM     36  H   UNL     1      38.555  -0.301   4.220  1.00  0.00     0.210 HD
ENDBRANCH  34  35
ENDBRANCH  33  34
ENDBRANCH  32  33
ENDBRANCH   6  27
TORSDOF 8
ENDMDL
