MODEL 1
REMARK VINA RESULT:     0.193      0.000      0.000
REMARK INTER + INTRA:           2.337
REMARK INTER:                   0.397
REMARK INTRA:                   1.941
REMARK UNBOUND:                 1.941
REMARK SMILES CO[C@H]1/C=C/O[C@@]2(C)Oc3c(C)c(O)c4c(O)c(c5c(nc6cc(C)ccn65)c4c3C2=O)NC(=O)/C(C)=C\C=C\[C@H](C)[C@H](O)[C@@H](C)[C@@H](O)[C@@H](C)[C@H](OC(C)=O)[C@@H]1C
REMARK SMILES IDX 43 1 45 2 46 3 47 4 49 5 50 6 51 7 56 8 57 9 3 10 2 12 1 13
REMARK SMILES IDX 52 14 53 15 54 16 55 17 48 18 41 20 42 21 40 22 39 23 38 24
REMARK SMILES IDX 36 25 37 26 34 27 33 28 35 29 18 31 16 32 19 33 15 34 20 35
REMARK SMILES IDX 28 36 13 37 29 38 21 39 22 40 27 41 11 42 30 43 23 44 26 45
REMARK SMILES IDX 10 46 12 47 31 48 24 49 9 50 7 51 32 52 25 53 8 54 17 55
REMARK SMILES IDX 14 57 6 59 5 60 4 61 44 63
REMARK H PARENT 48 19 33 30 17 56 14 58 44 64
REMARK Flexibility Score: 50.00
ROOT
ATOM      1  C   UNL     1       8.257  73.643  -2.715  1.00  0.00     0.126 C 
ENDROOT
BRANCH   1   2
ATOM      2  C   UNL     1       7.796  75.074  -2.225  1.00  0.00     0.044 C 
ATOM      3  C   UNL     1       7.552  76.011  -3.442  1.00  0.00     0.013 C 
BRANCH   2   4
ATOM      4  C   UNL     1       6.501  75.020  -1.300  1.00  0.00     0.126 C 
BRANCH   4   5
ATOM      5  C   UNL     1       6.703  75.735   0.089  1.00  0.00     0.056 C 
ATOM      6  C   UNL     1       8.186  75.667   0.523  1.00  0.00     0.014 C 
BRANCH   5   7
ATOM      7  C   UNL     1       6.201  77.225   0.005  1.00  0.00     0.187 C 
BRANCH   7   8
ATOM      8  C   UNL     1       5.313  77.795   1.195  1.00  0.00     0.060 C 
ATOM      9  C   UNL     1       5.632  79.277   1.476  1.00  0.00     0.015 C 
BRANCH   8  10
ATOM     10  C   UNL     1       5.256  76.964   2.541  1.00  0.00     0.150 CG0
ATOM     11  G   UNL     1       4.056  76.041   2.625  1.00  0.00     0.000 G0
BRANCH  10  12
ATOM     12  O   UNL     1       5.230  77.822   3.684  1.00  0.00    -0.377 OA
ATOM     13  C   UNL     1       4.232  77.447   4.584  1.00  0.00     0.195 C 
ENDBRANCH  10  12
ENDBRANCH   8  10
ENDBRANCH   7   8
BRANCH   7  14
ATOM     14  O   UNL     1       7.384  78.025  -0.150  1.00  0.00    -0.462 OA
BRANCH  14  15
ATOM     15  C   UNL     1       7.494  79.045  -1.082  1.00  0.00     0.302 C 
ATOM     16  C   UNL     1       7.587  80.451  -0.586  1.00  0.00     0.139 C 
ATOM     17  O   UNL     1       7.506  78.773  -2.311  1.00  0.00    -0.253 OA
ENDBRANCH  14  15
ENDBRANCH   7  14
ENDBRANCH   5   7
ENDBRANCH   4   5
BRANCH   4  18
ATOM     18  O   UNL     1       6.104  73.696  -1.115  1.00  0.00    -0.392 OA
ATOM     19  H   UNL     1       6.662  73.117  -1.692  1.00  0.00     0.210 HD
ENDBRANCH   4  18
ENDBRANCH   2   4
ENDBRANCH   1   2
BRANCH   1  20
ATOM     20  C   UNL     1       9.557  73.031  -2.072  1.00  0.00     0.038 C 
ATOM     21  C   UNL     1      10.343  72.142  -3.029  1.00  0.00     0.015 C 
BRANCH  20  22
ATOM     22  C   UNL     1      10.471  74.150  -1.559  1.00  0.00    -0.021 C 
ATOM     23  C   UNL     1      10.714  74.312  -0.263  1.00  0.00    -0.003 C 
BRANCH  23  24
ATOM     24  C   UNL     1      11.595  75.424   0.199  1.00  0.00     0.009 C 
ATOM     25  C   UNL     1      11.860  76.497  -0.536  1.00  0.00     0.014 C 
ATOM     26  C   UNL     1      13.145  77.242  -0.288  1.00  0.00     0.050 C 
BRANCH  25  27
ATOM     27  C   UNL     1      10.880  77.175  -1.437  1.00  0.00     0.251 C 
ATOM     28  N   UNL     1      11.162  77.445  -2.844  1.00  0.00    -0.317 N 
ATOM     29  O   UNL     1       9.669  77.232  -1.065  1.00  0.00    -0.269 OA
ATOM     30  H   UNL     1      10.293  77.678  -3.365  1.00  0.00     0.170 HD
BRANCH  28  31
ATOM     31  C   UNL     1      12.260  78.165  -3.372  1.00  0.00     0.111 A 
ATOM     32  C   UNL     1      13.109  77.513  -4.285  1.00  0.00     0.153 A 
ATOM     33  C   UNL     1      12.734  79.370  -2.811  1.00  0.00     0.101 A 
ATOM     34  C   UNL     1      14.330  78.064  -4.696  1.00  0.00     0.071 A 
ATOM     35  C   UNL     1      13.883  80.009  -3.262  1.00  0.00     0.101 A 
ATOM     36  N   UNL     1      12.242  80.134  -1.798  1.00  0.00    -0.298 N 
ATOM     37  C   UNL     1      15.122  77.413  -5.680  1.00  0.00     0.133 A 
ATOM     38  C   UNL     1      14.731  79.371  -4.196  1.00  0.00     0.032 A 
ATOM     39  N   UNL     1      14.153  81.143  -2.583  1.00  0.00    -0.228 NA
ATOM     40  C   UNL     1      13.089  81.179  -1.716  1.00  0.00     0.138 A 
ATOM     41  C   UNL     1      11.150  79.971  -0.958  1.00  0.00     0.094 A 
ATOM     42  C   UNL     1      16.166  78.110  -6.320  1.00  0.00     0.035 A 
ATOM     43  C   UNL     1      15.942  79.926  -4.706  1.00  0.00     0.079 A 
ATOM     44  C   UNL     1      12.905  82.169  -0.749  1.00  0.00     0.051 A 
ATOM     45  C   UNL     1      10.929  80.930   0.011  1.00  0.00     0.022 A 
ATOM     46  C   UNL     1      16.506  79.363  -5.847  1.00  0.00     0.143 A 
ATOM     47  C   UNL     1      16.925  77.447  -7.442  1.00  0.00     0.052 C 
ATOM     48  C   UNL     1      16.354  81.355  -4.761  1.00  0.00     0.251 C 
ATOM     49  C   UNL     1      11.805  82.040   0.135  1.00  0.00    -0.046 A 
ATOM     50  O   UNL     1      17.165  80.304  -6.630  1.00  0.00    -0.444 OA
ATOM     51  C   UNL     1      16.799  81.629  -6.186  1.00  0.00     0.312 C 
ATOM     52  O   UNL     1      16.437  82.125  -3.780  1.00  0.00    -0.285 OA
ATOM     53  C   UNL     1      11.632  83.055   1.243  1.00  0.00     0.044 C 
ATOM     54  C   UNL     1      15.534  82.073  -6.921  1.00  0.00     0.116 C 
BRANCH  32  55
ATOM     55  O   UNL     1      12.678  76.300  -4.850  1.00  0.00    -0.505 OA
ATOM     56  H   UNL     1      13.068  75.407  -4.551  1.00  0.00     0.293 HD
ENDBRANCH  32  55
BRANCH  37  57
ATOM     57  O   UNL     1      14.861  76.074  -5.997  1.00  0.00    -0.507 OA
ATOM     58  H   UNL     1      14.621  75.725  -6.922  1.00  0.00     0.293 HD
ENDBRANCH  37  57
BRANCH  51  59
ATOM     59  O   UNL     1      17.908  82.559  -6.311  1.00  0.00    -0.454 OA
BRANCH  59  60
ATOM     60  C   UNL     1      19.184  82.151  -6.795  1.00  0.00     0.191 C 
ATOM     61  C   UNL     1      19.811  82.694  -7.842  1.00  0.00     0.043 CG0
ATOM     62  G   UNL     1      21.264  82.489  -8.223  1.00  0.00     0.000 G0
ENDBRANCH  59  60
ENDBRANCH  51  59
ENDBRANCH  28  31
ENDBRANCH  25  27
ENDBRANCH  23  24
ENDBRANCH  20  22
ENDBRANCH   1  20
BRANCH   1  63
ATOM     63  O   UNL     1       8.449  73.586  -4.126  1.00  0.00    -0.392 OA
ATOM     64  H   UNL     1       8.730  72.685  -4.380  1.00  0.00     0.210 HD
ENDBRANCH   1  63
TORSDOF 7
ENDMDL
MODEL 2
REMARK VINA RESULT:     1.251      2.824      6.897
REMARK INTER + INTRA:           4.508
REMARK INTER:                   5.291
REMARK INTRA:                  -0.783
REMARK UNBOUND:                 1.941
REMARK SMILES CO[C@H]1/C=C/O[C@@]2(C)Oc3c(C)c(O)c4c(O)c(c5c(nc6cc(C)ccn65)c4c3C2=O)NC(=O)/C(C)=C\C=C\[C@H](C)[C@H](O)[C@@H](C)[C@@H](O)[C@@H](C)[C@H](OC(C)=O)[C@@H]1C
REMARK SMILES IDX 43 1 45 2 46 3 47 4 49 5 50 6 51 7 56 8 57 9 3 10 2 12 1 13
REMARK SMILES IDX 52 14 53 15 54 16 55 17 48 18 41 20 42 21 40 22 39 23 38 24
REMARK SMILES IDX 36 25 37 26 34 27 33 28 35 29 18 31 16 32 19 33 15 34 20 35
REMARK SMILES IDX 28 36 13 37 29 38 21 39 22 40 27 41 11 42 30 43 23 44 26 45
REMARK SMILES IDX 10 46 12 47 31 48 24 49 9 50 7 51 32 52 25 53 8 54 17 55
REMARK SMILES IDX 14 57 6 59 5 60 4 61 44 63
REMARK H PARENT 48 19 33 30 17 56 14 58 44 64
REMARK Flexibility Score: 50.00
ROOT
ATOM      1  C   UNL     1       5.318  77.273   2.195  1.00  0.00     0.126 C 
ENDROOT
BRANCH   1   2
ATOM      2  C   UNL     1       5.659  77.682   3.683  1.00  0.00     0.044 C 
ATOM      3  C   UNL     1       6.465  79.012   3.709  1.00  0.00     0.013 C 
BRANCH   2   4
ATOM      4  C   UNL     1       4.364  77.801   4.601  1.00  0.00     0.126 C 
BRANCH   4   5
ATOM      5  C   UNL     1       4.616  77.353   6.090  1.00  0.00     0.056 C 
ATOM      6  C   UNL     1       5.957  77.924   6.608  1.00  0.00     0.014 C 
BRANCH   5   7
ATOM      7  C   UNL     1       3.414  77.807   7.000  1.00  0.00     0.187 C 
BRANCH   7   8
ATOM      8  C   UNL     1       3.737  78.486   8.401  1.00  0.00     0.060 C 
ATOM      9  C   UNL     1       3.757  77.447   9.540  1.00  0.00     0.015 C 
BRANCH   8  10
ATOM     10  C   UNL     1       2.899  79.763   8.816  1.00  0.00     0.150 CG0
ATOM     11  G   UNL     1       1.925  80.215   7.744  1.00  0.00     0.000 G0
BRANCH  10  12
ATOM     12  O   UNL     1       3.750  80.868   9.129  1.00  0.00    -0.377 OA
ATOM     13  C   UNL     1       3.202  81.671  10.131  1.00  0.00     0.195 C 
ENDBRANCH  10  12
ENDBRANCH   8  10
ENDBRANCH   7   8
BRANCH   7  14
ATOM     14  O   UNL     1       2.630  78.700   6.192  1.00  0.00    -0.462 OA
BRANCH  14  15
ATOM     15  C   UNL     1       1.356  78.395   5.743  1.00  0.00     0.302 C 
ATOM     16  C   UNL     1       0.276  78.194   6.756  1.00  0.00     0.139 C 
ATOM     17  O   UNL     1       1.133  78.289   4.508  1.00  0.00    -0.253 OA
ENDBRANCH  14  15
ENDBRANCH   7  14
ENDBRANCH   5   7
ENDBRANCH   4   5
BRANCH   4  18
ATOM     18  O   UNL     1       3.316  77.072   4.042  1.00  0.00    -0.392 OA
ATOM     19  H   UNL     1       2.513  77.191   4.609  1.00  0.00     0.210 HD
ENDBRANCH   4  18
ENDBRANCH   2   4
ENDBRANCH   1   2
BRANCH   1  20
ATOM     20  C   UNL     1       5.626  75.795   1.751  1.00  0.00     0.038 C 
ATOM     21  C   UNL     1       4.495  74.822   2.063  1.00  0.00     0.015 C 
BRANCH  20  22
ATOM     22  C   UNL     1       5.934  75.744   0.250  1.00  0.00    -0.021 C 
ATOM     23  C   UNL     1       5.246  74.963  -0.576  1.00  0.00    -0.003 C 
BRANCH  23  24
ATOM     24  C   UNL     1       5.586  74.927  -2.028  1.00  0.00     0.009 C 
ATOM     25  C   UNL     1       6.830  74.838  -2.483  1.00  0.00     0.014 C 
ATOM     26  C   UNL     1       7.139  75.381  -3.852  1.00  0.00     0.050 C 
BRANCH  25  27
ATOM     27  C   UNL     1       7.913  74.028  -1.846  1.00  0.00     0.251 C 
ATOM     28  N   UNL     1       8.988  74.630  -1.064  1.00  0.00    -0.317 N 
ATOM     29  O   UNL     1       7.724  72.781  -1.714  1.00  0.00    -0.269 OA
ATOM     30  H   UNL     1       9.487  73.916  -0.496  1.00  0.00     0.170 HD
BRANCH  28  31
ATOM     31  C   UNL     1       9.887  75.640  -1.482  1.00  0.00     0.111 A 
ATOM     32  C   UNL     1       9.695  76.947  -0.997  1.00  0.00     0.153 A 
ATOM     33  C   UNL     1      10.756  75.491  -2.583  1.00  0.00     0.101 A 
ATOM     34  C   UNL     1      10.393  78.046  -1.512  1.00  0.00     0.071 A 
ATOM     35  C   UNL     1      11.550  76.528  -3.060  1.00  0.00     0.101 A 
ATOM     36  N   UNL     1      11.016  74.414  -3.374  1.00  0.00    -0.298 N 
ATOM     37  C   UNL     1      10.232  79.338  -0.941  1.00  0.00     0.133 A 
ATOM     38  C   UNL     1      11.380  77.840  -2.562  1.00  0.00     0.032 A 
ATOM     39  N   UNL     1      12.302  76.168  -4.121  1.00  0.00    -0.228 NA
ATOM     40  C   UNL     1      11.948  74.846  -4.244  1.00  0.00     0.138 A 
ATOM     41  C   UNL     1      10.492  73.129  -3.392  1.00  0.00     0.094 A 
ATOM     42  C   UNL     1      11.154  80.360  -1.236  1.00  0.00     0.035 A 
ATOM     43  C   UNL     1      12.123  78.977  -2.997  1.00  0.00     0.079 A 
ATOM     44  C   UNL     1      12.439  73.999  -5.239  1.00  0.00     0.051 A 
ATOM     45  C   UNL     1      10.953  72.256  -4.359  1.00  0.00     0.022 A 
ATOM     46  C   UNL     1      12.102  80.129  -2.215  1.00  0.00     0.143 A 
ATOM     47  C   UNL     1      11.038  81.691  -0.537  1.00  0.00     0.052 C 
ATOM     48  C   UNL     1      13.453  79.013  -3.665  1.00  0.00     0.251 C 
ATOM     49  C   UNL     1      11.929  72.679  -5.300  1.00  0.00    -0.046 A 
ATOM     50  O   UNL     1      13.298  80.833  -2.281  1.00  0.00    -0.444 OA
ATOM     51  C   UNL     1      14.308  79.999  -2.889  1.00  0.00     0.312 C 
ATOM     52  O   UNL     1      13.744  78.438  -4.736  1.00  0.00    -0.285 OA
ATOM     53  C   UNL     1      12.382  71.767  -6.419  1.00  0.00     0.044 C 
ATOM     54  C   UNL     1      14.991  79.165  -1.804  1.00  0.00     0.116 C 
BRANCH  32  55
ATOM     55  O   UNL     1       8.821  77.136   0.088  1.00  0.00    -0.505 OA
ATOM     56  H   UNL     1       7.873  76.761   0.077  1.00  0.00     0.293 HD
ENDBRANCH  32  55
BRANCH  37  57
ATOM     57  O   UNL     1       9.142  79.584  -0.096  1.00  0.00    -0.507 OA
ATOM     58  H   UNL     1       8.305  79.009  -0.034  1.00  0.00     0.293 HD
ENDBRANCH  37  57
BRANCH  51  59
ATOM     59  O   UNL     1      15.228  80.778  -3.698  1.00  0.00    -0.454 OA
BRANCH  59  60
ATOM     60  C   UNL     1      16.185  80.164  -4.556  1.00  0.00     0.191 C 
ATOM     61  C   UNL     1      17.120  80.821  -5.247  1.00  0.00     0.043 CG0
ATOM     62  G   UNL     1      18.317  80.206  -5.946  1.00  0.00     0.000 G0
ENDBRANCH  59  60
ENDBRANCH  51  59
ENDBRANCH  28  31
ENDBRANCH  25  27
ENDBRANCH  23  24
ENDBRANCH  20  22
ENDBRANCH   1  20
BRANCH   1  63
ATOM     63  O   UNL     1       5.957  78.114   1.238  1.00  0.00    -0.392 OA
ATOM     64  H   UNL     1       5.279  78.577   0.708  1.00  0.00     0.210 HD
ENDBRANCH   1  63
TORSDOF 7
ENDMDL
MODEL 3
REMARK VINA RESULT:     1.390      3.897      8.157
REMARK INTER + INTRA:           4.794
REMARK INTER:                   4.190
REMARK INTRA:                   0.604
REMARK UNBOUND:                 1.941
REMARK SMILES CO[C@H]1/C=C/O[C@@]2(C)Oc3c(C)c(O)c4c(O)c(c5c(nc6cc(C)ccn65)c4c3C2=O)NC(=O)/C(C)=C\C=C\[C@H](C)[C@H](O)[C@@H](C)[C@@H](O)[C@@H](C)[C@H](OC(C)=O)[C@@H]1C
REMARK SMILES IDX 43 1 45 2 46 3 47 4 49 5 50 6 51 7 56 8 57 9 3 10 2 12 1 13
REMARK SMILES IDX 52 14 53 15 54 16 55 17 48 18 41 20 42 21 40 22 39 23 38 24
REMARK SMILES IDX 36 25 37 26 34 27 33 28 35 29 18 31 16 32 19 33 15 34 20 35
REMARK SMILES IDX 28 36 13 37 29 38 21 39 22 40 27 41 11 42 30 43 23 44 26 45
REMARK SMILES IDX 10 46 12 47 31 48 24 49 9 50 7 51 32 52 25 53 8 54 17 55
REMARK SMILES IDX 14 57 6 59 5 60 4 61 44 63
REMARK H PARENT 48 19 33 30 17 56 14 58 44 64
REMARK Flexibility Score: 50.00
ROOT
ATOM      1  C   UNL     1       3.694  77.423   5.300  1.00  0.00     0.126 C 
ENDROOT
BRANCH   1   2
ATOM      2  C   UNL     1       2.675  78.233   6.198  1.00  0.00     0.044 C 
ATOM      3  C   UNL     1       1.259  77.594   6.122  1.00  0.00     0.013 C 
BRANCH   2   4
ATOM      4  C   UNL     1       3.149  78.351   7.713  1.00  0.00     0.126 C 
BRANCH   4   5
ATOM      5  C   UNL     1       2.820  79.751   8.358  1.00  0.00     0.056 C 
ATOM      6  C   UNL     1       1.326  80.099   8.161  1.00  0.00     0.014 C 
BRANCH   5   7
ATOM      7  C   UNL     1       3.208  79.745   9.884  1.00  0.00     0.187 C 
BRANCH   7   8
ATOM      8  C   UNL     1       2.438  80.730  10.867  1.00  0.00     0.060 C 
ATOM      9  C   UNL     1       0.911  80.551  10.762  1.00  0.00     0.015 C 
BRANCH   8  10
ATOM     10  C   UNL     1       2.831  82.264  10.834  1.00  0.00     0.150 CG0
ATOM     11  G   UNL     1       1.634  83.186  10.699  1.00  0.00     0.000 G0
BRANCH  10  12
ATOM     12  O   UNL     1       3.728  82.551   9.759  1.00  0.00    -0.377 OA
ATOM     13  C   UNL     1       4.888  83.180  10.214  1.00  0.00     0.195 C 
ENDBRANCH  10  12
ENDBRANCH   8  10
ENDBRANCH   7   8
BRANCH   7  14
ATOM     14  O   UNL     1       3.040  78.387  10.322  1.00  0.00    -0.462 OA
BRANCH  14  15
ATOM     15  C   UNL     1       4.098  77.575  10.698  1.00  0.00     0.302 C 
ATOM     16  C   UNL     1       5.443  78.201  10.879  1.00  0.00     0.139 C 
ATOM     17  O   UNL     1       3.913  76.342  10.872  1.00  0.00    -0.253 OA
ENDBRANCH  14  15
ENDBRANCH   7  14
ENDBRANCH   5   7
ENDBRANCH   4   5
BRANCH   4  18
ATOM     18  O   UNL     1       4.513  78.079   7.807  1.00  0.00    -0.392 OA
ATOM     19  H   UNL     1       4.922  78.212   6.916  1.00  0.00     0.210 HD
ENDBRANCH   4  18
ENDBRANCH   2   4
ENDBRANCH   1   2
BRANCH   1  20
ATOM     20  C   UNL     1       4.972  78.179   4.778  1.00  0.00     0.038 C 
ATOM     21  C   UNL     1       6.265  77.405   5.005  1.00  0.00     0.015 C 
BRANCH  20  22
ATOM     22  C   UNL     1       4.829  78.492   3.284  1.00  0.00    -0.021 C 
ATOM     23  C   UNL     1       5.798  78.214   2.418  1.00  0.00    -0.003 C 
BRANCH  23  24
ATOM     24  C   UNL     1       5.630  78.550   0.974  1.00  0.00     0.009 C 
ATOM     25  C   UNL     1       6.428  78.087   0.021  1.00  0.00     0.014 C 
ATOM     26  C   UNL     1       6.576  78.885  -1.248  1.00  0.00     0.050 C 
BRANCH  25  27
ATOM     27  C   UNL     1       7.018  76.714  -0.003  1.00  0.00     0.251 C 
ATOM     28  N   UNL     1       8.443  76.468   0.196  1.00  0.00    -0.317 N 
ATOM     29  O   UNL     1       6.233  75.726   0.121  1.00  0.00    -0.269 OA
ATOM     30  H   UNL     1       8.627  75.465   0.402  1.00  0.00     0.170 HD
BRANCH  28  31
ATOM     31  C   UNL     1       9.518  77.024  -0.537  1.00  0.00     0.111 A 
ATOM     32  C   UNL     1       9.796  78.393  -0.380  1.00  0.00     0.153 A 
ATOM     33  C   UNL     1      10.117  76.375  -1.638  1.00  0.00     0.101 A 
ATOM     34  C   UNL     1      10.692  79.076  -1.212  1.00  0.00     0.071 A 
ATOM     35  C   UNL     1      11.092  76.976  -2.426  1.00  0.00     0.101 A 
ATOM     36  N   UNL     1       9.921  75.130  -2.153  1.00  0.00    -0.298 N 
ATOM     37  C   UNL     1      11.008  80.440  -0.971  1.00  0.00     0.133 A 
ATOM     38  C   UNL     1      11.394  78.347  -2.260  1.00  0.00     0.032 A 
ATOM     39  N   UNL     1      11.525  76.179  -3.424  1.00  0.00    -0.228 NA
ATOM     40  C   UNL     1      10.787  75.046  -3.181  1.00  0.00     0.138 A 
ATOM     41  C   UNL     1       9.050  74.108  -1.804  1.00  0.00     0.094 A 
ATOM     42  C   UNL     1      12.129  81.026  -1.592  1.00  0.00     0.035 A 
ATOM     43  C   UNL     1      12.357  79.067  -3.028  1.00  0.00     0.079 A 
ATOM     44  C   UNL     1      10.842  73.897  -3.972  1.00  0.00     0.051 A 
ATOM     45  C   UNL     1       9.074  72.951  -2.558  1.00  0.00     0.022 A 
ATOM     46  C   UNL     1      12.798  80.301  -2.560  1.00  0.00     0.143 A 
ATOM     47  C   UNL     1      12.520  82.439  -1.241  1.00  0.00     0.052 C 
ATOM     48  C   UNL     1      13.514  78.531  -3.796  1.00  0.00     0.251 C 
ATOM     49  C   UNL     1       9.966  72.829  -3.656  1.00  0.00    -0.046 A 
ATOM     50  O   UNL     1      14.121  80.553  -2.903  1.00  0.00    -0.444 OA
ATOM     51  C   UNL     1      14.732  79.330  -3.369  1.00  0.00     0.312 C 
ATOM     52  O   UNL     1      13.448  77.682  -4.710  1.00  0.00    -0.285 OA
ATOM     53  C   UNL     1       9.948  71.606  -4.546  1.00  0.00     0.044 C 
ATOM     54  C   UNL     1      15.307  78.570  -2.173  1.00  0.00     0.116 C 
BRANCH  32  55
ATOM     55  O   UNL     1       9.201  79.077   0.695  1.00  0.00    -0.505 OA
ATOM     56  H   UNL     1       9.732  79.312   1.533  1.00  0.00     0.293 HD
ENDBRANCH  32  55
BRANCH  37  57
ATOM     57  O   UNL     1      10.189  81.196  -0.123  1.00  0.00    -0.507 OA
ATOM     58  H   UNL     1       9.308  81.629  -0.390  1.00  0.00     0.293 HD
ENDBRANCH  37  57
BRANCH  51  59
ATOM     59  O   UNL     1      15.697  79.584  -4.423  1.00  0.00    -0.454 OA
BRANCH  59  60
ATOM     60  C   UNL     1      15.484  80.579  -5.419  1.00  0.00     0.191 C 
ATOM     61  C   UNL     1      16.443  81.118  -6.176  1.00  0.00     0.043 CG0
ATOM     62  G   UNL     1      16.237  81.964  -7.418  1.00  0.00     0.000 G0
ENDBRANCH  59  60
ENDBRANCH  51  59
ENDBRANCH  28  31
ENDBRANCH  25  27
ENDBRANCH  23  24
ENDBRANCH  20  22
ENDBRANCH   1  20
BRANCH   1  63
ATOM     63  O   UNL     1       3.074  76.855   4.150  1.00  0.00    -0.392 OA
ATOM     64  H   UNL     1       2.380  77.459   3.822  1.00  0.00     0.210 HD
ENDBRANCH   1  63
TORSDOF 7
ENDMDL
MODEL 4
REMARK VINA RESULT:     1.554      1.730      3.809
REMARK INTER + INTRA:           5.131
REMARK INTER:                   6.067
REMARK INTRA:                  -0.937
REMARK UNBOUND:                 1.941
REMARK SMILES CO[C@H]1/C=C/O[C@@]2(C)Oc3c(C)c(O)c4c(O)c(c5c(nc6cc(C)ccn65)c4c3C2=O)NC(=O)/C(C)=C\C=C\[C@H](C)[C@H](O)[C@@H](C)[C@@H](O)[C@@H](C)[C@H](OC(C)=O)[C@@H]1C
REMARK SMILES IDX 43 1 45 2 46 3 47 4 49 5 50 6 51 7 56 8 57 9 3 10 2 12 1 13
REMARK SMILES IDX 52 14 53 15 54 16 55 17 48 18 41 20 42 21 40 22 39 23 38 24
REMARK SMILES IDX 36 25 37 26 34 27 33 28 35 29 18 31 16 32 19 33 15 34 20 35
REMARK SMILES IDX 28 36 13 37 29 38 21 39 22 40 27 41 11 42 30 43 23 44 26 45
REMARK SMILES IDX 10 46 12 47 31 48 24 49 9 50 7 51 32 52 25 53 8 54 17 55
REMARK SMILES IDX 14 57 6 59 5 60 4 61 44 63
REMARK H PARENT 48 19 33 30 17 56 14 58 44 64
REMARK Flexibility Score: 50.00
ROOT
ATOM      1  C   UNL     1       8.200  74.177  -2.423  1.00  0.00     0.126 C 
ENDROOT
BRANCH   1   2
ATOM      2  C   UNL     1       7.787  75.655  -2.044  1.00  0.00     0.044 C 
ATOM      3  C   UNL     1       7.792  76.561  -3.308  1.00  0.00     0.013 C 
BRANCH   2   4
ATOM      4  C   UNL     1       6.374  75.731  -1.314  1.00  0.00     0.126 C 
BRANCH   4   5
ATOM      5  C   UNL     1       6.469  76.267   0.165  1.00  0.00     0.056 C 
ATOM      6  C   UNL     1       7.881  76.014   0.742  1.00  0.00     0.014 C 
BRANCH   5   7
ATOM      7  C   UNL     1       6.101  77.797   0.207  1.00  0.00     0.187 C 
BRANCH   7   8
ATOM      8  C   UNL     1       5.253  78.340   1.438  1.00  0.00     0.060 C 
ATOM      9  C   UNL     1       5.733  79.736   1.880  1.00  0.00     0.015 C 
BRANCH   8  10
ATOM     10  C   UNL     1       5.064  77.385   2.686  1.00  0.00     0.150 CG0
ATOM     11  G   UNL     1       3.622  77.274   3.142  1.00  0.00     0.000 G0
BRANCH  10  12
ATOM     12  O   UNL     1       5.843  77.823   3.801  1.00  0.00    -0.377 OA
ATOM     13  C   UNL     1       5.151  77.667   5.003  1.00  0.00     0.195 C 
ENDBRANCH  10  12
ENDBRANCH   8  10
ENDBRANCH   7   8
BRANCH   7  14
ATOM     14  O   UNL     1       7.352  78.500   0.126  1.00  0.00    -0.462 OA
BRANCH  14  15
ATOM     15  C   UNL     1       7.580  79.543  -0.756  1.00  0.00     0.302 C 
ATOM     16  C   UNL     1       8.527  80.624  -0.347  1.00  0.00     0.139 C 
ATOM     17  O   UNL     1       6.989  79.566  -1.868  1.00  0.00    -0.253 OA
ENDBRANCH  14  15
ENDBRANCH   7  14
ENDBRANCH   5   7
ENDBRANCH   4   5
BRANCH   4  18
ATOM     18  O   UNL     1       5.757  74.481  -1.342  1.00  0.00    -0.392 OA
ATOM     19  H   UNL     1       6.353  73.826  -0.902  1.00  0.00     0.210 HD
ENDBRANCH   4  18
ENDBRANCH   2   4
ENDBRANCH   1   2
BRANCH   1  20
ATOM     20  C   UNL     1       9.227  73.439  -1.486  1.00  0.00     0.038 C 
ATOM     21  C   UNL     1       9.824  72.185  -2.113  1.00  0.00     0.015 C 
BRANCH  20  22
ATOM     22  C   UNL     1      10.361  74.391  -1.088  1.00  0.00    -0.021 C 
ATOM     23  C   UNL     1      10.531  74.787   0.169  1.00  0.00    -0.003 C 
BRANCH  23  24
ATOM     24  C   UNL     1      11.635  75.729   0.514  1.00  0.00     0.009 C 
ATOM     25  C   UNL     1      11.977  76.760  -0.248  1.00  0.00     0.014 C 
ATOM     26  C   UNL     1      13.388  77.280  -0.169  1.00  0.00     0.050 C 
BRANCH  25  27
ATOM     27  C   UNL     1      11.014  77.610  -1.012  1.00  0.00     0.251 C 
ATOM     28  N   UNL     1      11.034  77.703  -2.469  1.00  0.00    -0.317 N 
ATOM     29  O   UNL     1       9.967  78.007  -0.417  1.00  0.00    -0.269 OA
ATOM     30  H   UNL     1      10.153  78.121  -2.832  1.00  0.00     0.170 HD
BRANCH  28  31
ATOM     31  C   UNL     1      12.127  78.074  -3.287  1.00  0.00     0.111 A 
ATOM     32  C   UNL     1      12.385  79.444  -3.476  1.00  0.00     0.153 A 
ATOM     33  C   UNL     1      12.771  77.177  -4.167  1.00  0.00     0.101 A 
ATOM     34  C   UNL     1      13.303  79.908  -4.428  1.00  0.00     0.071 A 
ATOM     35  C   UNL     1      13.765  77.576  -5.052  1.00  0.00     0.101 A 
ATOM     36  N   UNL     1      12.605  75.839  -4.353  1.00  0.00    -0.298 N 
ATOM     37  C   UNL     1      13.596  81.294  -4.533  1.00  0.00     0.133 A 
ATOM     38  C   UNL     1      14.047  78.950  -5.233  1.00  0.00     0.032 A 
ATOM     39  N   UNL     1      14.241  76.559  -5.800  1.00  0.00    -0.228 NA
ATOM     40  C   UNL     1      13.506  75.512  -5.299  1.00  0.00     0.138 A 
ATOM     41  C   UNL     1      11.733  74.924  -3.781  1.00  0.00     0.094 A 
ATOM     42  C   UNL     1      14.731  81.723  -5.249  1.00  0.00     0.035 A 
ATOM     43  C   UNL     1      15.028  79.468  -6.130  1.00  0.00     0.079 A 
ATOM     44  C   UNL     1      13.600  74.201  -5.768  1.00  0.00     0.051 A 
ATOM     45  C   UNL     1      11.796  73.613  -4.214  1.00  0.00     0.022 A 
ATOM     46  C   UNL     1      15.440  80.789  -5.979  1.00  0.00     0.143 A 
ATOM     47  C   UNL     1      15.095  83.187  -5.259  1.00  0.00     0.052 C 
ATOM     48  C   UNL     1      16.216  78.776  -6.701  1.00  0.00     0.251 C 
ATOM     49  C   UNL     1      12.725  73.232  -5.217  1.00  0.00    -0.046 A 
ATOM     50  O   UNL     1      16.772  80.970  -6.335  1.00  0.00    -0.444 OA
ATOM     51  C   UNL     1      17.411  79.680  -6.454  1.00  0.00     0.312 C 
ATOM     52  O   UNL     1      16.191  77.720  -7.369  1.00  0.00    -0.285 OA
ATOM     53  C   UNL     1      12.751  71.822  -5.765  1.00  0.00     0.044 C 
ATOM     54  C   UNL     1      17.953  79.261  -5.087  1.00  0.00     0.116 C 
BRANCH  32  55
ATOM     55  O   UNL     1      11.747  80.368  -2.630  1.00  0.00    -0.505 OA
ATOM     56  H   UNL     1      10.854  80.789  -2.883  1.00  0.00     0.293 HD
ENDBRANCH  32  55
BRANCH  37  57
ATOM     57  O   UNL     1      12.740  82.226  -3.932  1.00  0.00    -0.507 OA
ATOM     58  H   UNL     1      12.036  82.776  -4.418  1.00  0.00     0.293 HD
ENDBRANCH  37  57
BRANCH  51  59
ATOM     59  O   UNL     1      18.409  79.675  -7.509  1.00  0.00    -0.454 OA
BRANCH  59  60
ATOM     60  C   UNL     1      18.737  80.850  -8.244  1.00  0.00     0.191 C 
ATOM     61  C   UNL     1      19.880  81.530  -8.121  1.00  0.00     0.043 CG0
ATOM     62  G   UNL     1      20.388  82.608  -9.059  1.00  0.00     0.000 G0
ENDBRANCH  59  60
ENDBRANCH  51  59
ENDBRANCH  28  31
ENDBRANCH  25  27
ENDBRANCH  23  24
ENDBRANCH  20  22
ENDBRANCH   1  20
BRANCH   1  63
ATOM     63  O   UNL     1       8.730  74.081  -3.742  1.00  0.00    -0.392 OA
ATOM     64  H   UNL     1       8.010  74.200  -4.392  1.00  0.00     0.210 HD
ENDBRANCH   1  63
TORSDOF 7
ENDMDL
MODEL 5
REMARK VINA RESULT:     1.760      2.675      6.886
REMARK INTER + INTRA:           5.552
REMARK INTER:                   6.066
REMARK INTRA:                  -0.514
REMARK UNBOUND:                 1.941
REMARK SMILES CO[C@H]1/C=C/O[C@@]2(C)Oc3c(C)c(O)c4c(O)c(c5c(nc6cc(C)ccn65)c4c3C2=O)NC(=O)/C(C)=C\C=C\[C@H](C)[C@H](O)[C@@H](C)[C@@H](O)[C@@H](C)[C@H](OC(C)=O)[C@@H]1C
REMARK SMILES IDX 43 1 45 2 46 3 47 4 49 5 50 6 51 7 56 8 57 9 3 10 2 12 1 13
REMARK SMILES IDX 52 14 53 15 54 16 55 17 48 18 41 20 42 21 40 22 39 23 38 24
REMARK SMILES IDX 36 25 37 26 34 27 33 28 35 29 18 31 16 32 19 33 15 34 20 35
REMARK SMILES IDX 28 36 13 37 29 38 21 39 22 40 27 41 11 42 30 43 23 44 26 45
REMARK SMILES IDX 10 46 12 47 31 48 24 49 9 50 7 51 32 52 25 53 8 54 17 55
REMARK SMILES IDX 14 57 6 59 5 60 4 61 44 63
REMARK H PARENT 48 19 33 30 17 56 14 58 44 64
REMARK Flexibility Score: 50.00
ROOT
ATOM      1  C   UNL     1       5.190  77.175   2.129  1.00  0.00     0.126 C 
ENDROOT
BRANCH   1   2
ATOM      2  C   UNL     1       5.637  77.651   3.570  1.00  0.00     0.044 C 
ATOM      3  C   UNL     1       6.447  78.975   3.477  1.00  0.00     0.013 C 
BRANCH   2   4
ATOM      4  C   UNL     1       4.409  77.822   4.569  1.00  0.00     0.126 C 
BRANCH   4   5
ATOM      5  C   UNL     1       4.764  77.445   6.057  1.00  0.00     0.056 C 
ATOM      6  C   UNL     1       6.226  77.832   6.378  1.00  0.00     0.014 C 
BRANCH   5   7
ATOM      7  C   UNL     1       3.759  78.148   7.045  1.00  0.00     0.187 C 
BRANCH   7   8
ATOM      8  C   UNL     1       2.414  77.390   7.425  1.00  0.00     0.060 C 
ATOM      9  C   UNL     1       2.632  75.867   7.514  1.00  0.00     0.015 C 
BRANCH   8  10
ATOM     10  C   UNL     1       1.112  77.727   6.590  1.00  0.00     0.150 CG0
ATOM     11  G   UNL     1       0.682  76.601   5.670  1.00  0.00     0.000 G0
BRANCH  10  12
ATOM     12  O   UNL     1       1.292  78.900   5.793  1.00  0.00    -0.377 OA
ATOM     13  C   UNL     1       1.132  78.625   4.434  1.00  0.00     0.195 C 
ENDBRANCH  10  12
ENDBRANCH   8  10
ENDBRANCH   7   8
BRANCH   7  14
ATOM     14  O   UNL     1       4.515  78.431   8.233  1.00  0.00    -0.462 OA
BRANCH  14  15
ATOM     15  C   UNL     1       3.968  79.030   9.356  1.00  0.00     0.302 C 
ATOM     16  C   UNL     1       3.095  80.227   9.166  1.00  0.00     0.139 C 
ATOM     17  O   UNL     1       4.218  78.567  10.500  1.00  0.00    -0.253 OA
ENDBRANCH  14  15
ENDBRANCH   7  14
ENDBRANCH   5   7
ENDBRANCH   4   5
BRANCH   4  18
ATOM     18  O   UNL     1       3.323  77.071   4.121  1.00  0.00    -0.392 OA
ATOM     19  H   UNL     1       3.469  76.844   3.169  1.00  0.00     0.210 HD
ENDBRANCH   4  18
ENDBRANCH   2   4
ENDBRANCH   1   2
BRANCH   1  20
ATOM     20  C   UNL     1       5.576  75.715   1.688  1.00  0.00     0.038 C 
ATOM     21  C   UNL     1       4.482  74.691   1.966  1.00  0.00     0.015 C 
BRANCH  20  22
ATOM     22  C   UNL     1       5.922  75.686   0.194  1.00  0.00    -0.021 C 
ATOM     23  C   UNL     1       5.265  74.908  -0.659  1.00  0.00    -0.003 C 
BRANCH  23  24
ATOM     24  C   UNL     1       5.644  74.894  -2.102  1.00  0.00     0.009 C 
ATOM     25  C   UNL     1       6.900  74.831  -2.525  1.00  0.00     0.014 C 
ATOM     26  C   UNL     1       7.235  75.395  -3.880  1.00  0.00     0.050 C 
BRANCH  25  27
ATOM     27  C   UNL     1       7.980  74.034  -1.869  1.00  0.00     0.251 C 
ATOM     28  N   UNL     1       9.041  74.649  -1.077  1.00  0.00    -0.317 N 
ATOM     29  O   UNL     1       7.799  72.786  -1.729  1.00  0.00    -0.269 OA
ATOM     30  H   UNL     1       9.538  73.943  -0.498  1.00  0.00     0.170 HD
BRANCH  28  31
ATOM     31  C   UNL     1       9.938  75.663  -1.491  1.00  0.00     0.111 A 
ATOM     32  C   UNL     1       9.741  76.968  -1.004  1.00  0.00     0.153 A 
ATOM     33  C   UNL     1      10.810  75.519  -2.591  1.00  0.00     0.101 A 
ATOM     34  C   UNL     1      10.437  78.071  -1.515  1.00  0.00     0.071 A 
ATOM     35  C   UNL     1      11.602  76.559  -3.063  1.00  0.00     0.101 A 
ATOM     36  N   UNL     1      11.075  74.444  -3.382  1.00  0.00    -0.298 N 
ATOM     37  C   UNL     1      10.270  79.360  -0.942  1.00  0.00     0.133 A 
ATOM     38  C   UNL     1      11.427  77.870  -2.564  1.00  0.00     0.032 A 
ATOM     39  N   UNL     1      12.358  76.203  -4.123  1.00  0.00    -0.228 NA
ATOM     40  C   UNL     1      12.009  74.881  -4.250  1.00  0.00     0.138 A 
ATOM     41  C   UNL     1      10.556  73.157  -3.405  1.00  0.00     0.094 A 
ATOM     42  C   UNL     1      11.191  80.387  -1.234  1.00  0.00     0.035 A 
ATOM     43  C   UNL     1      12.168  79.010  -2.995  1.00  0.00     0.079 A 
ATOM     44  C   UNL     1      12.504  74.037  -5.245  1.00  0.00     0.051 A 
ATOM     45  C   UNL     1      11.021  72.288  -4.372  1.00  0.00     0.022 A 
ATOM     46  C   UNL     1      12.141  80.160  -2.210  1.00  0.00     0.143 A 
ATOM     47  C   UNL     1      11.069  81.716  -0.532  1.00  0.00     0.052 C 
ATOM     48  C   UNL     1      13.499  79.051  -3.659  1.00  0.00     0.251 C 
ATOM     49  C   UNL     1      11.998  72.715  -5.310  1.00  0.00    -0.046 A 
ATOM     50  O   UNL     1      13.336  80.868  -2.272  1.00  0.00    -0.444 OA
ATOM     51  C   UNL     1      14.350  80.038  -2.879  1.00  0.00     0.312 C 
ATOM     52  O   UNL     1      13.794  78.479  -4.731  1.00  0.00    -0.285 OA
ATOM     53  C   UNL     1      12.457  71.807  -6.430  1.00  0.00     0.044 C 
ATOM     54  C   UNL     1      15.032  79.204  -1.794  1.00  0.00     0.116 C 
BRANCH  32  55
ATOM     55  O   UNL     1       8.864  77.152   0.079  1.00  0.00    -0.505 OA
ATOM     56  H   UNL     1       8.694  78.077   0.473  1.00  0.00     0.293 HD
ENDBRANCH  32  55
BRANCH  37  57
ATOM     57  O   UNL     1       9.178  79.602  -0.099  1.00  0.00    -0.507 OA
ATOM     58  H   UNL     1       8.870  78.990   0.653  1.00  0.00     0.293 HD
ENDBRANCH  37  57
BRANCH  51  59
ATOM     59  O   UNL     1      15.269  80.821  -3.684  1.00  0.00    -0.454 OA
BRANCH  59  60
ATOM     60  C   UNL     1      15.956  80.266  -4.802  1.00  0.00     0.191 C 
ATOM     61  C   UNL     1      17.156  80.663  -5.232  1.00  0.00     0.043 CG0
ATOM     62  G   UNL     1      18.038  79.935  -6.228  1.00  0.00     0.000 G0
ENDBRANCH  59  60
ENDBRANCH  51  59
ENDBRANCH  28  31
ENDBRANCH  25  27
ENDBRANCH  23  24
ENDBRANCH  20  22
ENDBRANCH   1  20
BRANCH   1  63
ATOM     63  O   UNL     1       5.666  78.038   1.100  1.00  0.00    -0.392 OA
ATOM     64  H   UNL     1       5.752  77.534   0.267  1.00  0.00     0.210 HD
ENDBRANCH   1  63
TORSDOF 7
ENDMDL
MODEL 6
REMARK VINA RESULT:     2.204      2.063     11.623
REMARK INTER + INTRA:           6.464
REMARK INTER:                   5.743
REMARK INTRA:                   0.721
REMARK UNBOUND:                 1.941
REMARK SMILES CO[C@H]1/C=C/O[C@@]2(C)Oc3c(C)c(O)c4c(O)c(c5c(nc6cc(C)ccn65)c4c3C2=O)NC(=O)/C(C)=C\C=C\[C@H](C)[C@H](O)[C@@H](C)[C@@H](O)[C@@H](C)[C@H](OC(C)=O)[C@@H]1C
REMARK SMILES IDX 43 1 45 2 46 3 47 4 49 5 50 6 51 7 56 8 57 9 3 10 2 12 1 13
REMARK SMILES IDX 52 14 53 15 54 16 55 17 48 18 41 20 42 21 40 22 39 23 38 24
REMARK SMILES IDX 36 25 37 26 34 27 33 28 35 29 18 31 16 32 19 33 15 34 20 35
REMARK SMILES IDX 28 36 13 37 29 38 21 39 22 40 27 41 11 42 30 43 23 44 26 45
REMARK SMILES IDX 10 46 12 47 31 48 24 49 9 50 7 51 32 52 25 53 8 54 17 55
REMARK SMILES IDX 14 57 6 59 5 60 4 61 44 63
REMARK H PARENT 48 19 33 30 17 56 14 58 44 64
REMARK Flexibility Score: 50.00
ROOT
ATOM      1  C   UNL     1      15.308  79.562  -6.277  1.00  0.00     0.126 C 
ENDROOT
BRANCH   1   2
ATOM      2  C   UNL     1      16.753  78.921  -6.309  1.00  0.00     0.044 C 
ATOM      3  C   UNL     1      17.274  78.830  -7.771  1.00  0.00     0.013 C 
BRANCH   2   4
ATOM      4  C   UNL     1      17.795  79.707  -5.397  1.00  0.00     0.126 C 
BRANCH   4   5
ATOM      5  C   UNL     1      17.951  81.222  -5.801  1.00  0.00     0.056 C 
ATOM      6  C   UNL     1      17.541  82.140  -4.626  1.00  0.00     0.014 C 
BRANCH   5   7
ATOM      7  C   UNL     1      19.431  81.507  -6.258  1.00  0.00     0.187 C 
BRANCH   7   8
ATOM      8  C   UNL     1      19.692  81.915  -7.772  1.00  0.00     0.060 C 
ATOM      9  C   UNL     1      20.509  83.218  -7.872  1.00  0.00     0.015 C 
BRANCH   8  10
ATOM     10  C   UNL     1      18.452  81.949  -8.755  1.00  0.00     0.150 CG0
ATOM     11  G   UNL     1      18.626  82.921  -9.906  1.00  0.00     0.000 G0
BRANCH  10  12
ATOM     12  O   UNL     1      17.249  82.297  -8.066  1.00  0.00    -0.377 OA
ATOM     13  C   UNL     1      16.149  82.306  -8.925  1.00  0.00     0.195 C 
ENDBRANCH  10  12
ENDBRANCH   8  10
ENDBRANCH   7   8
BRANCH   7  14
ATOM     14  O   UNL     1      19.916  82.538  -5.382  1.00  0.00    -0.462 OA
BRANCH  14  15
ATOM     15  C   UNL     1      20.396  82.287  -4.107  1.00  0.00     0.302 C 
ATOM     16  C   UNL     1      20.630  83.448  -3.196  1.00  0.00     0.139 C 
ATOM     17  O   UNL     1      20.631  81.103  -3.747  1.00  0.00    -0.253 OA
ENDBRANCH  14  15
ENDBRANCH   7  14
ENDBRANCH   5   7
ENDBRANCH   4   5
BRANCH   4  18
ATOM     18  O   UNL     1      19.031  79.064  -5.425  1.00  0.00    -0.392 OA
ATOM     19  H   UNL     1      19.694  79.675  -5.834  1.00  0.00     0.210 HD
ENDBRANCH   4  18
ENDBRANCH   2   4
ENDBRANCH   1   2
BRANCH   1  20
ATOM     20  C   UNL     1      14.935  80.469  -5.045  1.00  0.00     0.038 C 
ATOM     21  C   UNL     1      13.812  81.455  -5.340  1.00  0.00     0.015 C 
BRANCH  20  22
ATOM     22  C   UNL     1      14.539  79.599  -3.846  1.00  0.00    -0.021 C 
ATOM     23  C   UNL     1      15.240  79.607  -2.718  1.00  0.00    -0.003 C 
BRANCH  23  24
ATOM     24  C   UNL     1      14.834  78.733  -1.579  1.00  0.00     0.009 C 
ATOM     25  C   UNL     1      13.674  78.090  -1.532  1.00  0.00     0.014 C 
ATOM     26  C   UNL     1      13.098  77.737  -0.187  1.00  0.00     0.050 C 
BRANCH  25  27
ATOM     27  C   UNL     1      12.995  77.472  -2.711  1.00  0.00     0.251 C 
ATOM     28  N   UNL     1      11.620  77.790  -3.082  1.00  0.00    -0.317 N 
ATOM     29  O   UNL     1      13.718  76.907  -3.586  1.00  0.00    -0.269 OA
ATOM     30  H   UNL     1      11.408  77.476  -4.051  1.00  0.00     0.170 HD
BRANCH  28  31
ATOM     31  C   UNL     1      10.468  77.681  -2.267  1.00  0.00     0.111 A 
ATOM     32  C   UNL     1       9.538  76.667  -2.558  1.00  0.00     0.153 A 
ATOM     33  C   UNL     1      10.041  78.705  -1.395  1.00  0.00     0.101 A 
ATOM     34  C   UNL     1       8.276  76.611  -1.950  1.00  0.00     0.071 A 
ATOM     35  C   UNL     1       8.847  78.641  -0.686  1.00  0.00     0.101 A 
ATOM     36  N   UNL     1      10.626  79.887  -1.056  1.00  0.00    -0.298 N 
ATOM     37  C   UNL     1       7.396  75.526  -2.209  1.00  0.00     0.133 A 
ATOM     38  C   UNL     1       7.916  77.612  -0.956  1.00  0.00     0.032 A 
ATOM     39  N   UNL     1       8.636  79.727   0.086  1.00  0.00    -0.228 NA
ATOM     40  C   UNL     1       9.782  80.441  -0.164  1.00  0.00     0.138 A 
ATOM     41  C   UNL     1      11.798  80.497  -1.478  1.00  0.00     0.094 A 
ATOM     42  C   UNL     1       6.287  75.302  -1.370  1.00  0.00     0.035 A 
ATOM     43  C   UNL     1       6.654  77.466  -0.305  1.00  0.00     0.079 A 
ATOM     44  C   UNL     1      10.052  81.696   0.385  1.00  0.00     0.051 A 
ATOM     45  C   UNL     1      12.106  81.738  -0.955  1.00  0.00     0.022 A 
ATOM     46  C   UNL     1       5.984  76.251  -0.413  1.00  0.00     0.143 A 
ATOM     47  C   UNL     1       5.425  74.083  -1.586  1.00  0.00     0.052 C 
ATOM     48  C   UNL     1       6.226  78.006   1.014  1.00  0.00     0.251 C 
ATOM     49  C   UNL     1      11.236  82.359  -0.021  1.00  0.00    -0.046 A 
ATOM     50  O   UNL     1       5.241  75.956   0.725  1.00  0.00    -0.444 OA
ATOM     51  C   UNL     1       5.637  76.844   1.794  1.00  0.00     0.312 C 
ATOM     52  O   UNL     1       6.235  79.212   1.343  1.00  0.00    -0.285 OA
ATOM     53  C   UNL     1      11.511  83.755   0.497  1.00  0.00     0.044 C 
ATOM     54  C   UNL     1       6.819  76.229   2.545  1.00  0.00     0.116 C 
BRANCH  32  55
ATOM     55  O   UNL     1       9.921  75.640  -3.438  1.00  0.00    -0.505 OA
ATOM     56  H   UNL     1       9.284  74.881  -3.677  1.00  0.00     0.293 HD
ENDBRANCH  32  55
BRANCH  37  57
ATOM     57  O   UNL     1       7.636  74.694  -3.309  1.00  0.00    -0.507 OA
ATOM     58  H   UNL     1       7.117  74.713  -4.184  1.00  0.00     0.293 HD
ENDBRANCH  37  57
BRANCH  51  59
ATOM     59  O   UNL     1       4.513  77.187   2.646  1.00  0.00    -0.454 OA
BRANCH  59  60
ATOM     60  C   UNL     1       4.692  77.764   3.936  1.00  0.00     0.191 C 
ATOM     61  C   UNL     1       3.973  77.451   5.017  1.00  0.00     0.043 CG0
ATOM     62  G   UNL     1       4.298  77.825   6.450  1.00  0.00     0.000 G0
ENDBRANCH  59  60
ENDBRANCH  51  59
ENDBRANCH  28  31
ENDBRANCH  25  27
ENDBRANCH  23  24
ENDBRANCH  20  22
ENDBRANCH   1  20
BRANCH   1  63
ATOM     63  O   UNL     1      14.276  78.584  -6.373  1.00  0.00    -0.392 OA
ATOM     64  H   UNL     1      14.667  77.719  -6.606  1.00  0.00     0.210 HD
ENDBRANCH   1  63
TORSDOF 7
ENDMDL
MODEL 7
REMARK VINA RESULT:     2.220      2.171     11.635
REMARK INTER + INTRA:           6.497
REMARK INTER:                   6.042
REMARK INTRA:                   0.455
REMARK UNBOUND:                 1.941
REMARK SMILES CO[C@H]1/C=C/O[C@@]2(C)Oc3c(C)c(O)c4c(O)c(c5c(nc6cc(C)ccn65)c4c3C2=O)NC(=O)/C(C)=C\C=C\[C@H](C)[C@H](O)[C@@H](C)[C@@H](O)[C@@H](C)[C@H](OC(C)=O)[C@@H]1C
REMARK SMILES IDX 43 1 45 2 46 3 47 4 49 5 50 6 51 7 56 8 57 9 3 10 2 12 1 13
REMARK SMILES IDX 52 14 53 15 54 16 55 17 48 18 41 20 42 21 40 22 39 23 38 24
REMARK SMILES IDX 36 25 37 26 34 27 33 28 35 29 18 31 16 32 19 33 15 34 20 35
REMARK SMILES IDX 28 36 13 37 29 38 21 39 22 40 27 41 11 42 30 43 23 44 26 45
REMARK SMILES IDX 10 46 12 47 31 48 24 49 9 50 7 51 32 52 25 53 8 54 17 55
REMARK SMILES IDX 14 57 6 59 5 60 4 61 44 63
REMARK H PARENT 48 19 33 30 17 56 14 58 44 64
REMARK Flexibility Score: 50.00
ROOT
ATOM      1  C   UNL     1      15.172  80.977  -4.787  1.00  0.00     0.126 C 
ENDROOT
BRANCH   1   2
ATOM      2  C   UNL     1      15.366  79.623  -5.582  1.00  0.00     0.044 C 
ATOM      3  C   UNL     1      13.987  79.042  -6.007  1.00  0.00     0.013 C 
BRANCH   2   4
ATOM      4  C   UNL     1      16.314  79.786  -6.851  1.00  0.00     0.126 C 
BRANCH   4   5
ATOM      5  C   UNL     1      17.762  79.209  -6.620  1.00  0.00     0.056 C 
ATOM      6  C   UNL     1      18.246  78.445  -7.874  1.00  0.00     0.014 C 
BRANCH   5   7
ATOM      7  C   UNL     1      18.752  80.375  -6.245  1.00  0.00     0.187 C 
BRANCH   7   8
ATOM      8  C   UNL     1      19.946  80.064  -5.242  1.00  0.00     0.060 C 
ATOM      9  C   UNL     1      19.564  78.959  -4.238  1.00  0.00     0.015 C 
BRANCH   8  10
ATOM     10  C   UNL     1      20.631  81.286  -4.505  1.00  0.00     0.150 CG0
ATOM     11  G   UNL     1      21.406  80.880  -3.266  1.00  0.00     0.000 G0
BRANCH  10  12
ATOM     12  O   UNL     1      19.669  82.269  -4.117  1.00  0.00    -0.377 OA
ATOM     13  C   UNL     1      20.283  83.446  -3.686  1.00  0.00     0.195 C 
ENDBRANCH  10  12
ENDBRANCH   8  10
ENDBRANCH   7   8
BRANCH   7  14
ATOM     14  O   UNL     1      19.274  80.858  -7.494  1.00  0.00    -0.462 OA
BRANCH  14  15
ATOM     15  C   UNL     1      19.230  82.190  -7.871  1.00  0.00     0.302 C 
ATOM     16  C   UNL     1      20.377  83.071  -7.494  1.00  0.00     0.139 C 
ATOM     17  O   UNL     1      18.237  82.631  -8.508  1.00  0.00    -0.253 OA
ENDBRANCH  14  15
ENDBRANCH   7  14
ENDBRANCH   5   7
ENDBRANCH   4   5
BRANCH   4  18
ATOM     18  O   UNL     1      16.376  81.126  -7.230  1.00  0.00    -0.392 OA
ATOM     19  H   UNL     1      15.510  81.377  -7.639  1.00  0.00     0.210 HD
ENDBRANCH   4  18
ENDBRANCH   2   4
ENDBRANCH   1   2
BRANCH   1  20
ATOM     20  C   UNL     1      13.825  81.177  -3.999  1.00  0.00     0.038 C 
ATOM     21  C   UNL     1      12.595  81.192  -4.898  1.00  0.00     0.015 C 
BRANCH  20  22
ATOM     22  C   UNL     1      13.661  80.079  -2.941  1.00  0.00    -0.021 C 
ATOM     23  C   UNL     1      14.655  79.741  -2.127  1.00  0.00    -0.003 C 
BRANCH  23  24
ATOM     24  C   UNL     1      14.463  78.655  -1.123  1.00  0.00     0.009 C 
ATOM     25  C   UNL     1      13.379  77.891  -1.075  1.00  0.00     0.014 C 
ATOM     26  C   UNL     1      12.995  77.264   0.239  1.00  0.00     0.050 C 
BRANCH  25  27
ATOM     27  C   UNL     1      12.629  77.402  -2.272  1.00  0.00     0.251 C 
ATOM     28  N   UNL     1      11.289  77.875  -2.606  1.00  0.00    -0.317 N 
ATOM     29  O   UNL     1      13.282  76.810  -3.183  1.00  0.00    -0.269 OA
ATOM     30  H   UNL     1      11.036  77.631  -3.585  1.00  0.00     0.170 HD
BRANCH  28  31
ATOM     31  C   UNL     1      10.141  77.844  -1.780  1.00  0.00     0.111 A 
ATOM     32  C   UNL     1       9.175  76.848  -2.015  1.00  0.00     0.153 A 
ATOM     33  C   UNL     1       9.755  78.922  -0.955  1.00  0.00     0.101 A 
ATOM     34  C   UNL     1       7.918  76.863  -1.397  1.00  0.00     0.071 A 
ATOM     35  C   UNL     1       8.565  78.931  -0.237  1.00  0.00     0.101 A 
ATOM     36  N   UNL     1      10.380  80.099  -0.677  1.00  0.00    -0.298 N 
ATOM     37  C   UNL     1       7.001  75.797  -1.598  1.00  0.00     0.133 A 
ATOM     38  C   UNL     1       7.598  77.922  -0.450  1.00  0.00     0.032 A 
ATOM     39  N   UNL     1       8.395  80.059   0.484  1.00  0.00    -0.228 NA
ATOM     40  C   UNL     1       9.562  80.723   0.192  1.00  0.00     0.138 A 
ATOM     41  C   UNL     1      11.569  80.649  -1.135  1.00  0.00     0.094 A 
ATOM     42  C   UNL     1       5.891  75.650  -0.743  1.00  0.00     0.035 A 
ATOM     43  C   UNL     1       6.338  77.850   0.214  1.00  0.00     0.079 A 
ATOM     44  C   UNL     1       9.878  81.993   0.679  1.00  0.00     0.051 A 
ATOM     45  C   UNL     1      11.921  81.902  -0.675  1.00  0.00     0.022 A 
ATOM     46  C   UNL     1       5.627  76.653   0.170  1.00  0.00     0.143 A 
ATOM     47  C   UNL     1       4.989  74.452  -0.894  1.00  0.00     0.052 C 
ATOM     48  C   UNL     1       5.938  78.466   1.509  1.00  0.00     0.251 C 
ATOM     49  C   UNL     1      11.080  82.596   0.234  1.00  0.00    -0.046 A 
ATOM     50  O   UNL     1       4.884  76.439   1.325  1.00  0.00    -0.444 OA
ATOM     51  C   UNL     1       5.317  77.362   2.348  1.00  0.00     0.312 C 
ATOM     52  O   UNL     1       5.989  79.685   1.779  1.00  0.00    -0.285 OA
ATOM     53  C   UNL     1      11.404  84.005   0.682  1.00  0.00     0.044 C 
ATOM     54  C   UNL     1       6.484  76.745   3.120  1.00  0.00     0.116 C 
BRANCH  32  55
ATOM     55  O   UNL     1       9.518  75.768  -2.847  1.00  0.00    -0.505 OA
ATOM     56  H   UNL     1      10.452  75.360  -2.829  1.00  0.00     0.293 HD
ENDBRANCH  32  55
BRANCH  37  57
ATOM     57  O   UNL     1       7.204  74.906  -2.659  1.00  0.00    -0.507 OA
ATOM     58  H   UNL     1       8.111  74.631  -3.029  1.00  0.00     0.293 HD
ENDBRANCH  37  57
BRANCH  51  59
ATOM     59  O   UNL     1       4.212  77.784   3.189  1.00  0.00    -0.454 OA
BRANCH  59  60
ATOM     60  C   UNL     1       4.133  77.428   4.566  1.00  0.00     0.191 C 
ATOM     61  C   UNL     1       3.015  77.450   5.296  1.00  0.00     0.043 CG0
ATOM     62  G   UNL     1       2.824  76.828   6.666  1.00  0.00     0.000 G0
ENDBRANCH  59  60
ENDBRANCH  51  59
ENDBRANCH  28  31
ENDBRANCH  25  27
ENDBRANCH  23  24
ENDBRANCH  20  22
ENDBRANCH   1  20
BRANCH   1  63
ATOM     63  O   UNL     1      15.316  82.123  -5.621  1.00  0.00    -0.392 OA
ATOM     64  H   UNL     1      15.933  82.755  -5.201  1.00  0.00     0.210 HD
ENDBRANCH   1  63
TORSDOF 7
ENDMDL
MODEL 8
REMARK VINA RESULT:     2.693      2.455     11.223
REMARK INTER + INTRA:           7.468
REMARK INTER:                   5.843
REMARK INTRA:                   1.625
REMARK UNBOUND:                 1.941
REMARK SMILES CO[C@H]1/C=C/O[C@@]2(C)Oc3c(C)c(O)c4c(O)c(c5c(nc6cc(C)ccn65)c4c3C2=O)NC(=O)/C(C)=C\C=C\[C@H](C)[C@H](O)[C@@H](C)[C@@H](O)[C@@H](C)[C@H](OC(C)=O)[C@@H]1C
REMARK SMILES IDX 43 1 45 2 46 3 47 4 49 5 50 6 51 7 56 8 57 9 3 10 2 12 1 13
REMARK SMILES IDX 52 14 53 15 54 16 55 17 48 18 41 20 42 21 40 22 39 23 38 24
REMARK SMILES IDX 36 25 37 26 34 27 33 28 35 29 18 31 16 32 19 33 15 34 20 35
REMARK SMILES IDX 28 36 13 37 29 38 21 39 22 40 27 41 11 42 30 43 23 44 26 45
REMARK SMILES IDX 10 46 12 47 31 48 24 49 9 50 7 51 32 52 25 53 8 54 17 55
REMARK SMILES IDX 14 57 6 59 5 60 4 61 44 63
REMARK H PARENT 48 19 33 30 17 56 14 58 44 64
REMARK Flexibility Score: 50.00
ROOT
ATOM      1  C   UNL     1      14.367  78.901  -4.954  1.00  0.00     0.126 C 
ENDROOT
BRANCH   1   2
ATOM      2  C   UNL     1      15.222  78.359  -6.169  1.00  0.00     0.044 C 
ATOM      3  C   UNL     1      14.305  77.645  -7.202  1.00  0.00     0.013 C 
BRANCH   2   4
ATOM      4  C   UNL     1      16.073  79.502  -6.880  1.00  0.00     0.126 C 
BRANCH   4   5
ATOM      5  C   UNL     1      17.623  79.364  -6.633  1.00  0.00     0.056 C 
ATOM      6  C   UNL     1      18.246  78.378  -7.648  1.00  0.00     0.014 C 
BRANCH   5   7
ATOM      7  C   UNL     1      18.309  80.779  -6.718  1.00  0.00     0.187 C 
BRANCH   7   8
ATOM      8  C   UNL     1      19.773  80.949  -6.120  1.00  0.00     0.060 C 
ATOM      9  C   UNL     1      19.940  80.161  -4.806  1.00  0.00     0.015 C 
BRANCH   8  10
ATOM     10  C   UNL     1      20.347  82.417  -5.975  1.00  0.00     0.150 CG0
ATOM     11  G   UNL     1      21.863  82.466  -5.934  1.00  0.00     0.000 G0
BRANCH  10  12
ATOM     12  O   UNL     1      19.856  83.057  -4.795  1.00  0.00    -0.377 OA
ATOM     13  C   UNL     1      20.631  82.738  -3.679  1.00  0.00     0.195 C 
ENDBRANCH  10  12
ENDBRANCH   8  10
ENDBRANCH   7   8
BRANCH   7  14
ATOM     14  O   UNL     1      18.305  81.129  -8.112  1.00  0.00    -0.462 OA
BRANCH  14  15
ATOM     15  C   UNL     1      17.313  81.898  -8.698  1.00  0.00     0.302 C 
ATOM     16  C   UNL     1      16.901  81.577 -10.098  1.00  0.00     0.139 C 
ATOM     17  O   UNL     1      16.788  82.843  -8.053  1.00  0.00    -0.253 OA
ENDBRANCH  14  15
ENDBRANCH   7  14
ENDBRANCH   5   7
ENDBRANCH   4   5
BRANCH   4  18
ATOM     18  O   UNL     1      15.623  80.755  -6.469  1.00  0.00    -0.392 OA
ATOM     19  H   UNL     1      15.797  80.850  -5.499  1.00  0.00     0.210 HD
ENDBRANCH   4  18
ENDBRANCH   2   4
ENDBRANCH   1   2
BRANCH   1  20
ATOM     20  C   UNL     1      14.418  80.444  -4.652  1.00  0.00     0.038 C 
ATOM     21  C   UNL     1      13.135  81.176  -5.027  1.00  0.00     0.015 C 
BRANCH  20  22
ATOM     22  C   UNL     1      14.719  80.685  -3.168  1.00  0.00    -0.021 C 
ATOM     23  C   UNL     1      13.887  81.371  -2.391  1.00  0.00    -0.003 C 
BRANCH  23  24
ATOM     24  C   UNL     1      14.223  81.600  -0.955  1.00  0.00     0.009 C 
ATOM     25  C   UNL     1      14.330  80.620  -0.067  1.00  0.00     0.014 C 
ATOM     26  C   UNL     1      14.087  80.932   1.385  1.00  0.00     0.050 C 
BRANCH  25  27
ATOM     27  C   UNL     1      14.906  79.271  -0.353  1.00  0.00     0.251 C 
ATOM     28  N   UNL     1      14.221  78.284  -1.183  1.00  0.00    -0.317 N 
ATOM     29  O   UNL     1      16.143  79.093  -0.139  1.00  0.00    -0.269 OA
ATOM     30  H   UNL     1      14.868  77.526  -1.480  1.00  0.00     0.170 HD
BRANCH  28  31
ATOM     31  C   UNL     1      12.915  77.771  -0.999  1.00  0.00     0.111 A 
ATOM     32  C   UNL     1      11.853  78.382  -1.691  1.00  0.00     0.153 A 
ATOM     33  C   UNL     1      12.569  76.905   0.060  1.00  0.00     0.101 A 
ATOM     34  C   UNL     1      10.512  78.088  -1.415  1.00  0.00     0.071 A 
ATOM     35  C   UNL     1      11.263  76.499   0.304  1.00  0.00     0.101 A 
ATOM     36  N   UNL     1      13.340  76.307   1.009  1.00  0.00    -0.298 N 
ATOM     37  C   UNL     1       9.470  78.665  -2.191  1.00  0.00     0.133 A 
ATOM     38  C   UNL     1      10.191  77.092  -0.403  1.00  0.00     0.032 A 
ATOM     39  N   UNL     1      11.159  75.674   1.366  1.00  0.00    -0.228 NA
ATOM     40  C   UNL     1      12.477  75.572   1.737  1.00  0.00     0.138 A 
ATOM     41  C   UNL     1      14.700  76.377   1.280  1.00  0.00     0.094 A 
ATOM     42  C   UNL     1       8.168  78.132  -2.130  1.00  0.00     0.035 A 
ATOM     43  C   UNL     1       8.814  76.767  -0.215  1.00  0.00     0.079 A 
ATOM     44  C   UNL     1      12.923  74.833   2.834  1.00  0.00     0.051 A 
ATOM     45  C   UNL     1      15.183  75.657   2.355  1.00  0.00     0.022 A 
ATOM     46  C   UNL     1       7.896  77.165  -1.182  1.00  0.00     0.143 A 
ATOM     47  C   UNL     1       7.098  78.679  -3.041  1.00  0.00     0.052 C 
ATOM     48  C   UNL     1       8.227  75.526   0.360  1.00  0.00     0.251 C 
ATOM     49  C   UNL     1      14.302  74.879   3.152  1.00  0.00    -0.046 A 
ATOM     50  O   UNL     1       6.841  76.268  -1.308  1.00  0.00    -0.444 OA
ATOM     51  C   UNL     1       7.176  75.041  -0.623  1.00  0.00     0.312 C 
ATOM     52  O   UNL     1       8.471  75.065   1.496  1.00  0.00    -0.285 OA
ATOM     53  C   UNL     1      14.797  74.153   4.384  1.00  0.00     0.044 C 
ATOM     54  C   UNL     1       7.925  74.118  -1.585  1.00  0.00     0.116 C 
BRANCH  32  55
ATOM     55  O   UNL     1      12.160  79.266  -2.741  1.00  0.00    -0.505 OA
ATOM     56  H   UNL     1      11.442  79.848  -3.171  1.00  0.00     0.293 HD
ENDBRANCH  32  55
BRANCH  37  57
ATOM     57  O   UNL     1       9.750  79.771  -3.002  1.00  0.00    -0.507 OA
ATOM     58  H   UNL     1       9.964  79.732  -3.996  1.00  0.00     0.293 HD
ENDBRANCH  37  57
BRANCH  51  59
ATOM     59  O   UNL     1       6.006  74.433  -0.015  1.00  0.00    -0.454 OA
BRANCH  59  60
ATOM     60  C   UNL     1       4.856  75.195   0.337  1.00  0.00     0.191 C 
ATOM     61  C   UNL     1       3.683  75.143  -0.301  1.00  0.00     0.043 CG0
ATOM     62  G   UNL     1       2.368  75.715   0.192  1.00  0.00     0.000 G0
ENDBRANCH  59  60
ENDBRANCH  51  59
ENDBRANCH  28  31
ENDBRANCH  25  27
ENDBRANCH  23  24
ENDBRANCH  20  22
ENDBRANCH   1  20
BRANCH   1  63
ATOM     63  O   UNL     1      14.687  78.248  -3.729  1.00  0.00    -0.392 OA
ATOM     64  H   UNL     1      15.220  77.449  -3.914  1.00  0.00     0.210 HD
ENDBRANCH   1  63
TORSDOF 7
ENDMDL
MODEL 9
REMARK VINA RESULT:     2.704      2.201     11.147
REMARK INTER + INTRA:           7.489
REMARK INTER:                   3.162
REMARK INTRA:                   4.328
REMARK UNBOUND:                 1.941
REMARK SMILES CO[C@H]1/C=C/O[C@@]2(C)Oc3c(C)c(O)c4c(O)c(c5c(nc6cc(C)ccn65)c4c3C2=O)NC(=O)/C(C)=C\C=C\[C@H](C)[C@H](O)[C@@H](C)[C@@H](O)[C@@H](C)[C@H](OC(C)=O)[C@@H]1C
REMARK SMILES IDX 43 1 45 2 46 3 47 4 49 5 50 6 51 7 56 8 57 9 3 10 2 12 1 13
REMARK SMILES IDX 52 14 53 15 54 16 55 17 48 18 41 20 42 21 40 22 39 23 38 24
REMARK SMILES IDX 36 25 37 26 34 27 33 28 35 29 18 31 16 32 19 33 15 34 20 35
REMARK SMILES IDX 28 36 13 37 29 38 21 39 22 40 27 41 11 42 30 43 23 44 26 45
REMARK SMILES IDX 10 46 12 47 31 48 24 49 9 50 7 51 32 52 25 53 8 54 17 55
REMARK SMILES IDX 14 57 6 59 5 60 4 61 44 63
REMARK H PARENT 48 19 33 30 17 56 14 58 44 64
REMARK Flexibility Score: 50.00
ROOT
ATOM      1  C   UNL     1      14.093  78.918  -3.780  1.00  0.00     0.126 C 
ENDROOT
BRANCH   1   2
ATOM      2  C   UNL     1      14.264  79.320  -5.300  1.00  0.00     0.044 C 
ATOM      3  C   UNL     1      13.435  80.596  -5.620  1.00  0.00     0.013 C 
BRANCH   2   4
ATOM      4  C   UNL     1      15.787  79.531  -5.712  1.00  0.00     0.126 C 
BRANCH   4   5
ATOM      5  C   UNL     1      16.028  80.850  -6.539  1.00  0.00     0.056 C 
ATOM      6  C   UNL     1      15.422  82.068  -5.803  1.00  0.00     0.014 C 
BRANCH   5   7
ATOM      7  C   UNL     1      17.568  81.049  -6.798  1.00  0.00     0.187 C 
BRANCH   7   8
ATOM      8  C   UNL     1      18.024  81.801  -8.123  1.00  0.00     0.060 C 
ATOM      9  C   UNL     1      17.023  81.573  -9.273  1.00  0.00     0.015 C 
BRANCH   8  10
ATOM     10  C   UNL     1      19.512  81.590  -8.620  1.00  0.00     0.150 CG0
ATOM     11  G   UNL     1      19.836  80.144  -8.946  1.00  0.00     0.000 G0
BRANCH  10  12
ATOM     12  O   UNL     1      20.457  82.041  -7.647  1.00  0.00    -0.377 OA
ATOM     13  C   UNL     1      20.617  83.427  -7.691  1.00  0.00     0.195 C 
ENDBRANCH  10  12
ENDBRANCH   8  10
ENDBRANCH   7   8
BRANCH   7  14
ATOM     14  O   UNL     1      18.070  81.743  -5.644  1.00  0.00    -0.462 OA
BRANCH  14  15
ATOM     15  C   UNL     1      19.163  81.308  -4.913  1.00  0.00     0.302 C 
ATOM     16  C   UNL     1      19.980  82.326  -4.185  1.00  0.00     0.139 C 
ATOM     17  O   UNL     1      19.449  80.082  -4.880  1.00  0.00    -0.253 OA
ENDBRANCH  14  15
ENDBRANCH   7  14
ENDBRANCH   5   7
ENDBRANCH   4   5
BRANCH   4  18
ATOM     18  O   UNL     1      16.247  78.421  -6.418  1.00  0.00    -0.392 OA
ATOM     19  H   UNL     1      15.516  78.093  -7.000  1.00  0.00     0.210 HD
ENDBRANCH   4  18
ENDBRANCH   2   4
ENDBRANCH   1   2
BRANCH   1  20
ATOM     20  C   UNL     1      15.370  78.959  -2.862  1.00  0.00     0.038 C 
ATOM     21  C   UNL     1      16.074  80.311  -2.867  1.00  0.00     0.015 C 
BRANCH  20  22
ATOM     22  C   UNL     1      15.001  78.589  -1.421  1.00  0.00    -0.021 C 
ATOM     23  C   UNL     1      15.405  79.321  -0.388  1.00  0.00    -0.003 C 
BRANCH  23  24
ATOM     24  C   UNL     1      15.041  78.920   1.002  1.00  0.00     0.009 C 
ATOM     25  C   UNL     1      14.082  78.045   1.279  1.00  0.00     0.014 C 
ATOM     26  C   UNL     1      13.393  78.128   2.615  1.00  0.00     0.050 C 
BRANCH  25  27
ATOM     27  C   UNL     1      13.781  76.826   0.468  1.00  0.00     0.251 C 
ATOM     28  N   UNL     1      12.757  76.807  -0.572  1.00  0.00    -0.317 N 
ATOM     29  O   UNL     1      14.637  75.889   0.461  1.00  0.00    -0.269 OA
ATOM     30  H   UNL     1      12.864  75.978  -1.191  1.00  0.00     0.170 HD
BRANCH  28  31
ATOM     31  C   UNL     1      11.390  77.142  -0.432  1.00  0.00     0.111 A 
ATOM     32  C   UNL     1      10.434  76.118  -0.561  1.00  0.00     0.153 A 
ATOM     33  C   UNL     1      10.912  78.469  -0.485  1.00  0.00     0.101 A 
ATOM     34  C   UNL     1       9.061  76.382  -0.649  1.00  0.00     0.071 A 
ATOM     35  C   UNL     1       9.558  78.782  -0.465  1.00  0.00     0.101 A 
ATOM     36  N   UNL     1      11.579  79.653  -0.559  1.00  0.00    -0.298 N 
ATOM     37  C   UNL     1       8.122  75.317  -0.697  1.00  0.00     0.133 A 
ATOM     38  C   UNL     1       8.590  77.757  -0.572  1.00  0.00     0.032 A 
ATOM     39  N   UNL     1       9.325  80.109  -0.527  1.00  0.00    -0.228 NA
ATOM     40  C   UNL     1      10.611  80.590  -0.553  1.00  0.00     0.138 A 
ATOM     41  C   UNL     1      12.931  79.953  -0.648  1.00  0.00     0.094 A 
ATOM     42  C   UNL     1       6.756  75.570  -0.462  1.00  0.00     0.035 A 
ATOM     43  C   UNL     1       7.179  77.969  -0.584  1.00  0.00     0.079 A 
ATOM     44  C   UNL     1      10.934  81.945  -0.648  1.00  0.00     0.051 A 
ATOM     45  C   UNL     1      13.294  81.282  -0.740  1.00  0.00     0.022 A 
ATOM     46  C   UNL     1       6.338  76.883  -0.360  1.00  0.00     0.143 A 
ATOM     47  C   UNL     1       5.786  74.417  -0.403  1.00  0.00     0.052 C 
ATOM     48  C   UNL     1       6.415  79.137  -0.066  1.00  0.00     0.251 C 
ATOM     49  C   UNL     1      12.302  82.298  -0.747  1.00  0.00    -0.046 A 
ATOM     50  O   UNL     1       5.168  77.248   0.296  1.00  0.00    -0.444 OA
ATOM     51  C   UNL     1       5.318  78.583   0.826  1.00  0.00     0.312 C 
ATOM     52  O   UNL     1       6.577  80.325  -0.418  1.00  0.00    -0.285 OA
ATOM     53  C   UNL     1      12.674  83.754  -0.933  1.00  0.00     0.044 C 
ATOM     54  C   UNL     1       5.940  78.503   2.220  1.00  0.00     0.116 C 
BRANCH  32  55
ATOM     55  O   UNL     1      10.876  74.783  -0.530  1.00  0.00    -0.505 OA
ATOM     56  H   UNL     1      11.781  74.515  -0.915  1.00  0.00     0.293 HD
ENDBRANCH  32  55
BRANCH  37  57
ATOM     57  O   UNL     1       8.565  74.022  -0.992  1.00  0.00    -0.507 OA
ATOM     58  H   UNL     1       9.115  73.433  -0.370  1.00  0.00     0.293 HD
ENDBRANCH  37  57
BRANCH  51  59
ATOM     59  O   UNL     1       4.066  79.318   0.782  1.00  0.00    -0.454 OA
BRANCH  59  60
ATOM     60  C   UNL     1       3.698  80.245   1.799  1.00  0.00     0.191 C 
ATOM     61  C   UNL     1       2.446  80.480   2.198  1.00  0.00     0.043 CG0
ATOM     62  G   UNL     1       2.029  81.238   3.444  1.00  0.00     0.000 G0
ENDBRANCH  59  60
ENDBRANCH  51  59
ENDBRANCH  28  31
ENDBRANCH  25  27
ENDBRANCH  23  24
ENDBRANCH  20  22
ENDBRANCH   1  20
BRANCH   1  63
ATOM     63  O   UNL     1      13.534  77.617  -3.620  1.00  0.00    -0.392 OA
ATOM     64  H   UNL     1      13.276  77.485  -2.686  1.00  0.00     0.210 HD
ENDBRANCH   1  63
TORSDOF 7
ENDMDL
MODEL 10
REMARK VINA RESULT:     3.075      3.974      8.276
REMARK INTER + INTRA:           8.252
REMARK INTER:                   6.034
REMARK INTRA:                   2.219
REMARK UNBOUND:                 1.941
REMARK SMILES CO[C@H]1/C=C/O[C@@]2(C)Oc3c(C)c(O)c4c(O)c(c5c(nc6cc(C)ccn65)c4c3C2=O)NC(=O)/C(C)=C\C=C\[C@H](C)[C@H](O)[C@@H](C)[C@@H](O)[C@@H](C)[C@H](OC(C)=O)[C@@H]1C
REMARK SMILES IDX 43 1 45 2 46 3 47 4 49 5 50 6 51 7 56 8 57 9 3 10 2 12 1 13
REMARK SMILES IDX 52 14 53 15 54 16 55 17 48 18 41 20 42 21 40 22 39 23 38 24
REMARK SMILES IDX 36 25 37 26 34 27 33 28 35 29 18 31 16 32 19 33 15 34 20 35
REMARK SMILES IDX 28 36 13 37 29 38 21 39 22 40 27 41 11 42 30 43 23 44 26 45
REMARK SMILES IDX 10 46 12 47 31 48 24 49 9 50 7 51 32 52 25 53 8 54 17 55
REMARK SMILES IDX 14 57 6 59 5 60 4 61 44 63
REMARK H PARENT 48 19 33 30 17 56 14 58 44 64
REMARK Flexibility Score: 50.00
ROOT
ATOM      1  C   UNL     1       5.255  77.812   2.196  1.00  0.00     0.126 C 
ENDROOT
BRANCH   1   2
ATOM      2  C   UNL     1       5.637  77.779   3.730  1.00  0.00     0.044 C 
ATOM      3  C   UNL     1       6.607  78.946   4.072  1.00  0.00     0.013 C 
BRANCH   2   4
ATOM      4  C   UNL     1       4.362  77.821   4.682  1.00  0.00     0.126 C 
BRANCH   4   5
ATOM      5  C   UNL     1       4.669  77.334   6.149  1.00  0.00     0.056 C 
ATOM      6  C   UNL     1       6.056  77.839   6.608  1.00  0.00     0.014 C 
BRANCH   5   7
ATOM      7  C   UNL     1       3.533  77.821   7.126  1.00  0.00     0.187 C 
BRANCH   7   8
ATOM      8  C   UNL     1       3.954  78.565   8.468  1.00  0.00     0.060 C 
ATOM      9  C   UNL     1       3.757  77.660   9.699  1.00  0.00     0.015 C 
BRANCH   8  10
ATOM     10  C   UNL     1       3.365  80.011   8.728  1.00  0.00     0.150 CG0
ATOM     11  G   UNL     1       4.414  81.014   9.170  1.00  0.00     0.000 G0
BRANCH  10  12
ATOM     12  O   UNL     1       2.338  79.985   9.722  1.00  0.00    -0.377 OA
ATOM     13  C   UNL     1       2.273  81.190  10.424  1.00  0.00     0.195 C 
ENDBRANCH  10  12
ENDBRANCH   8  10
ENDBRANCH   7   8
BRANCH   7  14
ATOM     14  O   UNL     1       2.683  78.672   6.340  1.00  0.00    -0.462 OA
BRANCH  14  15
ATOM     15  C   UNL     1       1.460  78.262   5.834  1.00  0.00     0.302 C 
ATOM     16  C   UNL     1       0.565  77.449   6.713  1.00  0.00     0.139 C 
ATOM     17  O   UNL     1       1.131  78.571   4.659  1.00  0.00    -0.253 OA
ENDBRANCH  14  15
ENDBRANCH   7  14
ENDBRANCH   5   7
ENDBRANCH   4   5
BRANCH   4  18
ATOM     18  O   UNL     1       3.327  77.072   4.126  1.00  0.00    -0.392 OA
ATOM     19  H   UNL     1       3.555  76.112   4.207  1.00  0.00     0.210 HD
ENDBRANCH   4  18
ENDBRANCH   2   4
ENDBRANCH   1   2
BRANCH   1  20
ATOM     20  C   UNL     1       6.069  76.886   1.217  1.00  0.00     0.038 C 
ATOM     21  C   UNL     1       5.302  75.644   0.782  1.00  0.00     0.015 C 
BRANCH  20  22
ATOM     22  C   UNL     1       6.496  77.675  -0.026  1.00  0.00    -0.021 C 
ATOM     23  C   UNL     1       7.097  78.856   0.070  1.00  0.00    -0.003 C 
BRANCH  23  24
ATOM     24  C   UNL     1       7.481  79.602  -1.164  1.00  0.00     0.009 C 
ATOM     25  C   UNL     1       8.568  80.358  -1.249  1.00  0.00     0.014 C 
ATOM     26  C   UNL     1       8.585  81.490  -2.241  1.00  0.00     0.050 C 
BRANCH  25  27
ATOM     27  C   UNL     1       9.880  80.040  -0.606  1.00  0.00     0.251 C 
ATOM     28  N   UNL     1      10.945  79.327  -1.305  1.00  0.00    -0.317 N 
ATOM     29  O   UNL     1      10.195  80.669   0.448  1.00  0.00    -0.269 OA
ATOM     30  H   UNL     1      11.852  79.422  -0.807  1.00  0.00     0.170 HD
BRANCH  28  31
ATOM     31  C   UNL     1      10.858  78.060  -1.931  1.00  0.00     0.111 A 
ATOM     32  C   UNL     1      10.114  77.050  -1.294  1.00  0.00     0.153 A 
ATOM     33  C   UNL     1      11.717  77.656  -2.975  1.00  0.00     0.101 A 
ATOM     34  C   UNL     1      10.144  75.716  -1.722  1.00  0.00     0.071 A 
ATOM     35  C   UNL     1      11.704  76.372  -3.505  1.00  0.00     0.101 A 
ATOM     36  N   UNL     1      12.671  78.345  -3.661  1.00  0.00    -0.298 N 
ATOM     37  C   UNL     1       9.317  74.740  -1.104  1.00  0.00     0.133 A 
ATOM     38  C   UNL     1      10.942  75.355  -2.885  1.00  0.00     0.032 A 
ATOM     39  N   UNL     1      12.607  76.202  -4.492  1.00  0.00    -0.228 NA
ATOM     40  C   UNL     1      13.148  77.462  -4.559  1.00  0.00     0.138 A 
ATOM     41  C   UNL     1      13.146  79.643  -3.540  1.00  0.00     0.094 A 
ATOM     42  C   UNL     1       9.107  73.496  -1.728  1.00  0.00     0.035 A 
ATOM     43  C   UNL     1      10.876  74.001  -3.331  1.00  0.00     0.079 A 
ATOM     44  C   UNL     1      14.179  77.822  -5.430  1.00  0.00     0.051 A 
ATOM     45  C   UNL     1      14.163  80.041  -4.384  1.00  0.00     0.022 A 
ATOM     46  C   UNL     1       9.853  73.189  -2.850  1.00  0.00     0.143 A 
ATOM     47  C   UNL     1       8.139  72.512  -1.121  1.00  0.00     0.052 C 
ATOM     48  C   UNL     1      11.170  73.458  -4.685  1.00  0.00     0.251 C 
ATOM     49  C   UNL     1      14.699  79.136  -5.338  1.00  0.00    -0.046 A 
ATOM     50  O   UNL     1       9.444  72.247  -3.787  1.00  0.00    -0.444 OA
ATOM     51  C   UNL     1       9.983  72.597  -5.080  1.00  0.00     0.312 C 
ATOM     52  O   UNL     1      12.250  73.588  -5.301  1.00  0.00    -0.285 OA
ATOM     53  C   UNL     1      15.871  79.525  -6.213  1.00  0.00     0.044 C 
ATOM     54  C   UNL     1       9.018  73.551  -5.785  1.00  0.00     0.116 C 
BRANCH  32  55
ATOM     55  O   UNL     1       9.262  77.413  -0.237  1.00  0.00    -0.505 OA
ATOM     56  H   UNL     1       8.610  78.192  -0.324  1.00  0.00     0.293 HD
ENDBRANCH  32  55
BRANCH  37  57
ATOM     57  O   UNL     1       8.726  75.024   0.134  1.00  0.00    -0.507 OA
ATOM     58  H   UNL     1       8.568  74.349   0.878  1.00  0.00     0.293 HD
ENDBRANCH  37  57
BRANCH  51  59
ATOM     59  O   UNL     1      10.317  71.417  -5.857  1.00  0.00    -0.454 OA
BRANCH  59  60
ATOM     60  C   UNL     1       9.408  70.331  -6.008  1.00  0.00     0.191 C 
ATOM     61  C   UNL     1       8.630  70.131  -7.075  1.00  0.00     0.043 CG0
ATOM     62  G   UNL     1       7.862  68.864  -7.401  1.00  0.00     0.000 G0
ENDBRANCH  59  60
ENDBRANCH  51  59
ENDBRANCH  28  31
ENDBRANCH  25  27
ENDBRANCH  23  24
ENDBRANCH  20  22
ENDBRANCH   1  20
BRANCH   1  63
ATOM     63  O   UNL     1       5.322  79.124   1.646  1.00  0.00    -0.392 OA
ATOM     64  H   UNL     1       5.645  79.747   2.327  1.00  0.00     0.210 HD
ENDBRANCH   1  63
TORSDOF 7
ENDMDL
MODEL 11
REMARK VINA RESULT:     3.076      2.261     12.273
REMARK INTER + INTRA:           8.253
REMARK INTER:                   6.007
REMARK INTRA:                   2.246
REMARK UNBOUND:                 1.941
REMARK SMILES CO[C@H]1/C=C/O[C@@]2(C)Oc3c(C)c(O)c4c(O)c(c5c(nc6cc(C)ccn65)c4c3C2=O)NC(=O)/C(C)=C\C=C\[C@H](C)[C@H](O)[C@@H](C)[C@@H](O)[C@@H](C)[C@H](OC(C)=O)[C@@H]1C
REMARK SMILES IDX 43 1 45 2 46 3 47 4 49 5 50 6 51 7 56 8 57 9 3 10 2 12 1 13
REMARK SMILES IDX 52 14 53 15 54 16 55 17 48 18 41 20 42 21 40 22 39 23 38 24
REMARK SMILES IDX 36 25 37 26 34 27 33 28 35 29 18 31 16 32 19 33 15 34 20 35
REMARK SMILES IDX 28 36 13 37 29 38 21 39 22 40 27 41 11 42 30 43 23 44 26 45
REMARK SMILES IDX 10 46 12 47 31 48 24 49 9 50 7 51 32 52 25 53 8 54 17 55
REMARK SMILES IDX 14 57 6 59 5 60 4 61 44 63
REMARK H PARENT 48 19 33 30 17 56 14 58 44 64
REMARK Flexibility Score: 50.00
ROOT
ATOM      1  C   UNL     1      15.230  79.589  -6.193  1.00  0.00     0.126 C 
ENDROOT
BRANCH   1   2
ATOM      2  C   UNL     1      16.627  78.855  -6.086  1.00  0.00     0.044 C 
ATOM      3  C   UNL     1      17.173  78.519  -7.503  1.00  0.00     0.013 C 
BRANCH   2   4
ATOM      4  C   UNL     1      17.701  79.695  -5.263  1.00  0.00     0.126 C 
BRANCH   4   5
ATOM      5  C   UNL     1      17.949  81.134  -5.857  1.00  0.00     0.056 C 
ATOM      6  C   UNL     1      17.733  82.212  -4.769  1.00  0.00     0.014 C 
BRANCH   5   7
ATOM      7  C   UNL     1      19.398  81.222  -6.468  1.00  0.00     0.187 C 
BRANCH   7   8
ATOM      8  C   UNL     1      19.552  81.614  -8.001  1.00  0.00     0.060 C 
ATOM      9  C   UNL     1      19.994  83.082  -8.164  1.00  0.00     0.015 C 
BRANCH   8  10
ATOM     10  C   UNL     1      18.354  81.272  -8.977  1.00  0.00     0.150 CG0
ATOM     11  G   UNL     1      18.806  80.935 -10.385  1.00  0.00     0.000 G0
BRANCH  10  12
ATOM     12  O   UNL     1      17.425  82.355  -9.063  1.00  0.00    -0.377 OA
ATOM     13  C   UNL     1      16.474  82.298  -8.043  1.00  0.00     0.195 C 
ENDBRANCH  10  12
ENDBRANCH   8  10
ENDBRANCH   7   8
BRANCH   7  14
ATOM     14  O   UNL     1      20.109  82.162  -5.647  1.00  0.00    -0.462 OA
BRANCH  14  15
ATOM     15  C   UNL     1      20.458  81.908  -4.330  1.00  0.00     0.302 C 
ATOM     16  C   UNL     1      20.631  83.069  -3.406  1.00  0.00     0.139 C 
ATOM     17  O   UNL     1      20.626  80.722  -3.943  1.00  0.00    -0.253 OA
ENDBRANCH  14  15
ENDBRANCH   7  14
ENDBRANCH   5   7
ENDBRANCH   4   5
BRANCH   4  18
ATOM     18  O   UNL     1      18.899  78.987  -5.183  1.00  0.00    -0.392 OA
ATOM     19  H   UNL     1      19.648  79.622  -5.305  1.00  0.00     0.210 HD
ENDBRANCH   4  18
ENDBRANCH   2   4
ENDBRANCH   1   2
BRANCH   1  20
ATOM     20  C   UNL     1      14.886  80.673  -5.105  1.00  0.00     0.038 C 
ATOM     21  C   UNL     1      13.982  81.785  -5.625  1.00  0.00     0.015 C 
BRANCH  20  22
ATOM     22  C   UNL     1      14.223  80.013  -3.890  1.00  0.00    -0.021 C 
ATOM     23  C   UNL     1      14.937  79.385  -2.962  1.00  0.00    -0.003 C 
BRANCH  23  24
ATOM     24  C   UNL     1      14.254  78.739  -1.803  1.00  0.00     0.009 C 
ATOM     25  C   UNL     1      13.030  78.233  -1.869  1.00  0.00     0.014 C 
ATOM     26  C   UNL     1      12.214  78.148  -0.607  1.00  0.00     0.050 C 
BRANCH  25  27
ATOM     27  C   UNL     1      12.468  77.516  -3.054  1.00  0.00     0.251 C 
ATOM     28  N   UNL     1      11.047  77.547  -3.391  1.00  0.00    -0.317 N 
ATOM     29  O   UNL     1      13.272  77.138  -3.959  1.00  0.00    -0.269 OA
ATOM     30  H   UNL     1      10.883  77.221  -4.364  1.00  0.00     0.170 HD
BRANCH  28  31
ATOM     31  C   UNL     1       9.964  77.178  -2.559  1.00  0.00     0.111 A 
ATOM     32  C   UNL     1       9.379  78.166  -1.746  1.00  0.00     0.153 A 
ATOM     33  C   UNL     1       9.643  75.837  -2.260  1.00  0.00     0.101 A 
ATOM     34  C   UNL     1       8.451  77.857  -0.743  1.00  0.00     0.071 A 
ATOM     35  C   UNL     1       8.653  75.485  -1.351  1.00  0.00     0.101 A 
ATOM     36  N   UNL     1      10.160  74.670  -2.735  1.00  0.00    -0.298 N 
ATOM     37  C   UNL     1       7.821  78.890   0.003  1.00  0.00     0.133 A 
ATOM     38  C   UNL     1       8.043  76.474  -0.545  1.00  0.00     0.032 A 
ATOM     39  N   UNL     1       8.514  74.149  -1.217  1.00  0.00    -0.228 NA
ATOM     40  C   UNL     1       9.451  73.706  -2.118  1.00  0.00     0.138 A 
ATOM     41  C   UNL     1      11.190  74.407  -3.628  1.00  0.00     0.094 A 
ATOM     42  C   UNL     1       6.674  78.608   0.770  1.00  0.00     0.035 A 
ATOM     43  C   UNL     1       7.036  76.219   0.432  1.00  0.00     0.079 A 
ATOM     44  C   UNL     1       9.733  72.358  -2.348  1.00  0.00     0.051 A 
ATOM     45  C   UNL     1      11.500  73.087  -3.887  1.00  0.00     0.022 A 
ATOM     46  C   UNL     1       6.288  77.289   0.916  1.00  0.00     0.143 A 
ATOM     47  C   UNL     1       5.949  79.733   1.465  1.00  0.00     0.052 C 
ATOM     48  C   UNL     1       6.114  75.055   0.529  1.00  0.00     0.251 C 
ATOM     49  C   UNL     1      10.781  72.042  -3.248  1.00  0.00    -0.046 A 
ATOM     50  O   UNL     1       4.987  76.921   1.238  1.00  0.00    -0.444 OA
ATOM     51  C   UNL     1       4.711  75.617   0.682  1.00  0.00     0.312 C 
ATOM     52  O   UNL     1       6.462  73.857   0.604  1.00  0.00    -0.285 OA
ATOM     53  C   UNL     1      11.161  70.592  -3.452  1.00  0.00     0.044 C 
ATOM     54  C   UNL     1       4.189  75.780  -0.746  1.00  0.00     0.116 C 
BRANCH  32  55
ATOM     55  O   UNL     1       9.689  79.513  -2.003  1.00  0.00    -0.505 OA
ATOM     56  H   UNL     1      10.395  79.773  -2.691  1.00  0.00     0.293 HD
ENDBRANCH  32  55
BRANCH  37  57
ATOM     57  O   UNL     1       8.359  80.183  -0.024  1.00  0.00    -0.507 OA
ATOM     58  H   UNL     1       8.747  80.675   0.778  1.00  0.00     0.293 HD
ENDBRANCH  37  57
BRANCH  51  59
ATOM     59  O   UNL     1       3.835  74.844   1.544  1.00  0.00    -0.454 OA
BRANCH  59  60
ATOM     60  C   UNL     1       3.566  75.230   2.889  1.00  0.00     0.191 C 
ATOM     61  C   UNL     1       3.959  76.378   3.445  1.00  0.00     0.043 CG0
ATOM     62  G   UNL     1       3.473  76.951   4.762  1.00  0.00     0.000 G0
ENDBRANCH  59  60
ENDBRANCH  51  59
ENDBRANCH  28  31
ENDBRANCH  25  27
ENDBRANCH  23  24
ENDBRANCH  20  22
ENDBRANCH   1  20
BRANCH   1  63
ATOM     63  O   UNL     1      14.135  78.677  -6.202  1.00  0.00    -0.392 OA
ATOM     64  H   UNL     1      13.945  78.387  -5.288  1.00  0.00     0.210 HD
ENDBRANCH   1  63
TORSDOF 7
ENDMDL
MODEL 12
REMARK VINA RESULT:     3.100      2.703      5.133
REMARK INTER + INTRA:           8.303
REMARK INTER:                   6.717
REMARK INTRA:                   1.587
REMARK UNBOUND:                 1.941
REMARK SMILES CO[C@H]1/C=C/O[C@@]2(C)Oc3c(C)c(O)c4c(O)c(c5c(nc6cc(C)ccn65)c4c3C2=O)NC(=O)/C(C)=C\C=C\[C@H](C)[C@H](O)[C@@H](C)[C@@H](O)[C@@H](C)[C@H](OC(C)=O)[C@@H]1C
REMARK SMILES IDX 43 1 45 2 46 3 47 4 49 5 50 6 51 7 56 8 57 9 3 10 2 12 1 13
REMARK SMILES IDX 52 14 53 15 54 16 55 17 48 18 41 20 42 21 40 22 39 23 38 24
REMARK SMILES IDX 36 25 37 26 34 27 33 28 35 29 18 31 16 32 19 33 15 34 20 35
REMARK SMILES IDX 28 36 13 37 29 38 21 39 22 40 27 41 11 42 30 43 23 44 26 45
REMARK SMILES IDX 10 46 12 47 31 48 24 49 9 50 7 51 32 52 25 53 8 54 17 55
REMARK SMILES IDX 14 57 6 59 5 60 4 61 44 63
REMARK H PARENT 48 19 33 30 17 56 14 58 44 64
REMARK Flexibility Score: 50.00
ROOT
ATOM      1  C   UNL     1       5.166  77.620   2.451  1.00  0.00     0.126 C 
ENDROOT
BRANCH   1   2
ATOM      2  C   UNL     1       5.502  77.543   3.995  1.00  0.00     0.044 C 
ATOM      3  C   UNL     1       6.616  78.565   4.358  1.00  0.00     0.013 C 
BRANCH   2   4
ATOM      4  C   UNL     1       4.223  77.768   4.915  1.00  0.00     0.126 C 
BRANCH   4   5
ATOM      5  C   UNL     1       4.464  77.368   6.420  1.00  0.00     0.056 C 
ATOM      6  C   UNL     1       5.868  77.821   6.881  1.00  0.00     0.014 C 
BRANCH   5   7
ATOM      7  C   UNL     1       3.337  77.989   7.329  1.00  0.00     0.187 C 
BRANCH   7   8
ATOM      8  C   UNL     1       3.767  78.742   8.661  1.00  0.00     0.060 C 
ATOM      9  C   UNL     1       3.753  77.793   9.875  1.00  0.00     0.015 C 
BRANCH   8  10
ATOM     10  C   UNL     1       3.046  80.109   9.004  1.00  0.00     0.150 CG0
ATOM     11  G   UNL     1       3.727  81.317   8.388  1.00  0.00     0.000 G0
BRANCH  10  12
ATOM     12  O   UNL     1       2.973  80.322  10.416  1.00  0.00    -0.377 OA
ATOM     13  C   UNL     1       2.100  81.364  10.733  1.00  0.00     0.195 C 
ENDBRANCH  10  12
ENDBRANCH   8  10
ENDBRANCH   7   8
BRANCH   7  14
ATOM     14  O   UNL     1       2.599  78.880   6.478  1.00  0.00    -0.462 OA
BRANCH  14  15
ATOM     15  C   UNL     1       1.377  78.551   5.913  1.00  0.00     0.302 C 
ATOM     16  C   UNL     1       0.380  77.822   6.754  1.00  0.00     0.139 C 
ATOM     17  O   UNL     1       1.135  78.860   4.717  1.00  0.00    -0.253 OA
ENDBRANCH  14  15
ENDBRANCH   7  14
ENDBRANCH   5   7
ENDBRANCH   4   5
BRANCH   4  18
ATOM     18  O   UNL     1       3.133  77.072   4.393  1.00  0.00    -0.392 OA
ATOM     19  H   UNL     1       3.227  76.116   4.634  1.00  0.00     0.210 HD
ENDBRANCH   4  18
ENDBRANCH   2   4
ENDBRANCH   1   2
BRANCH   1  20
ATOM     20  C   UNL     1       6.004  76.716   1.473  1.00  0.00     0.038 C 
ATOM     21  C   UNL     1       5.313  75.403   1.122  1.00  0.00     0.015 C 
BRANCH  20  22
ATOM     22  C   UNL     1       6.316  77.481   0.181  1.00  0.00    -0.021 C 
ATOM     23  C   UNL     1       6.994  78.623   0.194  1.00  0.00    -0.003 C 
BRANCH  23  24
ATOM     24  C   UNL     1       7.262  79.348  -1.083  1.00  0.00     0.009 C 
ATOM     25  C   UNL     1       8.294  79.075  -1.871  1.00  0.00     0.014 C 
ATOM     26  C   UNL     1       8.824  80.162  -2.769  1.00  0.00     0.050 C 
BRANCH  25  27
ATOM     27  C   UNL     1       8.836  77.705  -2.123  1.00  0.00     0.251 C 
ATOM     28  N   UNL     1      10.247  77.374  -1.951  1.00  0.00    -0.317 N 
ATOM     29  O   UNL     1       8.014  76.741  -2.178  1.00  0.00    -0.269 OA
ATOM     30  H   UNL     1      10.391  76.344  -1.916  1.00  0.00     0.170 HD
BRANCH  28  31
ATOM     31  C   UNL     1      11.354  78.005  -2.565  1.00  0.00     0.111 A 
ATOM     32  C   UNL     1      12.048  77.308  -3.570  1.00  0.00     0.153 A 
ATOM     33  C   UNL     1      11.992  79.142  -2.023  1.00  0.00     0.101 A 
ATOM     34  C   UNL     1      13.272  77.755  -4.084  1.00  0.00     0.071 A 
ATOM     35  C   UNL     1      13.149  79.686  -2.568  1.00  0.00     0.101 A 
ATOM     36  N   UNL     1      11.672  79.915  -0.950  1.00  0.00    -0.298 N 
ATOM     37  C   UNL     1      13.902  77.067  -5.155  1.00  0.00     0.133 A 
ATOM     38  C   UNL     1      13.841  79.003  -3.594  1.00  0.00     0.032 A 
ATOM     39  N   UNL     1      13.589  80.767  -1.892  1.00  0.00    -0.228 NA
ATOM     40  C   UNL     1      12.619  80.873  -0.926  1.00  0.00     0.138 A 
ATOM     41  C   UNL     1      10.652  79.827  -0.013  1.00  0.00     0.094 A 
ATOM     42  C   UNL     1      14.943  77.684  -5.876  1.00  0.00     0.035 A 
ATOM     43  C   UNL     1      15.047  79.459  -4.205  1.00  0.00     0.079 A 
ATOM     44  C   UNL     1      12.622  81.844   0.078  1.00  0.00     0.051 A 
ATOM     45  C   UNL     1      10.616  80.770   0.995  1.00  0.00     0.022 A 
ATOM     46  C   UNL     1      15.445  78.884  -5.409  1.00  0.00     0.143 A 
ATOM     47  C   UNL     1      15.527  76.990  -7.081  1.00  0.00     0.052 C 
ATOM     48  C   UNL     1      15.586  80.845  -4.266  1.00  0.00     0.251 C 
ATOM     49  C   UNL     1      11.603  81.789   1.060  1.00  0.00    -0.046 A 
ATOM     50  O   UNL     1      16.114  79.785  -6.228  1.00  0.00    -0.444 OA
ATOM     51  C   UNL     1      15.920  81.123  -5.721  1.00  0.00     0.312 C 
ATOM     52  O   UNL     1      15.834  81.571  -3.279  1.00  0.00    -0.285 OA
ATOM     53  C   UNL     1      11.631  82.779   2.204  1.00  0.00     0.044 C 
ATOM     54  C   UNL     1      14.640  81.706  -6.319  1.00  0.00     0.116 C 
BRANCH  32  55
ATOM     55  O   UNL     1      11.451  76.159  -4.120  1.00  0.00    -0.505 OA
ATOM     56  H   UNL     1      11.557  75.928  -5.108  1.00  0.00     0.293 HD
ENDBRANCH  32  55
BRANCH  37  57
ATOM     57  O   UNL     1      13.486  75.769  -5.477  1.00  0.00    -0.507 OA
ATOM     58  H   UNL     1      12.731  75.535  -6.119  1.00  0.00     0.293 HD
ENDBRANCH  37  57
BRANCH  51  59
ATOM     59  O   UNL     1      17.096  81.949  -5.930  1.00  0.00    -0.454 OA
BRANCH  59  60
ATOM     60  C   UNL     1      18.416  81.438  -5.770  1.00  0.00     0.191 C 
ATOM     61  C   UNL     1      19.309  81.897  -4.890  1.00  0.00     0.043 CG0
ATOM     62  G   UNL     1      20.609  81.222  -4.494  1.00  0.00     0.000 G0
ENDBRANCH  59  60
ENDBRANCH  51  59
ENDBRANCH  28  31
ENDBRANCH  25  27
ENDBRANCH  23  24
ENDBRANCH  20  22
ENDBRANCH   1  20
BRANCH   1  63
ATOM     63  O   UNL     1       5.257  78.946   1.940  1.00  0.00    -0.392 OA
ATOM     64  H   UNL     1       5.427  79.568   2.674  1.00  0.00     0.210 HD
ENDBRANCH   1  63
TORSDOF 7
ENDMDL
MODEL 13
REMARK VINA RESULT:     3.137      2.132     11.609
REMARK INTER + INTRA:           8.378
REMARK INTER:                   8.635
REMARK INTRA:                  -0.257
REMARK UNBOUND:                 1.941
REMARK SMILES CO[C@H]1/C=C/O[C@@]2(C)Oc3c(C)c(O)c4c(O)c(c5c(nc6cc(C)ccn65)c4c3C2=O)NC(=O)/C(C)=C\C=C\[C@H](C)[C@H](O)[C@@H](C)[C@@H](O)[C@@H](C)[C@H](OC(C)=O)[C@@H]1C
REMARK SMILES IDX 43 1 45 2 46 3 47 4 49 5 50 6 51 7 56 8 57 9 3 10 2 12 1 13
REMARK SMILES IDX 52 14 53 15 54 16 55 17 48 18 41 20 42 21 40 22 39 23 38 24
REMARK SMILES IDX 36 25 37 26 34 27 33 28 35 29 18 31 16 32 19 33 15 34 20 35
REMARK SMILES IDX 28 36 13 37 29 38 21 39 22 40 27 41 11 42 30 43 23 44 26 45
REMARK SMILES IDX 10 46 12 47 31 48 24 49 9 50 7 51 32 52 25 53 8 54 17 55
REMARK SMILES IDX 14 57 6 59 5 60 4 61 44 63
REMARK H PARENT 48 19 33 30 17 56 14 58 44 64
REMARK Flexibility Score: 50.00
ROOT
ATOM      1  C   UNL     1      14.837  80.333  -5.650  1.00  0.00     0.126 C 
ENDROOT
BRANCH   1   2
ATOM      2  C   UNL     1      16.030  81.281  -6.071  1.00  0.00     0.044 C 
ATOM      3  C   UNL     1      15.483  82.598  -6.691  1.00  0.00     0.013 C 
BRANCH   2   4
ATOM      4  C   UNL     1      17.014  81.604  -4.862  1.00  0.00     0.126 C 
BRANCH   4   5
ATOM      5  C   UNL     1      18.441  82.078  -5.335  1.00  0.00     0.056 C 
ATOM      6  C   UNL     1      19.228  82.688  -4.152  1.00  0.00     0.014 C 
BRANCH   5   7
ATOM      7  C   UNL     1      19.222  80.871  -5.978  1.00  0.00     0.187 C 
BRANCH   7   8
ATOM      8  C   UNL     1      18.756  79.391  -5.627  1.00  0.00     0.060 C 
ATOM      9  C   UNL     1      19.600  78.790  -4.486  1.00  0.00     0.015 C 
BRANCH   8  10
ATOM     10  C   UNL     1      18.600  78.362  -6.819  1.00  0.00     0.150 CG0
ATOM     11  G   UNL     1      19.210  78.853  -8.118  1.00  0.00     0.000 G0
BRANCH  10  12
ATOM     12  O   UNL     1      17.227  78.054  -7.068  1.00  0.00    -0.377 OA
ATOM     13  C   UNL     1      16.805  78.553  -8.302  1.00  0.00     0.195 C 
ENDBRANCH  10  12
ENDBRANCH   8  10
ENDBRANCH   7   8
BRANCH   7  14
ATOM     14  O   UNL     1      19.161  81.080  -7.398  1.00  0.00    -0.462 OA
BRANCH  14  15
ATOM     15  C   UNL     1      19.248  82.332  -7.984  1.00  0.00     0.302 C 
ATOM     16  C   UNL     1      20.524  83.096  -7.840  1.00  0.00     0.139 C 
ATOM     17  O   UNL     1      18.262  82.801  -8.613  1.00  0.00    -0.253 OA
ENDBRANCH  14  15
ENDBRANCH   7  14
ENDBRANCH   5   7
ENDBRANCH   4   5
BRANCH   4  18
ATOM     18  O   UNL     1      17.120  80.495  -4.025  1.00  0.00    -0.392 OA
ATOM     19  H   UNL     1      17.490  79.741  -4.548  1.00  0.00     0.210 HD
ENDBRANCH   4  18
ENDBRANCH   2   4
ENDBRANCH   1   2
BRANCH   1  20
ATOM     20  C   UNL     1      13.926  80.789  -4.451  1.00  0.00     0.038 C 
ATOM     21  C   UNL     1      12.519  81.190  -4.879  1.00  0.00     0.015 C 
BRANCH  20  22
ATOM     22  C   UNL     1      13.833  79.676  -3.401  1.00  0.00    -0.021 C 
ATOM     23  C   UNL     1      14.468  79.762  -2.237  1.00  0.00    -0.003 C 
BRANCH  23  24
ATOM     24  C   UNL     1      14.369  78.649  -1.247  1.00  0.00     0.009 C 
ATOM     25  C   UNL     1      13.327  77.830  -1.175  1.00  0.00     0.014 C 
ATOM     26  C   UNL     1      13.025  77.161   0.139  1.00  0.00     0.050 C 
BRANCH  25  27
ATOM     27  C   UNL     1      12.558  77.325  -2.353  1.00  0.00     0.251 C 
ATOM     28  N   UNL     1      11.211  77.789  -2.670  1.00  0.00    -0.317 N 
ATOM     29  O   UNL     1      13.198  76.724  -3.268  1.00  0.00    -0.269 OA
ATOM     30  H   UNL     1      10.943  77.533  -3.641  1.00  0.00     0.170 HD
BRANCH  28  31
ATOM     31  C   UNL     1      10.077  77.764  -1.823  1.00  0.00     0.111 A 
ATOM     32  C   UNL     1       9.097  76.781  -2.050  1.00  0.00     0.153 A 
ATOM     33  C   UNL     1       9.718  78.840  -0.984  1.00  0.00     0.101 A 
ATOM     34  C   UNL     1       7.851  76.806  -1.410  1.00  0.00     0.071 A 
ATOM     35  C   UNL     1       8.541  78.856  -0.244  1.00  0.00     0.101 A 
ATOM     36  N   UNL     1      10.361  80.007  -0.707  1.00  0.00    -0.298 N 
ATOM     37  C   UNL     1       6.918  75.751  -1.603  1.00  0.00     0.133 A 
ATOM     38  C   UNL     1       7.559  77.860  -0.449  1.00  0.00     0.032 A 
ATOM     39  N   UNL     1       8.397  79.980   0.487  1.00  0.00    -0.228 NA
ATOM     40  C   UNL     1       9.566  80.634   0.181  1.00  0.00     0.138 A 
ATOM     41  C   UNL     1      11.548  80.548  -1.182  1.00  0.00     0.094 A 
ATOM     42  C   UNL     1       5.822  75.610  -0.729  1.00  0.00     0.035 A 
ATOM     43  C   UNL     1       6.310  77.796   0.237  1.00  0.00     0.079 A 
ATOM     44  C   UNL     1       9.904  81.896   0.672  1.00  0.00     0.051 A 
ATOM     45  C   UNL     1      11.923  81.794  -0.718  1.00  0.00     0.022 A 
ATOM     46  C   UNL     1       5.586  76.608   0.196  1.00  0.00     0.143 A 
ATOM     47  C   UNL     1       4.904  74.422  -0.874  1.00  0.00     0.052 C 
ATOM     48  C   UNL     1       5.940  78.406   1.543  1.00  0.00     0.251 C 
ATOM     49  C   UNL     1      11.105  82.490   0.211  1.00  0.00    -0.046 A 
ATOM     50  O   UNL     1       4.861  76.392   1.362  1.00  0.00    -0.444 OA
ATOM     51  C   UNL     1       5.322  77.303   2.384  1.00  0.00     0.312 C 
ATOM     52  O   UNL     1       6.009  79.623   1.822  1.00  0.00    -0.285 OA
ATOM     53  C   UNL     1      11.453  83.891   0.664  1.00  0.00     0.044 C 
ATOM     54  C   UNL     1       6.495  76.667   3.131  1.00  0.00     0.116 C 
BRANCH  32  55
ATOM     55  O   UNL     1       9.413  75.704  -2.896  1.00  0.00    -0.505 OA
ATOM     56  H   UNL     1       9.033  75.643  -3.840  1.00  0.00     0.293 HD
ENDBRANCH  32  55
BRANCH  37  57
ATOM     57  O   UNL     1       7.093  74.866  -2.674  1.00  0.00    -0.507 OA
ATOM     58  H   UNL     1       7.841  74.181  -2.753  1.00  0.00     0.293 HD
ENDBRANCH  37  57
BRANCH  51  59
ATOM     59  O   UNL     1       4.236  77.730   3.248  1.00  0.00    -0.454 OA
BRANCH  59  60
ATOM     60  C   UNL     1       4.233  77.457   4.646  1.00  0.00     0.191 C 
ATOM     61  C   UNL     1       3.157  77.533   5.434  1.00  0.00     0.043 CG0
ATOM     62  G   UNL     1       3.040  76.995   6.848  1.00  0.00     0.000 G0
ENDBRANCH  59  60
ENDBRANCH  51  59
ENDBRANCH  28  31
ENDBRANCH  25  27
ENDBRANCH  23  24
ENDBRANCH  20  22
ENDBRANCH   1  20
BRANCH   1  63
ATOM     63  O   UNL     1      15.274  79.014  -5.334  1.00  0.00    -0.392 OA
ATOM     64  H   UNL     1      14.653  78.364  -5.717  1.00  0.00     0.210 HD
ENDBRANCH   1  63
TORSDOF 7
ENDMDL
