MODEL 1
REMARK VINA RESULT:    -6.869      0.000      0.000
REMARK INTER + INTRA:         -11.662
REMARK INTER:                 -10.683
REMARK INTRA:                  -0.979
REMARK UNBOUND:                -0.979
REMARK SMILES C=CCOc1ccccc1OCC(O)CNC(C)C
REMARK SMILES IDX 12 1 13 2 15 3 16 4 17 6 18 7 19 8 14 9 11 11 10 12 9 13
REMARK SMILES IDX 5 14 8 15 6 16 7 17 4 18 3 19 2 20 1 21
REMARK H PARENT 16 5 14 10
REMARK Flexibility Score: inf
ROOT
ATOM      1  C   UNL     1       9.910  75.778  -2.074  1.00  0.00     0.262 C 
ENDROOT
BRANCH   1   2
ATOM      2  C   UNL     1       9.937  74.427  -1.347  1.00  0.00     0.165 C 
BRANCH   2   3
ATOM      3  C   UNL     1       9.216  73.338  -2.177  1.00  0.00     0.116 C 
BRANCH   3   4
ATOM      4  N   UNL     1       9.604  71.973  -1.777  1.00  0.00    -0.312 NA
ATOM      5  H   UNL     1      10.198  72.021  -0.916  1.00  0.00     0.123 HD
BRANCH   4   6
ATOM      6  C   UNL     1      10.286  71.232  -2.859  1.00  0.00     0.047 C 
ATOM      7  C   UNL     1       9.540  71.409  -4.190  1.00  0.00     0.024 C 
ATOM      8  C   UNL     1      11.724  71.742  -3.003  1.00  0.00     0.024 C 
ENDBRANCH   4   6
ENDBRANCH   3   4
ENDBRANCH   2   3
BRANCH   2   9
ATOM      9  O   UNL     1       9.364  74.548  -0.069  1.00  0.00    -0.388 OA
ATOM     10  H   UNL     1       9.990  74.135   0.582  1.00  0.00     0.211 HD
ENDBRANCH   2   9
ENDBRANCH   1   2
BRANCH   1  11
ATOM     11  O   UNL     1       9.949  76.836  -1.117  1.00  0.00    -0.487 OA
BRANCH  11  12
ATOM     12  C   UNL     1       9.202  78.020  -1.209  1.00  0.00     0.161 A 
ATOM     13  C   UNL     1       9.627  79.114  -1.987  1.00  0.00     0.050 A 
ATOM     14  C   UNL     1       7.995  78.102  -0.495  1.00  0.00     0.161 A 
ATOM     15  C   UNL     1       8.855  80.276  -2.051  1.00  0.00     0.004 A 
ATOM     16  C   UNL     1       7.224  79.281  -0.569  1.00  0.00     0.050 A 
ATOM     17  C   UNL     1       7.657  80.359  -1.343  1.00  0.00     0.004 A 
BRANCH  14  18
ATOM     18  O   UNL     1       7.599  76.993   0.272  1.00  0.00    -0.486 OA
BRANCH  18  19
ATOM     19  C   UNL     1       6.264  76.714   0.694  1.00  0.00     0.257 C 
BRANCH  19  20
ATOM     20  C   UNL     1       5.889  75.297   0.368  1.00  0.00     0.006 C 
ATOM     21  C   UNL     1       6.023  74.817  -0.871  1.00  0.00     0.007 C 
ENDBRANCH  19  20
ENDBRANCH  18  19
ENDBRANCH  14  18
ENDBRANCH  11  12
ENDBRANCH   1  11
TORSDOF 10
ENDMDL
MODEL 2
REMARK VINA RESULT:    -6.732      1.469      3.686
REMARK INTER + INTRA:         -11.449
REMARK INTER:                 -10.836
REMARK INTRA:                  -0.613
REMARK UNBOUND:                -0.979
REMARK SMILES C=CCOc1ccccc1OCC(O)CNC(C)C
REMARK SMILES IDX 12 1 13 2 15 3 16 4 17 6 18 7 19 8 14 9 11 11 10 12 9 13
REMARK SMILES IDX 5 14 8 15 6 16 7 17 4 18 3 19 2 20 1 21
REMARK H PARENT 16 5 14 10
REMARK Flexibility Score: inf
ROOT
ATOM      1  C   UNL     1       8.500  73.888  -2.533  1.00  0.00     0.262 C 
ENDROOT
BRANCH   1   2
ATOM      2  C   UNL     1       9.900  73.446  -2.084  1.00  0.00     0.165 C 
BRANCH   2   3
ATOM      3  C   UNL     1      10.138  71.952  -2.407  1.00  0.00     0.116 C 
BRANCH   3   4
ATOM      4  N   UNL     1      11.231  71.751  -3.376  1.00  0.00    -0.312 NA
ATOM      5  H   UNL     1      12.132  72.077  -2.953  1.00  0.00     0.123 HD
BRANCH   4   6
ATOM      6  C   UNL     1      10.976  72.413  -4.673  1.00  0.00     0.047 C 
ATOM      7  C   UNL     1      12.296  72.685  -5.411  1.00  0.00     0.024 C 
ATOM      8  C   UNL     1      10.079  71.520  -5.537  1.00  0.00     0.024 C 
ENDBRANCH   4   6
ENDBRANCH   3   4
ENDBRANCH   2   3
BRANCH   2   9
ATOM      9  O   UNL     1      10.077  73.699  -0.712  1.00  0.00    -0.388 OA
ATOM     10  H   UNL     1      10.208  72.825  -0.259  1.00  0.00     0.211 HD
ENDBRANCH   2   9
ENDBRANCH   1   2
BRANCH   1  11
ATOM     11  O   UNL     1       8.286  75.247  -2.156  1.00  0.00    -0.487 OA
BRANCH  11  12
ATOM     12  C   UNL     1       7.418  75.664  -1.136  1.00  0.00     0.161 A 
ATOM     13  C   UNL     1       6.408  74.824  -0.624  1.00  0.00     0.050 A 
ATOM     14  C   UNL     1       7.571  76.961  -0.619  1.00  0.00     0.161 A 
ATOM     15  C   UNL     1       5.563  75.277   0.393  1.00  0.00     0.004 A 
ATOM     16  C   UNL     1       6.712  77.405   0.408  1.00  0.00     0.050 A 
ATOM     17  C   UNL     1       5.715  76.564   0.906  1.00  0.00     0.004 A 
BRANCH  14  18
ATOM     18  O   UNL     1       8.587  77.773  -1.151  1.00  0.00    -0.486 OA
BRANCH  18  19
ATOM     19  C   UNL     1       8.388  78.859  -2.055  1.00  0.00     0.257 C 
BRANCH  19  20
ATOM     20  C   UNL     1       9.127  80.081  -1.589  1.00  0.00     0.006 C 
ATOM     21  C   UNL     1       9.124  80.438  -0.303  1.00  0.00     0.007 C 
ENDBRANCH  19  20
ENDBRANCH  18  19
ENDBRANCH  14  18
ENDBRANCH  11  12
ENDBRANCH   1  11
TORSDOF 10
ENDMDL
MODEL 3
REMARK VINA RESULT:    -6.719      4.386      6.381
REMARK INTER + INTRA:         -11.429
REMARK INTER:                 -10.220
REMARK INTRA:                  -1.209
REMARK UNBOUND:                -0.979
REMARK SMILES C=CCOc1ccccc1OCC(O)CNC(C)C
REMARK SMILES IDX 12 1 13 2 15 3 16 4 17 6 18 7 19 8 14 9 11 11 10 12 9 13
REMARK SMILES IDX 5 14 8 15 6 16 7 17 4 18 3 19 2 20 1 21
REMARK H PARENT 16 5 14 10
REMARK Flexibility Score: inf
ROOT
ATOM      1  C   UNL     1      13.564  78.703  -0.977  1.00  0.00     0.262 C 
ENDROOT
BRANCH   1   2
ATOM      2  C   UNL     1      14.853  79.476  -1.286  1.00  0.00     0.165 C 
BRANCH   2   3
ATOM      3  C   UNL     1      15.052  79.632  -2.813  1.00  0.00     0.116 C 
BRANCH   3   4
ATOM      4  N   UNL     1      14.503  78.495  -3.573  1.00  0.00    -0.312 NA
ATOM      5  H   UNL     1      15.271  77.814  -3.780  1.00  0.00     0.123 HD
BRANCH   4   6
ATOM      6  C   UNL     1      13.810  78.914  -4.811  1.00  0.00     0.047 C 
ATOM      7  C   UNL     1      13.456  80.408  -4.753  1.00  0.00     0.024 C 
ATOM      8  C   UNL     1      14.713  78.646  -6.019  1.00  0.00     0.024 C 
ENDBRANCH   4   6
ENDBRANCH   3   4
ENDBRANCH   2   3
BRANCH   2   9
ATOM      9  O   UNL     1      15.959  78.840  -0.697  1.00  0.00    -0.388 OA
ATOM     10  H   UNL     1      16.773  79.139  -1.181  1.00  0.00     0.211 HD
ENDBRANCH   2   9
ENDBRANCH   1   2
BRANCH   1  11
ATOM     11  O   UNL     1      12.453  79.369  -1.575  1.00  0.00    -0.487 OA
BRANCH  11  12
ATOM     12  C   UNL     1      11.219  78.763  -1.856  1.00  0.00     0.161 A 
ATOM     13  C   UNL     1      11.128  77.489  -2.450  1.00  0.00     0.050 A 
ATOM     14  C   UNL     1      10.045  79.462  -1.528  1.00  0.00     0.161 A 
ATOM     15  C   UNL     1       9.879  76.921  -2.714  1.00  0.00     0.004 A 
ATOM     16  C   UNL     1       8.790  78.877  -1.798  1.00  0.00     0.050 A 
ATOM     17  C   UNL     1       8.714  77.614  -2.389  1.00  0.00     0.004 A 
BRANCH  14  18
ATOM     18  O   UNL     1      10.169  80.731  -0.935  1.00  0.00    -0.486 OA
BRANCH  18  19
ATOM     19  C   UNL     1       9.951  81.023   0.444  1.00  0.00     0.257 C 
BRANCH  19  20
ATOM     20  C   UNL     1      11.207  81.542   1.083  1.00  0.00     0.006 C 
ATOM     21  C   UNL     1      11.893  80.800   1.955  1.00  0.00     0.007 C 
ENDBRANCH  19  20
ENDBRANCH  18  19
ENDBRANCH  14  18
ENDBRANCH  11  12
ENDBRANCH   1  11
TORSDOF 10
ENDMDL
MODEL 4
REMARK VINA RESULT:    -6.645      1.961      4.116
REMARK INTER + INTRA:         -11.314
REMARK INTER:                 -10.666
REMARK INTRA:                  -0.648
REMARK UNBOUND:                -0.979
REMARK SMILES C=CCOc1ccccc1OCC(O)CNC(C)C
REMARK SMILES IDX 12 1 13 2 15 3 16 4 17 6 18 7 19 8 14 9 11 11 10 12 9 13
REMARK SMILES IDX 5 14 8 15 6 16 7 17 4 18 3 19 2 20 1 21
REMARK H PARENT 16 5 14 10
REMARK Flexibility Score: inf
ROOT
ATOM      1  C   UNL     1       9.659  75.540  -2.646  1.00  0.00     0.262 C 
ENDROOT
BRANCH   1   2
ATOM      2  C   UNL     1       9.490  74.417  -1.613  1.00  0.00     0.165 C 
BRANCH   2   3
ATOM      3  C   UNL     1       9.040  73.103  -2.294  1.00  0.00     0.116 C 
BRANCH   3   4
ATOM      4  N   UNL     1       9.736  71.920  -1.755  1.00  0.00    -0.312 NA
ATOM      5  H   UNL     1      10.376  72.219  -0.982  1.00  0.00     0.123 HD
BRANCH   4   6
ATOM      6  C   UNL     1      10.466  71.163  -2.794  1.00  0.00     0.047 C 
ATOM      7  C   UNL     1       9.632  71.065  -4.080  1.00  0.00     0.024 C 
ATOM      8  C   UNL     1      11.797  71.859  -3.097  1.00  0.00     0.024 C 
ENDBRANCH   4   6
ENDBRANCH   3   4
ENDBRANCH   2   3
BRANCH   2   9
ATOM      9  O   UNL     1       8.578  74.804  -0.614  1.00  0.00    -0.388 OA
ATOM     10  H   UNL     1       7.785  75.196  -1.066  1.00  0.00     0.211 HD
ENDBRANCH   2   9
ENDBRANCH   1   2
BRANCH   1  11
ATOM     11  O   UNL     1      10.235  76.684  -2.017  1.00  0.00    -0.487 OA
BRANCH  11  12
ATOM     12  C   UNL     1       9.700  77.979  -2.077  1.00  0.00     0.161 A 
ATOM     13  C   UNL     1       8.313  78.220  -2.014  1.00  0.00     0.050 A 
ATOM     14  C   UNL     1      10.587  79.061  -2.205  1.00  0.00     0.161 A 
ATOM     15  C   UNL     1       7.820  79.525  -2.078  1.00  0.00     0.004 A 
ATOM     16  C   UNL     1      10.077  80.374  -2.268  1.00  0.00     0.050 A 
ATOM     17  C   UNL     1       8.700  80.599  -2.205  1.00  0.00     0.004 A 
BRANCH  14  18
ATOM     18  O   UNL     1      11.965  78.787  -2.266  1.00  0.00    -0.486 OA
BRANCH  18  19
ATOM     19  C   UNL     1      12.986  79.745  -2.545  1.00  0.00     0.257 C 
BRANCH  19  20
ATOM     20  C   UNL     1      13.501  79.579  -3.946  1.00  0.00     0.006 C 
ATOM     21  C   UNL     1      13.252  80.495  -4.884  1.00  0.00     0.007 C 
ENDBRANCH  19  20
ENDBRANCH  18  19
ENDBRANCH  14  18
ENDBRANCH  11  12
ENDBRANCH   1  11
TORSDOF 10
ENDMDL
MODEL 5
REMARK VINA RESULT:    -6.576      4.765      6.259
REMARK INTER + INTRA:         -11.207
REMARK INTER:                 -10.493
REMARK INTRA:                  -0.714
REMARK UNBOUND:                -0.979
REMARK SMILES C=CCOc1ccccc1OCC(O)CNC(C)C
REMARK SMILES IDX 12 1 13 2 15 3 16 4 17 6 18 7 19 8 14 9 11 11 10 12 9 13
REMARK SMILES IDX 5 14 8 15 6 16 7 17 4 18 3 19 2 20 1 21
REMARK H PARENT 16 5 14 10
REMARK Flexibility Score: inf
ROOT
ATOM      1  C   UNL     1      13.990  77.919  -0.340  1.00  0.00     0.262 C 
ENDROOT
BRANCH   1   2
ATOM      2  C   UNL     1      14.964  79.011  -0.802  1.00  0.00     0.165 C 
BRANCH   2   3
ATOM      3  C   UNL     1      14.933  79.165  -2.341  1.00  0.00     0.116 C 
BRANCH   3   4
ATOM      4  N   UNL     1      13.955  80.174  -2.788  1.00  0.00    -0.312 NA
ATOM      5  H   UNL     1      13.289  80.379  -2.007  1.00  0.00     0.123 HD
BRANCH   4   6
ATOM      6  C   UNL     1      13.236  79.770  -4.015  1.00  0.00     0.047 C 
ATOM      7  C   UNL     1      13.591  80.703  -5.183  1.00  0.00     0.024 C 
ATOM      8  C   UNL     1      13.609  78.329  -4.377  1.00  0.00     0.024 C 
ENDBRANCH   4   6
ENDBRANCH   3   4
ENDBRANCH   2   3
BRANCH   2   9
ATOM      9  O   UNL     1      16.266  78.728  -0.351  1.00  0.00    -0.388 OA
ATOM     10  H   UNL     1      16.472  79.359   0.388  1.00  0.00     0.211 HD
ENDBRANCH   2   9
ENDBRANCH   1   2
BRANCH   1  11
ATOM     11  O   UNL     1      12.649  78.358  -0.547  1.00  0.00    -0.487 OA
BRANCH  11  12
ATOM     12  C   UNL     1      12.072  79.477   0.074  1.00  0.00     0.161 A 
ATOM     13  C   UNL     1      12.533  79.965   1.312  1.00  0.00     0.050 A 
ATOM     14  C   UNL     1      11.002  80.119  -0.571  1.00  0.00     0.161 A 
ATOM     15  C   UNL     1      11.931  81.082   1.898  1.00  0.00     0.004 A 
ATOM     16  C   UNL     1      10.403  81.245   0.031  1.00  0.00     0.050 A 
ATOM     17  C   UNL     1      10.869  81.719   1.258  1.00  0.00     0.004 A 
BRANCH  14  18
ATOM     18  O   UNL     1      10.566  79.607  -1.806  1.00  0.00    -0.486 OA
BRANCH  18  19
ATOM     19  C   UNL     1       9.615  78.556  -1.975  1.00  0.00     0.257 C 
BRANCH  19  20
ATOM     20  C   UNL     1       8.221  79.109  -2.063  1.00  0.00     0.006 C 
ATOM     21  C   UNL     1       8.009  80.406  -2.295  1.00  0.00     0.007 C 
ENDBRANCH  19  20
ENDBRANCH  18  19
ENDBRANCH  14  18
ENDBRANCH  11  12
ENDBRANCH   1  11
TORSDOF 10
ENDMDL
MODEL 6
REMARK VINA RESULT:    -6.566      1.518      3.570
REMARK INTER + INTRA:         -11.192
REMARK INTER:                 -10.634
REMARK INTRA:                  -0.558
REMARK UNBOUND:                -0.979
REMARK SMILES C=CCOc1ccccc1OCC(O)CNC(C)C
REMARK SMILES IDX 12 1 13 2 15 3 16 4 17 6 18 7 19 8 14 9 11 11 10 12 9 13
REMARK SMILES IDX 5 14 8 15 6 16 7 17 4 18 3 19 2 20 1 21
REMARK H PARENT 16 5 14 10
REMARK Flexibility Score: inf
ROOT
ATOM      1  C   UNL     1       8.160  74.808  -1.909  1.00  0.00     0.262 C 
ENDROOT
BRANCH   1   2
ATOM      2  C   UNL     1       9.525  74.106  -1.917  1.00  0.00     0.165 C 
BRANCH   2   3
ATOM      3  C   UNL     1       9.423  72.707  -2.569  1.00  0.00     0.116 C 
BRANCH   3   4
ATOM      4  N   UNL     1      10.646  72.335  -3.304  1.00  0.00    -0.312 NA
ATOM      5  H   UNL     1      11.466  72.830  -2.882  1.00  0.00     0.123 HD
BRANCH   4   6
ATOM      6  C   UNL     1      10.546  72.604  -4.755  1.00  0.00     0.047 C 
ATOM      7  C   UNL     1      11.944  72.687  -5.387  1.00  0.00     0.024 C 
ATOM      8  C   UNL     1       9.742  71.487  -5.429  1.00  0.00     0.024 C 
ENDBRANCH   4   6
ENDBRANCH   3   4
ENDBRANCH   2   3
BRANCH   2   9
ATOM      9  O   UNL     1      10.037  74.016  -0.611  1.00  0.00    -0.388 OA
ATOM     10  H   UNL     1      11.029  74.019  -0.675  1.00  0.00     0.211 HD
ENDBRANCH   2   9
ENDBRANCH   1   2
BRANCH   1  11
ATOM     11  O   UNL     1       8.340  76.197  -1.641  1.00  0.00    -0.487 OA
BRANCH  11  12
ATOM     12  C   UNL     1       7.565  76.941  -0.739  1.00  0.00     0.161 A 
ATOM     13  C   UNL     1       6.817  76.330   0.287  1.00  0.00     0.050 A 
ATOM     14  C   UNL     1       7.542  78.340  -0.875  1.00  0.00     0.161 A 
ATOM     15  C   UNL     1       6.057  77.106   1.165  1.00  0.00     0.004 A 
ATOM     16  C   UNL     1       6.770  79.112   0.018  1.00  0.00     0.050 A 
ATOM     17  C   UNL     1       6.033  78.493   1.030  1.00  0.00     0.004 A 
BRANCH  14  18
ATOM     18  O   UNL     1       8.299  78.919  -1.908  1.00  0.00    -0.486 OA
BRANCH  18  19
ATOM     19  C   UNL     1       8.400  80.318  -2.174  1.00  0.00     0.257 C 
BRANCH  19  20
ATOM     20  C   UNL     1       9.764  80.830  -1.813  1.00  0.00     0.006 C 
ATOM     21  C   UNL     1      10.174  80.861  -0.543  1.00  0.00     0.007 C 
ENDBRANCH  19  20
ENDBRANCH  18  19
ENDBRANCH  14  18
ENDBRANCH  11  12
ENDBRANCH   1  11
TORSDOF 10
ENDMDL
MODEL 7
REMARK VINA RESULT:    -6.552      1.689      3.629
REMARK INTER + INTRA:         -11.170
REMARK INTER:                  -9.991
REMARK INTRA:                  -1.179
REMARK UNBOUND:                -0.979
REMARK SMILES C=CCOc1ccccc1OCC(O)CNC(C)C
REMARK SMILES IDX 12 1 13 2 15 3 16 4 17 6 18 7 19 8 14 9 11 11 10 12 9 13
REMARK SMILES IDX 5 14 8 15 6 16 7 17 4 18 3 19 2 20 1 21
REMARK H PARENT 16 5 14 10
REMARK Flexibility Score: inf
ROOT
ATOM      1  C   UNL     1       6.695  74.811  -1.924  1.00  0.00     0.262 C 
ENDROOT
BRANCH   1   2
ATOM      2  C   UNL     1       7.244  74.821  -3.357  1.00  0.00     0.165 C 
BRANCH   2   3
ATOM      3  C   UNL     1       8.738  74.419  -3.380  1.00  0.00     0.116 C 
BRANCH   3   4
ATOM      4  N   UNL     1       9.006  73.197  -2.600  1.00  0.00    -0.312 NA
ATOM      5  H   UNL     1       9.362  73.464  -1.652  1.00  0.00     0.123 HD
BRANCH   4   6
ATOM      6  C   UNL     1       9.938  72.275  -3.284  1.00  0.00     0.047 C 
ATOM      7  C   UNL     1      10.118  70.985  -2.469  1.00  0.00     0.024 C 
ATOM      8  C   UNL     1       9.392  71.932  -4.674  1.00  0.00     0.024 C 
ENDBRANCH   4   6
ENDBRANCH   3   4
ENDBRANCH   2   3
BRANCH   2   9
ATOM      9  O   UNL     1       7.053  76.084  -3.946  1.00  0.00    -0.388 OA
ATOM     10  H   UNL     1       7.082  75.965  -4.931  1.00  0.00     0.211 HD
ENDBRANCH   2   9
ENDBRANCH   1   2
BRANCH   1  11
ATOM     11  O   UNL     1       7.536  75.601  -1.085  1.00  0.00    -0.487 OA
BRANCH  11  12
ATOM     12  C   UNL     1       7.136  76.780  -0.440  1.00  0.00     0.161 A 
ATOM     13  C   UNL     1       6.342  76.764   0.725  1.00  0.00     0.050 A 
ATOM     14  C   UNL     1       7.546  78.010  -0.983  1.00  0.00     0.161 A 
ATOM     15  C   UNL     1       5.964  77.960   1.338  1.00  0.00     0.004 A 
ATOM     16  C   UNL     1       7.157  79.211  -0.354  1.00  0.00     0.050 A 
ATOM     17  C   UNL     1       6.370  79.180   0.799  1.00  0.00     0.004 A 
BRANCH  14  18
ATOM     18  O   UNL     1       8.337  77.992  -2.145  1.00  0.00    -0.486 OA
BRANCH  18  19
ATOM     19  C   UNL     1       9.756  77.852  -2.176  1.00  0.00     0.257 C 
BRANCH  19  20
ATOM     20  C   UNL     1      10.410  78.856  -1.270  1.00  0.00     0.006 C 
ATOM     21  C   UNL     1      10.731  80.074  -1.712  1.00  0.00     0.007 C 
ENDBRANCH  19  20
ENDBRANCH  18  19
ENDBRANCH  14  18
ENDBRANCH  11  12
ENDBRANCH   1  11
TORSDOF 10
ENDMDL
MODEL 8
REMARK VINA RESULT:    -6.538      2.370      4.272
REMARK INTER + INTRA:         -11.147
REMARK INTER:                 -10.226
REMARK INTRA:                  -0.922
REMARK UNBOUND:                -0.979
REMARK SMILES C=CCOc1ccccc1OCC(O)CNC(C)C
REMARK SMILES IDX 12 1 13 2 15 3 16 4 17 6 18 7 19 8 14 9 11 11 10 12 9 13
REMARK SMILES IDX 5 14 8 15 6 16 7 17 4 18 3 19 2 20 1 21
REMARK H PARENT 16 5 14 10
REMARK Flexibility Score: inf
ROOT
ATOM      1  C   UNL     1       9.434  75.216  -1.627  1.00  0.00     0.262 C 
ENDROOT
BRANCH   1   2
ATOM      2  C   UNL     1       8.595  74.098  -2.259  1.00  0.00     0.165 C 
BRANCH   2   3
ATOM      3  C   UNL     1       9.492  72.918  -2.704  1.00  0.00     0.116 C 
BRANCH   3   4
ATOM      4  N   UNL     1      10.518  73.325  -3.681  1.00  0.00    -0.312 NA
ATOM      5  H   UNL     1      10.126  74.070  -4.304  1.00  0.00     0.123 HD
BRANCH   4   6
ATOM      6  C   UNL     1      11.043  72.188  -4.468  1.00  0.00     0.047 C 
ATOM      7  C   UNL     1       9.900  71.449  -5.180  1.00  0.00     0.024 C 
ATOM      8  C   UNL     1      12.047  72.702  -5.505  1.00  0.00     0.024 C 
ENDBRANCH   4   6
ENDBRANCH   3   4
ENDBRANCH   2   3
BRANCH   2   9
ATOM      9  O   UNL     1       7.848  74.597  -3.341  1.00  0.00    -0.388 OA
ATOM     10  H   UNL     1       8.402  74.501  -4.160  1.00  0.00     0.211 HD
ENDBRANCH   2   9
ENDBRANCH   1   2
BRANCH   1  11
ATOM     11  O   UNL     1       9.718  76.212  -2.608  1.00  0.00    -0.487 OA
BRANCH  11  12
ATOM     12  C   UNL     1       9.549  77.592  -2.414  1.00  0.00     0.161 A 
ATOM     13  C   UNL     1       8.275  78.177  -2.275  1.00  0.00     0.050 A 
ATOM     14  C   UNL     1      10.695  78.402  -2.360  1.00  0.00     0.161 A 
ATOM     15  C   UNL     1       8.148  79.555  -2.084  1.00  0.00     0.004 A 
ATOM     16  C   UNL     1      10.554  79.792  -2.166  1.00  0.00     0.050 A 
ATOM     17  C   UNL     1       9.286  80.360  -2.030  1.00  0.00     0.004 A 
BRANCH  14  18
ATOM     18  O   UNL     1      11.951  77.787  -2.502  1.00  0.00    -0.486 OA
BRANCH  18  19
ATOM     19  C   UNL     1      13.205  78.468  -2.528  1.00  0.00     0.257 C 
BRANCH  19  20
ATOM     20  C   UNL     1      13.673  78.666  -3.942  1.00  0.00     0.006 C 
ATOM     21  C   UNL     1      13.545  79.847  -4.550  1.00  0.00     0.007 C 
ENDBRANCH  19  20
ENDBRANCH  18  19
ENDBRANCH  14  18
ENDBRANCH  11  12
ENDBRANCH   1  11
TORSDOF 10
ENDMDL
MODEL 9
REMARK VINA RESULT:    -6.516      1.363      1.545
REMARK INTER + INTRA:         -11.113
REMARK INTER:                 -10.192
REMARK INTRA:                  -0.921
REMARK UNBOUND:                -0.979
REMARK SMILES C=CCOc1ccccc1OCC(O)CNC(C)C
REMARK SMILES IDX 12 1 13 2 15 3 16 4 17 6 18 7 19 8 14 9 11 11 10 12 9 13
REMARK SMILES IDX 5 14 8 15 6 16 7 17 4 18 3 19 2 20 1 21
REMARK H PARENT 16 5 14 10
REMARK Flexibility Score: inf
ROOT
ATOM      1  C   UNL     1       9.892  75.857  -2.284  1.00  0.00     0.262 C 
ENDROOT
BRANCH   1   2
ATOM      2  C   UNL     1       8.710  74.880  -2.327  1.00  0.00     0.165 C 
BRANCH   2   3
ATOM      3  C   UNL     1       9.093  73.579  -3.071  1.00  0.00     0.116 C 
BRANCH   3   4
ATOM      4  N   UNL     1       9.356  72.458  -2.150  1.00  0.00    -0.312 NA
ATOM      5  H   UNL     1       9.835  72.821  -1.292  1.00  0.00     0.123 HD
BRANCH   4   6
ATOM      6  C   UNL     1      10.135  71.370  -2.780  1.00  0.00     0.047 C 
ATOM      7  C   UNL     1       9.661  71.130  -4.221  1.00  0.00     0.024 C 
ATOM      8  C   UNL     1      11.622  71.740  -2.783  1.00  0.00     0.024 C 
ENDBRANCH   4   6
ENDBRANCH   3   4
ENDBRANCH   2   3
BRANCH   2   9
ATOM      9  O   UNL     1       7.591  75.491  -2.923  1.00  0.00    -0.388 OA
ATOM     10  H   UNL     1       7.768  75.556  -3.898  1.00  0.00     0.211 HD
ENDBRANCH   2   9
ENDBRANCH   1   2
BRANCH   1  11
ATOM     11  O   UNL     1       9.465  77.144  -2.727  1.00  0.00    -0.487 OA
BRANCH  11  12
ATOM     12  C   UNL     1       9.657  78.336  -2.012  1.00  0.00     0.161 A 
ATOM     13  C   UNL     1      10.835  79.099  -2.133  1.00  0.00     0.050 A 
ATOM     14  C   UNL     1       8.634  78.769  -1.152  1.00  0.00     0.161 A 
ATOM     15  C   UNL     1      10.988  80.281  -1.404  1.00  0.00     0.004 A 
ATOM     16  C   UNL     1       8.801  79.964  -0.422  1.00  0.00     0.050 A 
ATOM     17  C   UNL     1       9.973  80.711  -0.550  1.00  0.00     0.004 A 
BRANCH  14  18
ATOM     18  O   UNL     1       7.471  77.985  -1.054  1.00  0.00    -0.486 OA
BRANCH  18  19
ATOM     19  C   UNL     1       6.757  77.713   0.152  1.00  0.00     0.257 C 
BRANCH  19  20
ATOM     20  C   UNL     1       6.810  76.249   0.482  1.00  0.00     0.006 C 
ATOM     21  C   UNL     1       5.717  75.486   0.405  1.00  0.00     0.007 C 
ENDBRANCH  19  20
ENDBRANCH  18  19
ENDBRANCH  14  18
ENDBRANCH  11  12
ENDBRANCH   1  11
TORSDOF 10
ENDMDL
MODEL 10
REMARK VINA RESULT:    -6.427      2.302      5.761
REMARK INTER + INTRA:         -10.976
REMARK INTER:                  -9.837
REMARK INTRA:                  -1.138
REMARK UNBOUND:                -0.979
REMARK SMILES C=CCOc1ccccc1OCC(O)CNC(C)C
REMARK SMILES IDX 12 1 13 2 15 3 16 4 17 6 18 7 19 8 14 9 11 11 10 12 9 13
REMARK SMILES IDX 5 14 8 15 6 16 7 17 4 18 3 19 2 20 1 21
REMARK H PARENT 16 5 14 10
REMARK Flexibility Score: inf
ROOT
ATOM      1  C   UNL     1      10.473  76.765  -0.906  1.00  0.00     0.262 C 
ENDROOT
BRANCH   1   2
ATOM      2  C   UNL     1      11.420  77.733  -1.628  1.00  0.00     0.165 C 
BRANCH   2   3
ATOM      3  C   UNL     1      11.050  79.203  -1.317  1.00  0.00     0.116 C 
BRANCH   3   4
ATOM      4  N   UNL     1      10.042  79.741  -2.249  1.00  0.00    -0.312 NA
ATOM      5  H   UNL     1      10.522  80.308  -2.987  1.00  0.00     0.123 HD
BRANCH   4   6
ATOM      6  C   UNL     1       8.993  80.529  -1.565  1.00  0.00     0.047 C 
ATOM      7  C   UNL     1       7.597  80.093  -2.034  1.00  0.00     0.024 C 
ATOM      8  C   UNL     1       9.111  80.333  -0.050  1.00  0.00     0.024 C 
ENDBRANCH   4   6
ENDBRANCH   3   4
ENDBRANCH   2   3
BRANCH   2   9
ATOM      9  O   UNL     1      11.403  77.492  -3.014  1.00  0.00    -0.388 OA
ATOM     10  H   UNL     1      11.249  76.521  -3.149  1.00  0.00     0.211 HD
ENDBRANCH   2   9
ENDBRANCH   1   2
BRANCH   1  11
ATOM     11  O   UNL     1       9.211  76.748  -1.570  1.00  0.00    -0.487 OA
BRANCH  11  12
ATOM     12  C   UNL     1       8.026  76.242  -1.014  1.00  0.00     0.161 A 
ATOM     13  C   UNL     1       7.338  76.911   0.018  1.00  0.00     0.050 A 
ATOM     14  C   UNL     1       7.522  75.029  -1.513  1.00  0.00     0.161 A 
ATOM     15  C   UNL     1       6.161  76.373   0.545  1.00  0.00     0.004 A 
ATOM     16  C   UNL     1       6.332  74.497  -0.972  1.00  0.00     0.050 A 
ATOM     17  C   UNL     1       5.660  75.169   0.051  1.00  0.00     0.004 A 
BRANCH  14  18
ATOM     18  O   UNL     1       8.231  74.387  -2.542  1.00  0.00    -0.486 OA
BRANCH  18  19
ATOM     19  C   UNL     1       9.116  73.281  -2.371  1.00  0.00     0.257 C 
BRANCH  19  20
ATOM     20  C   UNL     1       9.441  72.649  -3.694  1.00  0.00     0.006 C 
ATOM     21  C   UNL     1       9.760  71.355  -3.779  1.00  0.00     0.007 C 
ENDBRANCH  19  20
ENDBRANCH  18  19
ENDBRANCH  14  18
ENDBRANCH  11  12
ENDBRANCH   1  11
TORSDOF 10
ENDMDL
MODEL 11
REMARK VINA RESULT:    -6.398      2.044      3.406
REMARK INTER + INTRA:         -10.930
REMARK INTER:                 -10.247
REMARK INTRA:                  -0.682
REMARK UNBOUND:                -0.979
REMARK SMILES C=CCOc1ccccc1OCC(O)CNC(C)C
REMARK SMILES IDX 12 1 13 2 15 3 16 4 17 6 18 7 19 8 14 9 11 11 10 12 9 13
REMARK SMILES IDX 5 14 8 15 6 16 7 17 4 18 3 19 2 20 1 21
REMARK H PARENT 16 5 14 10
REMARK Flexibility Score: inf
ROOT
ATOM      1  C   UNL     1       9.532  76.287  -2.514  1.00  0.00     0.262 C 
ENDROOT
BRANCH   1   2
ATOM      2  C   UNL     1       9.754  74.936  -1.822  1.00  0.00     0.165 C 
BRANCH   2   3
ATOM      3  C   UNL     1       9.624  73.770  -2.831  1.00  0.00     0.116 C 
BRANCH   3   4
ATOM      4  N   UNL     1       9.341  72.482  -2.172  1.00  0.00    -0.312 NA
ATOM      5  H   UNL     1       9.506  72.576  -1.143  1.00  0.00     0.123 HD
BRANCH   4   6
ATOM      6  C   UNL     1      10.123  71.364  -2.741  1.00  0.00     0.047 C 
ATOM      7  C   UNL     1       9.646  71.037  -4.164  1.00  0.00     0.024 C 
ATOM      8  C   UNL     1      11.608  71.740  -2.771  1.00  0.00     0.024 C 
ENDBRANCH   4   6
ENDBRANCH   3   4
ENDBRANCH   2   3
BRANCH   2   9
ATOM      9  O   UNL     1       8.855  74.779  -0.753  1.00  0.00    -0.388 OA
ATOM     10  H   UNL     1       7.969  74.544  -1.136  1.00  0.00     0.211 HD
ENDBRANCH   2   9
ENDBRANCH   1   2
BRANCH   1  11
ATOM     11  O   UNL     1      10.028  77.336  -1.684  1.00  0.00    -0.487 OA
BRANCH  11  12
ATOM     12  C   UNL     1      11.107  78.170  -2.013  1.00  0.00     0.161 A 
ATOM     13  C   UNL     1      12.006  77.854  -3.051  1.00  0.00     0.050 A 
ATOM     14  C   UNL     1      11.284  79.353  -1.276  1.00  0.00     0.161 A 
ATOM     15  C   UNL     1      13.069  78.711  -3.348  1.00  0.00     0.004 A 
ATOM     16  C   UNL     1      12.361  80.209  -1.587  1.00  0.00     0.050 A 
ATOM     17  C   UNL     1      13.245  79.885  -2.617  1.00  0.00     0.004 A 
BRANCH  14  18
ATOM     18  O   UNL     1      10.369  79.638  -0.248  1.00  0.00    -0.486 OA
BRANCH  18  19
ATOM     19  C   UNL     1       9.403  80.688  -0.270  1.00  0.00     0.257 C 
BRANCH  19  20
ATOM     20  C   UNL     1       8.107  80.205  -0.855  1.00  0.00     0.006 C 
ATOM     21  C   UNL     1       7.850  80.334  -2.159  1.00  0.00     0.007 C 
ENDBRANCH  19  20
ENDBRANCH  18  19
ENDBRANCH  14  18
ENDBRANCH  11  12
ENDBRANCH   1  11
TORSDOF 10
ENDMDL
MODEL 12
REMARK VINA RESULT:    -6.351      3.494      5.847
REMARK INTER + INTRA:         -10.857
REMARK INTER:                 -10.065
REMARK INTRA:                  -0.792
REMARK UNBOUND:                -0.979
REMARK SMILES C=CCOc1ccccc1OCC(O)CNC(C)C
REMARK SMILES IDX 12 1 13 2 15 3 16 4 17 6 18 7 19 8 14 9 11 11 10 12 9 13
REMARK SMILES IDX 5 14 8 15 6 16 7 17 4 18 3 19 2 20 1 21
REMARK H PARENT 16 5 14 10
REMARK Flexibility Score: inf
ROOT
ATOM      1  C   UNL     1       8.115  80.284  -0.327  1.00  0.00     0.262 C 
ENDROOT
BRANCH   1   2
ATOM      2  C   UNL     1       7.450  79.415  -1.403  1.00  0.00     0.165 C 
BRANCH   2   3
ATOM      3  C   UNL     1       8.302  78.159  -1.704  1.00  0.00     0.116 C 
BRANCH   3   4
ATOM      4  N   UNL     1       7.858  77.454  -2.921  1.00  0.00    -0.312 NA
ATOM      5  H   UNL     1       6.874  77.733  -3.142  1.00  0.00     0.123 HD
BRANCH   4   6
ATOM      6  C   UNL     1       7.989  75.985  -2.811  1.00  0.00     0.047 C 
ATOM      7  C   UNL     1       7.740  75.526  -1.366  1.00  0.00     0.024 C 
ATOM      8  C   UNL     1       6.981  75.310  -3.746  1.00  0.00     0.024 C 
ENDBRANCH   4   6
ENDBRANCH   3   4
ENDBRANCH   2   3
BRANCH   2   9
ATOM      9  O   UNL     1       7.230  80.166  -2.572  1.00  0.00    -0.388 OA
ATOM     10  H   UNL     1       6.643  80.931  -2.333  1.00  0.00     0.211 HD
ENDBRANCH   2   9
ENDBRANCH   1   2
BRANCH   1  11
ATOM     11  O   UNL     1       9.365  80.771  -0.813  1.00  0.00    -0.487 OA
BRANCH  11  12
ATOM     12  C   UNL     1      10.583  80.662  -0.125  1.00  0.00     0.161 A 
ATOM     13  C   UNL     1      10.721  81.054   1.221  1.00  0.00     0.050 A 
ATOM     14  C   UNL     1      11.693  80.144  -0.814  1.00  0.00     0.161 A 
ATOM     15  C   UNL     1      11.951  80.929   1.870  1.00  0.00     0.004 A 
ATOM     16  C   UNL     1      12.930  80.023  -0.147  1.00  0.00     0.050 A 
ATOM     17  C   UNL     1      13.053  80.415   1.187  1.00  0.00     0.004 A 
BRANCH  14  18
ATOM     18  O   UNL     1      11.523  79.761  -2.156  1.00  0.00    -0.486 OA
BRANCH  18  19
ATOM     19  C   UNL     1      11.914  78.507  -2.714  1.00  0.00     0.257 C 
BRANCH  19  20
ATOM     20  C   UNL     1      13.037  78.688  -3.694  1.00  0.00     0.006 C 
ATOM     21  C   UNL     1      13.414  79.905  -4.092  1.00  0.00     0.007 C 
ENDBRANCH  19  20
ENDBRANCH  18  19
ENDBRANCH  14  18
ENDBRANCH  11  12
ENDBRANCH   1  11
TORSDOF 10
ENDMDL
MODEL 13
REMARK VINA RESULT:    -6.330      5.881      7.610
REMARK INTER + INTRA:         -10.824
REMARK INTER:                 -10.002
REMARK INTRA:                  -0.822
REMARK UNBOUND:                -0.979
REMARK SMILES C=CCOc1ccccc1OCC(O)CNC(C)C
REMARK SMILES IDX 12 1 13 2 15 3 16 4 17 6 18 7 19 8 14 9 11 11 10 12 9 13
REMARK SMILES IDX 5 14 8 15 6 16 7 17 4 18 3 19 2 20 1 21
REMARK H PARENT 16 5 14 10
REMARK Flexibility Score: inf
ROOT
ATOM      1  C   UNL     1      13.390  78.650  -3.423  1.00  0.00     0.262 C 
ENDROOT
BRANCH   1   2
ATOM      2  C   UNL     1      14.560  79.606  -3.157  1.00  0.00     0.165 C 
BRANCH   2   3
ATOM      3  C   UNL     1      15.227  80.045  -4.482  1.00  0.00     0.116 C 
BRANCH   3   4
ATOM      4  N   UNL     1      16.698  80.071  -4.393  1.00  0.00    -0.312 NA
ATOM      5  H   UNL     1      16.984  80.639  -3.561  1.00  0.00     0.123 HD
BRANCH   4   6
ATOM      6  C   UNL     1      17.339  80.570  -5.629  1.00  0.00     0.047 C 
ATOM      7  C   UNL     1      18.697  81.214  -5.314  1.00  0.00     0.024 C 
ATOM      8  C   UNL     1      17.536  79.408  -6.608  1.00  0.00     0.024 C 
ENDBRANCH   4   6
ENDBRANCH   3   4
ENDBRANCH   2   3
BRANCH   2   9
ATOM      9  O   UNL     1      15.497  79.006  -2.296  1.00  0.00    -0.388 OA
ATOM     10  H   UNL     1      15.405  78.022  -2.390  1.00  0.00     0.211 HD
ENDBRANCH   2   9
ENDBRANCH   1   2
BRANCH   1  11
ATOM     11  O   UNL     1      12.726  78.355  -2.195  1.00  0.00    -0.487 OA
BRANCH  11  12
ATOM     12  C   UNL     1      12.025  79.294  -1.423  1.00  0.00     0.161 A 
ATOM     13  C   UNL     1      10.844  79.908  -1.884  1.00  0.00     0.050 A 
ATOM     14  C   UNL     1      12.528  79.622  -0.153  1.00  0.00     0.161 A 
ATOM     15  C   UNL     1      10.175  80.839  -1.086  1.00  0.00     0.004 A 
ATOM     16  C   UNL     1      11.842  80.562   0.643  1.00  0.00     0.050 A 
ATOM     17  C   UNL     1      10.674  81.165   0.174  1.00  0.00     0.004 A 
BRANCH  14  18
ATOM     18  O   UNL     1      13.708  78.991   0.278  1.00  0.00    -0.486 OA
BRANCH  18  19
ATOM     19  C   UNL     1      13.823  78.149   1.424  1.00  0.00     0.257 C 
BRANCH  19  20
ATOM     20  C   UNL     1      13.579  76.713   1.056  1.00  0.00     0.006 C 
ATOM     21  C   UNL     1      14.328  75.734   1.570  1.00  0.00     0.007 C 
ENDBRANCH  19  20
ENDBRANCH  18  19
ENDBRANCH  14  18
ENDBRANCH  11  12
ENDBRANCH   1  11
TORSDOF 10
ENDMDL
MODEL 14
REMARK VINA RESULT:    -6.273      2.691      6.232
REMARK INTER + INTRA:         -10.736
REMARK INTER:                 -10.013
REMARK INTRA:                  -0.723
REMARK UNBOUND:                -0.979
REMARK SMILES C=CCOc1ccccc1OCC(O)CNC(C)C
REMARK SMILES IDX 12 1 13 2 15 3 16 4 17 6 18 7 19 8 14 9 11 11 10 12 9 13
REMARK SMILES IDX 5 14 8 15 6 16 7 17 4 18 3 19 2 20 1 21
REMARK H PARENT 16 5 14 10
REMARK Flexibility Score: inf
ROOT
ATOM      1  C   UNL     1       8.364  78.387  -2.227  1.00  0.00     0.262 C 
ENDROOT
BRANCH   1   2
ATOM      2  C   UNL     1       8.272  79.887  -1.920  1.00  0.00     0.165 C 
BRANCH   2   3
ATOM      3  C   UNL     1       8.286  80.141  -0.394  1.00  0.00     0.116 C 
BRANCH   3   4
ATOM      4  N   UNL     1       9.619  79.936   0.201  1.00  0.00    -0.312 NA
ATOM      5  H   UNL     1       9.547  80.005   1.243  1.00  0.00     0.123 HD
BRANCH   4   6
ATOM      6  C   UNL     1      10.633  80.871  -0.330  1.00  0.00     0.047 C 
ATOM      7  C   UNL     1      11.058  81.879   0.748  1.00  0.00     0.024 C 
ATOM      8  C   UNL     1      11.857  80.083  -0.809  1.00  0.00     0.024 C 
ENDBRANCH   4   6
ENDBRANCH   3   4
ENDBRANCH   2   3
BRANCH   2   9
ATOM      9  O   UNL     1       7.121  80.439  -2.511  1.00  0.00    -0.388 OA
ATOM     10  H   UNL     1       6.626  80.932  -1.806  1.00  0.00     0.211 HD
ENDBRANCH   2   9
ENDBRANCH   1   2
BRANCH   1  11
ATOM     11  O   UNL     1       8.473  77.656  -1.007  1.00  0.00    -0.487 OA
BRANCH  11  12
ATOM     12  C   UNL     1       7.525  76.730  -0.547  1.00  0.00     0.161 A 
ATOM     13  C   UNL     1       6.563  77.064   0.427  1.00  0.00     0.050 A 
ATOM     14  C   UNL     1       7.547  75.431  -1.083  1.00  0.00     0.161 A 
ATOM     15  C   UNL     1       5.636  76.113   0.860  1.00  0.00     0.004 A 
ATOM     16  C   UNL     1       6.606  74.480  -0.638  1.00  0.00     0.050 A 
ATOM     17  C   UNL     1       5.658  74.824   0.328  1.00  0.00     0.004 A 
BRANCH  14  18
ATOM     18  O   UNL     1       8.519  75.129  -2.053  1.00  0.00    -0.486 OA
BRANCH  18  19
ATOM     19  C   UNL     1       8.410  74.104  -3.040  1.00  0.00     0.257 C 
BRANCH  19  20
ATOM     20  C   UNL     1       9.328  72.959  -2.720  1.00  0.00     0.006 C 
ATOM     21  C   UNL     1       9.627  72.039  -3.640  1.00  0.00     0.007 C 
ENDBRANCH  19  20
ENDBRANCH  18  19
ENDBRANCH  14  18
ENDBRANCH  11  12
ENDBRANCH   1  11
TORSDOF 10
ENDMDL
MODEL 15
REMARK VINA RESULT:    -6.241      5.705      7.664
REMARK INTER + INTRA:         -10.686
REMARK INTER:                 -10.023
REMARK INTRA:                  -0.663
REMARK UNBOUND:                -0.979
REMARK SMILES C=CCOc1ccccc1OCC(O)CNC(C)C
REMARK SMILES IDX 12 1 13 2 15 3 16 4 17 6 18 7 19 8 14 9 11 11 10 12 9 13
REMARK SMILES IDX 5 14 8 15 6 16 7 17 4 18 3 19 2 20 1 21
REMARK H PARENT 16 5 14 10
REMARK Flexibility Score: inf
ROOT
ATOM      1  C   UNL     1      13.558  78.566  -3.707  1.00  0.00     0.262 C 
ENDROOT
BRANCH   1   2
ATOM      2  C   UNL     1      14.678  79.557  -3.362  1.00  0.00     0.165 C 
BRANCH   2   3
ATOM      3  C   UNL     1      15.391  80.055  -4.642  1.00  0.00     0.116 C 
BRANCH   3   4
ATOM      4  N   UNL     1      16.858  80.072  -4.500  1.00  0.00    -0.312 NA
ATOM      5  H   UNL     1      17.115  80.579  -3.621  1.00  0.00     0.123 HD
BRANCH   4   6
ATOM      6  C   UNL     1      17.540  80.656  -5.676  1.00  0.00     0.047 C 
ATOM      7  C   UNL     1      18.927  81.190  -5.288  1.00  0.00     0.024 C 
ATOM      8  C   UNL     1      17.685  79.590  -6.766  1.00  0.00     0.024 C 
ENDBRANCH   4   6
ENDBRANCH   3   4
ENDBRANCH   2   3
BRANCH   2   9
ATOM      9  O   UNL     1      15.594  78.969  -2.471  1.00  0.00    -0.388 OA
ATOM     10  H   UNL     1      15.336  78.017  -2.359  1.00  0.00     0.211 HD
ENDBRANCH   2   9
ENDBRANCH   1   2
BRANCH   1  11
ATOM     11  O   UNL     1      12.861  78.201  -2.518  1.00  0.00    -0.487 OA
BRANCH  11  12
ATOM     12  C   UNL     1      11.464  78.187  -2.386  1.00  0.00     0.161 A 
ATOM     13  C   UNL     1      10.689  77.066  -2.746  1.00  0.00     0.050 A 
ATOM     14  C   UNL     1      10.831  79.334  -1.879  1.00  0.00     0.161 A 
ATOM     15  C   UNL     1       9.300  77.092  -2.601  1.00  0.00     0.004 A 
ATOM     16  C   UNL     1       9.428  79.347  -1.736  1.00  0.00     0.050 A 
ATOM     17  C   UNL     1       8.672  78.230  -2.097  1.00  0.00     0.004 A 
BRANCH  14  18
ATOM     18  O   UNL     1      11.632  80.435  -1.529  1.00  0.00    -0.486 OA
BRANCH  18  19
ATOM     19  C   UNL     1      11.892  80.877  -0.197  1.00  0.00     0.257 C 
BRANCH  19  20
ATOM     20  C   UNL     1      12.988  80.063   0.429  1.00  0.00     0.006 C 
ATOM     21  C   UNL     1      14.260  80.468   0.379  1.00  0.00     0.007 C 
ENDBRANCH  19  20
ENDBRANCH  18  19
ENDBRANCH  14  18
ENDBRANCH  11  12
ENDBRANCH   1  11
TORSDOF 10
ENDMDL
