MODEL 1
REMARK VINA RESULT:    -7.744      0.000      0.000
REMARK INTER + INTRA:          -9.845
REMARK INTER:                 -10.007
REMARK INTRA:                   0.163
REMARK UNBOUND:                 0.163
REMARK SMILES O=C1CN=C(c2ccccc2Cl)c2cc([N+](=O)[O-])ccc2N1
REMARK SMILES IDX 15 1 14 2 13 3 21 4 20 5 19 6 16 7 18 8 17 9 5 10 4 11 6 12
REMARK SMILES IDX 7 13 11 14 8 15 10 16 12 17 9 18 3 19 22 21 2 22 1 24
REMARK H PARENT 22 23
REMARK Flexibility Score: 90.00
ROOT
ATOM      1  C   UNL     1      13.738  79.558  -3.518  1.00  0.00     0.270 A 
ATOM      2  C   UNL     1      12.649  78.977  -2.847  1.00  0.00     0.098 A 
ATOM      3  C   UNL     1      12.727  78.631  -1.485  1.00  0.00     0.031 A 
ATOM      4  C   UNL     1      13.942  78.860  -0.786  1.00  0.00     0.051 A 
ATOM      5  C   UNL     1      15.016  79.460  -1.457  1.00  0.00     0.034 A 
ATOM      6  C   UNL     1      14.920  79.802  -2.805  1.00  0.00     0.088 A 
ENDROOT
BRANCH   1   7
ATOM      7  N   UNL     1      13.643  79.909  -4.910  1.00  0.00     0.062 N 
ATOM      8  O   UNL     1      14.108  79.052  -5.881  1.00  0.00    -0.258 OA
ATOM      9  O   UNL     1      13.137  80.996  -5.261  1.00  0.00    -0.258 OA
ENDBRANCH   1   7
BRANCH   3  10
ATOM     10  C   UNL     1      11.500  78.101  -0.816  1.00  0.00     0.076 C 
ATOM     11  N   UNL     1      11.542  77.090   0.005  1.00  0.00    -0.274 NA
BRANCH  10  12
ATOM     12  C   UNL     1      10.169  78.663  -1.153  1.00  0.00     0.019 A 
ATOM     13  C   UNL     1       9.266  77.881  -1.895  1.00  0.00     0.012 A 
ATOM     14  C   UNL     1       9.782  79.961  -0.747  1.00  0.00     0.050 A 
ATOM     15  C   UNL     1       8.013  78.387  -2.248  1.00  0.00     0.001 A 
ATOM     16  C   UNL     1       8.522  80.457  -1.106  1.00  0.00     0.021 A 
ATOM     17  Cl  UNL     1      10.808  80.970   0.268  1.00  0.00    -0.084 Cl
ATOM     18  C   UNL     1       7.643  79.674  -1.858  1.00  0.00     0.002 A 
ENDBRANCH  10  12
BRANCH  11  19
ATOM     19  C   UNL     1      12.753  76.398   0.418  1.00  0.00     0.243 CG0
ATOM     20  G   UNL     1      13.613  77.338   1.196  1.00  0.00     0.000 G0
ENDBRANCH  11  19
ENDBRANCH   3  10
BRANCH   4  21
ATOM     21  N   UNL     1      14.105  78.541   0.607  1.00  0.00    -0.324 N 
ATOM     22  C   UNL     1      13.612  77.336   1.201  1.00  0.00     0.246 CG0
ATOM     23  H   UNL     1      14.770  79.117   1.171  1.00  0.00     0.170 HD
ATOM     24  O   UNL     1      13.897  77.070   2.400  1.00  0.00    -0.273 OA
ATOM     25  G   UNL     1      12.758  76.396   0.418  1.00  0.00     0.000 G0
ENDBRANCH   4  21
TORSDOF 2
ENDMDL
MODEL 2
REMARK VINA RESULT:    -7.346      4.326      5.588
REMARK INTER + INTRA:          -9.330
REMARK INTER:                  -9.570
REMARK INTRA:                   0.240
REMARK UNBOUND:                 0.163
REMARK SMILES O=C1CN=C(c2ccccc2Cl)c2cc([N+](=O)[O-])ccc2N1
REMARK SMILES IDX 15 1 14 2 13 3 21 4 20 5 19 6 16 7 18 8 17 9 5 10 4 11 6 12
REMARK SMILES IDX 7 13 11 14 8 15 10 16 12 17 9 18 3 19 22 21 2 22 1 24
REMARK H PARENT 22 23
REMARK Flexibility Score: 90.00
ROOT
ATOM      1  C   UNL     1      11.588  77.821  -2.790  1.00  0.00     0.270 A 
ATOM      2  C   UNL     1      10.985  76.572  -2.565  1.00  0.00     0.098 A 
ATOM      3  C   UNL     1       9.705  76.469  -1.986  1.00  0.00     0.031 A 
ATOM      4  C   UNL     1       9.026  77.657  -1.607  1.00  0.00     0.051 A 
ATOM      5  C   UNL     1       9.625  78.899  -1.855  1.00  0.00     0.034 A 
ATOM      6  C   UNL     1      10.890  78.983  -2.434  1.00  0.00     0.088 A 
ENDROOT
BRANCH   1   7
ATOM      7  N   UNL     1      12.895  77.911  -3.385  1.00  0.00     0.062 N 
ATOM      8  O   UNL     1      13.909  78.587  -2.746  1.00  0.00    -0.258 OA
ATOM      9  O   UNL     1      13.132  77.377  -4.489  1.00  0.00    -0.258 OA
ENDBRANCH   1   7
BRANCH   3  10
ATOM     10  C   UNL     1       9.091  75.113  -1.862  1.00  0.00     0.076 C 
ATOM     11  N   UNL     1       8.459  74.737  -0.786  1.00  0.00    -0.274 NA
BRANCH  10  12
ATOM     12  C   UNL     1       9.272  74.113  -2.942  1.00  0.00     0.019 A 
ATOM     13  C   UNL     1      10.317  73.178  -2.837  1.00  0.00     0.012 A 
ATOM     14  C   UNL     1       8.422  74.072  -4.072  1.00  0.00     0.050 A 
ATOM     15  C   UNL     1      10.530  72.236  -3.846  1.00  0.00     0.001 A 
ATOM     16  C   UNL     1       8.645  73.122  -5.077  1.00  0.00     0.021 A 
ATOM     17  Cl  UNL     1       7.030  75.138  -4.237  1.00  0.00    -0.084 Cl
ATOM     18  C   UNL     1       9.698  72.210  -4.967  1.00  0.00     0.002 A 
ENDBRANCH  10  12
BRANCH  11  19
ATOM     19  C   UNL     1       8.220  75.574   0.380  1.00  0.00     0.243 CG0
ATOM     20  G   UNL     1       7.321  76.702  -0.003  1.00  0.00     0.000 G0
ENDBRANCH  11  19
ENDBRANCH   3  10
BRANCH   4  21
ATOM     21  N   UNL     1       7.714  77.642  -1.015  1.00  0.00    -0.324 N 
ATOM     22  C   UNL     1       7.317  76.707  -0.008  1.00  0.00     0.246 CG0
ATOM     23  H   UNL     1       7.085  78.459  -1.187  1.00  0.00     0.170 HD
ATOM     24  O   UNL     1       6.193  76.832   0.549  1.00  0.00    -0.273 OA
ATOM     25  G   UNL     1       8.216  75.583   0.385  1.00  0.00     0.000 G0
ENDBRANCH   4  21
TORSDOF 2
ENDMDL
MODEL 3
REMARK VINA RESULT:    -7.045      3.377      5.756
REMARK INTER + INTRA:          -8.942
REMARK INTER:                  -9.297
REMARK INTRA:                   0.355
REMARK UNBOUND:                 0.163
REMARK SMILES O=C1CN=C(c2ccccc2Cl)c2cc([N+](=O)[O-])ccc2N1
REMARK SMILES IDX 15 1 14 2 13 3 21 4 20 5 19 6 16 7 18 8 17 9 5 10 4 11 6 12
REMARK SMILES IDX 7 13 11 14 8 15 10 16 12 17 9 18 3 19 22 21 2 22 1 24
REMARK H PARENT 22 23
REMARK Flexibility Score: 90.00
ROOT
ATOM      1  C   UNL     1      10.414  80.704   0.511  1.00  0.00     0.270 A 
ATOM      2  C   UNL     1      11.123  79.859  -0.359  1.00  0.00     0.098 A 
ATOM      3  C   UNL     1      10.463  79.111  -1.353  1.00  0.00     0.031 A 
ATOM      4  C   UNL     1       9.050  79.204  -1.458  1.00  0.00     0.051 A 
ATOM      5  C   UNL     1       8.353  80.066  -0.600  1.00  0.00     0.034 A 
ATOM      6  C   UNL     1       9.023  80.803   0.375  1.00  0.00     0.088 A 
ENDROOT
BRANCH   1   7
ATOM      7  N   UNL     1      11.102  81.465   1.521  1.00  0.00     0.062 N 
ATOM      8  O   UNL     1      11.629  80.841   2.629  1.00  0.00    -0.258 OA
ATOM      9  O   UNL     1      11.234  82.702   1.409  1.00  0.00    -0.258 OA
ENDBRANCH   1   7
BRANCH   3  10
ATOM     10  C   UNL     1      11.291  78.305  -2.300  1.00  0.00     0.076 C 
ATOM     11  N   UNL     1      10.957  77.096  -2.653  1.00  0.00    -0.274 NA
BRANCH  10  12
ATOM     12  C   UNL     1      12.584  78.837  -2.794  1.00  0.00     0.019 A 
ATOM     13  C   UNL     1      12.608  79.562  -3.999  1.00  0.00     0.012 A 
ATOM     14  C   UNL     1      13.793  78.637  -2.088  1.00  0.00     0.050 A 
ATOM     15  C   UNL     1      13.812  80.059  -4.505  1.00  0.00     0.001 A 
ATOM     16  C   UNL     1      14.993  79.141  -2.605  1.00  0.00     0.021 A 
ATOM     17  Cl  UNL     1      13.841  77.829  -0.524  1.00  0.00    -0.084 Cl
ATOM     18  C   UNL     1      15.003  79.845  -3.811  1.00  0.00     0.002 A 
ENDBRANCH  10  12
BRANCH  11  19
ATOM     19  C   UNL     1       9.745  76.407  -2.236  1.00  0.00     0.243 CG0
ATOM     20  G   UNL     1       8.561  77.114  -2.807  1.00  0.00     0.000 G0
ENDBRANCH  11  19
ENDBRANCH   3  10
BRANCH   4  21
ATOM     21  N   UNL     1       8.299  78.479  -2.448  1.00  0.00    -0.324 N 
ATOM     22  C   UNL     1       8.563  77.116  -2.794  1.00  0.00     0.246 CG0
ATOM     23  H   UNL     1       7.406  78.897  -2.795  1.00  0.00     0.170 HD
ATOM     24  O   UNL     1       7.788  76.510  -3.581  1.00  0.00    -0.273 OA
ATOM     25  G   UNL     1       9.753  76.407  -2.236  1.00  0.00     0.000 G0
ENDBRANCH   4  21
TORSDOF 2
ENDMDL
MODEL 4
REMARK VINA RESULT:    -7.027      2.982      3.991
REMARK INTER + INTRA:          -8.919
REMARK INTER:                  -9.168
REMARK INTRA:                   0.250
REMARK UNBOUND:                 0.163
REMARK SMILES O=C1CN=C(c2ccccc2Cl)c2cc([N+](=O)[O-])ccc2N1
REMARK SMILES IDX 15 1 14 2 13 3 21 4 20 5 19 6 16 7 18 8 17 9 5 10 4 11 6 12
REMARK SMILES IDX 7 13 11 14 8 15 10 16 12 17 9 18 3 19 22 21 2 22 1 24
REMARK H PARENT 22 23
REMARK Flexibility Score: 90.00
ROOT
ATOM      1  C   UNL     1      13.528  79.372  -4.022  1.00  0.00     0.270 A 
ATOM      2  C   UNL     1      12.548  79.639  -3.051  1.00  0.00     0.098 A 
ATOM      3  C   UNL     1      11.665  78.636  -2.606  1.00  0.00     0.031 A 
ATOM      4  C   UNL     1      11.763  77.336  -3.170  1.00  0.00     0.051 A 
ATOM      5  C   UNL     1      12.758  77.073  -4.121  1.00  0.00     0.034 A 
ATOM      6  C   UNL     1      13.626  78.077  -4.547  1.00  0.00     0.088 A 
ENDROOT
BRANCH   1   7
ATOM      7  N   UNL     1      14.425  80.407  -4.465  1.00  0.00     0.062 N 
ATOM      8  O   UNL     1      15.761  80.361  -4.140  1.00  0.00    -0.258 OA
ATOM      9  O   UNL     1      14.007  81.363  -5.152  1.00  0.00    -0.258 OA
ENDBRANCH   1   7
BRANCH   3  10
ATOM     10  C   UNL     1      10.710  78.969  -1.507  1.00  0.00     0.076 C 
ATOM     11  N   UNL     1       9.465  78.585  -1.534  1.00  0.00    -0.274 NA
BRANCH  10  12
ATOM     12  C   UNL     1      11.141  79.841  -0.387  1.00  0.00     0.019 A 
ATOM     13  C   UNL     1      10.468  81.057  -0.172  1.00  0.00     0.012 A 
ATOM     14  C   UNL     1      12.206  79.483   0.472  1.00  0.00     0.050 A 
ATOM     15  C   UNL     1      10.861  81.913   0.860  1.00  0.00     0.001 A 
ATOM     16  C   UNL     1      12.590  80.349   1.504  1.00  0.00     0.021 A 
ATOM     17  Cl  UNL     1      13.037  77.936   0.339  1.00  0.00    -0.084 Cl
ATOM     18  C   UNL     1      11.923  81.562   1.694  1.00  0.00     0.002 A 
ENDBRANCH  10  12
BRANCH  11  19
ATOM     19  C   UNL     1       8.866  77.758  -2.570  1.00  0.00     0.243 CG0
ATOM     20  G   UNL     1       9.501  76.407  -2.545  1.00  0.00     0.000 G0
ENDBRANCH  11  19
ENDBRANCH   3  10
BRANCH   4  21
ATOM     21  N   UNL     1      10.905  76.253  -2.768  1.00  0.00    -0.324 N 
ATOM     22  C   UNL     1       9.501  76.404  -2.542  1.00  0.00     0.246 CG0
ATOM     23  H   UNL     1      11.279  75.279  -2.825  1.00  0.00     0.170 HD
ATOM     24  O   UNL     1       8.793  75.387  -2.310  1.00  0.00    -0.273 OA
ATOM     25  G   UNL     1       8.866  77.755  -2.570  1.00  0.00     0.000 G0
ENDBRANCH   4  21
TORSDOF 2
ENDMDL
MODEL 5
REMARK VINA RESULT:    -7.011      4.006      5.414
REMARK INTER + INTRA:          -8.898
REMARK INTER:                  -9.151
REMARK INTRA:                   0.253
REMARK UNBOUND:                 0.163
REMARK SMILES O=C1CN=C(c2ccccc2Cl)c2cc([N+](=O)[O-])ccc2N1
REMARK SMILES IDX 15 1 14 2 13 3 21 4 20 5 19 6 16 7 18 8 17 9 5 10 4 11 6 12
REMARK SMILES IDX 7 13 11 14 8 15 10 16 12 17 9 18 3 19 22 21 2 22 1 24
REMARK H PARENT 22 23
REMARK Flexibility Score: 90.00
ROOT
ATOM      1  C   UNL     1      11.022  79.183  -2.338  1.00  0.00     0.270 A 
ATOM      2  C   UNL     1      10.292  78.034  -1.991  1.00  0.00     0.098 A 
ATOM      3  C   UNL     1       8.953  78.119  -1.561  1.00  0.00     0.031 A 
ATOM      4  C   UNL     1       8.343  79.397  -1.462  1.00  0.00     0.051 A 
ATOM      5  C   UNL     1       9.071  80.535  -1.832  1.00  0.00     0.034 A 
ATOM      6  C   UNL     1      10.394  80.434  -2.260  1.00  0.00     0.088 A 
ENDROOT
BRANCH   1   7
ATOM      7  N   UNL     1      12.389  79.081  -2.778  1.00  0.00     0.062 N 
ATOM      8  O   UNL     1      13.287  80.088  -2.507  1.00  0.00    -0.258 OA
ATOM      9  O   UNL     1      12.782  78.080  -3.412  1.00  0.00    -0.258 OA
ENDBRANCH   1   7
BRANCH   3  10
ATOM     10  C   UNL     1       8.213  76.849  -1.296  1.00  0.00     0.076 C 
ATOM     11  N   UNL     1       7.434  76.706  -0.261  1.00  0.00    -0.274 NA
BRANCH  10  12
ATOM     12  C   UNL     1       8.427  75.668  -2.168  1.00  0.00     0.019 A 
ATOM     13  C   UNL     1       7.640  75.523  -3.325  1.00  0.00     0.012 A 
ATOM     14  C   UNL     1       9.400  74.686  -1.870  1.00  0.00     0.050 A 
ATOM     15  C   UNL     1       7.800  74.412  -4.157  1.00  0.00     0.001 A 
ATOM     16  C   UNL     1       9.551  73.577  -2.713  1.00  0.00     0.021 A 
ATOM     17  Cl  UNL     1      10.494  74.837  -0.499  1.00  0.00    -0.084 Cl
ATOM     18  C   UNL     1       8.751  73.438  -3.849  1.00  0.00     0.002 A 
ENDBRANCH  10  12
BRANCH  11  19
ATOM     19  C   UNL     1       7.138  77.745   0.713  1.00  0.00     0.243 CG0
ATOM     20  G   UNL     1       6.397  78.852   0.040  1.00  0.00     0.000 G0
ENDBRANCH  11  19
ENDBRANCH   3  10
BRANCH   4  21
ATOM     21  N   UNL     1       6.979  79.572  -1.038  1.00  0.00    -0.324 N 
ATOM     22  C   UNL     1       6.396  78.852   0.052  1.00  0.00     0.246 CG0
ATOM     23  H   UNL     1       6.446  80.388  -1.414  1.00  0.00     0.170 HD
ATOM     24  O   UNL     1       5.234  79.145   0.442  1.00  0.00    -0.273 OA
ATOM     25  G   UNL     1       7.147  77.753   0.727  1.00  0.00     0.000 G0
ENDBRANCH   4  21
TORSDOF 2
ENDMDL
MODEL 6
REMARK VINA RESULT:    -6.949      2.766      4.699
REMARK INTER + INTRA:          -8.817
REMARK INTER:                  -9.200
REMARK INTRA:                   0.382
REMARK UNBOUND:                 0.163
REMARK SMILES O=C1CN=C(c2ccccc2Cl)c2cc([N+](=O)[O-])ccc2N1
REMARK SMILES IDX 15 1 14 2 13 3 21 4 20 5 19 6 16 7 18 8 17 9 5 10 4 11 6 12
REMARK SMILES IDX 7 13 11 14 8 15 10 16 12 17 9 18 3 19 22 21 2 22 1 24
REMARK H PARENT 22 23
REMARK Flexibility Score: 90.00
ROOT
ATOM      1  C   UNL     1      12.852  80.444   0.818  1.00  0.00     0.270 A 
ATOM      2  C   UNL     1      12.190  80.104  -0.373  1.00  0.00     0.098 A 
ATOM      3  C   UNL     1      12.905  79.727  -1.527  1.00  0.00     0.031 A 
ATOM      4  C   UNL     1      14.324  79.713  -1.481  1.00  0.00     0.051 A 
ATOM      5  C   UNL     1      14.975  80.032  -0.282  1.00  0.00     0.034 A 
ATOM      6  C   UNL     1      14.252  80.398   0.852  1.00  0.00     0.088 A 
ENDROOT
BRANCH   1   7
ATOM      7  N   UNL     1      12.107  80.825   1.990  1.00  0.00     0.062 N 
ATOM      8  O   UNL     1      12.007  79.969   3.063  1.00  0.00    -0.258 OA
ATOM      9  O   UNL     1      11.541  81.936   2.054  1.00  0.00    -0.258 OA
ENDBRANCH   1   7
BRANCH   3  10
ATOM     10  C   UNL     1      12.133  79.291  -2.729  1.00  0.00     0.076 C 
ATOM     11  N   UNL     1      12.452  79.676  -3.932  1.00  0.00    -0.274 NA
BRANCH  10  12
ATOM     12  C   UNL     1      10.905  78.473  -2.567  1.00  0.00     0.019 A 
ATOM     13  C   UNL     1      11.007  77.072  -2.627  1.00  0.00     0.012 A 
ATOM     14  C   UNL     1       9.638  79.063  -2.353  1.00  0.00     0.050 A 
ATOM     15  C   UNL     1       9.868  76.272  -2.501  1.00  0.00     0.001 A 
ATOM     16  C   UNL     1       8.504  78.250  -2.226  1.00  0.00     0.021 A 
ATOM     17  Cl  UNL     1       9.433  80.802  -2.165  1.00  0.00    -0.084 Cl
ATOM     18  C   UNL     1       8.618  76.860  -2.305  1.00  0.00     0.002 A 
ENDBRANCH  10  12
BRANCH  11  19
ATOM     19  C   UNL     1      13.599  80.505  -4.269  1.00  0.00     0.243 CG0
ATOM     20  G   UNL     1      14.852  79.762  -3.943  1.00  0.00     0.000 G0
ENDBRANCH  11  19
ENDBRANCH   3  10
BRANCH   4  21
ATOM     21  N   UNL     1      15.131  79.335  -2.611  1.00  0.00    -0.324 N 
ATOM     22  C   UNL     1      14.857  79.759  -3.950  1.00  0.00     0.246 CG0
ATOM     23  H   UNL     1      16.059  78.891  -2.429  1.00  0.00     0.170 HD
ATOM     24  O   UNL     1      15.674  79.488  -4.869  1.00  0.00    -0.273 OA
ATOM     25  G   UNL     1      13.608  80.513  -4.268  1.00  0.00     0.000 G0
ENDBRANCH   4  21
TORSDOF 2
ENDMDL
MODEL 7
REMARK VINA RESULT:    -6.749      3.872      5.952
REMARK INTER + INTRA:          -8.559
REMARK INTER:                  -9.284
REMARK INTRA:                   0.724
REMARK UNBOUND:                 0.163
REMARK SMILES O=C1CN=C(c2ccccc2Cl)c2cc([N+](=O)[O-])ccc2N1
REMARK SMILES IDX 15 1 14 2 13 3 21 4 20 5 19 6 16 7 18 8 17 9 5 10 4 11 6 12
REMARK SMILES IDX 7 13 11 14 8 15 10 16 12 17 9 18 3 19 22 21 2 22 1 24
REMARK H PARENT 22 23
REMARK Flexibility Score: 90.00
ROOT
ATOM      1  C   UNL     1       9.594  74.611  -2.741  1.00  0.00     0.270 A 
ATOM      2  C   UNL     1      10.052  75.936  -2.820  1.00  0.00     0.098 A 
ATOM      3  C   UNL     1       9.480  76.957  -2.037  1.00  0.00     0.031 A 
ATOM      4  C   UNL     1       8.405  76.635  -1.167  1.00  0.00     0.051 A 
ATOM      5  C   UNL     1       7.970  75.306  -1.078  1.00  0.00     0.034 A 
ATOM      6  C   UNL     1       8.550  74.306  -1.856  1.00  0.00     0.088 A 
ENDROOT
BRANCH   1   7
ATOM      7  N   UNL     1      10.191  73.577  -3.546  1.00  0.00     0.062 N 
ATOM      8  O   UNL     1       9.528  72.391  -3.764  1.00  0.00    -0.258 OA
ATOM      9  O   UNL     1      11.317  73.738  -4.059  1.00  0.00    -0.258 OA
ENDBRANCH   1   7
BRANCH   3  10
ATOM     10  C   UNL     1      10.079  78.324  -2.107  1.00  0.00     0.076 C 
ATOM     11  N   UNL     1       9.343  79.398  -2.166  1.00  0.00    -0.274 NA
BRANCH  10  12
ATOM     12  C   UNL     1      11.550  78.487  -2.209  1.00  0.00     0.019 A 
ATOM     13  C   UNL     1      12.200  78.078  -3.387  1.00  0.00     0.012 A 
ATOM     14  C   UNL     1      12.314  79.043  -1.158  1.00  0.00     0.050 A 
ATOM     15  C   UNL     1      13.587  78.197  -3.509  1.00  0.00     0.001 A 
ATOM     16  C   UNL     1      13.704  79.158  -1.293  1.00  0.00     0.021 A 
ATOM     17  Cl  UNL     1      11.572  79.673   0.310  1.00  0.00    -0.084 Cl
ATOM     18  C   UNL     1      14.338  78.732  -2.462  1.00  0.00     0.002 A 
ENDBRANCH  10  12
BRANCH  11  19
ATOM     19  C   UNL     1       7.889  79.422  -2.114  1.00  0.00     0.243 CG0
ATOM     20  G   UNL     1       7.440  78.936  -0.776  1.00  0.00     0.000 G0
ENDBRANCH  11  19
ENDBRANCH   3  10
BRANCH   4  21
ATOM     21  N   UNL     1       7.768  77.615  -0.328  1.00  0.00    -0.324 N 
ATOM     22  C   UNL     1       7.439  78.935  -0.772  1.00  0.00     0.246 CG0
ATOM     23  H   UNL     1       7.357  77.298   0.579  1.00  0.00     0.170 HD
ATOM     24  O   UNL     1       6.774  79.698  -0.021  1.00  0.00    -0.273 OA
ATOM     25  G   UNL     1       7.882  79.419  -2.112  1.00  0.00     0.000 G0
ENDBRANCH   4  21
TORSDOF 2
ENDMDL
MODEL 8
REMARK VINA RESULT:    -6.623      3.356      5.383
REMARK INTER + INTRA:          -8.397
REMARK INTER:                  -8.890
REMARK INTRA:                   0.493
REMARK UNBOUND:                 0.163
REMARK SMILES O=C1CN=C(c2ccccc2Cl)c2cc([N+](=O)[O-])ccc2N1
REMARK SMILES IDX 15 1 14 2 13 3 21 4 20 5 19 6 16 7 18 8 17 9 5 10 4 11 6 12
REMARK SMILES IDX 7 13 11 14 8 15 10 16 12 17 9 18 3 19 22 21 2 22 1 24
REMARK H PARENT 22 23
REMARK Flexibility Score: 90.00
ROOT
ATOM      1  C   UNL     1      12.738  78.097  -0.024  1.00  0.00     0.270 A 
ATOM      2  C   UNL     1      11.499  77.548  -0.392  1.00  0.00     0.098 A 
ATOM      3  C   UNL     1      10.595  78.259  -1.205  1.00  0.00     0.031 A 
ATOM      4  C   UNL     1      10.943  79.565  -1.641  1.00  0.00     0.051 A 
ATOM      5  C   UNL     1      12.191  80.095  -1.288  1.00  0.00     0.034 A 
ATOM      6  C   UNL     1      13.076  79.377  -0.486  1.00  0.00     0.088 A 
ENDROOT
BRANCH   1   7
ATOM      7  N   UNL     1      13.653  77.358   0.806  1.00  0.00     0.062 N 
ATOM      8  O   UNL     1      14.956  77.776   0.954  1.00  0.00    -0.258 OA
ATOM      9  O   UNL     1      13.282  76.327   1.405  1.00  0.00    -0.258 OA
ENDBRANCH   1   7
BRANCH   3  10
ATOM     10  C   UNL     1       9.336  77.575  -1.631  1.00  0.00     0.076 C 
ATOM     11  N   UNL     1       8.184  78.185  -1.628  1.00  0.00    -0.274 NA
BRANCH  10  12
ATOM     12  C   UNL     1       9.355  76.134  -1.980  1.00  0.00     0.019 A 
ATOM     13  C   UNL     1      10.230  75.687  -2.986  1.00  0.00     0.012 A 
ATOM     14  C   UNL     1       8.519  75.197  -1.329  1.00  0.00     0.050 A 
ATOM     15  C   UNL     1      10.258  74.340  -3.355  1.00  0.00     0.001 A 
ATOM     16  C   UNL     1       8.557  73.849  -1.708  1.00  0.00     0.021 A 
ATOM     17  Cl  UNL     1       7.466  75.650   0.007  1.00  0.00    -0.084 Cl
ATOM     18  C   UNL     1       9.420  73.423  -2.721  1.00  0.00     0.002 A 
ENDBRANCH  10  12
BRANCH  11  19
ATOM     19  C   UNL     1       7.977  79.583  -1.280  1.00  0.00     0.243 CG0
ATOM     20  G   UNL     1       8.664  80.444  -2.288  1.00  0.00     0.000 G0
ENDBRANCH  11  19
ENDBRANCH   3  10
BRANCH   4  21
ATOM     21  N   UNL     1      10.081  80.356  -2.478  1.00  0.00    -0.324 N 
ATOM     22  C   UNL     1       8.666  80.446  -2.287  1.00  0.00     0.246 CG0
ATOM     23  H   UNL     1      10.521  81.041  -3.133  1.00  0.00     0.170 HD
ATOM     24  O   UNL     1       7.994  81.253  -2.983  1.00  0.00    -0.273 OA
ATOM     25  G   UNL     1       7.978  79.589  -1.277  1.00  0.00     0.000 G0
ENDBRANCH   4  21
TORSDOF 2
ENDMDL
MODEL 9
REMARK VINA RESULT:    -6.592      2.716      4.591
REMARK INTER + INTRA:          -8.356
REMARK INTER:                  -8.761
REMARK INTRA:                   0.405
REMARK UNBOUND:                 0.163
REMARK SMILES O=C1CN=C(c2ccccc2Cl)c2cc([N+](=O)[O-])ccc2N1
REMARK SMILES IDX 15 1 14 2 13 3 21 4 20 5 19 6 16 7 18 8 17 9 5 10 4 11 6 12
REMARK SMILES IDX 7 13 11 14 8 15 10 16 12 17 9 18 3 19 22 21 2 22 1 24
REMARK H PARENT 22 23
REMARK Flexibility Score: 90.00
ROOT
ATOM      1  C   UNL     1       9.378  77.344  -1.660  1.00  0.00     0.270 A 
ATOM      2  C   UNL     1      10.607  78.017  -1.766  1.00  0.00     0.098 A 
ATOM      3  C   UNL     1      11.742  77.585  -1.054  1.00  0.00     0.031 A 
ATOM      4  C   UNL     1      11.629  76.457  -0.199  1.00  0.00     0.051 A 
ATOM      5  C   UNL     1      10.406  75.778  -0.118  1.00  0.00     0.034 A 
ATOM      6  C   UNL     1       9.293  76.216  -0.833  1.00  0.00     0.088 A 
ENDROOT
BRANCH   1   7
ATOM      7  N   UNL     1       8.226  77.796  -2.396  1.00  0.00     0.062 N 
ATOM      8  O   UNL     1       7.751  79.077  -2.234  1.00  0.00    -0.258 OA
ATOM      9  O   UNL     1       7.639  77.034  -3.193  1.00  0.00    -0.258 OA
ENDBRANCH   1   7
BRANCH   3  10
ATOM     10  C   UNL     1      13.037  78.294  -1.286  1.00  0.00     0.076 C 
ATOM     11  N   UNL     1      13.839  78.605  -0.308  1.00  0.00    -0.274 NA
BRANCH  10  12
ATOM     12  C   UNL     1      13.398  78.755  -2.649  1.00  0.00     0.019 A 
ATOM     13  C   UNL     1      13.511  77.807  -3.681  1.00  0.00     0.012 A 
ATOM     14  C   UNL     1      13.629  80.119  -2.940  1.00  0.00     0.050 A 
ATOM     15  C   UNL     1      13.871  78.202  -4.972  1.00  0.00     0.001 A 
ATOM     16  C   UNL     1      13.988  80.504  -4.238  1.00  0.00     0.021 A 
ATOM     17  Cl  UNL     1      13.413  81.384  -1.734  1.00  0.00    -0.084 Cl
ATOM     18  C   UNL     1      14.113  79.548  -5.249  1.00  0.00     0.002 A 
ENDBRANCH  10  12
BRANCH  11  19
ATOM     19  C   UNL     1      13.626  78.265   1.091  1.00  0.00     0.243 CG0
ATOM     20  G   UNL     1      13.674  76.781   1.246  1.00  0.00     0.000 G0
ENDBRANCH  11  19
ENDBRANCH   3  10
BRANCH   4  21
ATOM     21  N   UNL     1      12.741  75.946   0.558  1.00  0.00    -0.324 N 
ATOM     22  C   UNL     1      13.670  76.783   1.252  1.00  0.00     0.246 CG0
ATOM     23  H   UNL     1      12.766  74.923   0.770  1.00  0.00     0.170 HD
ATOM     24  O   UNL     1      14.546  76.262   1.993  1.00  0.00    -0.273 OA
ATOM     25  G   UNL     1      13.618  78.267   1.101  1.00  0.00     0.000 G0
ENDBRANCH   4  21
TORSDOF 2
ENDMDL
MODEL 10
REMARK VINA RESULT:    -6.579      2.555      4.791
REMARK INTER + INTRA:          -8.339
REMARK INTER:                  -8.734
REMARK INTRA:                   0.395
REMARK UNBOUND:                 0.163
REMARK SMILES O=C1CN=C(c2ccccc2Cl)c2cc([N+](=O)[O-])ccc2N1
REMARK SMILES IDX 15 1 14 2 13 3 21 4 20 5 19 6 16 7 18 8 17 9 5 10 4 11 6 12
REMARK SMILES IDX 7 13 11 14 8 15 10 16 12 17 9 18 3 19 22 21 2 22 1 24
REMARK H PARENT 22 23
REMARK Flexibility Score: 90.00
ROOT
ATOM      1  C   UNL     1      10.136  79.787  -1.945  1.00  0.00     0.270 A 
ATOM      2  C   UNL     1      11.520  79.858  -2.176  1.00  0.00     0.098 A 
ATOM      3  C   UNL     1      12.418  78.995  -1.519  1.00  0.00     0.031 A 
ATOM      4  C   UNL     1      11.908  78.049  -0.592  1.00  0.00     0.051 A 
ATOM      5  C   UNL     1      10.524  77.969  -0.384  1.00  0.00     0.034 A 
ATOM      6  C   UNL     1       9.649  78.828  -1.046  1.00  0.00     0.088 A 
ENDROOT
BRANCH   1   7
ATOM      7  N   UNL     1       9.230  80.674  -2.625  1.00  0.00     0.062 N 
ATOM      8  O   UNL     1       7.869  80.511  -2.503  1.00  0.00    -0.258 OA
ATOM      9  O   UNL     1       9.662  81.606  -3.336  1.00  0.00    -0.258 OA
ENDBRANCH   1   7
BRANCH   3  10
ATOM     10  C   UNL     1      13.865  79.068  -1.883  1.00  0.00     0.076 C 
ATOM     11  N   UNL     1      14.807  79.030  -0.983  1.00  0.00    -0.274 NA
BRANCH  10  12
ATOM     12  C   UNL     1      14.267  79.287  -3.294  1.00  0.00     0.019 A 
ATOM     13  C   UNL     1      15.152  80.337  -3.597  1.00  0.00     0.012 A 
ATOM     14  C   UNL     1      13.788  78.468  -4.343  1.00  0.00     0.050 A 
ATOM     15  C   UNL     1      15.534  80.585  -4.917  1.00  0.00     0.001 A 
ATOM     16  C   UNL     1      14.179  78.726  -5.663  1.00  0.00     0.021 A 
ATOM     17  Cl  UNL     1      12.757  77.071  -4.044  1.00  0.00    -0.084 Cl
ATOM     18  C   UNL     1      15.045  79.783  -5.949  1.00  0.00     0.002 A 
ENDBRANCH  10  12
BRANCH  11  19
ATOM     19  C   UNL     1      14.592  78.857   0.446  1.00  0.00     0.243 CG0
ATOM     20  G   UNL     1      14.012  77.504   0.693  1.00  0.00     0.000 G0
ENDBRANCH  11  19
ENDBRANCH   3  10
BRANCH   4  21
ATOM     21  N   UNL     1      12.754  77.126   0.117  1.00  0.00    -0.324 N 
ATOM     22  C   UNL     1      14.009  77.496   0.696  1.00  0.00     0.246 CG0
ATOM     23  H   UNL     1      12.358  76.198   0.385  1.00  0.00     0.170 HD
ATOM     24  O   UNL     1      14.638  76.665   1.404  1.00  0.00    -0.273 OA
ATOM     25  G   UNL     1      14.584  78.854   0.463  1.00  0.00     0.000 G0
ENDBRANCH   4  21
TORSDOF 2
ENDMDL
MODEL 11
REMARK VINA RESULT:    -6.538      4.388      6.820
REMARK INTER + INTRA:          -8.286
REMARK INTER:                  -9.394
REMARK INTRA:                   1.108
REMARK UNBOUND:                 0.163
REMARK SMILES O=C1CN=C(c2ccccc2Cl)c2cc([N+](=O)[O-])ccc2N1
REMARK SMILES IDX 15 1 14 2 13 3 21 4 20 5 19 6 16 7 18 8 17 9 5 10 4 11 6 12
REMARK SMILES IDX 7 13 11 14 8 15 10 16 12 17 9 18 3 19 22 21 2 22 1 24
REMARK H PARENT 22 23
REMARK Flexibility Score: 90.00
ROOT
ATOM      1  C   UNL     1       6.186  77.071   0.843  1.00  0.00     0.270 A 
ATOM      2  C   UNL     1       7.410  77.325   0.203  1.00  0.00     0.098 A 
ATOM      3  C   UNL     1       7.913  76.458  -0.786  1.00  0.00     0.031 A 
ATOM      4  C   UNL     1       7.172  75.294  -1.122  1.00  0.00     0.051 A 
ATOM      5  C   UNL     1       5.941  75.061  -0.494  1.00  0.00     0.034 A 
ATOM      6  C   UNL     1       5.454  75.932   0.479  1.00  0.00     0.088 A 
ENDROOT
BRANCH   1   7
ATOM      7  N   UNL     1       5.682  77.968   1.850  1.00  0.00     0.062 N 
ATOM      8  O   UNL     1       5.253  79.231   1.510  1.00  0.00    -0.258 OA
ATOM      9  O   UNL     1       5.625  77.616   3.047  1.00  0.00    -0.258 OA
ENDBRANCH   1   7
BRANCH   3  10
ATOM     10  C   UNL     1       9.176  76.840  -1.488  1.00  0.00     0.076 C 
ATOM     11  N   UNL     1      10.116  75.974  -1.739  1.00  0.00    -0.274 NA
BRANCH  10  12
ATOM     12  C   UNL     1       9.433  78.260  -1.834  1.00  0.00     0.019 A 
ATOM     13  C   UNL     1       8.349  79.083  -2.185  1.00  0.00     0.012 A 
ATOM     14  C   UNL     1      10.737  78.807  -1.818  1.00  0.00     0.050 A 
ATOM     15  C   UNL     1       8.557  80.419  -2.537  1.00  0.00     0.001 A 
ATOM     16  C   UNL     1      10.933  80.148  -2.173  1.00  0.00     0.021 A 
ATOM     17  Cl  UNL     1      12.138  77.878  -1.296  1.00  0.00    -0.084 Cl
ATOM     18  C   UNL     1       9.848  80.950  -2.536  1.00  0.00     0.002 A 
ENDBRANCH  10  12
BRANCH  11  19
ATOM     19  C   UNL     1      10.047  74.552  -1.438  1.00  0.00     0.243 CG0
ATOM     20  G   UNL     1       8.962  73.931  -2.254  1.00  0.00     0.000 G0
ENDBRANCH  11  19
ENDBRANCH   3  10
BRANCH   4  21
ATOM     21  N   UNL     1       7.611  74.360  -2.124  1.00  0.00    -0.324 N 
ATOM     22  C   UNL     1       8.969  73.929  -2.256  1.00  0.00     0.246 CG0
ATOM     23  H   UNL     1       6.885  73.829  -2.656  1.00  0.00     0.170 HD
ATOM     24  O   UNL     1       9.257  73.018  -3.078  1.00  0.00    -0.273 OA
ATOM     25  G   UNL     1      10.048  74.553  -1.435  1.00  0.00     0.000 G0
ENDBRANCH   4  21
TORSDOF 2
ENDMDL
MODEL 12
REMARK VINA RESULT:    -6.285      1.997      2.505
REMARK INTER + INTRA:          -7.959
REMARK INTER:                  -8.248
REMARK INTRA:                   0.289
REMARK UNBOUND:                 0.163
REMARK SMILES O=C1CN=C(c2ccccc2Cl)c2cc([N+](=O)[O-])ccc2N1
REMARK SMILES IDX 15 1 14 2 13 3 21 4 20 5 19 6 16 7 18 8 17 9 5 10 4 11 6 12
REMARK SMILES IDX 7 13 11 14 8 15 10 16 12 17 9 18 3 19 22 21 2 22 1 24
REMARK H PARENT 22 23
REMARK Flexibility Score: 90.00
ROOT
ATOM      1  C   UNL     1      13.810  78.571  -4.182  1.00  0.00     0.270 A 
ATOM      2  C   UNL     1      12.901  78.075  -3.234  1.00  0.00     0.098 A 
ATOM      3  C   UNL     1      12.580  78.806  -2.074  1.00  0.00     0.031 A 
ATOM      4  C   UNL     1      13.209  80.061  -1.857  1.00  0.00     0.051 A 
ATOM      5  C   UNL     1      14.098  80.558  -2.819  1.00  0.00     0.034 A 
ATOM      6  C   UNL     1      14.400  79.824  -3.964  1.00  0.00     0.088 A 
ENDROOT
BRANCH   1   7
ATOM      7  N   UNL     1      14.126  77.814  -5.365  1.00  0.00     0.062 N 
ATOM      8  O   UNL     1      14.366  78.453  -6.561  1.00  0.00    -0.258 OA
ATOM      9  O   UNL     1      14.189  76.567  -5.327  1.00  0.00    -0.258 OA
ENDBRANCH   1   7
BRANCH   3  10
ATOM     10  C   UNL     1      11.537  78.257  -1.156  1.00  0.00     0.076 C 
ATOM     11  N   UNL     1      11.679  78.273   0.139  1.00  0.00    -0.274 NA
BRANCH  10  12
ATOM     12  C   UNL     1      10.338  77.582  -1.712  1.00  0.00     0.019 A 
ATOM     13  C   UNL     1      10.383  76.196  -1.944  1.00  0.00     0.012 A 
ATOM     14  C   UNL     1       9.153  78.293  -2.013  1.00  0.00     0.050 A 
ATOM     15  C   UNL     1       9.280  75.532  -2.487  1.00  0.00     0.001 A 
ATOM     16  C   UNL     1       8.054  77.615  -2.556  1.00  0.00     0.021 A 
ATOM     17  Cl  UNL     1       8.975  80.009  -1.662  1.00  0.00    -0.084 Cl
ATOM     18  C   UNL     1       8.119  76.241  -2.796  1.00  0.00     0.002 A 
ENDBRANCH  10  12
BRANCH  11  19
ATOM     19  C   UNL     1      12.803  78.860   0.851  1.00  0.00     0.243 CG0
ATOM     20  G   UNL     1      12.807  80.336   0.627  1.00  0.00     0.000 G0
ENDBRANCH  11  19
ENDBRANCH   3  10
BRANCH   4  21
ATOM     21  N   UNL     1      12.934  80.874  -0.702  1.00  0.00    -0.324 N 
ATOM     22  C   UNL     1      12.809  80.344   0.621  1.00  0.00     0.246 CG0
ATOM     23  H   UNL     1      13.015  81.911  -0.797  1.00  0.00     0.170 HD
ATOM     24  O   UNL     1      12.688  81.130   1.599  1.00  0.00    -0.273 OA
ATOM     25  G   UNL     1      12.813  78.869   0.854  1.00  0.00     0.000 G0
ENDBRANCH   4  21
TORSDOF 2
ENDMDL
MODEL 13
REMARK VINA RESULT:    -5.800      3.642      4.924
REMARK INTER + INTRA:          -7.333
REMARK INTER:                  -7.481
REMARK INTRA:                   0.148
REMARK UNBOUND:                 0.163
REMARK SMILES O=C1CN=C(c2ccccc2Cl)c2cc([N+](=O)[O-])ccc2N1
REMARK SMILES IDX 15 1 14 2 13 3 21 4 20 5 19 6 16 7 18 8 17 9 5 10 4 11 6 12
REMARK SMILES IDX 7 13 11 14 8 15 10 16 12 17 9 18 3 19 22 21 2 22 1 24
REMARK H PARENT 22 23
REMARK Flexibility Score: 90.00
ROOT
ATOM      1  C   UNL     1       8.722  79.904  -1.238  1.00  0.00     0.270 A 
ATOM      2  C   UNL     1       9.308  78.775  -1.834  1.00  0.00     0.098 A 
ATOM      3  C   UNL     1      10.704  78.593  -1.843  1.00  0.00     0.031 A 
ATOM      4  C   UNL     1      11.530  79.586  -1.251  1.00  0.00     0.051 A 
ATOM      5  C   UNL     1      10.936  80.697  -0.639  1.00  0.00     0.034 A 
ATOM      6  C   UNL     1       9.551  80.859  -0.635  1.00  0.00     0.088 A 
ENDROOT
BRANCH   1   7
ATOM      7  N   UNL     1       7.292  80.075  -1.234  1.00  0.00     0.062 N 
ATOM      8  O   UNL     1       6.674  80.810  -2.219  1.00  0.00    -0.258 OA
ATOM      9  O   UNL     1       6.590  79.560  -0.339  1.00  0.00    -0.258 OA
ENDBRANCH   1   7
BRANCH   3  10
ATOM     10  C   UNL     1      11.250  77.326  -2.415  1.00  0.00     0.076 C 
ATOM     11  N   UNL     1      12.296  77.313  -3.192  1.00  0.00    -0.274 NA
BRANCH  10  12
ATOM     12  C   UNL     1      10.544  76.041  -2.184  1.00  0.00     0.019 A 
ATOM     13  C   UNL     1       9.794  75.479  -3.231  1.00  0.00     0.012 A 
ATOM     14  C   UNL     1      10.607  75.367  -0.943  1.00  0.00     0.050 A 
ATOM     15  C   UNL     1       9.098  74.281  -3.042  1.00  0.00     0.001 A 
ATOM     16  C   UNL     1       9.907  74.167  -0.766  1.00  0.00     0.021 A 
ATOM     17  Cl  UNL     1      11.603  75.947   0.389  1.00  0.00    -0.084 Cl
ATOM     18  C   UNL     1       9.151  73.629  -1.810  1.00  0.00     0.002 A 
ENDBRANCH  10  12
BRANCH  11  19
ATOM     19  C   UNL     1      13.087  78.480  -3.552  1.00  0.00     0.243 CG0
ATOM     20  G   UNL     1      13.739  79.025  -2.325  1.00  0.00     0.000 G0
ENDBRANCH  11  19
ENDBRANCH   3  10
BRANCH   4  21
ATOM     21  N   UNL     1      12.964  79.475  -1.212  1.00  0.00    -0.324 N 
ATOM     22  C   UNL     1      13.749  79.022  -2.319  1.00  0.00     0.246 CG0
ATOM     23  H   UNL     1      13.472  79.920  -0.414  1.00  0.00     0.170 HD
ATOM     24  O   UNL     1      15.006  79.066  -2.251  1.00  0.00    -0.273 OA
ATOM     25  G   UNL     1      13.093  78.490  -3.549  1.00  0.00     0.000 G0
ENDBRANCH   4  21
TORSDOF 2
ENDMDL
MODEL 14
REMARK VINA RESULT:    -5.799      2.969      4.171
REMARK INTER + INTRA:          -7.332
REMARK INTER:                  -7.768
REMARK INTRA:                   0.436
REMARK UNBOUND:                 0.163
REMARK SMILES O=C1CN=C(c2ccccc2Cl)c2cc([N+](=O)[O-])ccc2N1
REMARK SMILES IDX 15 1 14 2 13 3 21 4 20 5 19 6 16 7 18 8 17 9 5 10 4 11 6 12
REMARK SMILES IDX 7 13 11 14 8 15 10 16 12 17 9 18 3 19 22 21 2 22 1 24
REMARK H PARENT 22 23
REMARK Flexibility Score: 90.00
ROOT
ATOM      1  C   UNL     1      12.776  78.464  -0.232  1.00  0.00     0.270 A 
ATOM      2  C   UNL     1      11.545  78.424  -0.908  1.00  0.00     0.098 A 
ATOM      3  C   UNL     1      10.775  77.245  -0.956  1.00  0.00     0.031 A 
ATOM      4  C   UNL     1      11.269  76.075  -0.323  1.00  0.00     0.051 A 
ATOM      5  C   UNL     1      12.487  76.131   0.368  1.00  0.00     0.034 A 
ATOM      6  C   UNL     1      13.235  77.306   0.410  1.00  0.00     0.088 A 
ENDROOT
BRANCH   1   7
ATOM      7  N   UNL     1      13.551  79.676  -0.189  1.00  0.00     0.062 N 
ATOM      8  O   UNL     1      13.428  80.621  -1.182  1.00  0.00    -0.258 OA
ATOM      9  O   UNL     1      14.347  79.892   0.749  1.00  0.00    -0.258 OA
ENDBRANCH   1   7
BRANCH   3  10
ATOM     10  C   UNL     1       9.435  77.301  -1.615  1.00  0.00     0.076 C 
ATOM     11  N   UNL     1       9.017  76.359  -2.412  1.00  0.00    -0.274 NA
BRANCH  10  12
ATOM     12  C   UNL     1       8.574  78.498  -1.449  1.00  0.00     0.019 A 
ATOM     13  C   UNL     1       8.820  79.631  -2.246  1.00  0.00     0.012 A 
ATOM     14  C   UNL     1       7.514  78.532  -0.514  1.00  0.00     0.050 A 
ATOM     15  C   UNL     1       8.043  80.783  -2.101  1.00  0.00     0.001 A 
ATOM     16  C   UNL     1       6.742  79.693  -0.378  1.00  0.00     0.021 A 
ATOM     17  Cl  UNL     1       7.073  77.128   0.453  1.00  0.00    -0.084 Cl
ATOM     18  C   UNL     1       7.008  80.815  -1.166  1.00  0.00     0.002 A 
ENDBRANCH  10  12
BRANCH  11  19
ATOM     19  C   UNL     1       9.744  75.136  -2.716  1.00  0.00     0.243 CG0
ATOM     20  G   UNL     1       9.862  74.317  -1.474  1.00  0.00     0.000 G0
ENDBRANCH  11  19
ENDBRANCH   3  10
BRANCH   4  21
ATOM     21  N   UNL     1      10.544  74.832  -0.320  1.00  0.00    -0.324 N 
ATOM     22  C   UNL     1       9.862  74.316  -1.467  1.00  0.00     0.246 CG0
ATOM     23  H   UNL     1      10.673  74.187   0.492  1.00  0.00     0.170 HD
ATOM     24  O   UNL     1       9.351  73.166  -1.423  1.00  0.00    -0.273 OA
ATOM     25  G   UNL     1       9.745  75.131  -2.712  1.00  0.00     0.000 G0
ENDBRANCH   4  21
TORSDOF 2
ENDMDL
MODEL 15
REMARK VINA RESULT:    -5.767      2.889      5.133
REMARK INTER + INTRA:          -7.290
REMARK INTER:                  -7.530
REMARK INTRA:                   0.240
REMARK UNBOUND:                 0.163
REMARK SMILES O=C1CN=C(c2ccccc2Cl)c2cc([N+](=O)[O-])ccc2N1
REMARK SMILES IDX 15 1 14 2 13 3 21 4 20 5 19 6 16 7 18 8 17 9 5 10 4 11 6 12
REMARK SMILES IDX 7 13 11 14 8 15 10 16 12 17 9 18 3 19 22 21 2 22 1 24
REMARK H PARENT 22 23
REMARK Flexibility Score: 90.00
ROOT
ATOM      1  C   UNL     1      10.240  76.234  -1.196  1.00  0.00     0.270 A 
ATOM      2  C   UNL     1      11.051  77.286  -0.737  1.00  0.00     0.098 A 
ATOM      3  C   UNL     1      11.891  78.000  -1.614  1.00  0.00     0.031 A 
ATOM      4  C   UNL     1      11.928  77.630  -2.984  1.00  0.00     0.051 A 
ATOM      5  C   UNL     1      11.099  76.594  -3.437  1.00  0.00     0.034 A 
ATOM      6  C   UNL     1      10.270  75.901  -2.557  1.00  0.00     0.088 A 
ENDROOT
BRANCH   1   7
ATOM      7  N   UNL     1       9.384  75.515  -0.290  1.00  0.00     0.062 N 
ATOM      8  O   UNL     1       8.130  75.992   0.014  1.00  0.00    -0.258 OA
ATOM      9  O   UNL     1       9.765  74.448   0.236  1.00  0.00    -0.258 OA
ENDBRANCH   1   7
BRANCH   3  10
ATOM     10  C   UNL     1      12.655  79.164  -1.072  1.00  0.00     0.076 C 
ATOM     11  N   UNL     1      13.902  79.377  -1.383  1.00  0.00    -0.274 NA
BRANCH  10  12
ATOM     12  C   UNL     1      12.028  80.065  -0.074  1.00  0.00     0.019 A 
ATOM     13  C   UNL     1      12.606  80.176   1.203  1.00  0.00     0.012 A 
ATOM     14  C   UNL     1      10.868  80.817  -0.372  1.00  0.00     0.050 A 
ATOM     15  C   UNL     1      12.030  80.998   2.174  1.00  0.00     0.001 A 
ATOM     16  C   UNL     1      10.300  81.639   0.610  1.00  0.00     0.021 A 
ATOM     17  Cl  UNL     1      10.136  80.816  -1.973  1.00  0.00    -0.084 Cl
ATOM     18  C   UNL     1      10.876  81.726   1.880  1.00  0.00     0.002 A 
ENDBRANCH  10  12
BRANCH  11  19
ATOM     19  C   UNL     1      14.681  78.575  -2.314  1.00  0.00     0.243 CG0
ATOM     20  G   UNL     1      14.100  78.713  -3.682  1.00  0.00     0.000 G0
ENDBRANCH  11  19
ENDBRANCH   3  10
BRANCH   4  21
ATOM     21  N   UNL     1      12.753  78.309  -3.947  1.00  0.00    -0.324 N 
ATOM     22  C   UNL     1      14.099  78.716  -3.682  1.00  0.00     0.246 CG0
ATOM     23  H   UNL     1      12.429  78.343  -4.939  1.00  0.00     0.170 HD
ATOM     24  O   UNL     1      14.799  79.198  -4.612  1.00  0.00    -0.273 OA
ATOM     25  G   UNL     1      14.679  78.581  -2.313  1.00  0.00     0.000 G0
ENDBRANCH   4  21
TORSDOF 2
ENDMDL
