MODEL 1
REMARK VINA RESULT:    -7.825      0.000      0.000
REMARK INTER + INTRA:         -13.557
REMARK INTER:                 -12.629
REMARK INTRA:                  -0.928
REMARK UNBOUND:                -0.928
REMARK SMILES COc1ccc(CCNCC(O)COc2cccc(C)c2)cc1OC
REMARK SMILES IDX 10 1 9 2 8 4 7 5 6 6 3 7 23 8 4 9 22 10 5 11 2 12 1 13 24 14
REMARK SMILES IDX 25 15 11 16 12 17 13 19 14 20 15 21 16 22 21 23 17 24 19 25
REMARK SMILES IDX 18 26 20 27
REMARK H PARENT 9 3 12 18
REMARK Flexibility Score: inf
ROOT
ATOM      1  C   UNL     1      22.155  37.223  -8.054  1.00  0.00     0.116 C 
ENDROOT
BRANCH   1   2
ATOM      2  N   UNL     1      23.093  36.451  -8.883  1.00  0.00    -0.314 NA
ATOM      3  H   UNL     1      22.902  35.429  -8.757  1.00  0.00     0.122 HD
BRANCH   2   4
ATOM      4  C   UNL     1      24.498  36.729  -8.547  1.00  0.00     0.086 C 
BRANCH   4   5
ATOM      5  C   UNL     1      25.295  35.451  -8.240  1.00  0.00     0.051 C 
BRANCH   5   6
ATOM      6  C   UNL     1      25.517  35.312  -6.757  1.00  0.00    -0.043 A 
ATOM      7  C   UNL     1      25.862  35.022  -3.977  1.00  0.00     0.160 A 
ATOM      8  C   UNL     1      25.310  36.205  -4.493  1.00  0.00     0.160 A 
ATOM      9  C   UNL     1      26.230  33.985  -4.854  1.00  0.00     0.051 A 
ATOM     10  C   UNL     1      25.135  36.343  -5.885  1.00  0.00     0.054 A 
ATOM     11  C   UNL     1      26.054  34.129  -6.232  1.00  0.00     0.008 A 
BRANCH   7  12
ATOM     12  O   UNL     1      26.025  34.914  -2.586  1.00  0.00    -0.493 OA
ATOM     13  C   UNL     1      25.995  33.687  -1.864  1.00  0.00     0.278 C 
ENDBRANCH   7  12
BRANCH   8  14
ATOM     14  O   UNL     1      24.947  37.219  -3.593  1.00  0.00    -0.493 OA
ATOM     15  C   UNL     1      24.084  38.308  -3.908  1.00  0.00     0.278 C 
ENDBRANCH   8  14
ENDBRANCH   5   6
ENDBRANCH   4   5
ENDBRANCH   2   4
ENDBRANCH   1   2
BRANCH   1  16
ATOM     16  C   UNL     1      21.584  38.405  -8.849  1.00  0.00     0.165 C 
BRANCH  16  17
ATOM     17  O   UNL     1      20.195  38.234  -8.966  1.00  0.00    -0.388 OA
ATOM     18  H   UNL     1      19.904  37.675  -8.199  1.00  0.00     0.211 HD
ENDBRANCH  16  17
BRANCH  16  19
ATOM     19  C   UNL     1      21.899  39.743  -8.155  1.00  0.00     0.262 C 
BRANCH  19  20
ATOM     20  O   UNL     1      21.871  39.605  -6.733  1.00  0.00    -0.491 OA
BRANCH  20  21
ATOM     21  C   UNL     1      20.872  40.088  -5.872  1.00  0.00     0.119 A 
ATOM     22  C   UNL     1      20.602  39.519  -4.611  1.00  0.00     0.046 A 
ATOM     23  C   UNL     1      20.121  41.193  -6.295  1.00  0.00     0.049 A 
ATOM     24  C   UNL     1      19.600  40.055  -3.797  1.00  0.00     0.004 A 
ATOM     25  C   UNL     1      19.102  41.722  -5.487  1.00  0.00    -0.047 A 
ATOM     26  C   UNL     1      18.856  41.154  -4.229  1.00  0.00     0.003 A 
ATOM     27  C   UNL     1      18.332  42.928  -5.936  1.00  0.00     0.044 C 
ENDBRANCH  20  21
ENDBRANCH  19  20
ENDBRANCH  16  19
ENDBRANCH   1  16
TORSDOF 11
ENDMDL
MODEL 2
REMARK VINA RESULT:    -7.712      2.002      7.707
REMARK INTER + INTRA:         -13.374
REMARK INTER:                 -12.253
REMARK INTRA:                  -1.121
REMARK UNBOUND:                -0.928
REMARK SMILES COc1ccc(CCNCC(O)COc2cccc(C)c2)cc1OC
REMARK SMILES IDX 10 1 9 2 8 4 7 5 6 6 3 7 23 8 4 9 22 10 5 11 2 12 1 13 24 14
REMARK SMILES IDX 25 15 11 16 12 17 13 19 14 20 15 21 16 22 21 23 17 24 19 25
REMARK SMILES IDX 18 26 20 27
REMARK H PARENT 9 3 12 18
REMARK Flexibility Score: inf
ROOT
ATOM      1  C   UNL     1      24.429  36.521  -3.980  1.00  0.00     0.116 C 
ENDROOT
BRANCH   1   2
ATOM      2  N   UNL     1      24.530  37.941  -3.613  1.00  0.00    -0.314 NA
ATOM      3  H   UNL     1      24.235  38.059  -2.614  1.00  0.00     0.122 HD
BRANCH   2   4
ATOM      4  C   UNL     1      23.701  38.803  -4.470  1.00  0.00     0.086 C 
BRANCH   4   5
ATOM      5  C   UNL     1      22.334  38.176  -4.790  1.00  0.00     0.051 C 
BRANCH   5   6
ATOM      6  C   UNL     1      21.289  39.249  -4.951  1.00  0.00    -0.043 A 
ATOM      7  C   UNL     1      19.284  41.200  -5.277  1.00  0.00     0.160 A 
ATOM      8  C   UNL     1      20.147  40.900  -6.343  1.00  0.00     0.160 A 
ATOM      9  C   UNL     1      19.422  40.514  -4.055  1.00  0.00     0.051 A 
ATOM     10  C   UNL     1      21.146  39.919  -6.176  1.00  0.00     0.054 A 
ATOM     11  C   UNL     1      20.413  39.544  -3.898  1.00  0.00     0.008 A 
BRANCH   7  12
ATOM     12  O   UNL     1      18.300  42.182  -5.473  1.00  0.00    -0.493 OA
ATOM     13  C   UNL     1      18.363  43.503  -4.942  1.00  0.00     0.278 C 
ENDBRANCH   7  12
BRANCH   8  14
ATOM     14  O   UNL     1      19.981  41.595  -7.551  1.00  0.00    -0.493 OA
ATOM     15  C   UNL     1      21.044  42.164  -8.308  1.00  0.00     0.278 C 
ENDBRANCH   8  14
ENDBRANCH   5   6
ENDBRANCH   4   5
ENDBRANCH   2   4
ENDBRANCH   1   2
BRANCH   1  16
ATOM     16  C   UNL     1      25.819  35.872  -4.001  1.00  0.00     0.165 C 
BRANCH  16  17
ATOM     17  O   UNL     1      25.956  35.073  -2.855  1.00  0.00    -0.388 OA
ATOM     18  H   UNL     1      26.920  34.854  -2.764  1.00  0.00     0.211 HD
ENDBRANCH  16  17
BRANCH  16  19
ATOM     19  C   UNL     1      26.014  35.021  -5.270  1.00  0.00     0.262 C 
BRANCH  19  20
ATOM     20  O   UNL     1      26.123  35.846  -6.432  1.00  0.00    -0.491 OA
BRANCH  20  21
ATOM     21  C   UNL     1      25.328  35.761  -7.587  1.00  0.00     0.119 A 
ATOM     22  C   UNL     1      25.627  34.902  -8.664  1.00  0.00     0.046 A 
ATOM     23  C   UNL     1      24.184  36.567  -7.656  1.00  0.00     0.049 A 
ATOM     24  C   UNL     1      24.789  34.858  -9.782  1.00  0.00     0.004 A 
ATOM     25  C   UNL     1      23.351  36.537  -8.784  1.00  0.00    -0.047 A 
ATOM     26  C   UNL     1      23.653  35.666  -9.841  1.00  0.00     0.003 A 
ATOM     27  C   UNL     1      22.109  37.378  -8.829  1.00  0.00     0.044 C 
ENDBRANCH  20  21
ENDBRANCH  19  20
ENDBRANCH  16  19
ENDBRANCH   1  16
TORSDOF 11
ENDMDL
MODEL 3
REMARK VINA RESULT:    -7.606      2.344      6.844
REMARK INTER + INTRA:         -13.202
REMARK INTER:                 -12.044
REMARK INTRA:                  -1.158
REMARK UNBOUND:                -0.928
REMARK SMILES COc1ccc(CCNCC(O)COc2cccc(C)c2)cc1OC
REMARK SMILES IDX 10 1 9 2 8 4 7 5 6 6 3 7 23 8 4 9 22 10 5 11 2 12 1 13 24 14
REMARK SMILES IDX 25 15 11 16 12 17 13 19 14 20 15 21 16 22 21 23 17 24 19 25
REMARK SMILES IDX 18 26 20 27
REMARK H PARENT 9 3 12 18
REMARK Flexibility Score: inf
ROOT
ATOM      1  C   UNL     1      24.191  35.840 -11.183  1.00  0.00     0.116 C 
ENDROOT
BRANCH   1   2
ATOM      2  N   UNL     1      22.947  35.465 -11.870  1.00  0.00    -0.314 NA
ATOM      3  H   UNL     1      22.854  36.033 -12.746  1.00  0.00     0.122 HD
BRANCH   2   4
ATOM      4  C   UNL     1      21.757  35.668 -11.029  1.00  0.00     0.086 C 
BRANCH   4   5
ATOM      5  C   UNL     1      21.053  37.005 -11.317  1.00  0.00     0.051 C 
BRANCH   5   6
ATOM      6  C   UNL     1      21.098  37.896 -10.103  1.00  0.00    -0.043 A 
ATOM      7  C   UNL     1      21.253  39.585  -7.855  1.00  0.00     0.160 A 
ATOM      8  C   UNL     1      21.692  38.254  -7.762  1.00  0.00     0.160 A 
ATOM      9  C   UNL     1      20.746  40.066  -9.077  1.00  0.00     0.051 A 
ATOM     10  C   UNL     1      21.617  37.415  -8.892  1.00  0.00     0.054 A 
ATOM     11  C   UNL     1      20.675  39.228 -10.191  1.00  0.00     0.008 A 
BRANCH   7  12
ATOM     12  O   UNL     1      21.339  40.396  -6.713  1.00  0.00    -0.493 OA
ATOM     13  C   UNL     1      20.256  40.656  -5.825  1.00  0.00     0.278 C 
ENDBRANCH   7  12
BRANCH   8  14
ATOM     14  O   UNL     1      22.199  37.805  -6.533  1.00  0.00    -0.493 OA
ATOM     15  C   UNL     1      21.760  36.628  -5.860  1.00  0.00     0.278 C 
ENDBRANCH   8  14
ENDBRANCH   5   6
ENDBRANCH   4   5
ENDBRANCH   2   4
ENDBRANCH   1   2
BRANCH   1  16
ATOM     16  C   UNL     1      24.461  34.891 -10.007  1.00  0.00     0.165 C 
BRANCH  16  17
ATOM     17  O   UNL     1      25.432  33.957 -10.403  1.00  0.00    -0.388 OA
ATOM     18  H   UNL     1      26.227  34.100  -9.826  1.00  0.00     0.211 HD
ENDBRANCH  16  17
BRANCH  16  19
ATOM     19  C   UNL     1      24.943  35.668  -8.768  1.00  0.00     0.262 C 
BRANCH  19  20
ATOM     20  O   UNL     1      25.662  34.817  -7.873  1.00  0.00    -0.491 OA
BRANCH  20  21
ATOM     21  C   UNL     1      25.701  34.930  -6.473  1.00  0.00     0.119 A 
ATOM     22  C   UNL     1      26.170  33.901  -5.632  1.00  0.00     0.046 A 
ATOM     23  C   UNL     1      25.259  36.129  -5.899  1.00  0.00     0.049 A 
ATOM     24  C   UNL     1      26.194  34.080  -4.246  1.00  0.00     0.004 A 
ATOM     25  C   UNL     1      25.264  36.305  -4.507  1.00  0.00    -0.047 A 
ATOM     26  C   UNL     1      25.749  35.278  -3.685  1.00  0.00     0.003 A 
ATOM     27  C   UNL     1      24.823  37.608  -3.909  1.00  0.00     0.044 C 
ENDBRANCH  20  21
ENDBRANCH  19  20
ENDBRANCH  16  19
ENDBRANCH   1  16
TORSDOF 11
ENDMDL
MODEL 4
REMARK VINA RESULT:    -7.588      2.153      3.847
REMARK INTER + INTRA:         -13.174
REMARK INTER:                 -11.242
REMARK INTRA:                  -1.932
REMARK UNBOUND:                -0.928
REMARK SMILES COc1ccc(CCNCC(O)COc2cccc(C)c2)cc1OC
REMARK SMILES IDX 10 1 9 2 8 4 7 5 6 6 3 7 23 8 4 9 22 10 5 11 2 12 1 13 24 14
REMARK SMILES IDX 25 15 11 16 12 17 13 19 14 20 15 21 16 22 21 23 17 24 19 25
REMARK SMILES IDX 18 26 20 27
REMARK H PARENT 9 3 12 18
REMARK Flexibility Score: inf
ROOT
ATOM      1  C   UNL     1      21.117  39.602 -10.565  1.00  0.00     0.116 C 
ENDROOT
BRANCH   1   2
ATOM      2  N   UNL     1      20.423  38.354 -10.216  1.00  0.00    -0.314 NA
ATOM      3  H   UNL     1      19.736  38.545  -9.449  1.00  0.00     0.122 HD
BRANCH   2   4
ATOM      4  C   UNL     1      21.351  37.296  -9.787  1.00  0.00     0.086 C 
BRANCH   4   5
ATOM      5  C   UNL     1      21.319  37.065  -8.267  1.00  0.00     0.051 C 
BRANCH   5   6
ATOM      6  C   UNL     1      22.605  36.433  -7.804  1.00  0.00    -0.043 A 
ATOM      7  C   UNL     1      25.038  35.321  -6.922  1.00  0.00     0.160 A 
ATOM      8  C   UNL     1      24.871  35.652  -8.277  1.00  0.00     0.160 A 
ATOM      9  C   UNL     1      23.990  35.557  -6.014  1.00  0.00     0.051 A 
ATOM     10  C   UNL     1      23.653  36.213  -8.711  1.00  0.00     0.054 A 
ATOM     11  C   UNL     1      22.787  36.113  -6.452  1.00  0.00     0.008 A 
BRANCH   7  12
ATOM     12  O   UNL     1      26.262  34.762  -6.520  1.00  0.00    -0.493 OA
ATOM     13  C   UNL     1      26.389  33.649  -5.640  1.00  0.00     0.278 C 
ENDBRANCH   7  12
BRANCH   8  14
ATOM     14  O   UNL     1      25.936  35.411  -9.158  1.00  0.00    -0.493 OA
ATOM     15  C   UNL     1      26.037  34.276 -10.012  1.00  0.00     0.278 C 
ENDBRANCH   8  14
ENDBRANCH   5   6
ENDBRANCH   4   5
ENDBRANCH   2   4
ENDBRANCH   1   2
BRANCH   1  16
ATOM     16  C   UNL     1      20.373  40.811  -9.982  1.00  0.00     0.165 C 
BRANCH  16  17
ATOM     17  O   UNL     1      19.132  40.376  -9.489  1.00  0.00    -0.388 OA
ATOM     18  H   UNL     1      18.457  40.561 -10.193  1.00  0.00     0.211 HD
ENDBRANCH  16  17
BRANCH  16  19
ATOM     19  C   UNL     1      21.190  41.475  -8.858  1.00  0.00     0.262 C 
BRANCH  19  20
ATOM     20  O   UNL     1      21.981  40.513  -8.159  1.00  0.00    -0.491 OA
BRANCH  20  21
ATOM     21  C   UNL     1      21.775  40.067  -6.843  1.00  0.00     0.119 A 
ATOM     22  C   UNL     1      20.507  40.044  -6.229  1.00  0.00     0.046 A 
ATOM     23  C   UNL     1      22.889  39.619  -6.120  1.00  0.00     0.049 A 
ATOM     24  C   UNL     1      20.367  39.579  -4.919  1.00  0.00     0.004 A 
ATOM     25  C   UNL     1      22.754  39.168  -4.799  1.00  0.00    -0.047 A 
ATOM     26  C   UNL     1      21.484  39.137  -4.207  1.00  0.00     0.003 A 
ATOM     27  C   UNL     1      23.949  38.656  -4.050  1.00  0.00     0.044 C 
ENDBRANCH  20  21
ENDBRANCH  19  20
ENDBRANCH  16  19
ENDBRANCH   1  16
TORSDOF 11
ENDMDL
MODEL 5
REMARK VINA RESULT:    -7.584      2.663      8.024
REMARK INTER + INTRA:         -13.168
REMARK INTER:                 -11.728
REMARK INTRA:                  -1.441
REMARK UNBOUND:                -0.928
REMARK SMILES COc1ccc(CCNCC(O)COc2cccc(C)c2)cc1OC
REMARK SMILES IDX 10 1 9 2 8 4 7 5 6 6 3 7 23 8 4 9 22 10 5 11 2 12 1 13 24 14
REMARK SMILES IDX 25 15 11 16 12 17 13 19 14 20 15 21 16 22 21 23 17 24 19 25
REMARK SMILES IDX 18 26 20 27
REMARK H PARENT 9 3 12 18
REMARK Flexibility Score: inf
ROOT
ATOM      1  C   UNL     1      21.405  39.596  -6.047  1.00  0.00     0.116 C 
ENDROOT
BRANCH   1   2
ATOM      2  N   UNL     1      22.531  40.076  -6.861  1.00  0.00    -0.314 NA
ATOM      3  H   UNL     1      22.962  40.909  -6.394  1.00  0.00     0.122 HD
BRANCH   2   4
ATOM      4  C   UNL     1      22.122  40.440  -8.226  1.00  0.00     0.086 C 
BRANCH   4   5
ATOM      5  C   UNL     1      20.650  40.097  -8.512  1.00  0.00     0.051 C 
BRANCH   5   6
ATOM      6  C   UNL     1      20.535  39.283  -9.774  1.00  0.00    -0.043 A 
ATOM      7  C   UNL     1      20.247  37.741 -12.112  1.00  0.00     0.160 A 
ATOM      8  C   UNL     1      20.765  37.153 -10.947  1.00  0.00     0.160 A 
ATOM      9  C   UNL     1      19.866  39.096 -12.099  1.00  0.00     0.051 A 
ATOM     10  C   UNL     1      20.902  37.929  -9.778  1.00  0.00     0.054 A 
ATOM     11  C   UNL     1      20.005  39.857 -10.937  1.00  0.00     0.008 A 
BRANCH   7  12
ATOM     12  O   UNL     1      20.123  36.943 -13.262  1.00  0.00    -0.493 OA
ATOM     13  C   UNL     1      20.434  37.378 -14.581  1.00  0.00     0.278 C 
ENDBRANCH   7  12
BRANCH   8  14
ATOM     14  O   UNL     1      21.129  35.799 -10.989  1.00  0.00    -0.493 OA
ATOM     15  C   UNL     1      22.430  35.322 -11.318  1.00  0.00     0.278 C 
ENDBRANCH   8  14
ENDBRANCH   5   6
ENDBRANCH   4   5
ENDBRANCH   2   4
ENDBRANCH   1   2
BRANCH   1  16
ATOM     16  C   UNL     1      21.906  39.070  -4.695  1.00  0.00     0.165 C 
BRANCH  16  17
ATOM     17  O   UNL     1      20.876  39.216  -3.751  1.00  0.00    -0.388 OA
ATOM     18  H   UNL     1      20.950  40.133  -3.378  1.00  0.00     0.211 HD
ENDBRANCH  16  17
BRANCH  16  19
ATOM     19  C   UNL     1      22.328  37.593  -4.798  1.00  0.00     0.262 C 
BRANCH  19  20
ATOM     20  O   UNL     1      22.388  37.167  -6.161  1.00  0.00    -0.491 OA
BRANCH  20  21
ATOM     21  C   UNL     1      23.474  36.530  -6.784  1.00  0.00     0.119 A 
ATOM     22  C   UNL     1      23.866  36.800  -8.111  1.00  0.00     0.046 A 
ATOM     23  C   UNL     1      24.197  35.589  -6.039  1.00  0.00     0.049 A 
ATOM     24  C   UNL     1      24.963  36.138  -8.669  1.00  0.00     0.004 A 
ATOM     25  C   UNL     1      25.287  34.910  -6.603  1.00  0.00    -0.047 A 
ATOM     26  C   UNL     1      25.675  35.201  -7.919  1.00  0.00     0.003 A 
ATOM     27  C   UNL     1      26.076  33.933  -5.782  1.00  0.00     0.044 C 
ENDBRANCH  20  21
ENDBRANCH  19  20
ENDBRANCH  16  19
ENDBRANCH   1  16
TORSDOF 11
ENDMDL
MODEL 6
REMARK VINA RESULT:    -7.551      2.419      6.334
REMARK INTER + INTRA:         -13.114
REMARK INTER:                 -11.743
REMARK INTRA:                  -1.371
REMARK UNBOUND:                -0.928
REMARK SMILES COc1ccc(CCNCC(O)COc2cccc(C)c2)cc1OC
REMARK SMILES IDX 10 1 9 2 8 4 7 5 6 6 3 7 23 8 4 9 22 10 5 11 2 12 1 13 24 14
REMARK SMILES IDX 25 15 11 16 12 17 13 19 14 20 15 21 16 22 21 23 17 24 19 25
REMARK SMILES IDX 18 26 20 27
REMARK H PARENT 9 3 12 18
REMARK Flexibility Score: inf
ROOT
ATOM      1  C   UNL     1      20.778  38.459 -10.850  1.00  0.00     0.116 C 
ENDROOT
BRANCH   1   2
ATOM      2  N   UNL     1      20.043  38.575  -9.582  1.00  0.00    -0.314 NA
ATOM      3  H   UNL     1      19.107  38.116  -9.684  1.00  0.00     0.122 HD
BRANCH   2   4
ATOM      4  C   UNL     1      19.857  39.974  -9.166  1.00  0.00     0.086 C 
BRANCH   4   5
ATOM      5  C   UNL     1      21.191  40.694  -8.909  1.00  0.00     0.051 C 
BRANCH   5   6
ATOM      6  C   UNL     1      21.807  40.217  -7.620  1.00  0.00    -0.043 A 
ATOM      7  C   UNL     1      22.950  39.250  -5.234  1.00  0.00     0.160 A 
ATOM      8  C   UNL     1      21.564  39.463  -5.309  1.00  0.00     0.160 A 
ATOM      9  C   UNL     1      23.756  39.512  -6.358  1.00  0.00     0.051 A 
ATOM     10  C   UNL     1      20.997  39.942  -6.508  1.00  0.00     0.054 A 
ATOM     11  C   UNL     1      23.187  39.987  -7.541  1.00  0.00     0.008 A 
BRANCH   7  12
ATOM     12  O   UNL     1      23.486  38.773  -4.027  1.00  0.00    -0.493 OA
ATOM     13  C   UNL     1      24.333  37.633  -3.916  1.00  0.00     0.278 C 
ENDBRANCH   7  12
BRANCH   8  14
ATOM     14  O   UNL     1      20.785  39.186  -4.175  1.00  0.00    -0.493 OA
ATOM     15  C   UNL     1      19.602  39.892  -3.816  1.00  0.00     0.278 C 
ENDBRANCH   8  14
ENDBRANCH   5   6
ENDBRANCH   4   5
ENDBRANCH   2   4
ENDBRANCH   1   2
BRANCH   1  16
ATOM     16  C   UNL     1      20.782  37.004 -11.337  1.00  0.00     0.165 C 
BRANCH  16  17
ATOM     17  O   UNL     1      20.633  37.002 -12.734  1.00  0.00    -0.388 OA
ATOM     18  H   UNL     1      21.536  37.133 -13.124  1.00  0.00     0.211 HD
ENDBRANCH  16  17
BRANCH  16  19
ATOM     19  C   UNL     1      22.087  36.291 -10.939  1.00  0.00     0.262 C 
BRANCH  19  20
ATOM     20  O   UNL     1      22.491  36.655  -9.618  1.00  0.00    -0.491 OA
BRANCH  20  21
ATOM     21  C   UNL     1      23.526  36.064  -8.874  1.00  0.00     0.119 A 
ATOM     22  C   UNL     1      23.652  36.213  -7.478  1.00  0.00     0.046 A 
ATOM     23  C   UNL     1      24.467  35.286  -9.563  1.00  0.00     0.049 A 
ATOM     24  C   UNL     1      24.699  35.590  -6.795  1.00  0.00     0.004 A 
ATOM     25  C   UNL     1      25.530  34.675  -8.882  1.00  0.00    -0.047 A 
ATOM     26  C   UNL     1      25.632  34.819  -7.492  1.00  0.00     0.003 A 
ATOM     27  C   UNL     1      26.508  33.814  -9.627  1.00  0.00     0.044 C 
ENDBRANCH  20  21
ENDBRANCH  19  20
ENDBRANCH  16  19
ENDBRANCH   1  16
TORSDOF 11
ENDMDL
MODEL 7
REMARK VINA RESULT:    -7.536      2.124      6.214
REMARK INTER + INTRA:         -13.090
REMARK INTER:                 -11.825
REMARK INTRA:                  -1.266
REMARK UNBOUND:                -0.928
REMARK SMILES COc1ccc(CCNCC(O)COc2cccc(C)c2)cc1OC
REMARK SMILES IDX 10 1 9 2 8 4 7 5 6 6 3 7 23 8 4 9 22 10 5 11 2 12 1 13 24 14
REMARK SMILES IDX 25 15 11 16 12 17 13 19 14 20 15 21 16 22 21 23 17 24 19 25
REMARK SMILES IDX 18 26 20 27
REMARK H PARENT 9 3 12 18
REMARK Flexibility Score: inf
ROOT
ATOM      1  C   UNL     1      26.088  35.562  -5.892  1.00  0.00     0.116 C 
ENDROOT
BRANCH   1   2
ATOM      2  N   UNL     1      24.799  35.643  -6.594  1.00  0.00    -0.314 NA
ATOM      3  H   UNL     1      24.445  34.674  -6.776  1.00  0.00     0.122 HD
BRANCH   2   4
ATOM      4  C   UNL     1      24.898  36.372  -7.868  1.00  0.00     0.086 C 
BRANCH   4   5
ATOM      5  C   UNL     1      24.746  35.449  -9.089  1.00  0.00     0.051 C 
BRANCH   5   6
ATOM      6  C   UNL     1      23.520  35.822  -9.880  1.00  0.00    -0.043 A 
ATOM      7  C   UNL     1      21.265  36.579 -11.388  1.00  0.00     0.160 A 
ATOM      8  C   UNL     1      21.422  37.056 -10.076  1.00  0.00     0.160 A 
ATOM      9  C   UNL     1      22.243  35.732 -11.941  1.00  0.00     0.051 A 
ATOM     10  C   UNL     1      22.555  36.678  -9.328  1.00  0.00     0.054 A 
ATOM     11  C   UNL     1      23.362  35.362 -11.194  1.00  0.00     0.008 A 
BRANCH   7  12
ATOM     12  O   UNL     1      20.125  36.972 -12.108  1.00  0.00    -0.493 OA
ATOM     13  C   UNL     1      20.108  38.007 -13.086  1.00  0.00     0.278 C 
ENDBRANCH   7  12
BRANCH   8  14
ATOM     14  O   UNL     1      20.434  37.905  -9.554  1.00  0.00    -0.493 OA
ATOM     15  C   UNL     1      20.445  39.325  -9.667  1.00  0.00     0.278 C 
ENDBRANCH   8  14
ENDBRANCH   5   6
ENDBRANCH   4   5
ENDBRANCH   2   4
ENDBRANCH   1   2
BRANCH   1  16
ATOM     16  C   UNL     1      25.905  35.860  -4.398  1.00  0.00     0.165 C 
BRANCH  16  17
ATOM     17  O   UNL     1      26.819  36.860  -4.028  1.00  0.00    -0.388 OA
ATOM     18  H   UNL     1      27.729  36.494  -4.178  1.00  0.00     0.211 HD
ENDBRANCH  16  17
BRANCH  16  19
ATOM     19  C   UNL     1      24.465  36.316  -4.096  1.00  0.00     0.262 C 
BRANCH  19  20
ATOM     20  O   UNL     1      24.361  37.741  -4.117  1.00  0.00    -0.491 OA
BRANCH  20  21
ATOM     21  C   UNL     1      23.409  38.492  -4.827  1.00  0.00     0.119 A 
ATOM     22  C   UNL     1      23.642  39.002  -6.121  1.00  0.00     0.046 A 
ATOM     23  C   UNL     1      22.173  38.732  -4.213  1.00  0.00     0.049 A 
ATOM     24  C   UNL     1      22.649  39.733  -6.778  1.00  0.00     0.004 A 
ATOM     25  C   UNL     1      21.181  39.482  -4.863  1.00  0.00    -0.047 A 
ATOM     26  C   UNL     1      21.422  39.969  -6.156  1.00  0.00     0.003 A 
ATOM     27  C   UNL     1      19.848  39.699  -4.210  1.00  0.00     0.044 C 
ENDBRANCH  20  21
ENDBRANCH  19  20
ENDBRANCH  16  19
ENDBRANCH   1  16
TORSDOF 11
ENDMDL
MODEL 8
REMARK VINA RESULT:    -7.520      2.622      8.044
REMARK INTER + INTRA:         -13.064
REMARK INTER:                 -12.129
REMARK INTRA:                  -0.935
REMARK UNBOUND:                -0.928
REMARK SMILES COc1ccc(CCNCC(O)COc2cccc(C)c2)cc1OC
REMARK SMILES IDX 10 1 9 2 8 4 7 5 6 6 3 7 23 8 4 9 22 10 5 11 2 12 1 13 24 14
REMARK SMILES IDX 25 15 11 16 12 17 13 19 14 20 15 21 16 22 21 23 17 24 19 25
REMARK SMILES IDX 18 26 20 27
REMARK H PARENT 9 3 12 18
REMARK Flexibility Score: inf
ROOT
ATOM      1  C   UNL     1      23.468  39.141  -5.910  1.00  0.00     0.116 C 
ENDROOT
BRANCH   1   2
ATOM      2  N   UNL     1      22.234  39.842  -6.292  1.00  0.00    -0.314 NA
ATOM      3  H   UNL     1      21.625  39.952  -5.446  1.00  0.00     0.122 HD
BRANCH   2   4
ATOM      4  C   UNL     1      21.487  39.132  -7.341  1.00  0.00     0.086 C 
BRANCH   4   5
ATOM      5  C   UNL     1      22.333  38.057  -8.043  1.00  0.00     0.051 C 
BRANCH   5   6
ATOM      6  C   UNL     1      21.748  37.722  -9.390  1.00  0.00    -0.043 A 
ATOM      7  C   UNL     1      20.717  37.126 -11.942  1.00  0.00     0.160 A 
ATOM      8  C   UNL     1      20.429  38.363 -11.343  1.00  0.00     0.160 A 
ATOM      9  C   UNL     1      21.528  36.197 -11.264  1.00  0.00     0.051 A 
ATOM     10  C   UNL     1      20.952  38.658 -10.068  1.00  0.00     0.054 A 
ATOM     11  C   UNL     1      22.042  36.497 -10.001  1.00  0.00     0.008 A 
BRANCH   7  12
ATOM     12  O   UNL     1      20.181  36.860 -13.212  1.00  0.00    -0.493 OA
ATOM     13  C   UNL     1      20.567  37.534 -14.406  1.00  0.00     0.278 C 
ENDBRANCH   7  12
BRANCH   8  14
ATOM     14  O   UNL     1      19.623  39.272 -12.046  1.00  0.00    -0.493 OA
ATOM     15  C   UNL     1      19.816  40.683 -12.056  1.00  0.00     0.278 C 
ENDBRANCH   8  14
ENDBRANCH   5   6
ENDBRANCH   4   5
ENDBRANCH   2   4
ENDBRANCH   1   2
BRANCH   1  16
ATOM     16  C   UNL     1      23.471  38.839  -4.405  1.00  0.00     0.165 C 
BRANCH  16  17
ATOM     17  O   UNL     1      22.174  39.046  -3.907  1.00  0.00    -0.388 OA
ATOM     18  H   UNL     1      22.255  39.171  -2.925  1.00  0.00     0.211 HD
ENDBRANCH  16  17
BRANCH  16  19
ATOM     19  C   UNL     1      23.923  37.392  -4.132  1.00  0.00     0.262 C 
BRANCH  19  20
ATOM     20  O   UNL     1      25.171  37.113  -4.769  1.00  0.00    -0.491 OA
BRANCH  20  21
ATOM     21  C   UNL     1      25.495  35.949  -5.486  1.00  0.00     0.119 A 
ATOM     22  C   UNL     1      26.047  34.803  -4.880  1.00  0.00     0.046 A 
ATOM     23  C   UNL     1      25.245  35.937  -6.864  1.00  0.00     0.049 A 
ATOM     24  C   UNL     1      26.338  33.672  -5.647  1.00  0.00     0.004 A 
ATOM     25  C   UNL     1      25.553  34.809  -7.641  1.00  0.00    -0.047 A 
ATOM     26  C   UNL     1      26.087  33.671  -7.021  1.00  0.00     0.003 A 
ATOM     27  C   UNL     1      25.245  34.796  -9.109  1.00  0.00     0.044 C 
ENDBRANCH  20  21
ENDBRANCH  19  20
ENDBRANCH  16  19
ENDBRANCH   1  16
TORSDOF 11
ENDMDL
MODEL 9
REMARK VINA RESULT:    -7.497      2.320      5.164
REMARK INTER + INTRA:         -13.027
REMARK INTER:                 -11.770
REMARK INTRA:                  -1.257
REMARK UNBOUND:                -0.928
REMARK SMILES COc1ccc(CCNCC(O)COc2cccc(C)c2)cc1OC
REMARK SMILES IDX 10 1 9 2 8 4 7 5 6 6 3 7 23 8 4 9 22 10 5 11 2 12 1 13 24 14
REMARK SMILES IDX 25 15 11 16 12 17 13 19 14 20 15 21 16 22 21 23 17 24 19 25
REMARK SMILES IDX 18 26 20 27
REMARK H PARENT 9 3 12 18
REMARK Flexibility Score: inf
ROOT
ATOM      1  C   UNL     1      20.188  40.214  -5.415  1.00  0.00     0.116 C 
ENDROOT
BRANCH   1   2
ATOM      2  N   UNL     1      20.690  38.832  -5.405  1.00  0.00    -0.314 NA
ATOM      3  H   UNL     1      19.880  38.173  -5.324  1.00  0.00     0.122 HD
BRANCH   2   4
ATOM      4  C   UNL     1      21.632  38.585  -4.302  1.00  0.00     0.086 C 
BRANCH   4   5
ATOM      5  C   UNL     1      23.060  39.053  -4.630  1.00  0.00     0.051 C 
BRANCH   5   6
ATOM      6  C   UNL     1      23.932  37.875  -4.976  1.00  0.00    -0.043 A 
ATOM      7  C   UNL     1      25.617  35.722  -5.653  1.00  0.00     0.160 A 
ATOM      8  C   UNL     1      24.657  36.175  -6.573  1.00  0.00     0.160 A 
ATOM      9  C   UNL     1      25.735  36.355  -4.402  1.00  0.00     0.051 A 
ATOM     10  C   UNL     1      23.821  37.257  -6.231  1.00  0.00     0.054 A 
ATOM     11  C   UNL     1      24.902  37.425  -4.071  1.00  0.00     0.008 A 
BRANCH   7  12
ATOM     12  O   UNL     1      26.435  34.642  -6.022  1.00  0.00    -0.493 OA
ATOM     13  C   UNL     1      26.143  33.277  -5.743  1.00  0.00     0.278 C 
ENDBRANCH   7  12
BRANCH   8  14
ATOM     14  O   UNL     1      24.568  35.529  -7.815  1.00  0.00    -0.493 OA
ATOM     15  C   UNL     1      25.231  35.960  -9.000  1.00  0.00     0.278 C 
ENDBRANCH   8  14
ENDBRANCH   5   6
ENDBRANCH   4   5
ENDBRANCH   2   4
ENDBRANCH   1   2
BRANCH   1  16
ATOM     16  C   UNL     1      20.191  40.776  -6.843  1.00  0.00     0.165 C 
BRANCH  16  17
ATOM     17  O   UNL     1      20.458  42.153  -6.779  1.00  0.00    -0.388 OA
ATOM     18  H   UNL     1      21.005  42.382  -7.575  1.00  0.00     0.211 HD
ENDBRANCH  16  17
BRANCH  16  19
ATOM     19  C   UNL     1      21.246  40.069  -7.714  1.00  0.00     0.262 C 
BRANCH  19  20
ATOM     20  O   UNL     1      20.764  38.809  -8.186  1.00  0.00    -0.491 OA
BRANCH  20  21
ATOM     21  C   UNL     1      20.841  38.333  -9.505  1.00  0.00     0.119 A 
ATOM     22  C   UNL     1      20.358  39.057 -10.614  1.00  0.00     0.046 A 
ATOM     23  C   UNL     1      21.435  37.081  -9.716  1.00  0.00     0.049 A 
ATOM     24  C   UNL     1      20.475  38.531 -11.903  1.00  0.00     0.004 A 
ATOM     25  C   UNL     1      21.537  36.543 -11.008  1.00  0.00    -0.047 A 
ATOM     26  C   UNL     1      21.066  37.283 -12.102  1.00  0.00     0.003 A 
ATOM     27  C   UNL     1      22.208  35.219 -11.224  1.00  0.00     0.044 C 
ENDBRANCH  20  21
ENDBRANCH  19  20
ENDBRANCH  16  19
ENDBRANCH   1  16
TORSDOF 11
ENDMDL
MODEL 10
REMARK VINA RESULT:    -7.481      2.446      5.456
REMARK INTER + INTRA:         -13.001
REMARK INTER:                 -11.587
REMARK INTRA:                  -1.414
REMARK UNBOUND:                -0.928
REMARK SMILES COc1ccc(CCNCC(O)COc2cccc(C)c2)cc1OC
REMARK SMILES IDX 10 1 9 2 8 4 7 5 6 6 3 7 23 8 4 9 22 10 5 11 2 12 1 13 24 14
REMARK SMILES IDX 25 15 11 16 12 17 13 19 14 20 15 21 16 22 21 23 17 24 19 25
REMARK SMILES IDX 18 26 20 27
REMARK H PARENT 9 3 12 18
REMARK Flexibility Score: inf
ROOT
ATOM      1  C   UNL     1      20.477  40.115  -5.528  1.00  0.00     0.116 C 
ENDROOT
BRANCH   1   2
ATOM      2  N   UNL     1      20.857  38.709  -5.732  1.00  0.00    -0.314 NA
ATOM      3  H   UNL     1      20.011  38.104  -5.613  1.00  0.00     0.122 HD
BRANCH   2   4
ATOM      4  C   UNL     1      21.906  38.270  -4.800  1.00  0.00     0.086 C 
BRANCH   4   5
ATOM      5  C   UNL     1      23.305  38.758  -5.214  1.00  0.00     0.051 C 
BRANCH   5   6
ATOM      6  C   UNL     1      23.997  37.718  -6.055  1.00  0.00    -0.043 A 
ATOM      7  C   UNL     1      25.234  35.724  -7.612  1.00  0.00     0.160 A 
ATOM      8  C   UNL     1      25.540  35.834  -6.246  1.00  0.00     0.160 A 
ATOM      9  C   UNL     1      24.303  36.606  -8.190  1.00  0.00     0.051 A 
ATOM     10  C   UNL     1      24.914  36.831  -5.470  1.00  0.00     0.054 A 
ATOM     11  C   UNL     1      23.688  37.591  -7.416  1.00  0.00     0.008 A 
BRANCH   7  12
ATOM     12  O   UNL     1      25.875  34.721  -8.359  1.00  0.00    -0.493 OA
ATOM     13  C   UNL     1      25.694  34.519  -9.757  1.00  0.00     0.278 C 
ENDBRANCH   7  12
BRANCH   8  14
ATOM     14  O   UNL     1      26.467  34.935  -5.696  1.00  0.00    -0.493 OA
ATOM     15  C   UNL     1      26.126  33.687  -5.100  1.00  0.00     0.278 C 
ENDBRANCH   8  14
ENDBRANCH   5   6
ENDBRANCH   4   5
ENDBRANCH   2   4
ENDBRANCH   1   2
BRANCH   1  16
ATOM     16  C   UNL     1      20.140  40.780  -6.869  1.00  0.00     0.165 C 
BRANCH  16  17
ATOM     17  O   UNL     1      20.433  42.150  -6.773  1.00  0.00    -0.388 OA
ATOM     18  H   UNL     1      21.421  42.241  -6.808  1.00  0.00     0.211 HD
ENDBRANCH  16  17
BRANCH  16  19
ATOM     19  C   UNL     1      20.940  40.143  -8.020  1.00  0.00     0.262 C 
BRANCH  19  20
ATOM     20  O   UNL     1      20.128  39.241  -8.774  1.00  0.00    -0.491 OA
BRANCH  20  21
ATOM     21  C   UNL     1      20.472  38.639  -9.996  1.00  0.00     0.119 A 
ATOM     22  C   UNL     1      20.239  39.249 -11.246  1.00  0.00     0.046 A 
ATOM     23  C   UNL     1      21.082  37.378  -9.958  1.00  0.00     0.049 A 
ATOM     24  C   UNL     1      20.615  38.602 -12.426  1.00  0.00     0.004 A 
ATOM     25  C   UNL     1      21.443  36.718 -11.142  1.00  0.00    -0.047 A 
ATOM     26  C   UNL     1      21.219  37.345 -12.376  1.00  0.00     0.003 A 
ATOM     27  C   UNL     1      22.129  35.385 -11.085  1.00  0.00     0.044 C 
ENDBRANCH  20  21
ENDBRANCH  19  20
ENDBRANCH  16  19
ENDBRANCH   1  16
TORSDOF 11
ENDMDL
MODEL 11
REMARK VINA RESULT:    -7.426      2.251      6.684
REMARK INTER + INTRA:         -12.913
REMARK INTER:                 -11.827
REMARK INTRA:                  -1.085
REMARK UNBOUND:                -0.928
REMARK SMILES COc1ccc(CCNCC(O)COc2cccc(C)c2)cc1OC
REMARK SMILES IDX 10 1 9 2 8 4 7 5 6 6 3 7 23 8 4 9 22 10 5 11 2 12 1 13 24 14
REMARK SMILES IDX 25 15 11 16 12 17 13 19 14 20 15 21 16 22 21 23 17 24 19 25
REMARK SMILES IDX 18 26 20 27
REMARK H PARENT 9 3 12 18
REMARK Flexibility Score: inf
ROOT
ATOM      1  C   UNL     1      22.914  36.167 -12.205  1.00  0.00     0.116 C 
ENDROOT
BRANCH   1   2
ATOM      2  N   UNL     1      21.981  37.300 -12.124  1.00  0.00    -0.314 NA
ATOM      3  H   UNL     1      22.527  38.189 -12.031  1.00  0.00     0.122 HD
BRANCH   2   4
ATOM      4  C   UNL     1      21.048  37.180 -10.993  1.00  0.00     0.086 C 
BRANCH   4   5
ATOM      5  C   UNL     1      20.702  38.542 -10.367  1.00  0.00     0.051 C 
BRANCH   5   6
ATOM      6  C   UNL     1      21.087  38.565  -8.911  1.00  0.00    -0.043 A 
ATOM      7  C   UNL     1      21.738  38.577  -6.171  1.00  0.00     0.160 A 
ATOM      8  C   UNL     1      21.102  39.690  -6.744  1.00  0.00     0.160 A 
ATOM      9  C   UNL     1      22.037  37.458  -6.972  1.00  0.00     0.051 A 
ATOM     10  C   UNL     1      20.774  39.676  -8.114  1.00  0.00     0.054 A 
ATOM     11  C   UNL     1      21.709  37.453  -8.329  1.00  0.00     0.008 A 
BRANCH   7  12
ATOM     12  O   UNL     1      22.054  38.620  -4.803  1.00  0.00    -0.493 OA
ATOM     13  C   UNL     1      23.362  38.838  -4.285  1.00  0.00     0.278 C 
ENDBRANCH   7  12
BRANCH   8  14
ATOM     14  O   UNL     1      20.810  40.788  -5.919  1.00  0.00    -0.493 OA
ATOM     15  C   UNL     1      19.648  41.602  -6.039  1.00  0.00     0.278 C 
ENDBRANCH   8  14
ENDBRANCH   5   6
ENDBRANCH   4   5
ENDBRANCH   2   4
ENDBRANCH   1   2
BRANCH   1  16
ATOM     16  C   UNL     1      23.060  35.493 -10.834  1.00  0.00     0.165 C 
BRANCH  16  17
ATOM     17  O   UNL     1      22.525  34.197 -10.915  1.00  0.00    -0.388 OA
ATOM     18  H   UNL     1      22.875  33.687 -10.139  1.00  0.00     0.211 HD
ENDBRANCH  16  17
BRANCH  16  19
ATOM     19  C   UNL     1      24.536  35.434 -10.400  1.00  0.00     0.262 C 
BRANCH  19  20
ATOM     20  O   UNL     1      24.705  35.946  -9.077  1.00  0.00    -0.491 OA
BRANCH  20  21
ATOM     21  C   UNL     1      25.286  35.267  -7.993  1.00  0.00     0.119 A 
ATOM     22  C   UNL     1      25.718  33.927  -8.067  1.00  0.00     0.046 A 
ATOM     23  C   UNL     1      25.444  35.967  -6.789  1.00  0.00     0.049 A 
ATOM     24  C   UNL     1      26.297  33.312  -6.954  1.00  0.00     0.004 A 
ATOM     25  C   UNL     1      26.009  35.346  -5.665  1.00  0.00    -0.047 A 
ATOM     26  C   UNL     1      26.448  34.018  -5.759  1.00  0.00     0.003 A 
ATOM     27  C   UNL     1      26.206  36.119  -4.395  1.00  0.00     0.044 C 
ENDBRANCH  20  21
ENDBRANCH  19  20
ENDBRANCH  16  19
ENDBRANCH   1  16
TORSDOF 11
ENDMDL
MODEL 12
REMARK VINA RESULT:    -7.415      2.874      8.228
REMARK INTER + INTRA:         -12.895
REMARK INTER:                 -11.580
REMARK INTRA:                  -1.315
REMARK UNBOUND:                -0.928
REMARK SMILES COc1ccc(CCNCC(O)COc2cccc(C)c2)cc1OC
REMARK SMILES IDX 10 1 9 2 8 4 7 5 6 6 3 7 23 8 4 9 22 10 5 11 2 12 1 13 24 14
REMARK SMILES IDX 25 15 11 16 12 17 13 19 14 20 15 21 16 22 21 23 17 24 19 25
REMARK SMILES IDX 18 26 20 27
REMARK H PARENT 9 3 12 18
REMARK Flexibility Score: inf
ROOT
ATOM      1  C   UNL     1      21.350  39.695  -5.970  1.00  0.00     0.116 C 
ENDROOT
BRANCH   1   2
ATOM      2  N   UNL     1      22.328  40.162  -6.964  1.00  0.00    -0.314 NA
ATOM      3  H   UNL     1      22.426  41.202  -6.886  1.00  0.00     0.122 HD
BRANCH   2   4
ATOM      4  C   UNL     1      21.942  39.810  -8.339  1.00  0.00     0.086 C 
BRANCH   4   5
ATOM      5  C   UNL     1      21.466  38.353  -8.463  1.00  0.00     0.051 C 
BRANCH   5   6
ATOM      6  C   UNL     1      21.065  38.049  -9.882  1.00  0.00    -0.043 A 
ATOM      7  C   UNL     1      20.382  37.511 -12.561  1.00  0.00     0.160 A 
ATOM      8  C   UNL     1      20.008  38.731 -11.975  1.00  0.00     0.160 A 
ATOM      9  C   UNL     1      21.106  36.570 -11.806  1.00  0.00     0.051 A 
ATOM     10  C   UNL     1      20.357  38.997 -10.636  1.00  0.00     0.054 A 
ATOM     11  C   UNL     1      21.447  36.840 -10.479  1.00  0.00     0.008 A 
BRANCH   7  12
ATOM     12  O   UNL     1      20.020  37.275 -13.897  1.00  0.00    -0.493 OA
ATOM     13  C   UNL     1      20.858  37.539 -15.018  1.00  0.00     0.278 C 
ENDBRANCH   7  12
BRANCH   8  14
ATOM     14  O   UNL     1      19.293  39.653 -12.756  1.00  0.00    -0.493 OA
ATOM     15  C   UNL     1      18.279  40.520 -12.256  1.00  0.00     0.278 C 
ENDBRANCH   8  14
ENDBRANCH   5   6
ENDBRANCH   4   5
ENDBRANCH   2   4
ENDBRANCH   1   2
BRANCH   1  16
ATOM     16  C   UNL     1      22.065  39.193  -4.708  1.00  0.00     0.165 C 
BRANCH  16  17
ATOM     17  O   UNL     1      21.122  39.093  -3.672  1.00  0.00    -0.388 OA
ATOM     18  H   UNL     1      21.149  39.947  -3.168  1.00  0.00     0.211 HD
ENDBRANCH  16  17
BRANCH  16  19
ATOM     19  C   UNL     1      22.733  37.828  -4.955  1.00  0.00     0.262 C 
BRANCH  19  20
ATOM     20  O   UNL     1      23.817  37.945  -5.879  1.00  0.00    -0.491 OA
BRANCH  20  21
ATOM     21  C   UNL     1      24.434  36.890  -6.572  1.00  0.00     0.119 A 
ATOM     22  C   UNL     1      24.581  36.873  -7.974  1.00  0.00     0.046 A 
ATOM     23  C   UNL     1      24.929  35.814  -5.823  1.00  0.00     0.049 A 
ATOM     24  C   UNL     1      25.214  35.798  -8.602  1.00  0.00     0.004 A 
ATOM     25  C   UNL     1      25.549  34.725  -6.453  1.00  0.00    -0.047 A 
ATOM     26  C   UNL     1      25.701  34.730  -7.847  1.00  0.00     0.003 A 
ATOM     27  C   UNL     1      26.107  33.597  -5.636  1.00  0.00     0.044 C 
ENDBRANCH  20  21
ENDBRANCH  19  20
ENDBRANCH  16  19
ENDBRANCH   1  16
TORSDOF 11
ENDMDL
MODEL 13
REMARK VINA RESULT:    -7.405      2.334      6.536
REMARK INTER + INTRA:         -12.879
REMARK INTER:                 -11.137
REMARK INTRA:                  -1.742
REMARK UNBOUND:                -0.928
REMARK SMILES COc1ccc(CCNCC(O)COc2cccc(C)c2)cc1OC
REMARK SMILES IDX 10 1 9 2 8 4 7 5 6 6 3 7 23 8 4 9 22 10 5 11 2 12 1 13 24 14
REMARK SMILES IDX 25 15 11 16 12 17 13 19 14 20 15 21 16 22 21 23 17 24 19 25
REMARK SMILES IDX 18 26 20 27
REMARK H PARENT 9 3 12 18
REMARK Flexibility Score: inf
ROOT
ATOM      1  C   UNL     1      26.250  34.874  -5.990  1.00  0.00     0.116 C 
ENDROOT
BRANCH   1   2
ATOM      2  N   UNL     1      25.000  35.170  -6.706  1.00  0.00    -0.314 NA
ATOM      3  H   UNL     1      24.468  34.279  -6.851  1.00  0.00     0.122 HD
BRANCH   2   4
ATOM      4  C   UNL     1      25.238  35.813  -8.007  1.00  0.00     0.086 C 
BRANCH   4   5
ATOM      5  C   UNL     1      24.572  35.057  -9.169  1.00  0.00     0.051 C 
BRANCH   5   6
ATOM      6  C   UNL     1      23.449  35.872  -9.753  1.00  0.00    -0.043 A 
ATOM      7  C   UNL     1      21.300  37.336 -10.836  1.00  0.00     0.160 A 
ATOM      8  C   UNL     1      22.132  36.586 -11.682  1.00  0.00     0.160 A 
ATOM      9  C   UNL     1      21.542  37.343  -9.449  1.00  0.00     0.051 A 
ATOM     10  C   UNL     1      23.203  35.851 -11.134  1.00  0.00     0.054 A 
ATOM     11  C   UNL     1      22.605  36.612  -8.914  1.00  0.00     0.008 A 
BRANCH   7  12
ATOM     12  O   UNL     1      20.242  38.059 -11.411  1.00  0.00    -0.493 OA
ATOM     13  C   UNL     1      20.234  39.472 -11.588  1.00  0.00     0.278 C 
ENDBRANCH   7  12
BRANCH   8  14
ATOM     14  O   UNL     1      21.862  36.593 -13.059  1.00  0.00    -0.493 OA
ATOM     15  C   UNL     1      22.588  37.353 -14.021  1.00  0.00     0.278 C 
ENDBRANCH   8  14
ENDBRANCH   5   6
ENDBRANCH   4   5
ENDBRANCH   2   4
ENDBRANCH   1   2
BRANCH   1  16
ATOM     16  C   UNL     1      26.220  35.485  -4.582  1.00  0.00     0.165 C 
BRANCH  16  17
ATOM     17  O   UNL     1      27.213  36.475  -4.505  1.00  0.00    -0.388 OA
ATOM     18  H   UNL     1      26.802  37.268  -4.073  1.00  0.00     0.211 HD
ENDBRANCH  16  17
BRANCH  16  19
ATOM     19  C   UNL     1      24.839  36.090  -4.270  1.00  0.00     0.262 C 
BRANCH  19  20
ATOM     20  O   UNL     1      24.812  37.490  -4.558  1.00  0.00    -0.491 OA
BRANCH  20  21
ATOM     21  C   UNL     1      23.705  38.221  -5.019  1.00  0.00     0.119 A 
ATOM     22  C   UNL     1      22.492  38.309  -4.308  1.00  0.00     0.046 A 
ATOM     23  C   UNL     1      23.829  38.897  -6.240  1.00  0.00     0.049 A 
ATOM     24  C   UNL     1      21.431  39.063  -4.816  1.00  0.00     0.004 A 
ATOM     25  C   UNL     1      22.759  39.640  -6.762  1.00  0.00    -0.047 A 
ATOM     26  C   UNL     1      21.563  39.730  -6.035  1.00  0.00     0.003 A 
ATOM     27  C   UNL     1      22.917  40.389  -8.052  1.00  0.00     0.044 C 
ENDBRANCH  20  21
ENDBRANCH  19  20
ENDBRANCH  16  19
ENDBRANCH   1  16
TORSDOF 11
ENDMDL
MODEL 14
REMARK VINA RESULT:    -7.281      2.305      7.104
REMARK INTER + INTRA:         -12.678
REMARK INTER:                 -11.284
REMARK INTRA:                  -1.394
REMARK UNBOUND:                -0.928
REMARK SMILES COc1ccc(CCNCC(O)COc2cccc(C)c2)cc1OC
REMARK SMILES IDX 10 1 9 2 8 4 7 5 6 6 3 7 23 8 4 9 22 10 5 11 2 12 1 13 24 14
REMARK SMILES IDX 25 15 11 16 12 17 13 19 14 20 15 21 16 22 21 23 17 24 19 25
REMARK SMILES IDX 18 26 20 27
REMARK H PARENT 9 3 12 18
REMARK Flexibility Score: inf
ROOT
ATOM      1  C   UNL     1      25.803  35.536  -3.969  1.00  0.00     0.116 C 
ENDROOT
BRANCH   1   2
ATOM      2  N   UNL     1      24.652  36.392  -3.644  1.00  0.00    -0.314 NA
ATOM      3  H   UNL     1      23.767  35.878  -3.867  1.00  0.00     0.122 HD
BRANCH   2   4
ATOM      4  C   UNL     1      24.675  37.666  -4.380  1.00  0.00     0.086 C 
BRANCH   4   5
ATOM      5  C   UNL     1      23.473  38.563  -4.041  1.00  0.00     0.051 C 
BRANCH   5   6
ATOM      6  C   UNL     1      22.934  39.213  -5.288  1.00  0.00    -0.043 A 
ATOM      7  C   UNL     1      21.941  40.499  -7.589  1.00  0.00     0.160 A 
ATOM      8  C   UNL     1      21.075  40.205  -6.524  1.00  0.00     0.160 A 
ATOM      9  C   UNL     1      23.303  40.156  -7.493  1.00  0.00     0.051 A 
ATOM     10  C   UNL     1      21.578  39.566  -5.373  1.00  0.00     0.054 A 
ATOM     11  C   UNL     1      23.793  39.524  -6.350  1.00  0.00     0.008 A 
BRANCH   7  12
ATOM     12  O   UNL     1      21.411  41.135  -8.723  1.00  0.00    -0.493 OA
ATOM     13  C   UNL     1      21.140  42.530  -8.812  1.00  0.00     0.278 C 
ENDBRANCH   7  12
BRANCH   8  14
ATOM     14  O   UNL     1      19.724  40.564  -6.645  1.00  0.00    -0.493 OA
ATOM     15  C   UNL     1      19.060  41.507  -5.808  1.00  0.00     0.278 C 
ENDBRANCH   8  14
ENDBRANCH   5   6
ENDBRANCH   4   5
ENDBRANCH   2   4
ENDBRANCH   1   2
BRANCH   1  16
ATOM     16  C   UNL     1      26.182  35.685  -5.448  1.00  0.00     0.165 C 
BRANCH  16  17
ATOM     17  O   UNL     1      27.580  35.606  -5.560  1.00  0.00    -0.388 OA
ATOM     18  H   UNL     1      27.917  35.190  -4.725  1.00  0.00     0.211 HD
ENDBRANCH  16  17
BRANCH  16  19
ATOM     19  C   UNL     1      25.516  34.592  -6.304  1.00  0.00     0.262 C 
BRANCH  19  20
ATOM     20  O   UNL     1      25.399  35.004  -7.667  1.00  0.00    -0.491 OA
BRANCH  20  21
ATOM     21  C   UNL     1      24.270  35.592  -8.262  1.00  0.00     0.119 A 
ATOM     22  C   UNL     1      23.290  36.289  -7.528  1.00  0.00     0.046 A 
ATOM     23  C   UNL     1      24.128  35.481  -9.651  1.00  0.00     0.049 A 
ATOM     24  C   UNL     1      22.195  36.861  -8.181  1.00  0.00     0.004 A 
ATOM     25  C   UNL     1      23.021  36.038 -10.308  1.00  0.00    -0.047 A 
ATOM     26  C   UNL     1      22.062  36.742  -9.566  1.00  0.00     0.003 A 
ATOM     27  C   UNL     1      22.901  35.943 -11.800  1.00  0.00     0.044 C 
ENDBRANCH  20  21
ENDBRANCH  19  20
ENDBRANCH  16  19
ENDBRANCH   1  16
TORSDOF 11
ENDMDL
MODEL 15
REMARK VINA RESULT:    -7.204      2.666      7.702
REMARK INTER + INTRA:         -12.555
REMARK INTER:                 -10.965
REMARK INTRA:                  -1.590
REMARK UNBOUND:                -0.928
REMARK SMILES COc1ccc(CCNCC(O)COc2cccc(C)c2)cc1OC
REMARK SMILES IDX 10 1 9 2 8 4 7 5 6 6 3 7 23 8 4 9 22 10 5 11 2 12 1 13 24 14
REMARK SMILES IDX 25 15 11 16 12 17 13 19 14 20 15 21 16 22 21 23 17 24 19 25
REMARK SMILES IDX 18 26 20 27
REMARK H PARENT 9 3 12 18
REMARK Flexibility Score: inf
ROOT
ATOM      1  C   UNL     1      20.980  40.064  -6.084  1.00  0.00     0.116 C 
ENDROOT
BRANCH   1   2
ATOM      2  N   UNL     1      21.804  40.730  -7.102  1.00  0.00    -0.314 NA
ATOM      3  H   UNL     1      22.168  41.633  -6.713  1.00  0.00     0.122 HD
BRANCH   2   4
ATOM      4  C   UNL     1      21.059  40.999  -8.342  1.00  0.00     0.086 C 
BRANCH   4   5
ATOM      5  C   UNL     1      20.003  39.921  -8.639  1.00  0.00     0.051 C 
BRANCH   5   6
ATOM      6  C   UNL     1      20.509  38.964  -9.687  1.00  0.00    -0.043 A 
ATOM      7  C   UNL     1      21.527  37.198 -11.630  1.00  0.00     0.160 A 
ATOM      8  C   UNL     1      21.158  38.502 -11.995  1.00  0.00     0.160 A 
ATOM      9  C   UNL     1      21.394  36.787 -10.290  1.00  0.00     0.051 A 
ATOM     10  C   UNL     1      20.653  39.383 -11.018  1.00  0.00     0.054 A 
ATOM     11  C   UNL     1      20.894  37.665  -9.328  1.00  0.00     0.008 A 
BRANCH   7  12
ATOM     12  O   UNL     1      22.025  36.342 -12.626  1.00  0.00    -0.493 OA
ATOM     13  C   UNL     1      23.398  36.245 -12.992  1.00  0.00     0.278 C 
ENDBRANCH   7  12
BRANCH   8  14
ATOM     14  O   UNL     1      21.308  38.886 -13.337  1.00  0.00    -0.493 OA
ATOM     15  C   UNL     1      21.071  40.199 -13.833  1.00  0.00     0.278 C 
ENDBRANCH   8  14
ENDBRANCH   5   6
ENDBRANCH   4   5
ENDBRANCH   2   4
ENDBRANCH   1   2
BRANCH   1  16
ATOM     16  C   UNL     1      21.769  38.934  -5.409  1.00  0.00     0.165 C 
BRANCH  16  17
ATOM     17  O   UNL     1      21.209  37.706  -5.797  1.00  0.00    -0.388 OA
ATOM     18  H   UNL     1      20.938  37.795  -6.748  1.00  0.00     0.211 HD
ENDBRANCH  16  17
BRANCH  16  19
ATOM     19  C   UNL     1      23.257  38.988  -5.799  1.00  0.00     0.262 C 
BRANCH  19  20
ATOM     20  O   UNL     1      23.509  38.223  -6.980  1.00  0.00    -0.491 OA
BRANCH  20  21
ATOM     21  C   UNL     1      24.269  37.044  -7.058  1.00  0.00     0.119 A 
ATOM     22  C   UNL     1      24.785  36.385  -5.923  1.00  0.00     0.046 A 
ATOM     23  C   UNL     1      24.512  36.503  -8.327  1.00  0.00     0.049 A 
ATOM     24  C   UNL     1      25.525  35.209  -6.068  1.00  0.00     0.004 A 
ATOM     25  C   UNL     1      25.270  35.333  -8.477  1.00  0.00    -0.047 A 
ATOM     26  C   UNL     1      25.764  34.681  -7.338  1.00  0.00     0.003 A 
ATOM     27  C   UNL     1      25.491  34.745  -9.840  1.00  0.00     0.044 C 
ENDBRANCH  20  21
ENDBRANCH  19  20
ENDBRANCH  16  19
ENDBRANCH   1  16
TORSDOF 11
ENDMDL
