MODEL 1
REMARK VINA RESULT:    -9.138      0.000      0.000
REMARK INTER + INTRA:          -9.405
REMARK INTER:                  -9.405
REMARK INTRA:                   0.000
REMARK UNBOUND:                 0.000
REMARK SMILES C[C@]12CC[C@H](O)CC1=CC[C@@H]1[C@@H]2CC[C@]2(C)C(=O)CC[C@@H]12
REMARK SMILES IDX 21 1 20 2 19 3 17 4 18 5 15 6 16 7 14 8 13 9 12 10 11 11
REMARK SMILES IDX 10 12 9 13 8 14 7 15 5 16 4 17 3 18 2 19 1 20 6 21
REMARK H PARENT 6 22
REMARK Flexibility Score: inf
ROOT
ATOM      1  C   UNL     1      15.554  79.589  -6.313  1.00  0.00     0.006 C 
ATOM      2  C   UNL     1      16.648  78.745  -6.972  1.00  0.00     0.013 C 
ATOM      3  C   UNL     1      17.306  79.730  -7.955  1.00  0.00     0.076 C 
ATOM      4  C   UNL     1      16.937  81.078  -7.414  1.00  0.00     0.139 C 
ATOM      5  O   UNL     1      17.281  82.131  -7.930  1.00  0.00    -0.299 OA
ATOM      6  C   UNL     1      16.168  80.982  -6.138  1.00  0.00     0.029 C 
ATOM      7  C   UNL     1      17.195  81.107  -4.978  1.00  0.00     0.020 C 
ATOM      8  C   UNL     1      15.007  81.978  -5.964  1.00  0.00     0.015 C 
ATOM      9  C   UNL     1      14.151  81.602  -4.727  1.00  0.00     0.006 C 
ATOM     10  C   UNL     1      13.705  80.097  -4.689  1.00  0.00     0.003 C 
ATOM     11  C   UNL     1      14.857  79.099  -5.032  1.00  0.00     0.001 C 
ATOM     12  C   UNL     1      14.269  77.696  -5.239  1.00  0.00     0.031 C 
ATOM     13  C   UNL     1      13.325  77.293  -4.141  1.00  0.00    -0.027 C 
ATOM     14  C   UNL     1      12.636  78.174  -3.382  1.00  0.00    -0.065 C 
ATOM     15  C   UNL     1      11.626  77.633  -2.387  1.00  0.00     0.063 C 
ATOM     16  C   UNL     1      10.345  78.478  -2.392  1.00  0.00     0.118 C 
ATOM     17  C   UNL     1      10.674  79.957  -2.172  1.00  0.00     0.033 C 
ATOM     18  C   UNL     1      11.625  80.479  -3.260  1.00  0.00     0.014 C 
ATOM     19  C   UNL     1      12.961  79.679  -3.363  1.00  0.00    -0.008 C 
ATOM     20  C   UNL     1      13.830  79.968  -2.108  1.00  0.00     0.016 C 
ENDROOT
BRANCH  16  21
ATOM     21  O   UNL     1       9.482  78.044  -1.375  1.00  0.00    -0.393 OA
ATOM     22  H   UNL     1       9.452  78.767  -0.696  1.00  0.00     0.210 HD
ENDBRANCH  16  21
TORSDOF 1
ENDMDL
MODEL 2
REMARK VINA RESULT:    -9.123      1.234      6.382
REMARK INTER + INTRA:          -9.389
REMARK INTER:                  -9.389
REMARK INTRA:                   0.000
REMARK UNBOUND:                 0.000
REMARK SMILES C[C@]12CC[C@H](O)CC1=CC[C@@H]1[C@@H]2CC[C@]2(C)C(=O)CC[C@@H]12
REMARK SMILES IDX 21 1 20 2 19 3 17 4 18 5 15 6 16 7 14 8 13 9 12 10 11 11
REMARK SMILES IDX 10 12 9 13 8 14 7 15 5 16 4 17 3 18 2 19 1 20 6 21
REMARK H PARENT 6 22
REMARK Flexibility Score: inf
ROOT
ATOM      1  C   UNL     1      12.631  78.212  -2.964  1.00  0.00     0.006 C 
ATOM      2  C   UNL     1      11.456  77.247  -3.133  1.00  0.00     0.013 C 
ATOM      3  C   UNL     1      10.810  77.231  -1.736  1.00  0.00     0.076 C 
ATOM      4  C   UNL     1      11.288  78.504  -1.105  1.00  0.00     0.139 C 
ATOM      5  O   UNL     1      10.983  78.854   0.024  1.00  0.00    -0.299 OA
ATOM      6  C   UNL     1      12.113  79.322  -2.043  1.00  0.00     0.029 C 
ATOM      7  C   UNL     1      11.156  80.343  -2.718  1.00  0.00     0.020 C 
ATOM      8  C   UNL     1      13.341  80.026  -1.435  1.00  0.00     0.015 C 
ATOM      9  C   UNL     1      14.233  80.621  -2.555  1.00  0.00     0.006 C 
ATOM     10  C   UNL     1      14.588  79.607  -3.700  1.00  0.00     0.003 C 
ATOM     11  C   UNL     1      13.361  78.776  -4.195  1.00  0.00     0.001 C 
ATOM     12  C   UNL     1      13.850  77.638  -5.102  1.00  0.00     0.031 C 
ATOM     13  C   UNL     1      14.823  78.106  -6.149  1.00  0.00    -0.027 C 
ATOM     14  C   UNL     1      15.602  79.202  -6.014  1.00  0.00    -0.065 C 
ATOM     15  C   UNL     1      16.626  79.495  -7.094  1.00  0.00     0.063 C 
ATOM     16  C   UNL     1      17.955  79.956  -6.480  1.00  0.00     0.118 C 
ATOM     17  C   UNL     1      17.728  81.135  -5.530  1.00  0.00     0.033 C 
ATOM     18  C   UNL     1      16.757  80.755  -4.401  1.00  0.00     0.014 C 
ATOM     19  C   UNL     1      15.370  80.249  -4.909  1.00  0.00    -0.008 C 
ATOM     20  C   UNL     1      14.585  81.437  -5.528  1.00  0.00     0.016 C 
ENDROOT
BRANCH  16  21
ATOM     21  O   UNL     1      18.839  80.350  -7.495  1.00  0.00    -0.393 OA
ATOM     22  H   UNL     1      18.868  81.342  -7.482  1.00  0.00     0.210 HD
ENDBRANCH  16  21
TORSDOF 1
ENDMDL
MODEL 3
REMARK VINA RESULT:    -8.503      2.884      7.638
REMARK INTER + INTRA:          -8.751
REMARK INTER:                  -8.751
REMARK INTRA:                   0.000
REMARK UNBOUND:                 0.000
REMARK SMILES C[C@]12CC[C@H](O)CC1=CC[C@@H]1[C@@H]2CC[C@]2(C)C(=O)CC[C@@H]12
REMARK SMILES IDX 21 1 20 2 19 3 17 4 18 5 15 6 16 7 14 8 13 9 12 10 11 11
REMARK SMILES IDX 10 12 9 13 8 14 7 15 5 16 4 17 3 18 2 19 1 20 6 21
REMARK H PARENT 6 22
REMARK Flexibility Score: inf
ROOT
ATOM      1  C   UNL     1       8.964  77.968  -1.098  1.00  0.00     0.006 C 
ATOM      2  C   UNL     1       7.910  76.901  -1.400  1.00  0.00     0.013 C 
ATOM      3  C   UNL     1       6.853  77.131  -0.306  1.00  0.00     0.076 C 
ATOM      4  C   UNL     1       7.097  78.542   0.138  1.00  0.00     0.139 C 
ATOM      5  O   UNL     1       6.446  79.099   1.008  1.00  0.00    -0.299 OA
ATOM      6  C   UNL     1       8.173  79.205  -0.657  1.00  0.00     0.029 C 
ATOM      7  C   UNL     1       7.474  79.982  -1.807  1.00  0.00     0.020 C 
ATOM      8  C   UNL     1       9.138  80.115   0.125  1.00  0.00     0.015 C 
ATOM      9  C   UNL     1      10.337  80.526  -0.768  1.00  0.00     0.006 C 
ATOM     10  C   UNL     1      11.044  79.323  -1.487  1.00  0.00     0.003 C 
ATOM     11  C   UNL     1      10.045  78.314  -2.137  1.00  0.00     0.001 C 
ATOM     12  C   UNL     1      10.804  77.051  -2.567  1.00  0.00     0.031 C 
ATOM     13  C   UNL     1      12.057  77.360  -3.339  1.00  0.00    -0.027 C 
ATOM     14  C   UNL     1      12.746  78.517  -3.221  1.00  0.00    -0.065 C 
ATOM     15  C   UNL     1      14.059  78.654  -3.969  1.00  0.00     0.063 C 
ATOM     16  C   UNL     1      15.119  79.336  -3.095  1.00  0.00     0.118 C 
ATOM     17  C   UNL     1      14.594  80.668  -2.552  1.00  0.00     0.033 C 
ATOM     18  C   UNL     1      13.317  80.461  -1.724  1.00  0.00     0.014 C 
ATOM     19  C   UNL     1      12.168  79.753  -2.507  1.00  0.00    -0.008 C 
ATOM     20  C   UNL     1      11.614  80.719  -3.590  1.00  0.00     0.016 C 
ENDROOT
BRANCH  16  21
ATOM     21  O   UNL     1      16.279  79.573  -3.848  1.00  0.00    -0.393 OA
ATOM     22  H   UNL     1      16.753  78.704  -3.926  1.00  0.00     0.210 HD
ENDBRANCH  16  21
TORSDOF 1
ENDMDL
MODEL 4
REMARK VINA RESULT:    -8.041      3.025      8.393
REMARK INTER + INTRA:          -8.276
REMARK INTER:                  -8.276
REMARK INTRA:                   0.000
REMARK UNBOUND:                 0.000
REMARK SMILES C[C@]12CC[C@H](O)CC1=CC[C@@H]1[C@@H]2CC[C@]2(C)C(=O)CC[C@@H]12
REMARK SMILES IDX 21 1 20 2 19 3 17 4 18 5 15 6 16 7 14 8 13 9 12 10 11 11
REMARK SMILES IDX 10 12 9 13 8 14 7 15 5 16 4 17 3 18 2 19 1 20 6 21
REMARK H PARENT 6 22
REMARK Flexibility Score: inf
ROOT
ATOM      1  C   UNL     1       8.209  77.139  -1.002  1.00  0.00     0.006 C 
ATOM      2  C   UNL     1       7.131  77.574  -0.006  1.00  0.00     0.013 C 
ATOM      3  C   UNL     1       6.158  76.382   0.002  1.00  0.00     0.076 C 
ATOM      4  C   UNL     1       6.984  75.241  -0.511  1.00  0.00     0.139 C 
ATOM      5  O   UNL     1       6.556  74.105  -0.649  1.00  0.00    -0.299 OA
ATOM      6  C   UNL     1       8.402  75.638  -0.758  1.00  0.00     0.029 C 
ATOM      7  C   UNL     1       9.204  75.278   0.524  1.00  0.00     0.020 C 
ATOM      8  C   UNL     1       9.067  75.048  -2.015  1.00  0.00     0.015 C 
ATOM      9  C   UNL     1      10.431  75.736  -2.279  1.00  0.00     0.006 C 
ATOM     10  C   UNL     1      10.371  77.305  -2.272  1.00  0.00     0.003 C 
ATOM     11  C   UNL     1       9.550  77.889  -1.078  1.00  0.00     0.001 C 
ATOM     12  C   UNL     1       9.317  79.389  -1.306  1.00  0.00     0.031 C 
ATOM     13  C   UNL     1      10.574  80.120  -1.690  1.00  0.00    -0.027 C 
ATOM     14  C   UNL     1      11.630  79.533  -2.296  1.00  0.00    -0.065 C 
ATOM     15  C   UNL     1      12.787  80.410  -2.736  1.00  0.00     0.063 C 
ATOM     16  C   UNL     1      13.296  79.990  -4.122  1.00  0.00     0.118 C 
ATOM     17  C   UNL     1      13.630  78.496  -4.142  1.00  0.00     0.033 C 
ATOM     18  C   UNL     1      12.400  77.650  -3.782  1.00  0.00     0.014 C 
ATOM     19  C   UNL     1      11.779  78.004  -2.394  1.00  0.00    -0.008 C 
ATOM     20  C   UNL     1      12.744  77.541  -1.267  1.00  0.00     0.016 C 
ENDROOT
BRANCH  16  21
ATOM     21  O   UNL     1      14.447  80.722  -4.449  1.00  0.00    -0.393 OA
ATOM     22  H   UNL     1      15.152  80.062  -4.678  1.00  0.00     0.210 HD
ENDBRANCH  16  21
TORSDOF 1
ENDMDL
MODEL 5
REMARK VINA RESULT:    -8.029      1.853      2.931
REMARK INTER + INTRA:          -8.264
REMARK INTER:                  -8.264
REMARK INTRA:                   0.000
REMARK UNBOUND:                 0.000
REMARK SMILES C[C@]12CC[C@H](O)CC1=CC[C@@H]1[C@@H]2CC[C@]2(C)C(=O)CC[C@@H]12
REMARK SMILES IDX 21 1 20 2 19 3 17 4 18 5 15 6 16 7 14 8 13 9 12 10 11 11
REMARK SMILES IDX 10 12 9 13 8 14 7 15 5 16 4 17 3 18 2 19 1 20 6 21
REMARK H PARENT 6 22
REMARK Flexibility Score: inf
ROOT
ATOM      1  C   UNL     1      13.378  78.377  -4.553  1.00  0.00     0.006 C 
ATOM      2  C   UNL     1      14.179  77.214  -5.142  1.00  0.00     0.013 C 
ATOM      3  C   UNL     1      15.087  77.900  -6.177  1.00  0.00     0.076 C 
ATOM      4  C   UNL     1      15.124  79.331  -5.730  1.00  0.00     0.139 C 
ATOM      5  O   UNL     1      15.753  80.204  -6.307  1.00  0.00    -0.299 OA
ATOM      6  C   UNL     1      14.367  79.544  -4.460  1.00  0.00     0.029 C 
ATOM      7  C   UNL     1      15.393  79.444  -3.298  1.00  0.00     0.020 C 
ATOM      8  C   UNL     1      13.542  80.841  -4.367  1.00  0.00     0.015 C 
ATOM      9  C   UNL     1      12.622  80.808  -3.120  1.00  0.00     0.006 C 
ATOM     10  C   UNL     1      11.762  79.501  -2.991  1.00  0.00     0.003 C 
ATOM     11  C   UNL     1      12.576  78.193  -3.253  1.00  0.00     0.001 C 
ATOM     12  C   UNL     1      11.609  77.008  -3.377  1.00  0.00     0.031 C 
ATOM     13  C   UNL     1      10.595  76.967  -2.268  1.00  0.00    -0.027 C 
ATOM     14  C   UNL     1      10.192  78.056  -1.577  1.00  0.00    -0.065 C 
ATOM     15  C   UNL     1       9.075  77.895  -0.563  1.00  0.00     0.063 C 
ATOM     16  C   UNL     1       8.091  79.069  -0.640  1.00  0.00     0.118 C 
ATOM     17  C   UNL     1       8.833  80.402  -0.511  1.00  0.00     0.033 C 
ATOM     18  C   UNL     1       9.887  80.557  -1.617  1.00  0.00     0.014 C 
ATOM     19  C   UNL     1      10.937  79.402  -1.651  1.00  0.00    -0.008 C 
ATOM     20  C   UNL     1      11.859  79.511  -0.405  1.00  0.00     0.016 C 
ENDROOT
BRANCH  16  21
ATOM     21  O   UNL     1       7.146  78.969   0.392  1.00  0.00    -0.393 OA
ATOM     22  H   UNL     1       6.922  78.006   0.483  1.00  0.00     0.210 HD
ENDBRANCH  16  21
TORSDOF 1
ENDMDL
MODEL 6
REMARK VINA RESULT:    -8.014      4.239      6.643
REMARK INTER + INTRA:          -8.248
REMARK INTER:                  -8.248
REMARK INTRA:                   0.000
REMARK UNBOUND:                 0.000
REMARK SMILES C[C@]12CC[C@H](O)CC1=CC[C@@H]1[C@@H]2CC[C@]2(C)C(=O)CC[C@@H]12
REMARK SMILES IDX 21 1 20 2 19 3 17 4 18 5 15 6 16 7 14 8 13 9 12 10 11 11
REMARK SMILES IDX 10 12 9 13 8 14 7 15 5 16 4 17 3 18 2 19 1 20 6 21
REMARK H PARENT 6 22
REMARK Flexibility Score: inf
ROOT
ATOM      1  C   UNL     1      11.301  80.042  -0.661  1.00  0.00     0.006 C 
ATOM      2  C   UNL     1      11.536  81.554  -0.640  1.00  0.00     0.013 C 
ATOM      3  C   UNL     1      13.069  81.672  -0.714  1.00  0.00     0.076 C 
ATOM      4  C   UNL     1      13.503  80.358  -1.288  1.00  0.00     0.139 C 
ATOM      5  O   UNL     1      14.670  80.066  -1.503  1.00  0.00    -0.299 OA
ATOM      6  C   UNL     1      12.344  79.484  -1.636  1.00  0.00     0.029 C 
ATOM      7  C   UNL     1      12.031  79.721  -3.140  1.00  0.00     0.020 C 
ATOM      8  C   UNL     1      12.504  77.983  -1.330  1.00  0.00     0.015 C 
ATOM      9  C   UNL     1      11.150  77.248  -1.503  1.00  0.00     0.006 C 
ATOM     10  C   UNL     1       9.952  77.924  -0.745  1.00  0.00     0.003 C 
ATOM     11  C   UNL     1       9.897  79.474  -0.929  1.00  0.00     0.001 C 
ATOM     12  C   UNL     1       8.878  80.067   0.054  1.00  0.00     0.031 C 
ATOM     13  C   UNL     1       7.565  79.333   0.043  1.00  0.00    -0.027 C 
ATOM     14  C   UNL     1       7.431  78.038  -0.321  1.00  0.00    -0.065 C 
ATOM     15  C   UNL     1       6.069  77.386  -0.172  1.00  0.00     0.063 C 
ATOM     16  C   UNL     1       6.202  75.962   0.384  1.00  0.00     0.118 C 
ATOM     17  C   UNL     1       7.174  75.140  -0.466  1.00  0.00     0.033 C 
ATOM     18  C   UNL     1       8.563  75.795  -0.505  1.00  0.00     0.014 C 
ATOM     19  C   UNL     1       8.551  77.262  -1.038  1.00  0.00    -0.008 C 
ATOM     20  C   UNL     1       8.232  77.253  -2.559  1.00  0.00     0.016 C 
ENDROOT
BRANCH  16  21
ATOM     21  O   UNL     1       4.949  75.331   0.386  1.00  0.00    -0.393 OA
ATOM     22  H   UNL     1       4.965  74.659  -0.344  1.00  0.00     0.210 HD
ENDBRANCH  16  21
TORSDOF 1
ENDMDL
MODEL 7
REMARK VINA RESULT:    -7.667      4.393      6.050
REMARK INTER + INTRA:          -7.892
REMARK INTER:                  -7.892
REMARK INTRA:                   0.000
REMARK UNBOUND:                 0.000
REMARK SMILES C[C@]12CC[C@H](O)CC1=CC[C@@H]1[C@@H]2CC[C@]2(C)C(=O)CC[C@@H]12
REMARK SMILES IDX 21 1 20 2 19 3 17 4 18 5 15 6 16 7 14 8 13 9 12 10 11 11
REMARK SMILES IDX 10 12 9 13 8 14 7 15 5 16 4 17 3 18 2 19 1 20 6 21
REMARK H PARENT 6 22
REMARK Flexibility Score: inf
ROOT
ATOM      1  C   UNL     1      12.851  77.803  -0.505  1.00  0.00     0.006 C 
ATOM      2  C   UNL     1      13.855  77.614   0.634  1.00  0.00     0.013 C 
ATOM      3  C   UNL     1      15.049  78.480   0.197  1.00  0.00     0.076 C 
ATOM      4  C   UNL     1      14.453  79.445  -0.783  1.00  0.00     0.139 C 
ATOM      5  O   UNL     1      15.097  80.310  -1.358  1.00  0.00    -0.299 OA
ATOM      6  C   UNL     1      12.975  79.275  -0.915  1.00  0.00     0.029 C 
ATOM      7  C   UNL     1      12.313  80.287   0.061  1.00  0.00     0.020 C 
ATOM      8  C   UNL     1      12.396  79.409  -2.335  1.00  0.00     0.015 C 
ATOM      9  C   UNL     1      10.912  78.962  -2.359  1.00  0.00     0.006 C 
ATOM     10  C   UNL     1      10.653  77.561  -1.699  1.00  0.00     0.003 C 
ATOM     11  C   UNL     1      11.383  77.374  -0.331  1.00  0.00     0.001 C 
ATOM     12  C   UNL     1      11.298  75.901   0.094  1.00  0.00     0.031 C 
ATOM     13  C   UNL     1       9.906  75.345  -0.015  1.00  0.00    -0.027 C 
ATOM     14  C   UNL     1       8.968  75.826  -0.862  1.00  0.00    -0.065 C 
ATOM     15  C   UNL     1       7.641  75.097  -0.958  1.00  0.00     0.063 C 
ATOM     16  C   UNL     1       7.175  74.996  -2.416  1.00  0.00     0.118 C 
ATOM     17  C   UNL     1       7.150  76.380  -3.070  1.00  0.00     0.033 C 
ATOM     18  C   UNL     1       8.539  77.034  -3.031  1.00  0.00     0.014 C 
ATOM     19  C   UNL     1       9.128  77.172  -1.592  1.00  0.00    -0.008 C 
ATOM     20  C   UNL     1       8.322  78.244  -0.808  1.00  0.00     0.016 C 
ENDROOT
BRANCH  16  21
ATOM     21  O   UNL     1       5.888  74.441  -2.469  1.00  0.00    -0.393 OA
ATOM     22  H   UNL     1       5.502  74.523  -1.558  1.00  0.00     0.210 HD
ENDBRANCH  16  21
TORSDOF 1
ENDMDL
MODEL 8
REMARK VINA RESULT:    -7.468      5.617      8.050
REMARK INTER + INTRA:          -7.687
REMARK INTER:                  -7.687
REMARK INTRA:                   0.000
REMARK UNBOUND:                 0.000
REMARK SMILES C[C@]12CC[C@H](O)CC1=CC[C@@H]1[C@@H]2CC[C@]2(C)C(=O)CC[C@@H]12
REMARK SMILES IDX 21 1 20 2 19 3 17 4 18 5 15 6 16 7 14 8 13 9 12 10 11 11
REMARK SMILES IDX 10 12 9 13 8 14 7 15 5 16 4 17 3 18 2 19 1 20 6 21
REMARK H PARENT 6 22
REMARK Flexibility Score: inf
ROOT
ATOM      1  C   UNL     1      10.658  73.849  -3.169  1.00  0.00     0.006 C 
ATOM      2  C   UNL     1      11.748  73.387  -4.139  1.00  0.00     0.013 C 
ATOM      3  C   UNL     1      11.673  71.853  -4.047  1.00  0.00     0.076 C 
ATOM      4  C   UNL     1      10.296  71.592  -3.513  1.00  0.00     0.139 C 
ATOM      5  O   UNL     1       9.854  70.474  -3.300  1.00  0.00    -0.299 OA
ATOM      6  C   UNL     1       9.509  72.850  -3.346  1.00  0.00     0.029 C 
ATOM      7  C   UNL     1       8.670  73.036  -4.641  1.00  0.00     0.020 C 
ATOM      8  C   UNL     1       8.624  72.940  -2.089  1.00  0.00     0.015 C 
ATOM      9  C   UNL     1       8.071  74.378  -1.917  1.00  0.00     0.006 C 
ATOM     10  C   UNL     1       9.167  75.500  -2.001  1.00  0.00     0.003 C 
ATOM     11  C   UNL     1      10.165  75.307  -3.187  1.00  0.00     0.001 C 
ATOM     12  C   UNL     1      11.343  76.278  -3.024  1.00  0.00     0.031 C 
ATOM     13  C   UNL     1      10.900  77.684  -2.730  1.00  0.00    -0.027 C 
ATOM     14  C   UNL     1       9.724  77.994  -2.141  1.00  0.00    -0.065 C 
ATOM     15  C   UNL     1       9.452  79.446  -1.793  1.00  0.00     0.063 C 
ATOM     16  C   UNL     1       8.796  79.565  -0.411  1.00  0.00     0.118 C 
ATOM     17  C   UNL     1       7.547  78.683  -0.330  1.00  0.00     0.033 C 
ATOM     18  C   UNL     1       7.894  77.210  -0.596  1.00  0.00     0.014 C 
ATOM     19  C   UNL     1       8.589  76.967  -1.973  1.00  0.00    -0.008 C 
ATOM     20  C   UNL     1       7.560  77.195  -3.114  1.00  0.00     0.016 C 
ENDROOT
BRANCH  16  21
ATOM     21  O   UNL     1       8.432  80.898  -0.169  1.00  0.00    -0.393 OA
ATOM     22  H   UNL     1       8.442  81.362  -1.047  1.00  0.00     0.210 HD
ENDBRANCH  16  21
TORSDOF 1
ENDMDL
MODEL 9
REMARK VINA RESULT:    -7.458      0.900      6.638
REMARK INTER + INTRA:          -7.676
REMARK INTER:                  -7.676
REMARK INTRA:                   0.000
REMARK UNBOUND:                 0.000
REMARK SMILES C[C@]12CC[C@H](O)CC1=CC[C@@H]1[C@@H]2CC[C@]2(C)C(=O)CC[C@@H]12
REMARK SMILES IDX 21 1 20 2 19 3 17 4 18 5 15 6 16 7 14 8 13 9 12 10 11 11
REMARK SMILES IDX 10 12 9 13 8 14 7 15 5 16 4 17 3 18 2 19 1 20 6 21
REMARK H PARENT 6 22
REMARK Flexibility Score: inf
ROOT
ATOM      1  C   UNL     1      12.395  79.599  -3.734  1.00  0.00     0.006 C 
ATOM      2  C   UNL     1      11.426  80.353  -2.820  1.00  0.00     0.013 C 
ATOM      3  C   UNL     1      10.498  79.243  -2.298  1.00  0.00     0.076 C 
ATOM      4  C   UNL     1      11.294  77.988  -2.495  1.00  0.00     0.139 C 
ATOM      5  O   UNL     1      10.888  76.876  -2.193  1.00  0.00    -0.299 OA
ATOM      6  C   UNL     1      12.661  78.265  -3.027  1.00  0.00     0.029 C 
ATOM      7  C   UNL     1      13.617  78.348  -1.805  1.00  0.00     0.020 C 
ATOM      8  C   UNL     1      13.194  77.281  -4.085  1.00  0.00     0.015 C 
ATOM      9  C   UNL     1      14.496  77.827  -4.725  1.00  0.00     0.006 C 
ATOM     10  C   UNL     1      14.389  79.308  -5.235  1.00  0.00     0.003 C 
ATOM     11  C   UNL     1      13.694  80.267  -4.216  1.00  0.00     0.001 C 
ATOM     12  C   UNL     1      13.390  81.606  -4.903  1.00  0.00     0.031 C 
ATOM     13  C   UNL     1      14.571  82.153  -5.656  1.00  0.00    -0.027 C 
ATOM     14  C   UNL     1      15.567  81.386  -6.152  1.00  0.00    -0.065 C 
ATOM     15  C   UNL     1      16.638  82.053  -6.996  1.00  0.00     0.063 C 
ATOM     16  C   UNL     1      16.996  81.188  -8.211  1.00  0.00     0.118 C 
ATOM     17  C   UNL     1      17.372  79.771  -7.771  1.00  0.00     0.033 C 
ATOM     18  C   UNL     1      16.218  79.107  -7.004  1.00  0.00     0.014 C 
ATOM     19  C   UNL     1      15.751  79.911  -5.751  1.00  0.00    -0.008 C 
ATOM     20  C   UNL     1      16.854  79.844  -4.658  1.00  0.00     0.016 C 
ENDROOT
BRANCH  16  21
ATOM     21  O   UNL     1      18.078  81.756  -8.899  1.00  0.00    -0.393 OA
ATOM     22  H   UNL     1      18.723  81.023  -9.076  1.00  0.00     0.210 HD
ENDBRANCH  16  21
TORSDOF 1
ENDMDL
MODEL 10
REMARK VINA RESULT:    -7.143      5.414      7.859
REMARK INTER + INTRA:          -7.352
REMARK INTER:                  -7.352
REMARK INTRA:                   0.000
REMARK UNBOUND:                 0.000
REMARK SMILES C[C@]12CC[C@H](O)CC1=CC[C@@H]1[C@@H]2CC[C@]2(C)C(=O)CC[C@@H]12
REMARK SMILES IDX 21 1 20 2 19 3 17 4 18 5 15 6 16 7 14 8 13 9 12 10 11 11
REMARK SMILES IDX 10 12 9 13 8 14 7 15 5 16 4 17 3 18 2 19 1 20 6 21
REMARK H PARENT 6 22
REMARK Flexibility Score: inf
ROOT
ATOM      1  C   UNL     1       8.584  78.186  -1.731  1.00  0.00     0.006 C 
ATOM      2  C   UNL     1       7.658  79.292  -2.244  1.00  0.00     0.013 C 
ATOM      3  C   UNL     1       7.895  80.439  -1.245  1.00  0.00     0.076 C 
ATOM      4  C   UNL     1       9.230  80.120  -0.642  1.00  0.00     0.139 C 
ATOM      5  O   UNL     1       9.770  80.811   0.208  1.00  0.00    -0.299 OA
ATOM      6  C   UNL     1       9.849  78.907  -1.254  1.00  0.00     0.029 C 
ATOM      7  C   UNL     1      10.791  79.400  -2.387  1.00  0.00     0.020 C 
ATOM      8  C   UNL     1      10.585  77.956  -0.291  1.00  0.00     0.015 C 
ATOM      9  C   UNL     1      10.952  76.633  -1.011  1.00  0.00     0.006 C 
ATOM     10  C   UNL     1       9.752  75.962  -1.770  1.00  0.00     0.003 C 
ATOM     11  C   UNL     1       8.909  76.970  -2.615  1.00  0.00     0.001 C 
ATOM     12  C   UNL     1       7.620  76.284  -3.088  1.00  0.00     0.031 C 
ATOM     13  C   UNL     1       7.869  74.931  -3.693  1.00  0.00    -0.027 C 
ATOM     14  C   UNL     1       8.936  74.158  -3.391  1.00  0.00    -0.065 C 
ATOM     15  C   UNL     1       9.006  72.763  -3.984  1.00  0.00     0.063 C 
ATOM     16  C   UNL     1       9.498  71.749  -2.943  1.00  0.00     0.118 C 
ATOM     17  C   UNL     1      10.823  72.209  -2.328  1.00  0.00     0.033 C 
ATOM     18  C   UNL     1      10.673  73.584  -1.659  1.00  0.00     0.014 C 
ATOM     19  C   UNL     1      10.156  74.698  -2.622  1.00  0.00    -0.008 C 
ATOM     20  C   UNL     1      11.265  75.039  -3.655  1.00  0.00     0.016 C 
ENDROOT
BRANCH  16  21
ATOM     21  O   UNL     1       9.684  70.496  -3.546  1.00  0.00    -0.393 OA
ATOM     22  H   UNL     1      10.515  70.113  -3.163  1.00  0.00     0.210 HD
ENDBRANCH  16  21
TORSDOF 1
ENDMDL
MODEL 11
REMARK VINA RESULT:    -7.024      1.961      6.908
REMARK INTER + INTRA:          -7.230
REMARK INTER:                  -7.230
REMARK INTRA:                   0.000
REMARK UNBOUND:                 0.000
REMARK SMILES C[C@]12CC[C@H](O)CC1=CC[C@@H]1[C@@H]2CC[C@]2(C)C(=O)CC[C@@H]12
REMARK SMILES IDX 21 1 20 2 19 3 17 4 18 5 15 6 16 7 14 8 13 9 12 10 11 11
REMARK SMILES IDX 10 12 9 13 8 14 7 15 5 16 4 17 3 18 2 19 1 20 6 21
REMARK H PARENT 6 22
REMARK Flexibility Score: inf
ROOT
ATOM      1  C   UNL     1      11.883  80.552  -0.459  1.00  0.00     0.006 C 
ATOM      2  C   UNL     1      11.999  80.454   1.064  1.00  0.00     0.013 C 
ATOM      3  C   UNL     1      10.614  80.918   1.551  1.00  0.00     0.076 C 
ATOM      4  C   UNL     1       9.728  80.716   0.360  1.00  0.00     0.139 C 
ATOM      5  O   UNL     1       8.534  80.973   0.354  1.00  0.00    -0.299 OA
ATOM      6  C   UNL     1      10.457  80.097  -0.787  1.00  0.00     0.029 C 
ATOM      7  C   UNL     1      10.220  78.563  -0.700  1.00  0.00     0.020 C 
ATOM      8  C   UNL     1      10.111  80.636  -2.187  1.00  0.00     0.015 C 
ATOM      9  C   UNL     1      11.111  80.091  -3.239  1.00  0.00     0.006 C 
ATOM     10  C   UNL     1      12.620  80.273  -2.845  1.00  0.00     0.003 C 
ATOM     11  C   UNL     1      12.928  79.878  -1.366  1.00  0.00     0.001 C 
ATOM     12  C   UNL     1      14.343  80.344  -0.998  1.00  0.00     0.031 C 
ATOM     13  C   UNL     1      15.367  79.963  -2.031  1.00  0.00    -0.027 C 
ATOM     14  C   UNL     1      15.077  79.750  -3.334  1.00  0.00    -0.065 C 
ATOM     15  C   UNL     1      16.222  79.488  -4.294  1.00  0.00     0.063 C 
ATOM     16  C   UNL     1      16.013  80.239  -5.616  1.00  0.00     0.118 C 
ATOM     17  C   UNL     1      14.641  79.909  -6.211  1.00  0.00     0.033 C 
ATOM     18  C   UNL     1      13.513  80.282  -5.237  1.00  0.00     0.014 C 
ATOM     19  C   UNL     1      13.632  79.590  -3.843  1.00  0.00    -0.008 C 
ATOM     20  C   UNL     1      13.342  78.071  -3.997  1.00  0.00     0.016 C 
ENDROOT
BRANCH  16  21
ATOM     21  O   UNL     1      17.010  79.876  -6.534  1.00  0.00    -0.393 OA
ATOM     22  H   UNL     1      17.460  79.072  -6.166  1.00  0.00     0.210 HD
ENDBRANCH  16  21
TORSDOF 1
ENDMDL
MODEL 12
REMARK VINA RESULT:    -7.003      4.383      8.153
REMARK INTER + INTRA:          -7.208
REMARK INTER:                  -7.208
REMARK INTRA:                   0.000
REMARK UNBOUND:                 0.000
REMARK SMILES C[C@]12CC[C@H](O)CC1=CC[C@@H]1[C@@H]2CC[C@]2(C)C(=O)CC[C@@H]12
REMARK SMILES IDX 21 1 20 2 19 3 17 4 18 5 15 6 16 7 14 8 13 9 12 10 11 11
REMARK SMILES IDX 10 12 9 13 8 14 7 15 5 16 4 17 3 18 2 19 1 20 6 21
REMARK H PARENT 6 22
REMARK Flexibility Score: inf
ROOT
ATOM      1  C   UNL     1       9.142  76.104  -2.203  1.00  0.00     0.006 C 
ATOM      2  C   UNL     1       8.172  76.270  -3.375  1.00  0.00     0.013 C 
ATOM      3  C   UNL     1       7.092  75.212  -3.089  1.00  0.00     0.076 C 
ATOM      4  C   UNL     1       7.227  74.949  -1.620  1.00  0.00     0.139 C 
ATOM      5  O   UNL     1       6.529  74.155  -1.008  1.00  0.00    -0.299 OA
ATOM      6  C   UNL     1       8.258  75.821  -0.983  1.00  0.00     0.029 C 
ATOM      7  C   UNL     1       7.514  77.060  -0.410  1.00  0.00     0.020 C 
ATOM      8  C   UNL     1       9.147  75.160   0.086  1.00  0.00     0.015 C 
ATOM      9  C   UNL     1      10.320  76.097   0.472  1.00  0.00     0.006 C 
ATOM     10  C   UNL     1      11.121  76.661  -0.756  1.00  0.00     0.003 C 
ATOM     11  C   UNL     1      10.204  77.179  -1.911  1.00  0.00     0.001 C 
ATOM     12  C   UNL     1      11.059  77.447  -3.157  1.00  0.00     0.031 C 
ATOM     13  C   UNL     1      12.291  78.252  -2.854  1.00  0.00    -0.027 C 
ATOM     14  C   UNL     1      12.892  78.280  -1.644  1.00  0.00    -0.065 C 
ATOM     15  C   UNL     1      14.199  79.039  -1.505  1.00  0.00     0.063 C 
ATOM     16  C   UNL     1      15.198  78.258  -0.642  1.00  0.00     0.118 C 
ATOM     17  C   UNL     1      14.571  77.886   0.705  1.00  0.00     0.033 C 
ATOM     18  C   UNL     1      13.305  77.038   0.509  1.00  0.00     0.014 C 
ATOM     19  C   UNL     1      12.218  77.726  -0.375  1.00  0.00    -0.008 C 
ATOM     20  C   UNL     1      11.604  78.922   0.404  1.00  0.00     0.016 C 
ENDROOT
BRANCH  16  21
ATOM     21  O   UNL     1      16.343  79.035  -0.415  1.00  0.00    -0.393 OA
ATOM     22  H   UNL     1      16.958  78.870  -1.177  1.00  0.00     0.210 HD
ENDBRANCH  16  21
TORSDOF 1
ENDMDL
MODEL 13
REMARK VINA RESULT:    -6.978      1.370      2.487
REMARK INTER + INTRA:          -7.182
REMARK INTER:                  -7.182
REMARK INTRA:                   0.000
REMARK UNBOUND:                 0.000
REMARK SMILES C[C@]12CC[C@H](O)CC1=CC[C@@H]1[C@@H]2CC[C@]2(C)C(=O)CC[C@@H]12
REMARK SMILES IDX 21 1 20 2 19 3 17 4 18 5 15 6 16 7 14 8 13 9 12 10 11 11
REMARK SMILES IDX 10 12 9 13 8 14 7 15 5 16 4 17 3 18 2 19 1 20 6 21
REMARK H PARENT 6 22
REMARK Flexibility Score: inf
ROOT
ATOM      1  C   UNL     1      15.959  80.064  -4.444  1.00  0.00     0.006 C 
ATOM      2  C   UNL     1      17.179  80.939  -4.148  1.00  0.00     0.013 C 
ATOM      3  C   UNL     1      17.840  81.097  -5.529  1.00  0.00     0.076 C 
ATOM      4  C   UNL     1      16.732  80.799  -6.494  1.00  0.00     0.139 C 
ATOM      5  O   UNL     1      16.867  80.824  -7.708  1.00  0.00    -0.299 OA
ATOM      6  C   UNL     1      15.434  80.546  -5.801  1.00  0.00     0.029 C 
ATOM      7  C   UNL     1      14.666  81.896  -5.766  1.00  0.00     0.020 C 
ATOM      8  C   UNL     1      14.558  79.421  -6.382  1.00  0.00     0.015 C 
ATOM      9  C   UNL     1      13.380  79.103  -5.426  1.00  0.00     0.006 C 
ATOM     10  C   UNL     1      13.810  78.864  -3.935  1.00  0.00     0.003 C 
ATOM     11  C   UNL     1      14.832  79.921  -3.406  1.00  0.00     0.001 C 
ATOM     12  C   UNL     1      15.396  79.453  -2.057  1.00  0.00     0.031 C 
ATOM     13  C   UNL     1      14.324  79.006  -1.102  1.00  0.00    -0.027 C 
ATOM     14  C   UNL     1      13.117  78.538  -1.493  1.00  0.00    -0.065 C 
ATOM     15  C   UNL     1      12.171  78.009  -0.431  1.00  0.00     0.063 C 
ATOM     16  C   UNL     1      11.477  76.726  -0.906  1.00  0.00     0.118 C 
ATOM     17  C   UNL     1      10.798  76.951  -2.259  1.00  0.00     0.033 C 
ATOM     18  C   UNL     1      11.816  77.394  -3.321  1.00  0.00     0.014 C 
ATOM     19  C   UNL     1      12.603  78.686  -2.937  1.00  0.00    -0.008 C 
ATOM     20  C   UNL     1      11.642  79.905  -2.983  1.00  0.00     0.016 C 
ENDROOT
BRANCH  16  21
ATOM     21  O   UNL     1      10.511  76.331   0.032  1.00  0.00    -0.393 OA
ATOM     22  H   UNL     1      10.974  75.753   0.694  1.00  0.00     0.210 HD
ENDBRANCH  16  21
TORSDOF 1
ENDMDL
MODEL 14
REMARK VINA RESULT:    -6.975      4.179      7.796
REMARK INTER + INTRA:          -7.179
REMARK INTER:                  -7.179
REMARK INTRA:                   0.000
REMARK UNBOUND:                 0.000
REMARK SMILES C[C@]12CC[C@H](O)CC1=CC[C@@H]1[C@@H]2CC[C@]2(C)C(=O)CC[C@@H]12
REMARK SMILES IDX 21 1 20 2 19 3 17 4 18 5 15 6 16 7 14 8 13 9 12 10 11 11
REMARK SMILES IDX 10 12 9 13 8 14 7 15 5 16 4 17 3 18 2 19 1 20 6 21
REMARK H PARENT 6 22
REMARK Flexibility Score: inf
ROOT
ATOM      1  C   UNL     1       9.563  75.620  -2.220  1.00  0.00     0.006 C 
ATOM      2  C   UNL     1       9.653  74.486  -3.244  1.00  0.00     0.013 C 
ATOM      3  C   UNL     1       8.638  73.456  -2.718  1.00  0.00     0.076 C 
ATOM      4  C   UNL     1       7.732  74.262  -1.837  1.00  0.00     0.139 C 
ATOM      5  O   UNL     1       6.783  73.789  -1.230  1.00  0.00    -0.299 OA
ATOM      6  C   UNL     1       8.079  75.714  -1.850  1.00  0.00     0.029 C 
ATOM      7  C   UNL     1       7.176  76.387  -2.922  1.00  0.00     0.020 C 
ATOM      8  C   UNL     1       7.986  76.451  -0.501  1.00  0.00     0.015 C 
ATOM      9  C   UNL     1       8.609  77.866  -0.612  1.00  0.00     0.006 C 
ATOM     10  C   UNL     1      10.045  77.886  -1.247  1.00  0.00     0.003 C 
ATOM     11  C   UNL     1      10.171  76.999  -2.527  1.00  0.00     0.001 C 
ATOM     12  C   UNL     1      11.652  76.864  -2.908  1.00  0.00     0.031 C 
ATOM     13  C   UNL     1      12.372  78.184  -2.922  1.00  0.00    -0.027 C 
ATOM     14  C   UNL     1      11.990  79.255  -2.191  1.00  0.00    -0.065 C 
ATOM     15  C   UNL     1      12.874  80.489  -2.206  1.00  0.00     0.063 C 
ATOM     16  C   UNL     1      12.999  81.090  -0.799  1.00  0.00     0.118 C 
ATOM     17  C   UNL     1      11.615  81.347  -0.199  1.00  0.00     0.033 C 
ATOM     18  C   UNL     1      10.797  80.049  -0.119  1.00  0.00     0.014 C 
ATOM     19  C   UNL     1      10.619  79.334  -1.495  1.00  0.00    -0.008 C 
ATOM     20  C   UNL     1       9.671  80.175  -2.393  1.00  0.00     0.016 C 
ENDROOT
BRANCH  16  21
ATOM     21  O   UNL     1      13.706  82.300  -0.858  1.00  0.00    -0.393 OA
ATOM     22  H   UNL     1      13.486  82.718  -1.731  1.00  0.00     0.210 HD
ENDBRANCH  16  21
TORSDOF 1
ENDMDL
MODEL 15
REMARK VINA RESULT:    -6.941      1.749      6.668
REMARK INTER + INTRA:          -7.144
REMARK INTER:                  -7.144
REMARK INTRA:                   0.000
REMARK UNBOUND:                 0.000
REMARK SMILES C[C@]12CC[C@H](O)CC1=CC[C@@H]1[C@@H]2CC[C@]2(C)C(=O)CC[C@@H]12
REMARK SMILES IDX 21 1 20 2 19 3 17 4 18 5 15 6 16 7 14 8 13 9 12 10 11 11
REMARK SMILES IDX 10 12 9 13 8 14 7 15 5 16 4 17 3 18 2 19 1 20 6 21
REMARK H PARENT 6 22
REMARK Flexibility Score: inf
ROOT
ATOM      1  C   UNL     1      10.773  78.536  -1.913  1.00  0.00     0.006 C 
ATOM      2  C   UNL     1       9.572  77.587  -1.905  1.00  0.00     0.013 C 
ATOM      3  C   UNL     1       8.801  78.006  -0.641  1.00  0.00     0.076 C 
ATOM      4  C   UNL     1       9.280  79.401  -0.375  1.00  0.00     0.139 C 
ATOM      5  O   UNL     1       8.890  80.083   0.561  1.00  0.00    -0.299 OA
ATOM      6  C   UNL     1      10.227  79.882  -1.424  1.00  0.00     0.029 C 
ATOM      7  C   UNL     1       9.386  80.668  -2.469  1.00  0.00     0.020 C 
ATOM      8  C   UNL     1      11.426  80.715  -0.933  1.00  0.00     0.015 C 
ATOM      9  C   UNL     1      12.445  80.926  -2.081  1.00  0.00     0.006 C 
ATOM     10  C   UNL     1      12.854  79.606  -2.827  1.00  0.00     0.003 C 
ATOM     11  C   UNL     1      11.640  78.687  -3.175  1.00  0.00     0.001 C 
ATOM     12  C   UNL     1      12.154  77.319  -3.644  1.00  0.00     0.031 C 
ATOM     13  C   UNL     1      13.241  77.430  -4.677  1.00  0.00    -0.027 C 
ATOM     14  C   UNL     1      14.057  78.501  -4.797  1.00  0.00    -0.065 C 
ATOM     15  C   UNL     1      15.189  78.434  -5.805  1.00  0.00     0.063 C 
ATOM     16  C   UNL     1      16.476  79.035  -5.224  1.00  0.00     0.118 C 
ATOM     17  C   UNL     1      16.220  80.450  -4.699  1.00  0.00     0.033 C 
ATOM     18  C   UNL     1      15.132  80.448  -3.614  1.00  0.00     0.014 C 
ATOM     19  C   UNL     1      13.775  79.837  -4.086  1.00  0.00    -0.008 C 
ATOM     20  C   UNL     1      13.110  80.797  -5.110  1.00  0.00     0.016 C 
ENDROOT
BRANCH  16  21
ATOM     21  O   UNL     1      17.468  79.086  -6.214  1.00  0.00    -0.393 OA
ATOM     22  H   UNL     1      18.289  79.437  -5.780  1.00  0.00     0.210 HD
ENDBRANCH  16  21
TORSDOF 1
ENDMDL
