MODEL 1
REMARK VINA RESULT:    -8.056      0.000      0.000
REMARK INTER + INTRA:         -15.133
REMARK INTER:                 -13.472
REMARK INTRA:                  -1.661
REMARK UNBOUND:                -1.661
REMARK SMILES CCCNCC(O)COc1ccccc1C(=O)CCc1ccccc1
REMARK SMILES IDX 8 1 6 2 5 3 4 4 3 6 2 7 1 8 7 9 9 11 10 12 15 13 11 14 14 15
REMARK SMILES IDX 12 16 13 17 16 18 17 19 18 20 19 21 20 22 21 23 25 24 22 25
REMARK SMILES IDX 24 26 23 27
REMARK H PARENT 4 5 7 10
REMARK Flexibility Score: inf
ROOT
ATOM      1  C   UNL     1      21.247  39.848  -8.755  1.00  0.00     0.262 C 
ENDROOT
BRANCH   1   2
ATOM      2  C   UNL     1      19.920  40.449  -8.270  1.00  0.00     0.165 C 
BRANCH   2   3
ATOM      3  C   UNL     1      19.940  40.698  -6.741  1.00  0.00     0.116 C 
BRANCH   3   4
ATOM      4  N   UNL     1      21.187  40.249  -6.100  1.00  0.00    -0.314 NA
ATOM      5  H   UNL     1      21.705  39.606  -6.744  1.00  0.00     0.122 HD
BRANCH   4   6
ATOM      6  C   UNL     1      20.947  39.566  -4.821  1.00  0.00     0.081 C 
BRANCH   6   7
ATOM      7  C   UNL     1      21.923  38.398  -4.651  1.00  0.00     0.012 C 
ATOM      8  C   UNL     1      23.374  38.872  -4.579  1.00  0.00     0.005 C 
ENDBRANCH   6   7
ENDBRANCH   4   6
ENDBRANCH   3   4
ENDBRANCH   2   3
BRANCH   2   9
ATOM      9  O   UNL     1      18.850  39.611  -8.631  1.00  0.00    -0.388 OA
ATOM     10  H   UNL     1      18.008  40.082  -8.393  1.00  0.00     0.211 HD
ENDBRANCH   2   9
ENDBRANCH   1   2
BRANCH   1  11
ATOM     11  O   UNL     1      21.196  38.427  -8.657  1.00  0.00    -0.490 OA
BRANCH  11  12
ATOM     12  C   UNL     1      21.547  37.534  -9.683  1.00  0.00     0.130 A 
ATOM     13  C   UNL     1      22.578  36.589  -9.457  1.00  0.00     0.060 A 
ATOM     14  C   UNL     1      20.883  37.553 -10.927  1.00  0.00     0.047 A 
ATOM     15  C   UNL     1      22.911  35.683 -10.484  1.00  0.00     0.016 A 
ATOM     16  C   UNL     1      21.230  36.647 -11.929  1.00  0.00     0.004 A 
ATOM     17  C   UNL     1      22.241  35.713 -11.707  1.00  0.00     0.001 A 
BRANCH  13  18
ATOM     18  C   UNL     1      23.308  36.553  -8.156  1.00  0.00     0.166 C 
ATOM     19  O   UNL     1      22.705  36.195  -7.107  1.00  0.00    -0.294 OA
BRANCH  18  20
ATOM     20  C   UNL     1      24.751  36.962  -8.033  1.00  0.00     0.086 C 
BRANCH  20  21
ATOM     21  C   UNL     1      25.663  35.732  -7.982  1.00  0.00     0.044 C 
BRANCH  21  22
ATOM     22  C   UNL     1      25.875  35.291  -6.559  1.00  0.00    -0.048 A 
ATOM     23  C   UNL     1      26.002  33.927  -6.252  1.00  0.00     0.004 A 
ATOM     24  C   UNL     1      25.890  36.236  -5.519  1.00  0.00     0.004 A 
ATOM     25  C   UNL     1      26.166  33.515  -4.925  1.00  0.00     0.000 A 
ATOM     26  C   UNL     1      26.053  35.820  -4.193  1.00  0.00     0.000 A 
ATOM     27  C   UNL     1      26.193  34.462  -3.897  1.00  0.00     0.000 A 
ENDBRANCH  21  22
ENDBRANCH  20  21
ENDBRANCH  18  20
ENDBRANCH  13  18
ENDBRANCH  11  12
ENDBRANCH   1  11
TORSDOF 12
ENDMDL
MODEL 2
REMARK VINA RESULT:    -7.795      2.959      7.047
REMARK INTER + INTRA:         -14.697
REMARK INTER:                 -13.746
REMARK INTRA:                  -0.951
REMARK UNBOUND:                -1.661
REMARK SMILES CCCNCC(O)COc1ccccc1C(=O)CCc1ccccc1
REMARK SMILES IDX 8 1 6 2 5 3 4 4 3 6 2 7 1 8 7 9 9 11 10 12 15 13 11 14 14 15
REMARK SMILES IDX 12 16 13 17 16 18 17 19 18 20 19 21 20 22 21 23 25 24 22 25
REMARK SMILES IDX 24 26 23 27
REMARK H PARENT 4 5 7 10
REMARK Flexibility Score: inf
ROOT
ATOM      1  C   UNL     1      26.593  35.479  -5.010  1.00  0.00     0.262 C 
ENDROOT
BRANCH   1   2
ATOM      2  C   UNL     1      26.061  35.508  -3.570  1.00  0.00     0.165 C 
BRANCH   2   3
ATOM      3  C   UNL     1      26.046  34.089  -2.947  1.00  0.00     0.116 C 
BRANCH   3   4
ATOM      4  N   UNL     1      26.052  34.105  -1.475  1.00  0.00    -0.314 NA
ATOM      5  H   UNL     1      26.992  34.410  -1.128  1.00  0.00     0.122 HD
BRANCH   4   6
ATOM      6  C   UNL     1      25.722  32.795  -0.897  1.00  0.00     0.081 C 
BRANCH   6   7
ATOM      7  C   UNL     1      26.086  32.764   0.590  1.00  0.00     0.012 C 
ATOM      8  C   UNL     1      26.858  31.499   0.963  1.00  0.00     0.005 C 
ENDBRANCH   6   7
ENDBRANCH   4   6
ENDBRANCH   3   4
ENDBRANCH   2   3
BRANCH   2   9
ATOM      9  O   UNL     1      24.780  36.086  -3.539  1.00  0.00    -0.388 OA
ATOM     10  H   UNL     1      24.790  36.799  -2.848  1.00  0.00     0.211 HD
ENDBRANCH   2   9
ENDBRANCH   1   2
BRANCH   1  11
ATOM     11  O   UNL     1      25.642  36.079  -5.885  1.00  0.00    -0.490 OA
BRANCH  11  12
ATOM     12  C   UNL     1      25.290  35.588  -7.153  1.00  0.00     0.130 A 
ATOM     13  C   UNL     1      24.285  36.251  -7.899  1.00  0.00     0.060 A 
ATOM     14  C   UNL     1      25.928  34.456  -7.701  1.00  0.00     0.047 A 
ATOM     15  C   UNL     1      23.952  35.764  -9.180  1.00  0.00     0.016 A 
ATOM     16  C   UNL     1      25.581  33.991  -8.969  1.00  0.00     0.004 A 
ATOM     17  C   UNL     1      24.596  34.645  -9.708  1.00  0.00     0.001 A 
BRANCH  13  18
ATOM     18  C   UNL     1      23.582  37.444  -7.342  1.00  0.00     0.166 C 
ATOM     19  O   UNL     1      24.094  38.590  -7.468  1.00  0.00    -0.294 OA
BRANCH  18  20
ATOM     20  C   UNL     1      22.281  37.332  -6.596  1.00  0.00     0.086 C 
BRANCH  20  21
ATOM     21  C   UNL     1      22.360  38.063  -5.251  1.00  0.00     0.044 C 
BRANCH  21  22
ATOM     22  C   UNL     1      21.310  39.137  -5.171  1.00  0.00    -0.048 A 
ATOM     23  C   UNL     1      20.514  39.265  -4.021  1.00  0.00     0.004 A 
ATOM     24  C   UNL     1      21.077  39.984  -6.268  1.00  0.00     0.004 A 
ATOM     25  C   UNL     1      19.516  40.243  -3.960  1.00  0.00     0.000 A 
ATOM     26  C   UNL     1      20.077  40.960  -6.204  1.00  0.00     0.000 A 
ATOM     27  C   UNL     1      19.299  41.091  -5.050  1.00  0.00     0.000 A 
ENDBRANCH  21  22
ENDBRANCH  20  21
ENDBRANCH  18  20
ENDBRANCH  13  18
ENDBRANCH  11  12
ENDBRANCH   1  11
TORSDOF 12
ENDMDL
MODEL 3
REMARK VINA RESULT:    -7.767      2.393      6.650
REMARK INTER + INTRA:         -14.650
REMARK INTER:                 -12.874
REMARK INTRA:                  -1.775
REMARK UNBOUND:                -1.661
REMARK SMILES CCCNCC(O)COc1ccccc1C(=O)CCc1ccccc1
REMARK SMILES IDX 8 1 6 2 5 3 4 4 3 6 2 7 1 8 7 9 9 11 10 12 15 13 11 14 14 15
REMARK SMILES IDX 12 16 13 17 16 18 17 19 18 20 19 21 20 22 21 23 25 24 22 25
REMARK SMILES IDX 24 26 23 27
REMARK H PARENT 4 5 7 10
REMARK Flexibility Score: inf
ROOT
ATOM      1  C   UNL     1      23.613  37.031  -4.281  1.00  0.00     0.262 C 
ENDROOT
BRANCH   1   2
ATOM      2  C   UNL     1      25.097  36.645  -4.224  1.00  0.00     0.165 C 
BRANCH   2   3
ATOM      3  C   UNL     1      25.554  35.968  -5.541  1.00  0.00     0.116 C 
BRANCH   3   4
ATOM      4  N   UNL     1      25.935  34.557  -5.362  1.00  0.00    -0.314 NA
ATOM      5  H   UNL     1      26.799  34.495  -4.773  1.00  0.00     0.122 HD
BRANCH   4   6
ATOM      6  C   UNL     1      26.169  33.871  -6.641  1.00  0.00     0.081 C 
BRANCH   6   7
ATOM      7  C   UNL     1      25.631  34.712  -7.801  1.00  0.00     0.012 C 
ATOM      8  C   UNL     1      25.737  33.978  -9.137  1.00  0.00     0.005 C 
ENDBRANCH   6   7
ENDBRANCH   4   6
ENDBRANCH   3   4
ENDBRANCH   2   3
BRANCH   2   9
ATOM      9  O   UNL     1      25.337  35.811  -3.119  1.00  0.00    -0.388 OA
ATOM     10  H   UNL     1      26.123  36.176  -2.633  1.00  0.00     0.211 HD
ENDBRANCH   2   9
ENDBRANCH   1   2
BRANCH   1  11
ATOM     11  O   UNL     1      23.489  38.433  -4.510  1.00  0.00    -0.490 OA
BRANCH  11  12
ATOM     12  C   UNL     1      22.327  39.077  -4.964  1.00  0.00     0.130 A 
ATOM     13  C   UNL     1      22.305  39.630  -6.269  1.00  0.00     0.060 A 
ATOM     14  C   UNL     1      21.178  39.170  -4.151  1.00  0.00     0.047 A 
ATOM     15  C   UNL     1      21.127  40.257  -6.724  1.00  0.00     0.016 A 
ATOM     16  C   UNL     1      20.025  39.796  -4.623  1.00  0.00     0.004 A 
ATOM     17  C   UNL     1      19.999  40.337  -5.907  1.00  0.00     0.001 A 
BRANCH  13  18
ATOM     18  C   UNL     1      23.508  39.559  -7.148  1.00  0.00     0.166 C 
ATOM     19  O   UNL     1      24.173  40.604  -7.388  1.00  0.00    -0.294 OA
BRANCH  18  20
ATOM     20  C   UNL     1      23.955  38.277  -7.796  1.00  0.00     0.086 C 
BRANCH  20  21
ATOM     21  C   UNL     1      22.818  37.249  -7.808  1.00  0.00     0.044 C 
BRANCH  21  22
ATOM     22  C   UNL     1      22.289  37.064  -9.204  1.00  0.00    -0.048 A 
ATOM     23  C   UNL     1      21.247  37.876  -9.679  1.00  0.00     0.004 A 
ATOM     24  C   UNL     1      22.794  36.040 -10.024  1.00  0.00     0.004 A 
ATOM     25  C   UNL     1      20.733  37.682 -10.966  1.00  0.00     0.000 A 
ATOM     26  C   UNL     1      22.276  35.849 -11.309  1.00  0.00     0.000 A 
ATOM     27  C   UNL     1      21.249  36.670 -11.781  1.00  0.00     0.000 A 
ENDBRANCH  21  22
ENDBRANCH  20  21
ENDBRANCH  18  20
ENDBRANCH  13  18
ENDBRANCH  11  12
ENDBRANCH   1  11
TORSDOF 12
ENDMDL
MODEL 4
REMARK VINA RESULT:    -7.744      1.930      4.657
REMARK INTER + INTRA:         -14.612
REMARK INTER:                 -13.102
REMARK INTRA:                  -1.510
REMARK UNBOUND:                -1.661
REMARK SMILES CCCNCC(O)COc1ccccc1C(=O)CCc1ccccc1
REMARK SMILES IDX 8 1 6 2 5 3 4 4 3 6 2 7 1 8 7 9 9 11 10 12 15 13 11 14 14 15
REMARK SMILES IDX 12 16 13 17 16 18 17 19 18 20 19 21 20 22 21 23 25 24 22 25
REMARK SMILES IDX 24 26 23 27
REMARK H PARENT 4 5 7 10
REMARK Flexibility Score: inf
ROOT
ATOM      1  C   UNL     1      20.342  40.135  -9.130  1.00  0.00     0.262 C 
ENDROOT
BRANCH   1   2
ATOM      2  C   UNL     1      20.898  38.760  -9.525  1.00  0.00     0.165 C 
BRANCH   2   3
ATOM      3  C   UNL     1      20.951  38.595 -11.064  1.00  0.00     0.116 C 
BRANCH   3   4
ATOM      4  N   UNL     1      20.642  37.226 -11.509  1.00  0.00    -0.314 NA
ATOM      5  H   UNL     1      20.347  36.645 -10.689  1.00  0.00     0.122 HD
BRANCH   4   6
ATOM      6  C   UNL     1      21.781  36.580 -12.177  1.00  0.00     0.081 C 
BRANCH   6   7
ATOM      7  C   UNL     1      22.183  35.306 -11.429  1.00  0.00     0.012 C 
ATOM      8  C   UNL     1      23.172  35.594 -10.300  1.00  0.00     0.005 C 
ENDBRANCH   6   7
ENDBRANCH   4   6
ENDBRANCH   3   4
ENDBRANCH   2   3
BRANCH   2   9
ATOM      9  O   UNL     1      20.130  37.741  -8.934  1.00  0.00    -0.388 OA
ATOM     10  H   UNL     1      20.332  36.896  -9.416  1.00  0.00     0.211 HD
ENDBRANCH   2   9
ENDBRANCH   1   2
BRANCH   1  11
ATOM     11  O   UNL     1      21.122  40.683  -8.071  1.00  0.00    -0.490 OA
BRANCH  11  12
ATOM     12  C   UNL     1      21.181  40.172  -6.764  1.00  0.00     0.130 A 
ATOM     13  C   UNL     1      22.406  39.648  -6.279  1.00  0.00     0.060 A 
ATOM     14  C   UNL     1      20.050  40.184  -5.922  1.00  0.00     0.047 A 
ATOM     15  C   UNL     1      22.462  39.155  -4.959  1.00  0.00     0.016 A 
ATOM     16  C   UNL     1      20.129  39.690  -4.620  1.00  0.00     0.004 A 
ATOM     17  C   UNL     1      21.333  39.179  -4.139  1.00  0.00     0.001 A 
BRANCH  13  18
ATOM     18  C   UNL     1      23.617  39.609  -7.149  1.00  0.00     0.166 C 
ATOM     19  O   UNL     1      24.219  40.680  -7.434  1.00  0.00    -0.294 OA
BRANCH  18  20
ATOM     20  C   UNL     1      24.144  38.328  -7.736  1.00  0.00     0.086 C 
BRANCH  20  21
ATOM     21  C   UNL     1      23.519  37.114  -7.040  1.00  0.00     0.044 C 
BRANCH  21  22
ATOM     22  C   UNL     1      24.590  36.232  -6.456  1.00  0.00    -0.048 A 
ATOM     23  C   UNL     1      25.034  35.099  -7.158  1.00  0.00     0.004 A 
ATOM     24  C   UNL     1      25.113  36.501  -5.180  1.00  0.00     0.004 A 
ATOM     25  C   UNL     1      26.005  34.261  -6.602  1.00  0.00     0.000 A 
ATOM     26  C   UNL     1      26.084  35.659  -4.627  1.00  0.00     0.000 A 
ATOM     27  C   UNL     1      26.531  34.542  -5.337  1.00  0.00     0.000 A 
ENDBRANCH  21  22
ENDBRANCH  20  21
ENDBRANCH  18  20
ENDBRANCH  13  18
ENDBRANCH  11  12
ENDBRANCH   1  11
TORSDOF 12
ENDMDL
MODEL 5
REMARK VINA RESULT:    -7.607      1.856      4.740
REMARK INTER + INTRA:         -14.383
REMARK INTER:                 -12.934
REMARK INTRA:                  -1.449
REMARK UNBOUND:                -1.661
REMARK SMILES CCCNCC(O)COc1ccccc1C(=O)CCc1ccccc1
REMARK SMILES IDX 8 1 6 2 5 3 4 4 3 6 2 7 1 8 7 9 9 11 10 12 15 13 11 14 14 15
REMARK SMILES IDX 12 16 13 17 16 18 17 19 18 20 19 21 20 22 21 23 25 24 22 25
REMARK SMILES IDX 24 26 23 27
REMARK H PARENT 4 5 7 10
REMARK Flexibility Score: inf
ROOT
ATOM      1  C   UNL     1      20.489  40.066  -9.439  1.00  0.00     0.262 C 
ENDROOT
BRANCH   1   2
ATOM      2  C   UNL     1      20.775  38.650  -9.958  1.00  0.00     0.165 C 
BRANCH   2   3
ATOM      3  C   UNL     1      20.359  38.499 -11.442  1.00  0.00     0.116 C 
BRANCH   3   4
ATOM      4  N   UNL     1      20.443  37.111 -11.926  1.00  0.00    -0.314 NA
ATOM      5  H   UNL     1      20.573  36.460 -11.116  1.00  0.00     0.122 HD
BRANCH   4   6
ATOM      6  C   UNL     1      21.539  36.915 -12.886  1.00  0.00     0.081 C 
BRANCH   6   7
ATOM      7  C   UNL     1      22.641  36.052 -12.265  1.00  0.00     0.012 C 
ATOM      8  C   UNL     1      22.150  35.300 -11.030  1.00  0.00     0.005 C 
ENDBRANCH   6   7
ENDBRANCH   4   6
ENDBRANCH   3   4
ENDBRANCH   2   3
BRANCH   2   9
ATOM      9  O   UNL     1      20.125  37.700  -9.152  1.00  0.00    -0.388 OA
ATOM     10  H   UNL     1      19.163  37.704  -9.400  1.00  0.00     0.211 HD
ENDBRANCH   2   9
ENDBRANCH   1   2
BRANCH   1  11
ATOM     11  O   UNL     1      21.386  40.380  -8.377  1.00  0.00    -0.490 OA
BRANCH  11  12
ATOM     12  C   UNL     1      21.214  39.999  -7.036  1.00  0.00     0.130 A 
ATOM     13  C   UNL     1      22.130  39.089  -6.451  1.00  0.00     0.060 A 
ATOM     14  C   UNL     1      20.156  40.514  -6.260  1.00  0.00     0.047 A 
ATOM     15  C   UNL     1      21.962  38.728  -5.099  1.00  0.00     0.016 A 
ATOM     16  C   UNL     1      20.009  40.141  -4.924  1.00  0.00     0.004 A 
ATOM     17  C   UNL     1      20.911  39.251  -4.345  1.00  0.00     0.001 A 
BRANCH  13  18
ATOM     18  C   UNL     1      23.252  38.516  -7.250  1.00  0.00     0.166 C 
ATOM     19  O   UNL     1      24.238  39.241  -7.557  1.00  0.00    -0.294 OA
BRANCH  18  20
ATOM     20  C   UNL     1      23.245  37.093  -7.739  1.00  0.00     0.086 C 
BRANCH  20  21
ATOM     21  C   UNL     1      24.654  36.651  -8.147  1.00  0.00     0.044 C 
BRANCH  21  22
ATOM     22  C   UNL     1      25.216  35.684  -7.140  1.00  0.00    -0.048 A 
ATOM     23  C   UNL     1      25.322  36.053  -5.789  1.00  0.00     0.004 A 
ATOM     24  C   UNL     1      25.692  34.428  -7.551  1.00  0.00     0.004 A 
ATOM     25  C   UNL     1      25.874  35.167  -4.858  1.00  0.00     0.000 A 
ATOM     26  C   UNL     1      26.245  33.545  -6.618  1.00  0.00     0.000 A 
ATOM     27  C   UNL     1      26.334  33.913  -5.273  1.00  0.00     0.000 A 
ENDBRANCH  21  22
ENDBRANCH  20  21
ENDBRANCH  18  20
ENDBRANCH  13  18
ENDBRANCH  11  12
ENDBRANCH   1  11
TORSDOF 12
ENDMDL
MODEL 6
REMARK VINA RESULT:    -7.598      2.161      7.005
REMARK INTER + INTRA:         -14.368
REMARK INTER:                 -12.852
REMARK INTRA:                  -1.516
REMARK UNBOUND:                -1.661
REMARK SMILES CCCNCC(O)COc1ccccc1C(=O)CCc1ccccc1
REMARK SMILES IDX 8 1 6 2 5 3 4 4 3 6 2 7 1 8 7 9 9 11 10 12 15 13 11 14 14 15
REMARK SMILES IDX 12 16 13 17 16 18 17 19 18 20 19 21 20 22 21 23 25 24 22 25
REMARK SMILES IDX 24 26 23 27
REMARK H PARENT 4 5 7 10
REMARK Flexibility Score: inf
ROOT
ATOM      1  C   UNL     1      25.712  35.427  -8.748  1.00  0.00     0.262 C 
ENDROOT
BRANCH   1   2
ATOM      2  C   UNL     1      25.148  34.889 -10.071  1.00  0.00     0.165 C 
BRANCH   2   3
ATOM      3  C   UNL     1      23.977  35.766 -10.581  1.00  0.00     0.116 C 
BRANCH   3   4
ATOM      4  N   UNL     1      23.186  36.363  -9.492  1.00  0.00    -0.314 NA
ATOM      5  H   UNL     1      23.117  35.689  -8.694  1.00  0.00     0.122 HD
BRANCH   4   6
ATOM      6  C   UNL     1      21.834  36.745  -9.923  1.00  0.00     0.081 C 
BRANCH   6   7
ATOM      7  C   UNL     1      21.480  36.051 -11.242  1.00  0.00     0.012 C 
ATOM      8  C   UNL     1      21.011  37.045 -12.303  1.00  0.00     0.005 C 
ENDBRANCH   6   7
ENDBRANCH   4   6
ENDBRANCH   3   4
ENDBRANCH   2   3
BRANCH   2   9
ATOM      9  O   UNL     1      24.747  33.551  -9.916  1.00  0.00    -0.388 OA
ATOM     10  H   UNL     1      25.464  32.977 -10.294  1.00  0.00     0.211 HD
ENDBRANCH   2   9
ENDBRANCH   1   2
BRANCH   1  11
ATOM     11  O   UNL     1      24.873  35.025  -7.669  1.00  0.00    -0.490 OA
BRANCH  11  12
ATOM     12  C   UNL     1      25.215  35.101  -6.309  1.00  0.00     0.130 A 
ATOM     13  C   UNL     1      24.667  36.137  -5.513  1.00  0.00     0.060 A 
ATOM     14  C   UNL     1      26.082  34.158  -5.719  1.00  0.00     0.047 A 
ATOM     15  C   UNL     1      25.000  36.194  -4.144  1.00  0.00     0.016 A 
ATOM     16  C   UNL     1      26.397  34.235  -4.363  1.00  0.00     0.004 A 
ATOM     17  C   UNL     1      25.856  35.250  -3.577  1.00  0.00     0.001 A 
BRANCH  13  18
ATOM     18  C   UNL     1      23.757  37.158  -6.110  1.00  0.00     0.166 C 
ATOM     19  O   UNL     1      24.229  38.062  -6.851  1.00  0.00    -0.294 OA
BRANCH  18  20
ATOM     20  C   UNL     1      22.278  37.173  -5.836  1.00  0.00     0.086 C 
BRANCH  20  21
ATOM     21  C   UNL     1      21.966  37.989  -4.577  1.00  0.00     0.044 C 
BRANCH  21  22
ATOM     22  C   UNL     1      21.098  39.171  -4.916  1.00  0.00    -0.048 A 
ATOM     23  C   UNL     1      20.159  39.649  -3.988  1.00  0.00     0.004 A 
ATOM     24  C   UNL     1      21.179  39.769  -6.185  1.00  0.00     0.004 A 
ATOM     25  C   UNL     1      19.330  40.726  -4.315  1.00  0.00     0.000 A 
ATOM     26  C   UNL     1      20.348  40.846  -6.509  1.00  0.00     0.000 A 
ATOM     27  C   UNL     1      19.426  41.326  -5.574  1.00  0.00     0.000 A 
ENDBRANCH  21  22
ENDBRANCH  20  21
ENDBRANCH  18  20
ENDBRANCH  13  18
ENDBRANCH  11  12
ENDBRANCH   1  11
TORSDOF 12
ENDMDL
MODEL 7
REMARK VINA RESULT:    -7.577      1.757      3.274
REMARK INTER + INTRA:         -14.333
REMARK INTER:                 -12.206
REMARK INTRA:                  -2.127
REMARK UNBOUND:                -1.661
REMARK SMILES CCCNCC(O)COc1ccccc1C(=O)CCc1ccccc1
REMARK SMILES IDX 8 1 6 2 5 3 4 4 3 6 2 7 1 8 7 9 9 11 10 12 15 13 11 14 14 15
REMARK SMILES IDX 12 16 13 17 16 18 17 19 18 20 19 21 20 22 21 23 25 24 22 25
REMARK SMILES IDX 24 26 23 27
REMARK H PARENT 4 5 7 10
REMARK Flexibility Score: inf
ROOT
ATOM      1  C   UNL     1      23.082  40.712  -7.789  1.00  0.00     0.262 C 
ENDROOT
BRANCH   1   2
ATOM      2  C   UNL     1      21.910  40.950  -8.751  1.00  0.00     0.165 C 
BRANCH   2   3
ATOM      3  C   UNL     1      20.754  41.710  -8.054  1.00  0.00     0.116 C 
BRANCH   3   4
ATOM      4  N   UNL     1      20.593  41.342  -6.638  1.00  0.00    -0.314 NA
ATOM      5  H   UNL     1      20.617  40.300  -6.537  1.00  0.00     0.122 HD
BRANCH   4   6
ATOM      6  C   UNL     1      19.343  41.856  -6.061  1.00  0.00     0.081 C 
BRANCH   6   7
ATOM      7  C   UNL     1      19.211  41.417  -4.600  1.00  0.00     0.012 C 
ATOM      8  C   UNL     1      19.509  39.930  -4.421  1.00  0.00     0.005 C 
ENDBRANCH   6   7
ENDBRANCH   4   6
ENDBRANCH   3   4
ENDBRANCH   2   3
BRANCH   2   9
ATOM      9  O   UNL     1      21.463  39.726  -9.279  1.00  0.00    -0.388 OA
ATOM     10  H   UNL     1      20.891  39.294  -8.592  1.00  0.00     0.211 HD
ENDBRANCH   2   9
ENDBRANCH   1   2
BRANCH   1  11
ATOM     11  O   UNL     1      23.410  39.326  -7.763  1.00  0.00    -0.490 OA
BRANCH  11  12
ATOM     12  C   UNL     1      23.044  38.428  -6.747  1.00  0.00     0.130 A 
ATOM     13  C   UNL     1      22.801  37.071  -7.074  1.00  0.00     0.060 A 
ATOM     14  C   UNL     1      22.929  38.850  -5.406  1.00  0.00     0.047 A 
ATOM     15  C   UNL     1      22.454  36.173  -6.044  1.00  0.00     0.016 A 
ATOM     16  C   UNL     1      22.584  37.943  -4.405  1.00  0.00     0.004 A 
ATOM     17  C   UNL     1      22.349  36.607  -4.723  1.00  0.00     0.001 A 
BRANCH  13  18
ATOM     18  C   UNL     1      22.902  36.597  -8.485  1.00  0.00     0.166 C 
ATOM     19  O   UNL     1      22.020  36.928  -9.323  1.00  0.00    -0.294 OA
BRANCH  18  20
ATOM     20  C   UNL     1      24.015  35.698  -8.952  1.00  0.00     0.086 C 
BRANCH  20  21
ATOM     21  C   UNL     1      25.366  36.182  -8.416  1.00  0.00     0.044 C 
BRANCH  21  22
ATOM     22  C   UNL     1      25.728  35.443  -7.156  1.00  0.00    -0.048 A 
ATOM     23  C   UNL     1      25.759  34.039  -7.143  1.00  0.00     0.004 A 
ATOM     24  C   UNL     1      25.983  36.148  -5.968  1.00  0.00     0.004 A 
ATOM     25  C   UNL     1      26.064  33.351  -5.964  1.00  0.00     0.000 A 
ATOM     26  C   UNL     1      26.286  35.457  -4.790  1.00  0.00     0.000 A 
ATOM     27  C   UNL     1      26.328  34.060  -4.789  1.00  0.00     0.000 A 
ENDBRANCH  21  22
ENDBRANCH  20  21
ENDBRANCH  18  20
ENDBRANCH  13  18
ENDBRANCH  11  12
ENDBRANCH   1  11
TORSDOF 12
ENDMDL
MODEL 8
REMARK VINA RESULT:    -7.486      1.745      4.802
REMARK INTER + INTRA:         -14.180
REMARK INTER:                 -12.621
REMARK INTRA:                  -1.559
REMARK UNBOUND:                -1.661
REMARK SMILES CCCNCC(O)COc1ccccc1C(=O)CCc1ccccc1
REMARK SMILES IDX 8 1 6 2 5 3 4 4 3 6 2 7 1 8 7 9 9 11 10 12 15 13 11 14 14 15
REMARK SMILES IDX 12 16 13 17 16 18 17 19 18 20 19 21 20 22 21 23 25 24 22 25
REMARK SMILES IDX 24 26 23 27
REMARK H PARENT 4 5 7 10
REMARK Flexibility Score: inf
ROOT
ATOM      1  C   UNL     1      21.594  39.760  -8.879  1.00  0.00     0.262 C 
ENDROOT
BRANCH   1   2
ATOM      2  C   UNL     1      20.826  38.466  -9.179  1.00  0.00     0.165 C 
BRANCH   2   3
ATOM      3  C   UNL     1      21.790  37.268  -9.360  1.00  0.00     0.116 C 
BRANCH   3   4
ATOM      4  N   UNL     1      21.574  36.539 -10.621  1.00  0.00    -0.314 NA
ATOM      5  H   UNL     1      20.666  36.019 -10.579  1.00  0.00     0.122 HD
BRANCH   4   6
ATOM      6  C   UNL     1      22.660  35.595 -10.919  1.00  0.00     0.081 C 
BRANCH   6   7
ATOM      7  C   UNL     1      23.769  35.712  -9.869  1.00  0.00     0.012 C 
ATOM      8  C   UNL     1      24.682  34.488  -9.862  1.00  0.00     0.005 C 
ENDBRANCH   6   7
ENDBRANCH   4   6
ENDBRANCH   3   4
ENDBRANCH   2   3
BRANCH   2   9
ATOM      9  O   UNL     1      20.015  38.638 -10.315  1.00  0.00    -0.388 OA
ATOM     10  H   UNL     1      19.421  39.415 -10.145  1.00  0.00     0.211 HD
ENDBRANCH   2   9
ENDBRANCH   1   2
BRANCH   1  11
ATOM     11  O   UNL     1      21.962  39.793  -7.502  1.00  0.00    -0.490 OA
BRANCH  11  12
ATOM     12  C   UNL     1      21.085  40.064  -6.439  1.00  0.00     0.130 A 
ATOM     13  C   UNL     1      21.071  39.200  -5.315  1.00  0.00     0.060 A 
ATOM     14  C   UNL     1      20.231  41.185  -6.464  1.00  0.00     0.047 A 
ATOM     15  C   UNL     1      20.203  39.491  -4.243  1.00  0.00     0.016 A 
ATOM     16  C   UNL     1      19.380  41.451  -5.391  1.00  0.00     0.004 A 
ATOM     17  C   UNL     1      19.367  40.607  -4.283  1.00  0.00     0.001 A 
BRANCH  13  18
ATOM     18  C   UNL     1      21.954  37.998  -5.265  1.00  0.00     0.166 C 
ATOM     19  O   UNL     1      21.591  36.929  -5.828  1.00  0.00    -0.294 OA
BRANCH  18  20
ATOM     20  C   UNL     1      23.268  37.998  -4.533  1.00  0.00     0.086 C 
BRANCH  20  21
ATOM     21  C   UNL     1      24.433  37.785  -5.506  1.00  0.00     0.044 C 
BRANCH  21  22
ATOM     22  C   UNL     1      25.027  36.414  -5.327  1.00  0.00    -0.048 A 
ATOM     23  C   UNL     1      25.541  36.024  -4.080  1.00  0.00     0.004 A 
ATOM     24  C   UNL     1      25.124  35.535  -6.418  1.00  0.00     0.004 A 
ATOM     25  C   UNL     1      26.123  34.762  -3.921  1.00  0.00     0.000 A 
ATOM     26  C   UNL     1      25.707  34.274  -6.256  1.00  0.00     0.000 A 
ATOM     27  C   UNL     1      26.204  33.887  -5.009  1.00  0.00     0.000 A 
ENDBRANCH  21  22
ENDBRANCH  20  21
ENDBRANCH  18  20
ENDBRANCH  13  18
ENDBRANCH  11  12
ENDBRANCH   1  11
TORSDOF 12
ENDMDL
MODEL 9
REMARK VINA RESULT:    -7.476      1.397      2.015
REMARK INTER + INTRA:         -14.163
REMARK INTER:                 -12.436
REMARK INTRA:                  -1.727
REMARK UNBOUND:                -1.661
REMARK SMILES CCCNCC(O)COc1ccccc1C(=O)CCc1ccccc1
REMARK SMILES IDX 8 1 6 2 5 3 4 4 3 6 2 7 1 8 7 9 9 11 10 12 15 13 11 14 14 15
REMARK SMILES IDX 12 16 13 17 16 18 17 19 18 20 19 21 20 22 21 23 25 24 22 25
REMARK SMILES IDX 24 26 23 27
REMARK H PARENT 4 5 7 10
REMARK Flexibility Score: inf
ROOT
ATOM      1  C   UNL     1      20.482  39.551  -9.993  1.00  0.00     0.262 C 
ENDROOT
BRANCH   1   2
ATOM      2  C   UNL     1      19.683  40.479  -9.067  1.00  0.00     0.165 C 
BRANCH   2   3
ATOM      3  C   UNL     1      20.473  40.802  -7.775  1.00  0.00     0.116 C 
BRANCH   3   4
ATOM      4  N   UNL     1      20.058  39.983  -6.624  1.00  0.00    -0.314 NA
ATOM      5  H   UNL     1      19.309  39.312  -6.918  1.00  0.00     0.122 HD
BRANCH   4   6
ATOM      6  C   UNL     1      19.568  40.796  -5.502  1.00  0.00     0.081 C 
BRANCH   6   7
ATOM      7  C   UNL     1      19.548  39.967  -4.215  1.00  0.00     0.012 C 
ATOM      8  C   UNL     1      20.867  39.230  -3.988  1.00  0.00     0.005 C 
ENDBRANCH   6   7
ENDBRANCH   4   6
ENDBRANCH   3   4
ENDBRANCH   2   3
BRANCH   2   9
ATOM      9  O   UNL     1      18.436  39.903  -8.765  1.00  0.00    -0.388 OA
ATOM     10  H   UNL     1      17.756  40.343  -9.339  1.00  0.00     0.211 HD
ENDBRANCH   2   9
ENDBRANCH   1   2
BRANCH   1  11
ATOM     11  O   UNL     1      20.656  38.282  -9.369  1.00  0.00    -0.490 OA
BRANCH  11  12
ATOM     12  C   UNL     1      21.557  37.291  -9.792  1.00  0.00     0.130 A 
ATOM     13  C   UNL     1      22.691  37.000  -8.994  1.00  0.00     0.060 A 
ATOM     14  C   UNL     1      21.345  36.573 -10.987  1.00  0.00     0.047 A 
ATOM     15  C   UNL     1      23.580  35.989  -9.416  1.00  0.00     0.016 A 
ATOM     16  C   UNL     1      22.239  35.578 -11.384  1.00  0.00     0.004 A 
ATOM     17  C   UNL     1      23.353  35.286 -10.599  1.00  0.00     0.001 A 
BRANCH  13  18
ATOM     18  C   UNL     1      22.950  37.751  -7.731  1.00  0.00     0.166 C 
ATOM     19  O   UNL     1      23.695  38.769  -7.748  1.00  0.00    -0.294 OA
BRANCH  18  20
ATOM     20  C   UNL     1      22.373  37.322  -6.410  1.00  0.00     0.086 C 
BRANCH  20  21
ATOM     21  C   UNL     1      22.830  35.904  -6.051  1.00  0.00     0.044 C 
BRANCH  21  22
ATOM     22  C   UNL     1      24.279  35.903  -5.645  1.00  0.00    -0.048 A 
ATOM     23  C   UNL     1      24.719  36.722  -4.593  1.00  0.00     0.004 A 
ATOM     24  C   UNL     1      25.214  35.128  -6.352  1.00  0.00     0.004 A 
ATOM     25  C   UNL     1      26.072  36.747  -4.237  1.00  0.00     0.000 A 
ATOM     26  C   UNL     1      26.565  35.156  -5.994  1.00  0.00     0.000 A 
ATOM     27  C   UNL     1      26.994  35.962  -4.936  1.00  0.00     0.000 A 
ENDBRANCH  21  22
ENDBRANCH  20  21
ENDBRANCH  18  20
ENDBRANCH  13  18
ENDBRANCH  11  12
ENDBRANCH   1  11
TORSDOF 12
ENDMDL
MODEL 10
REMARK VINA RESULT:    -7.431      1.724      4.258
REMARK INTER + INTRA:         -14.089
REMARK INTER:                 -12.181
REMARK INTRA:                  -1.907
REMARK UNBOUND:                -1.661
REMARK SMILES CCCNCC(O)COc1ccccc1C(=O)CCc1ccccc1
REMARK SMILES IDX 8 1 6 2 5 3 4 4 3 6 2 7 1 8 7 9 9 11 10 12 15 13 11 14 14 15
REMARK SMILES IDX 12 16 13 17 16 18 17 19 18 20 19 21 20 22 21 23 25 24 22 25
REMARK SMILES IDX 24 26 23 27
REMARK H PARENT 4 5 7 10
REMARK Flexibility Score: inf
ROOT
ATOM      1  C   UNL     1      22.728  40.630  -8.233  1.00  0.00     0.262 C 
ENDROOT
BRANCH   1   2
ATOM      2  C   UNL     1      21.239  40.413  -7.929  1.00  0.00     0.165 C 
BRANCH   2   3
ATOM      3  C   UNL     1      20.387  40.462  -9.222  1.00  0.00     0.116 C 
BRANCH   3   4
ATOM      4  N   UNL     1      21.144  40.084 -10.426  1.00  0.00    -0.314 NA
ATOM      5  H   UNL     1      21.659  40.917 -10.798  1.00  0.00     0.122 HD
BRANCH   4   6
ATOM      6  C   UNL     1      20.283  39.535 -11.483  1.00  0.00     0.081 C 
BRANCH   6   7
ATOM      7  C   UNL     1      21.106  38.678 -12.448  1.00  0.00     0.012 C 
ATOM      8  C   UNL     1      20.565  37.254 -12.552  1.00  0.00     0.005 C 
ENDBRANCH   6   7
ENDBRANCH   4   6
ENDBRANCH   3   4
ENDBRANCH   2   3
BRANCH   2   9
ATOM      9  O   UNL     1      20.793  41.364  -6.995  1.00  0.00    -0.388 OA
ATOM     10  H   UNL     1      21.141  41.095  -6.104  1.00  0.00     0.211 HD
ENDBRANCH   2   9
ENDBRANCH   1   2
BRANCH   1  11
ATOM     11  O   UNL     1      23.490  39.550  -7.700  1.00  0.00    -0.490 OA
BRANCH  11  12
ATOM     12  C   UNL     1      23.046  38.663  -6.706  1.00  0.00     0.130 A 
ATOM     13  C   UNL     1      22.733  37.326  -7.059  1.00  0.00     0.060 A 
ATOM     14  C   UNL     1      22.920  39.073  -5.363  1.00  0.00     0.047 A 
ATOM     15  C   UNL     1      22.308  36.436  -6.051  1.00  0.00     0.016 A 
ATOM     16  C   UNL     1      22.497  38.175  -4.384  1.00  0.00     0.004 A 
ATOM     17  C   UNL     1      22.193  36.859  -4.727  1.00  0.00     0.001 A 
BRANCH  13  18
ATOM     18  C   UNL     1      22.844  36.865  -8.473  1.00  0.00     0.166 C 
ATOM     19  O   UNL     1      22.007  37.262  -9.330  1.00  0.00    -0.294 OA
BRANCH  18  20
ATOM     20  C   UNL     1      23.911  35.905  -8.924  1.00  0.00     0.086 C 
BRANCH  20  21
ATOM     21  C   UNL     1      25.278  36.310  -8.364  1.00  0.00     0.044 C 
BRANCH  21  22
ATOM     22  C   UNL     1      25.625  35.473  -7.162  1.00  0.00    -0.048 A 
ATOM     23  C   UNL     1      25.864  36.083  -5.920  1.00  0.00     0.004 A 
ATOM     24  C   UNL     1      25.770  34.080  -7.285  1.00  0.00     0.004 A 
ATOM     25  C   UNL     1      26.219  35.308  -4.811  1.00  0.00     0.000 A 
ATOM     26  C   UNL     1      26.125  33.309  -6.174  1.00  0.00     0.000 A 
ATOM     27  C   UNL     1      26.347  33.922  -4.938  1.00  0.00     0.000 A 
ENDBRANCH  21  22
ENDBRANCH  20  21
ENDBRANCH  18  20
ENDBRANCH  13  18
ENDBRANCH  11  12
ENDBRANCH   1  11
TORSDOF 12
ENDMDL
MODEL 11
REMARK VINA RESULT:    -7.358      1.639      4.767
REMARK INTER + INTRA:         -13.966
REMARK INTER:                 -12.365
REMARK INTRA:                  -1.601
REMARK UNBOUND:                -1.661
REMARK SMILES CCCNCC(O)COc1ccccc1C(=O)CCc1ccccc1
REMARK SMILES IDX 8 1 6 2 5 3 4 4 3 6 2 7 1 8 7 9 9 11 10 12 15 13 11 14 14 15
REMARK SMILES IDX 12 16 13 17 16 18 17 19 18 20 19 21 20 22 21 23 25 24 22 25
REMARK SMILES IDX 24 26 23 27
REMARK H PARENT 4 5 7 10
REMARK Flexibility Score: inf
ROOT
ATOM      1  C   UNL     1      20.286  41.488  -8.699  1.00  0.00     0.262 C 
ENDROOT
BRANCH   1   2
ATOM      2  C   UNL     1      19.467  40.247  -9.079  1.00  0.00     0.165 C 
BRANCH   2   3
ATOM      3  C   UNL     1      20.070  39.531 -10.314  1.00  0.00     0.116 C 
BRANCH   3   4
ATOM      4  N   UNL     1      20.442  38.132 -10.045  1.00  0.00    -0.314 NA
ATOM      5  H   UNL     1      20.935  38.067  -9.123  1.00  0.00     0.122 HD
BRANCH   4   6
ATOM      6  C   UNL     1      21.301  37.567 -11.095  1.00  0.00     0.081 C 
BRANCH   6   7
ATOM      7  C   UNL     1      21.590  36.091 -10.808  1.00  0.00     0.012 C 
ATOM      8  C   UNL     1      23.007  35.879 -10.277  1.00  0.00     0.005 C 
ENDBRANCH   6   7
ENDBRANCH   4   6
ENDBRANCH   3   4
ENDBRANCH   2   3
BRANCH   2   9
ATOM      9  O   UNL     1      18.126  40.603  -9.308  1.00  0.00    -0.388 OA
ATOM     10  H   UNL     1      17.689  39.843  -9.774  1.00  0.00     0.211 HD
ENDBRANCH   2   9
ENDBRANCH   1   2
BRANCH   1  11
ATOM     11  O   UNL     1      21.080  41.207  -7.549  1.00  0.00    -0.490 OA
BRANCH  11  12
ATOM     12  C   UNL     1      20.579  40.797  -6.303  1.00  0.00     0.130 A 
ATOM     13  C   UNL     1      21.067  39.601  -5.719  1.00  0.00     0.060 A 
ATOM     14  C   UNL     1      19.612  41.560  -5.617  1.00  0.00     0.047 A 
ATOM     15  C   UNL     1      20.574  39.208  -4.458  1.00  0.00     0.016 A 
ATOM     16  C   UNL     1      19.139  41.150  -4.371  1.00  0.00     0.004 A 
ATOM     17  C   UNL     1      19.620  39.978  -3.792  1.00  0.00     0.001 A 
BRANCH  13  18
ATOM     18  C   UNL     1      22.080  38.765  -6.426  1.00  0.00     0.166 C 
ATOM     19  O   UNL     1      21.709  37.933  -7.298  1.00  0.00    -0.294 OA
BRANCH  18  20
ATOM     20  C   UNL     1      23.550  38.852  -6.116  1.00  0.00     0.086 C 
BRANCH  20  21
ATOM     21  C   UNL     1      23.881  38.086  -4.830  1.00  0.00     0.044 C 
BRANCH  21  22
ATOM     22  C   UNL     1      24.708  36.867  -5.141  1.00  0.00    -0.048 A 
ATOM     23  C   UNL     1      25.354  36.170  -4.108  1.00  0.00     0.004 A 
ATOM     24  C   UNL     1      24.886  36.451  -6.471  1.00  0.00     0.004 A 
ATOM     25  C   UNL     1      26.149  35.057  -4.400  1.00  0.00     0.000 A 
ATOM     26  C   UNL     1      25.683  35.338  -6.758  1.00  0.00     0.000 A 
ATOM     27  C   UNL     1      26.312  34.640  -5.724  1.00  0.00     0.000 A 
ENDBRANCH  21  22
ENDBRANCH  20  21
ENDBRANCH  18  20
ENDBRANCH  13  18
ENDBRANCH  11  12
ENDBRANCH   1  11
TORSDOF 12
ENDMDL
MODEL 12
REMARK VINA RESULT:    -7.296      1.669      4.328
REMARK INTER + INTRA:         -13.862
REMARK INTER:                 -12.159
REMARK INTRA:                  -1.703
REMARK UNBOUND:                -1.661
REMARK SMILES CCCNCC(O)COc1ccccc1C(=O)CCc1ccccc1
REMARK SMILES IDX 8 1 6 2 5 3 4 4 3 6 2 7 1 8 7 9 9 11 10 12 15 13 11 14 14 15
REMARK SMILES IDX 12 16 13 17 16 18 17 19 18 20 19 21 20 22 21 23 25 24 22 25
REMARK SMILES IDX 24 26 23 27
REMARK H PARENT 4 5 7 10
REMARK Flexibility Score: inf
ROOT
ATOM      1  C   UNL     1      20.134  39.753  -8.987  1.00  0.00     0.262 C 
ENDROOT
BRANCH   1   2
ATOM      2  C   UNL     1      20.370  40.391 -10.363  1.00  0.00     0.165 C 
BRANCH   2   3
ATOM      3  C   UNL     1      20.959  39.368 -11.366  1.00  0.00     0.116 C 
BRANCH   3   4
ATOM      4  N   UNL     1      20.798  37.972 -10.927  1.00  0.00    -0.314 NA
ATOM      5  H   UNL     1      21.575  37.714 -10.274  1.00  0.00     0.122 HD
BRANCH   4   6
ATOM      6  C   UNL     1      20.775  37.027 -12.052  1.00  0.00     0.081 C 
BRANCH   6   7
ATOM      7  C   UNL     1      21.911  36.010 -11.915  1.00  0.00     0.012 C 
ATOM      8  C   UNL     1      23.119  36.383 -12.772  1.00  0.00     0.005 C 
ENDBRANCH   6   7
ENDBRANCH   4   6
ENDBRANCH   3   4
ENDBRANCH   2   3
BRANCH   2   9
ATOM      9  O   UNL     1      21.208  41.514 -10.238  1.00  0.00    -0.388 OA
ATOM     10  H   UNL     1      20.637  42.323 -10.307  1.00  0.00     0.211 HD
ENDBRANCH   2   9
ENDBRANCH   1   2
BRANCH   1  11
ATOM     11  O   UNL     1      21.372  39.644  -8.289  1.00  0.00    -0.490 OA
BRANCH  11  12
ATOM     12  C   UNL     1      21.519  39.164  -6.977  1.00  0.00     0.130 A 
ATOM     13  C   UNL     1      22.359  38.048  -6.738  1.00  0.00     0.060 A 
ATOM     14  C   UNL     1      20.858  39.780  -5.895  1.00  0.00     0.047 A 
ATOM     15  C   UNL     1      22.517  37.584  -5.416  1.00  0.00     0.016 A 
ATOM     16  C   UNL     1      21.029  39.303  -4.596  1.00  0.00     0.004 A 
ATOM     17  C   UNL     1      21.858  38.209  -4.357  1.00  0.00     0.001 A 
BRANCH  13  18
ATOM     18  C   UNL     1      23.061  37.366  -7.864  1.00  0.00     0.166 C 
ATOM     19  O   UNL     1      22.393  36.765  -8.749  1.00  0.00    -0.294 OA
BRANCH  18  20
ATOM     20  C   UNL     1      24.561  37.339  -7.975  1.00  0.00     0.086 C 
BRANCH  20  21
ATOM     21  C   UNL     1      25.076  35.897  -8.044  1.00  0.00     0.044 C 
BRANCH  21  22
ATOM     22  C   UNL     1      25.529  35.434  -6.685  1.00  0.00    -0.048 A 
ATOM     23  C   UNL     1      25.722  34.066  -6.432  1.00  0.00     0.004 A 
ATOM     24  C   UNL     1      25.706  36.359  -5.643  1.00  0.00     0.004 A 
ATOM     25  C   UNL     1      26.111  33.633  -5.161  1.00  0.00     0.000 A 
ATOM     26  C   UNL     1      26.094  35.921  -4.373  1.00  0.00     0.000 A 
ATOM     27  C   UNL     1      26.299  34.560  -4.132  1.00  0.00     0.000 A 
ENDBRANCH  21  22
ENDBRANCH  20  21
ENDBRANCH  18  20
ENDBRANCH  13  18
ENDBRANCH  11  12
ENDBRANCH   1  11
TORSDOF 12
ENDMDL
MODEL 13
REMARK VINA RESULT:    -7.279      2.082      5.829
REMARK INTER + INTRA:         -13.835
REMARK INTER:                 -12.333
REMARK INTRA:                  -1.501
REMARK UNBOUND:                -1.661
REMARK SMILES CCCNCC(O)COc1ccccc1C(=O)CCc1ccccc1
REMARK SMILES IDX 8 1 6 2 5 3 4 4 3 6 2 7 1 8 7 9 9 11 10 12 15 13 11 14 14 15
REMARK SMILES IDX 12 16 13 17 16 18 17 19 18 20 19 21 20 22 21 23 25 24 22 25
REMARK SMILES IDX 24 26 23 27
REMARK H PARENT 4 5 7 10
REMARK Flexibility Score: inf
ROOT
ATOM      1  C   UNL     1      22.726  38.671  -4.501  1.00  0.00     0.262 C 
ENDROOT
BRANCH   1   2
ATOM      2  C   UNL     1      23.101  37.225  -4.151  1.00  0.00     0.165 C 
BRANCH   2   3
ATOM      3  C   UNL     1      24.616  36.972  -4.348  1.00  0.00     0.116 C 
BRANCH   3   4
ATOM      4  N   UNL     1      25.204  36.135  -3.290  1.00  0.00    -0.314 NA
ATOM      5  H   UNL     1      25.791  36.726  -2.655  1.00  0.00     0.122 HD
BRANCH   4   6
ATOM      6  C   UNL     1      26.024  35.040  -3.828  1.00  0.00     0.081 C 
BRANCH   6   7
ATOM      7  C   UNL     1      25.738  34.846  -5.320  1.00  0.00     0.012 C 
ATOM      8  C   UNL     1      26.351  33.553  -5.856  1.00  0.00     0.005 C 
ENDBRANCH   6   7
ENDBRANCH   4   6
ENDBRANCH   3   4
ENDBRANCH   2   3
BRANCH   2   9
ATOM      9  O   UNL     1      22.336  36.328  -4.917  1.00  0.00    -0.388 OA
ATOM     10  H   UNL     1      21.576  36.837  -5.304  1.00  0.00     0.211 HD
ENDBRANCH   2   9
ENDBRANCH   1   2
BRANCH   1  11
ATOM     11  O   UNL     1      21.494  38.689  -5.216  1.00  0.00    -0.490 OA
BRANCH  11  12
ATOM     12  C   UNL     1      20.711  39.832  -5.447  1.00  0.00     0.130 A 
ATOM     13  C   UNL     1      20.895  40.570  -6.643  1.00  0.00     0.060 A 
ATOM     14  C   UNL     1      19.737  40.250  -4.517  1.00  0.00     0.047 A 
ATOM     15  C   UNL     1      20.090  41.704  -6.875  1.00  0.00     0.016 A 
ATOM     16  C   UNL     1      18.953  41.376  -4.768  1.00  0.00     0.004 A 
ATOM     17  C   UNL     1      19.129  42.100  -5.945  1.00  0.00     0.001 A 
BRANCH  13  18
ATOM     18  C   UNL     1      21.926  40.161  -7.640  1.00  0.00     0.166 C 
ATOM     19  O   UNL     1      23.104  40.603  -7.542  1.00  0.00    -0.294 OA
BRANCH  18  20
ATOM     20  C   UNL     1      21.609  39.251  -8.796  1.00  0.00     0.086 C 
BRANCH  20  21
ATOM     21  C   UNL     1      21.520  37.794  -8.333  1.00  0.00     0.044 C 
BRANCH  21  22
ATOM     22  C   UNL     1      22.726  37.019  -8.794  1.00  0.00    -0.048 A 
ATOM     23  C   UNL     1      22.671  36.264  -9.976  1.00  0.00     0.004 A 
ATOM     24  C   UNL     1      23.896  36.999  -8.016  1.00  0.00     0.004 A 
ATOM     25  C   UNL     1      23.781  35.518 -10.387  1.00  0.00     0.000 A 
ATOM     26  C   UNL     1      25.002  36.251  -8.430  1.00  0.00     0.000 A 
ATOM     27  C   UNL     1      24.946  35.513  -9.615  1.00  0.00     0.000 A 
ENDBRANCH  21  22
ENDBRANCH  20  21
ENDBRANCH  18  20
ENDBRANCH  13  18
ENDBRANCH  11  12
ENDBRANCH   1  11
TORSDOF 12
ENDMDL
MODEL 14
REMARK VINA RESULT:    -7.263      1.431      2.570
REMARK INTER + INTRA:         -13.807
REMARK INTER:                 -12.560
REMARK INTRA:                  -1.247
REMARK UNBOUND:                -1.661
REMARK SMILES CCCNCC(O)COc1ccccc1C(=O)CCc1ccccc1
REMARK SMILES IDX 8 1 6 2 5 3 4 4 3 6 2 7 1 8 7 9 9 11 10 12 15 13 11 14 14 15
REMARK SMILES IDX 12 16 13 17 16 18 17 19 18 20 19 21 20 22 21 23 25 24 22 25
REMARK SMILES IDX 24 26 23 27
REMARK H PARENT 4 5 7 10
REMARK Flexibility Score: inf
ROOT
ATOM      1  C   UNL     1      22.292  37.981  -7.174  1.00  0.00     0.262 C 
ENDROOT
BRANCH   1   2
ATOM      2  C   UNL     1      21.723  37.662  -5.784  1.00  0.00     0.165 C 
BRANCH   2   3
ATOM      3  C   UNL     1      22.316  38.600  -4.704  1.00  0.00     0.116 C 
BRANCH   3   4
ATOM      4  N   UNL     1      21.286  39.292  -3.912  1.00  0.00    -0.314 NA
ATOM      5  H   UNL     1      21.086  38.750  -3.039  1.00  0.00     0.122 HD
BRANCH   4   6
ATOM      6  C   UNL     1      20.037  39.485  -4.661  1.00  0.00     0.081 C 
BRANCH   6   7
ATOM      7  C   UNL     1      20.043  40.846  -5.364  1.00  0.00     0.012 C 
ATOM      8  C   UNL     1      19.700  40.725  -6.847  1.00  0.00     0.005 C 
ENDBRANCH   6   7
ENDBRANCH   4   6
ENDBRANCH   3   4
ENDBRANCH   2   3
BRANCH   2   9
ATOM      9  O   UNL     1      21.956  36.313  -5.465  1.00  0.00    -0.388 OA
ATOM     10  H   UNL     1      21.091  35.918  -5.180  1.00  0.00     0.211 HD
ENDBRANCH   2   9
ENDBRANCH   1   2
BRANCH   1  11
ATOM     11  O   UNL     1      22.111  36.861  -8.037  1.00  0.00    -0.490 OA
BRANCH  11  12
ATOM     12  C   UNL     1      21.913  36.936  -9.425  1.00  0.00     0.130 A 
ATOM     13  C   UNL     1      22.758  36.192 -10.287  1.00  0.00     0.060 A 
ATOM     14  C   UNL     1      20.883  37.726  -9.975  1.00  0.00     0.047 A 
ATOM     15  C   UNL     1      22.539  36.256 -11.678  1.00  0.00     0.016 A 
ATOM     16  C   UNL     1      20.687  37.774 -11.355  1.00  0.00     0.004 A 
ATOM     17  C   UNL     1      21.512  37.040 -12.204  1.00  0.00     0.001 A 
BRANCH  13  18
ATOM     18  C   UNL     1      23.865  35.357  -9.736  1.00  0.00     0.166 C 
ATOM     19  O   UNL     1      23.886  34.116  -9.960  1.00  0.00    -0.294 OA
BRANCH  18  20
ATOM     20  C   UNL     1      24.961  35.938  -8.885  1.00  0.00     0.086 C 
BRANCH  20  21
ATOM     21  C   UNL     1      25.766  34.827  -8.202  1.00  0.00     0.044 C 
BRANCH  21  22
ATOM     22  C   UNL     1      25.771  35.021  -6.710  1.00  0.00    -0.048 A 
ATOM     23  C   UNL     1      25.442  36.269  -6.157  1.00  0.00     0.004 A 
ATOM     24  C   UNL     1      26.162  33.973  -5.860  1.00  0.00     0.004 A 
ATOM     25  C   UNL     1      25.478  36.459  -4.772  1.00  0.00     0.000 A 
ATOM     26  C   UNL     1      26.198  34.167  -4.475  1.00  0.00     0.000 A 
ATOM     27  C   UNL     1      25.855  35.407  -3.932  1.00  0.00     0.000 A 
ENDBRANCH  21  22
ENDBRANCH  20  21
ENDBRANCH  18  20
ENDBRANCH  13  18
ENDBRANCH  11  12
ENDBRANCH   1  11
TORSDOF 12
ENDMDL
MODEL 15
REMARK VINA RESULT:    -7.083      1.695      2.177
REMARK INTER + INTRA:         -13.506
REMARK INTER:                 -12.032
REMARK INTRA:                  -1.474
REMARK UNBOUND:                -1.661
REMARK SMILES CCCNCC(O)COc1ccccc1C(=O)CCc1ccccc1
REMARK SMILES IDX 8 1 6 2 5 3 4 4 3 6 2 7 1 8 7 9 9 11 10 12 15 13 11 14 14 15
REMARK SMILES IDX 12 16 13 17 16 18 17 19 18 20 19 21 20 22 21 23 25 24 22 25
REMARK SMILES IDX 24 26 23 27
REMARK H PARENT 4 5 7 10
REMARK Flexibility Score: inf
ROOT
ATOM      1  C   UNL     1      20.522  38.960  -9.566  1.00  0.00     0.262 C 
ENDROOT
BRANCH   1   2
ATOM      2  C   UNL     1      21.759  39.525  -8.854  1.00  0.00     0.165 C 
BRANCH   2   3
ATOM      3  C   UNL     1      21.654  39.349  -7.318  1.00  0.00     0.116 C 
BRANCH   3   4
ATOM      4  N   UNL     1      21.409  37.955  -6.912  1.00  0.00    -0.314 NA
ATOM      5  H   UNL     1      20.394  37.725  -7.030  1.00  0.00     0.122 HD
BRANCH   4   6
ATOM      6  C   UNL     1      21.808  37.696  -5.522  1.00  0.00     0.081 C 
BRANCH   6   7
ATOM      7  C   UNL     1      22.378  38.967  -4.887  1.00  0.00     0.012 C 
ATOM      8  C   UNL     1      23.689  38.700  -4.150  1.00  0.00     0.005 C 
ENDBRANCH   6   7
ENDBRANCH   4   6
ENDBRANCH   3   4
ENDBRANCH   2   3
BRANCH   2   9
ATOM      9  O   UNL     1      21.938  40.876  -9.196  1.00  0.00    -0.388 OA
ATOM     10  H   UNL     1      21.876  41.408  -8.360  1.00  0.00     0.211 HD
ENDBRANCH   2   9
ENDBRANCH   1   2
BRANCH   1  11
ATOM     11  O   UNL     1      20.862  37.746 -10.230  1.00  0.00    -0.490 OA
BRANCH  11  12
ATOM     12  C   UNL     1      21.479  37.660 -11.489  1.00  0.00     0.130 A 
ATOM     13  C   UNL     1      22.403  36.615 -11.739  1.00  0.00     0.060 A 
ATOM     14  C   UNL     1      21.187  38.586 -12.511  1.00  0.00     0.047 A 
ATOM     15  C   UNL     1      23.003  36.524 -13.011  1.00  0.00     0.016 A 
ATOM     16  C   UNL     1      21.793  38.476 -13.762  1.00  0.00     0.004 A 
ATOM     17  C   UNL     1      22.698  37.447 -14.012  1.00  0.00     0.001 A 
BRANCH  13  18
ATOM     18  C   UNL     1      22.744  35.627 -10.673  1.00  0.00     0.166 C 
ATOM     19  O   UNL     1      22.320  34.442 -10.758  1.00  0.00    -0.294 OA
BRANCH  18  20
ATOM     20  C   UNL     1      23.561  35.998  -9.466  1.00  0.00     0.086 C 
BRANCH  20  21
ATOM     21  C   UNL     1      24.884  35.226  -9.445  1.00  0.00     0.044 C 
BRANCH  21  22
ATOM     22  C   UNL     1      25.351  35.018  -8.030  1.00  0.00    -0.048 A 
ATOM     23  C   UNL     1      25.978  33.816  -7.662  1.00  0.00     0.004 A 
ATOM     24  C   UNL     1      25.113  35.999  -7.053  1.00  0.00     0.004 A 
ATOM     25  C   UNL     1      26.382  33.609  -6.339  1.00  0.00     0.000 A 
ATOM     26  C   UNL     1      25.519  35.787  -5.731  1.00  0.00     0.000 A 
ATOM     27  C   UNL     1      26.154  34.595  -5.375  1.00  0.00     0.000 A 
ENDBRANCH  21  22
ENDBRANCH  20  21
ENDBRANCH  18  20
ENDBRANCH  13  18
ENDBRANCH  11  12
ENDBRANCH   1  11
TORSDOF 12
ENDMDL
