MODEL 1
REMARK VINA RESULT:    -8.811      0.000      0.000
REMARK INTER + INTRA:         -13.820
REMARK INTER:                 -12.674
REMARK INTRA:                  -1.146
REMARK UNBOUND:                -1.146
REMARK SMILES Cc1nc(Nc2ncc(C(=O)Nc3c(C)cccc3Cl)s2)cc(N2CCN(CCO)CC2)n1
REMARK SMILES IDX 1 1 2 2 3 3 4 4 22 5 23 6 33 7 5 8 6 10 7 11 21 12 8 13 9 14
REMARK SMILES IDX 10 15 11 16 12 17 13 19 14 20 19 21 15 22 16 23 18 24 20 25
REMARK SMILES IDX 17 26 24 27 25 28 32 29 26 30 31 31 27 32 28 33 29 34 30 35
REMARK H PARENT 5 9 12 18 30 36
REMARK Flexibility Score: inf
ROOT
ATOM      1  C   UNL     1      11.243  26.864  39.146  1.00  0.00     0.090 C 
ATOM      2  C   UNL     1      12.425  26.014  39.472  1.00  0.00     0.130 A 
ATOM      3  N   UNL     1      13.424  26.506  40.250  1.00  0.00    -0.216 NA
ATOM      4  C   UNL     1      14.503  25.745  40.580  1.00  0.00     0.137 A 
ATOM      5  C   UNL     1      14.582  24.427  40.116  1.00  0.00     0.094 A 
ATOM      6  C   UNL     1      13.552  23.933  39.301  1.00  0.00     0.134 A 
ATOM      7  N   UNL     1      12.488  24.735  39.017  1.00  0.00    -0.216 NA
ENDROOT
BRANCH   4   8
ATOM      8  N   UNL     1      15.538  26.274  41.426  1.00  0.00    -0.316 N 
ATOM      9  H   UNL     1      15.303  26.520  42.412  1.00  0.00     0.170 HD
BRANCH   8  10
ATOM     10  C   UNL     1      16.905  26.406  41.016  1.00  0.00     0.189 A 
ATOM     11  N   UNL     1      17.471  27.574  40.637  1.00  0.00    -0.228 NA
ATOM     12  S   UNL     1      17.966  25.111  40.846  1.00  0.00    -0.091 S 
ATOM     13  C   UNL     1      18.757  27.402  40.229  1.00  0.00     0.139 A 
ATOM     14  C   UNL     1      19.216  26.089  40.277  1.00  0.00     0.114 A 
BRANCH  14  15
ATOM     15  C   UNL     1      20.555  25.632  39.863  1.00  0.00     0.267 C 
ATOM     16  O   UNL     1      21.378  26.469  39.396  1.00  0.00    -0.268 OA
ATOM     17  N   UNL     1      20.932  24.255  39.997  1.00  0.00    -0.320 N 
ATOM     18  H   UNL     1      20.363  23.623  40.605  1.00  0.00     0.170 HD
BRANCH  17  19
ATOM     19  C   UNL     1      22.186  23.768  39.493  1.00  0.00     0.063 A 
ATOM     20  C   UNL     1      23.303  23.659  40.355  1.00  0.00    -0.026 A 
ATOM     21  C   UNL     1      22.307  23.378  38.142  1.00  0.00     0.064 A 
ATOM     22  C   UNL     1      23.192  24.045  41.807  1.00  0.00     0.046 C 
ATOM     23  C   UNL     1      24.524  23.183  39.847  1.00  0.00     0.005 A 
ATOM     24  C   UNL     1      23.530  22.905  37.653  1.00  0.00     0.023 A 
ATOM     25  Cl  UNL     1      20.926  23.428  37.048  1.00  0.00    -0.082 Cl
ATOM     26  C   UNL     1      24.637  22.814  38.502  1.00  0.00     0.002 A 
ENDBRANCH  17  19
ENDBRANCH  14  15
ENDBRANCH   8  10
ENDBRANCH   4   8
BRANCH   6  27
ATOM     27  N   UNL     1      13.579  22.581  38.808  1.00  0.00    -0.354 N 
ATOM     28  C   UNL     1      13.888  22.336  37.396  1.00  0.00     0.133 C 
ATOM     29  C   UNL     1      13.468  21.431  39.712  1.00  0.00     0.133 C 
ATOM     30  C   UNL     1      13.665  20.855  37.039  1.00  0.00     0.106 C 
ATOM     31  C   UNL     1      12.462  20.406  39.154  1.00  0.00     0.106 C 
ATOM     32  N   UNL     1      12.430  20.333  37.665  1.00  0.00    -0.298 NA
BRANCH  32  33
ATOM     33  C   UNL     1      11.206  20.944  37.083  1.00  0.00     0.112 C 
BRANCH  33  34
ATOM     34  C   UNL     1      10.333  21.562  38.181  1.00  0.00     0.171 C 
BRANCH  34  35
ATOM     35  O   UNL     1      10.134  22.931  37.952  1.00  0.00    -0.395 OA
ATOM     36  H   UNL     1       9.679  23.297  38.762  1.00  0.00     0.210 HD
ENDBRANCH  34  35
ENDBRANCH  33  34
ENDBRANCH  32  33
ENDBRANCH   6  27
TORSDOF 8
ENDMDL
MODEL 2
REMARK VINA RESULT:    -8.404      5.995     11.676
REMARK INTER + INTRA:         -13.235
REMARK INTER:                 -12.384
REMARK INTRA:                  -0.851
REMARK UNBOUND:                -1.146
REMARK SMILES Cc1nc(Nc2ncc(C(=O)Nc3c(C)cccc3Cl)s2)cc(N2CCN(CCO)CC2)n1
REMARK SMILES IDX 1 1 2 2 3 3 4 4 22 5 23 6 33 7 5 8 6 10 7 11 21 12 8 13 9 14
REMARK SMILES IDX 10 15 11 16 12 17 13 19 14 20 19 21 15 22 16 23 18 24 20 25
REMARK SMILES IDX 17 26 24 27 25 28 32 29 26 30 31 31 27 32 28 33 29 34 30 35
REMARK H PARENT 5 9 12 18 30 36
REMARK Flexibility Score: inf
ROOT
ATOM      1  C   UNL     1      26.213  24.635  32.558  1.00  0.00     0.090 C 
ATOM      2  C   UNL     1      26.223  23.337  33.291  1.00  0.00     0.130 A 
ATOM      3  N   UNL     1      25.758  23.270  34.565  1.00  0.00    -0.216 NA
ATOM      4  C   UNL     1      25.737  22.094  35.250  1.00  0.00     0.137 A 
ATOM      5  C   UNL     1      26.195  20.928  34.626  1.00  0.00     0.094 A 
ATOM      6  C   UNL     1      26.686  21.009  33.315  1.00  0.00     0.134 A 
ATOM      7  N   UNL     1      26.668  22.210  32.673  1.00  0.00    -0.216 NA
ENDROOT
BRANCH   4   8
ATOM      8  N   UNL     1      25.217  22.038  36.589  1.00  0.00    -0.316 N 
ATOM      9  H   UNL     1      25.527  21.262  37.215  1.00  0.00     0.170 HD
BRANCH   8  10
ATOM     10  C   UNL     1      24.355  23.038  37.147  1.00  0.00     0.189 A 
ATOM     11  N   UNL     1      24.794  24.120  37.828  1.00  0.00    -0.228 NA
ATOM     12  S   UNL     1      22.675  22.948  37.127  1.00  0.00    -0.091 S 
ATOM     13  C   UNL     1      23.764  24.865  38.309  1.00  0.00     0.139 A 
ATOM     14  C   UNL     1      22.496  24.370  38.016  1.00  0.00     0.114 A 
BRANCH  14  15
ATOM     15  C   UNL     1      21.220  24.970  38.445  1.00  0.00     0.267 C 
ATOM     16  O   UNL     1      20.198  24.845  37.712  1.00  0.00    -0.268 OA
ATOM     17  N   UNL     1      21.127  25.682  39.687  1.00  0.00    -0.320 N 
ATOM     18  H   UNL     1      21.882  25.572  40.399  1.00  0.00     0.170 HD
BRANCH  17  19
ATOM     19  C   UNL     1      19.926  26.373  40.068  1.00  0.00     0.063 A 
ATOM     20  C   UNL     1      19.873  27.785  40.015  1.00  0.00    -0.026 A 
ATOM     21  C   UNL     1      18.788  25.646  40.480  1.00  0.00     0.064 A 
ATOM     22  C   UNL     1      21.066  28.582  39.556  1.00  0.00     0.046 C 
ATOM     23  C   UNL     1      18.691  28.446  40.393  1.00  0.00     0.005 A 
ATOM     24  C   UNL     1      17.619  26.321  40.851  1.00  0.00     0.023 A 
ATOM     25  Cl  UNL     1      18.783  23.883  40.493  1.00  0.00    -0.082 Cl
ATOM     26  C   UNL     1      17.574  27.717  40.815  1.00  0.00     0.002 A 
ENDBRANCH  17  19
ENDBRANCH  14  15
ENDBRANCH   8  10
ENDBRANCH   4   8
BRANCH   6  27
ATOM     27  N   UNL     1      27.157  19.837  32.624  1.00  0.00    -0.354 N 
ATOM     28  C   UNL     1      26.484  19.408  31.395  1.00  0.00     0.133 C 
ATOM     29  C   UNL     1      28.394  19.155  33.022  1.00  0.00     0.133 C 
ATOM     30  C   UNL     1      27.010  18.035  30.937  1.00  0.00     0.106 C 
ATOM     31  C   UNL     1      28.168  17.633  33.086  1.00  0.00     0.106 C 
ATOM     32  N   UNL     1      27.189  17.119  32.084  1.00  0.00    -0.298 NA
BRANCH  32  33
ATOM     33  C   UNL     1      25.892  16.726  32.694  1.00  0.00     0.112 C 
BRANCH  33  34
ATOM     34  C   UNL     1      26.004  16.675  34.222  1.00  0.00     0.171 C 
BRANCH  34  35
ATOM     35  O   UNL     1      25.099  17.564  34.821  1.00  0.00    -0.395 OA
ATOM     36  H   UNL     1      24.577  17.986  34.082  1.00  0.00     0.210 HD
ENDBRANCH  34  35
ENDBRANCH  33  34
ENDBRANCH  32  33
ENDBRANCH   6  27
TORSDOF 8
ENDMDL
MODEL 3
REMARK VINA RESULT:    -8.319      6.571     12.398
REMARK INTER + INTRA:         -13.112
REMARK INTER:                 -12.403
REMARK INTRA:                  -0.709
REMARK UNBOUND:                -1.146
REMARK SMILES Cc1nc(Nc2ncc(C(=O)Nc3c(C)cccc3Cl)s2)cc(N2CCN(CCO)CC2)n1
REMARK SMILES IDX 1 1 2 2 3 3 4 4 22 5 23 6 33 7 5 8 6 10 7 11 21 12 8 13 9 14
REMARK SMILES IDX 10 15 11 16 12 17 13 19 14 20 19 21 15 22 16 23 18 24 20 25
REMARK SMILES IDX 17 26 24 27 25 28 32 29 26 30 31 31 27 32 28 33 29 34 30 35
REMARK H PARENT 5 9 12 18 30 36
REMARK Flexibility Score: inf
ROOT
ATOM      1  C   UNL     1      26.201  24.641  32.508  1.00  0.00     0.090 C 
ATOM      2  C   UNL     1      26.209  23.332  33.221  1.00  0.00     0.130 A 
ATOM      3  N   UNL     1      25.757  23.249  34.500  1.00  0.00    -0.216 NA
ATOM      4  C   UNL     1      25.733  22.064  35.167  1.00  0.00     0.137 A 
ATOM      5  C   UNL     1      26.176  20.904  34.521  1.00  0.00     0.094 A 
ATOM      6  C   UNL     1      26.655  21.001  33.206  1.00  0.00     0.134 A 
ATOM      7  N   UNL     1      26.639  22.212  32.582  1.00  0.00    -0.216 NA
ENDROOT
BRANCH   4   8
ATOM      8  N   UNL     1      25.227  21.991  36.510  1.00  0.00    -0.316 N 
ATOM      9  H   UNL     1      25.539  21.206  37.123  1.00  0.00     0.170 HD
BRANCH   8  10
ATOM     10  C   UNL     1      24.376  22.988  37.091  1.00  0.00     0.189 A 
ATOM     11  N   UNL     1      24.827  24.048  37.798  1.00  0.00    -0.228 NA
ATOM     12  S   UNL     1      22.695  22.918  37.068  1.00  0.00    -0.091 S 
ATOM     13  C   UNL     1      23.805  24.794  38.296  1.00  0.00     0.139 A 
ATOM     14  C   UNL     1      22.532  24.321  37.990  1.00  0.00     0.114 A 
BRANCH  14  15
ATOM     15  C   UNL     1      21.263  24.925  38.432  1.00  0.00     0.267 C 
ATOM     16  O   UNL     1      20.239  24.825  37.698  1.00  0.00    -0.268 OA
ATOM     17  N   UNL     1      21.178  25.615  39.688  1.00  0.00    -0.320 N 
ATOM     18  H   UNL     1      21.933  25.483  40.397  1.00  0.00     0.170 HD
BRANCH  17  19
ATOM     19  C   UNL     1      19.985  26.310  40.083  1.00  0.00     0.063 A 
ATOM     20  C   UNL     1      19.945  27.723  40.055  1.00  0.00    -0.026 A 
ATOM     21  C   UNL     1      18.840  25.586  40.485  1.00  0.00     0.064 A 
ATOM     22  C   UNL     1      21.144  28.516  39.607  1.00  0.00     0.046 C 
ATOM     23  C   UNL     1      18.770  28.389  40.448  1.00  0.00     0.005 A 
ATOM     24  C   UNL     1      17.680  26.266  40.872  1.00  0.00     0.023 A 
ATOM     25  Cl  UNL     1      18.819  23.824  40.469  1.00  0.00    -0.082 Cl
ATOM     26  C   UNL     1      17.647  27.663  40.859  1.00  0.00     0.002 A 
ENDBRANCH  17  19
ENDBRANCH  14  15
ENDBRANCH   8  10
ENDBRANCH   4   8
BRANCH   6  27
ATOM     27  N   UNL     1      27.109  19.836  32.493  1.00  0.00    -0.354 N 
ATOM     28  C   UNL     1      28.348  19.174  32.912  1.00  0.00     0.133 C 
ATOM     29  C   UNL     1      26.284  19.195  31.463  1.00  0.00     0.133 C 
ATOM     30  C   UNL     1      28.753  18.087  31.900  1.00  0.00     0.106 C 
ATOM     31  C   UNL     1      27.130  18.888  30.213  1.00  0.00     0.106 C 
ATOM     32  N   UNL     1      28.552  18.547  30.508  1.00  0.00    -0.298 NA
BRANCH  32  33
ATOM     33  C   UNL     1      29.496  19.634  30.137  1.00  0.00     0.112 C 
BRANCH  33  34
ATOM     34  C   UNL     1      28.767  20.752  29.383  1.00  0.00     0.171 C 
BRANCH  34  35
ATOM     35  O   UNL     1      29.270  20.888  28.081  1.00  0.00    -0.395 OA
ATOM     36  H   UNL     1      30.260  20.773  28.140  1.00  0.00     0.210 HD
ENDBRANCH  34  35
ENDBRANCH  33  34
ENDBRANCH  32  33
ENDBRANCH   6  27
TORSDOF 8
ENDMDL
MODEL 4
REMARK VINA RESULT:    -8.224      8.340     13.478
REMARK INTER + INTRA:         -12.975
REMARK INTER:                 -12.504
REMARK INTRA:                  -0.471
REMARK UNBOUND:                -1.146
REMARK SMILES Cc1nc(Nc2ncc(C(=O)Nc3c(C)cccc3Cl)s2)cc(N2CCN(CCO)CC2)n1
REMARK SMILES IDX 1 1 2 2 3 3 4 4 22 5 23 6 33 7 5 8 6 10 7 11 21 12 8 13 9 14
REMARK SMILES IDX 10 15 11 16 12 17 13 19 14 20 19 21 15 22 16 23 18 24 20 25
REMARK SMILES IDX 17 26 24 27 25 28 32 29 26 30 31 31 27 32 28 33 29 34 30 35
REMARK H PARENT 5 9 12 18 30 36
REMARK Flexibility Score: inf
ROOT
ATOM      1  C   UNL     1      30.392  19.769  28.585  1.00  0.00     0.090 C 
ATOM      2  C   UNL     1      29.276  19.627  29.563  1.00  0.00     0.130 A 
ATOM      3  N   UNL     1      28.742  20.729  30.153  1.00  0.00    -0.216 NA
ATOM      4  C   UNL     1      27.710  20.631  31.033  1.00  0.00     0.137 A 
ATOM      5  C   UNL     1      27.180  19.370  31.332  1.00  0.00     0.094 A 
ATOM      6  C   UNL     1      27.747  18.237  30.730  1.00  0.00     0.134 A 
ATOM      7  N   UNL     1      28.768  18.398  29.843  1.00  0.00    -0.216 NA
ENDROOT
BRANCH   4   8
ATOM      8  N   UNL     1      27.141  21.810  31.627  1.00  0.00    -0.316 N 
ATOM      9  H   UNL     1      26.974  22.645  31.024  1.00  0.00     0.170 HD
BRANCH   8  10
ATOM     10  C   UNL     1      26.709  21.880  32.992  1.00  0.00     0.189 A 
ATOM     11  N   UNL     1      26.615  20.808  33.811  1.00  0.00    -0.228 NA
ATOM     12  S   UNL     1      26.155  23.285  33.732  1.00  0.00    -0.091 S 
ATOM     13  C   UNL     1      26.110  21.146  35.028  1.00  0.00     0.139 A 
ATOM     14  C   UNL     1      25.794  22.494  35.176  1.00  0.00     0.114 A 
BRANCH  14  15
ATOM     15  C   UNL     1      25.207  23.110  36.380  1.00  0.00     0.267 C 
ATOM     16  O   UNL     1      25.530  24.290  36.693  1.00  0.00    -0.268 OA
ATOM     17  N   UNL     1      24.268  22.387  37.189  1.00  0.00    -0.320 N 
ATOM     18  H   UNL     1      23.812  21.529  36.803  1.00  0.00     0.170 HD
BRANCH  17  19
ATOM     19  C   UNL     1      23.774  22.923  38.426  1.00  0.00     0.063 A 
ATOM     20  C   UNL     1      22.424  23.332  38.534  1.00  0.00    -0.026 A 
ATOM     21  C   UNL     1      24.627  23.029  39.546  1.00  0.00     0.064 A 
ATOM     22  C   UNL     1      21.488  23.206  37.360  1.00  0.00     0.046 C 
ATOM     23  C   UNL     1      21.956  23.857  39.751  1.00  0.00     0.005 A 
ATOM     24  C   UNL     1      24.143  23.553  40.751  1.00  0.00     0.023 A 
ATOM     25  Cl  UNL     1      26.296  22.467  39.482  1.00  0.00    -0.082 Cl
ATOM     26  C   UNL     1      22.814  23.972  40.850  1.00  0.00     0.002 A 
ENDBRANCH  17  19
ENDBRANCH  14  15
ENDBRANCH   8  10
ENDBRANCH   4   8
BRANCH   6  27
ATOM     27  N   UNL     1      27.231  16.919  30.994  1.00  0.00    -0.354 N 
ATOM     28  C   UNL     1      25.938  16.526  30.427  1.00  0.00     0.133 C 
ATOM     29  C   UNL     1      28.038  15.900  31.676  1.00  0.00     0.133 C 
ATOM     30  C   UNL     1      25.485  15.168  30.995  1.00  0.00     0.106 C 
ATOM     31  C   UNL     1      27.207  15.205  32.771  1.00  0.00     0.106 C 
ATOM     32  N   UNL     1      25.757  15.075  32.446  1.00  0.00    -0.298 NA
BRANCH  32  33
ATOM     33  C   UNL     1      24.903  16.001  33.235  1.00  0.00     0.112 C 
BRANCH  33  34
ATOM     34  C   UNL     1      25.647  16.498  34.480  1.00  0.00     0.171 C 
BRANCH  34  35
ATOM     35  O   UNL     1      24.930  17.521  35.117  1.00  0.00    -0.395 OA
ATOM     36  H   UNL     1      25.046  18.344  34.563  1.00  0.00     0.210 HD
ENDBRANCH  34  35
ENDBRANCH  33  34
ENDBRANCH  32  33
ENDBRANCH   6  27
TORSDOF 8
ENDMDL
MODEL 5
REMARK VINA RESULT:    -8.205      6.448     12.297
REMARK INTER + INTRA:         -12.949
REMARK INTER:                 -12.047
REMARK INTRA:                  -0.902
REMARK UNBOUND:                -1.146
REMARK SMILES Cc1nc(Nc2ncc(C(=O)Nc3c(C)cccc3Cl)s2)cc(N2CCN(CCO)CC2)n1
REMARK SMILES IDX 1 1 2 2 3 3 4 4 22 5 23 6 33 7 5 8 6 10 7 11 21 12 8 13 9 14
REMARK SMILES IDX 10 15 11 16 12 17 13 19 14 20 19 21 15 22 16 23 18 24 20 25
REMARK SMILES IDX 17 26 24 27 25 28 32 29 26 30 31 31 27 32 28 33 29 34 30 35
REMARK H PARENT 5 9 12 18 30 36
REMARK Flexibility Score: inf
ROOT
ATOM      1  C   UNL     1      26.197  24.627  32.491  1.00  0.00     0.090 C 
ATOM      2  C   UNL     1      26.210  23.326  33.219  1.00  0.00     0.130 A 
ATOM      3  N   UNL     1      25.761  23.256  34.499  1.00  0.00    -0.216 NA
ATOM      4  C   UNL     1      25.743  22.078  35.180  1.00  0.00     0.137 A 
ATOM      5  C   UNL     1      26.188  20.912  34.546  1.00  0.00     0.094 A 
ATOM      6  C   UNL     1      26.663  20.996  33.229  1.00  0.00     0.134 A 
ATOM      7  N   UNL     1      26.642  22.200  32.591  1.00  0.00    -0.216 NA
ENDROOT
BRANCH   4   8
ATOM      8  N   UNL     1      25.240  22.019  36.525  1.00  0.00    -0.316 N 
ATOM      9  H   UNL     1      25.571  21.253  37.151  1.00  0.00     0.170 HD
BRANCH   8  10
ATOM     10  C   UNL     1      24.367  23.006  37.088  1.00  0.00     0.189 A 
ATOM     11  N   UNL     1      24.793  24.087  37.779  1.00  0.00    -0.228 NA
ATOM     12  S   UNL     1      22.688  22.901  37.062  1.00  0.00    -0.091 S 
ATOM     13  C   UNL     1      23.754  24.818  38.263  1.00  0.00     0.139 A 
ATOM     14  C   UNL     1      22.492  24.314  37.961  1.00  0.00     0.114 A 
BRANCH  14  15
ATOM     15  C   UNL     1      21.209  24.898  38.391  1.00  0.00     0.267 C 
ATOM     16  O   UNL     1      20.198  24.794  37.641  1.00  0.00    -0.268 OA
ATOM     17  N   UNL     1      21.097  25.572  39.653  1.00  0.00    -0.320 N 
ATOM     18  H   UNL     1      21.844  25.441  40.372  1.00  0.00     0.170 HD
BRANCH  17  19
ATOM     19  C   UNL     1      19.890  26.248  40.038  1.00  0.00     0.063 A 
ATOM     20  C   UNL     1      18.767  25.504  40.471  1.00  0.00    -0.026 A 
ATOM     21  C   UNL     1      19.823  27.658  40.005  1.00  0.00     0.064 A 
ATOM     22  C   UNL     1      18.823  24.000  40.539  1.00  0.00     0.046 C 
ATOM     23  C   UNL     1      17.592  26.181  40.842  1.00  0.00     0.005 A 
ATOM     24  C   UNL     1      18.645  28.314  40.380  1.00  0.00     0.023 A 
ATOM     25  Cl  UNL     1      21.218  28.630  39.542  1.00  0.00    -0.082 Cl
ATOM     26  C   UNL     1      17.531  27.577  40.791  1.00  0.00     0.002 A 
ENDBRANCH  17  19
ENDBRANCH  14  15
ENDBRANCH   8  10
ENDBRANCH   4   8
BRANCH   6  27
ATOM     27  N   UNL     1      27.120  19.825  32.527  1.00  0.00    -0.354 N 
ATOM     28  C   UNL     1      28.431  19.256  32.854  1.00  0.00     0.133 C 
ATOM     29  C   UNL     1      26.243  19.086  31.612  1.00  0.00     0.133 C 
ATOM     30  C   UNL     1      28.806  18.145  31.857  1.00  0.00     0.106 C 
ATOM     31  C   UNL     1      26.986  18.767  30.301  1.00  0.00     0.106 C 
ATOM     32  N   UNL     1      28.447  18.522  30.472  1.00  0.00    -0.298 NA
BRANCH  32  33
ATOM     33  C   UNL     1      29.283  19.642  29.964  1.00  0.00     0.112 C 
BRANCH  33  34
ATOM     34  C   UNL     1      28.414  20.695  29.266  1.00  0.00     0.171 C 
BRANCH  34  35
ATOM     35  O   UNL     1      28.373  21.882  30.011  1.00  0.00    -0.395 OA
ATOM     36  H   UNL     1      29.209  22.385  29.800  1.00  0.00     0.210 HD
ENDBRANCH  34  35
ENDBRANCH  33  34
ENDBRANCH  32  33
ENDBRANCH   6  27
TORSDOF 8
ENDMDL
MODEL 6
REMARK VINA RESULT:    -8.168      2.231      4.436
REMARK INTER + INTRA:         -12.896
REMARK INTER:                 -11.884
REMARK INTRA:                  -1.012
REMARK UNBOUND:                -1.146
REMARK SMILES Cc1nc(Nc2ncc(C(=O)Nc3c(C)cccc3Cl)s2)cc(N2CCN(CCO)CC2)n1
REMARK SMILES IDX 1 1 2 2 3 3 4 4 22 5 23 6 33 7 5 8 6 10 7 11 21 12 8 13 9 14
REMARK SMILES IDX 10 15 11 16 12 17 13 19 14 20 19 21 15 22 16 23 18 24 20 25
REMARK SMILES IDX 17 26 24 27 25 28 32 29 26 30 31 31 27 32 28 33 29 34 30 35
REMARK H PARENT 5 9 12 18 30 36
REMARK Flexibility Score: inf
ROOT
ATOM      1  C   UNL     1      13.845  23.225  38.518  1.00  0.00     0.090 C 
ATOM      2  C   UNL     1      13.641  24.458  39.331  1.00  0.00     0.130 A 
ATOM      3  N   UNL     1      14.665  24.968  40.064  1.00  0.00    -0.216 NA
ATOM      4  C   UNL     1      14.513  26.103  40.799  1.00  0.00     0.137 A 
ATOM      5  C   UNL     1      13.279  26.764  40.793  1.00  0.00     0.094 A 
ATOM      6  C   UNL     1      12.223  26.223  40.045  1.00  0.00     0.134 A 
ATOM      7  N   UNL     1      12.439  25.092  39.315  1.00  0.00    -0.216 NA
ENDROOT
BRANCH   4   8
ATOM      8  N   UNL     1      15.614  26.642  41.548  1.00  0.00    -0.316 N 
ATOM      9  H   UNL     1      15.452  26.944  42.534  1.00  0.00     0.170 HD
BRANCH   8  10
ATOM     10  C   UNL     1      16.955  26.713  41.045  1.00  0.00     0.189 A 
ATOM     11  N   UNL     1      17.483  27.808  40.454  1.00  0.00    -0.228 NA
ATOM     12  S   UNL     1      18.020  25.411  41.020  1.00  0.00    -0.091 S 
ATOM     13  C   UNL     1      18.746  27.579  40.005  1.00  0.00     0.139 A 
ATOM     14  C   UNL     1      19.224  26.292  40.233  1.00  0.00     0.114 A 
BRANCH  14  15
ATOM     15  C   UNL     1      20.544  25.780  39.821  1.00  0.00     0.267 C 
ATOM     16  O   UNL     1      21.408  26.585  39.372  1.00  0.00    -0.268 OA
ATOM     17  N   UNL     1      20.856  24.385  39.933  1.00  0.00    -0.320 N 
ATOM     18  H   UNL     1      20.254  23.770  40.527  1.00  0.00     0.170 HD
BRANCH  17  19
ATOM     19  C   UNL     1      22.090  23.848  39.430  1.00  0.00     0.063 A 
ATOM     20  C   UNL     1      23.208  23.718  40.286  1.00  0.00    -0.026 A 
ATOM     21  C   UNL     1      22.188  23.432  38.084  1.00  0.00     0.064 A 
ATOM     22  C   UNL     1      23.121  24.132  41.731  1.00  0.00     0.046 C 
ATOM     23  C   UNL     1      24.409  23.194  39.777  1.00  0.00     0.005 A 
ATOM     24  C   UNL     1      23.392  22.911  37.596  1.00  0.00     0.023 A 
ATOM     25  Cl  UNL     1      20.801  23.508  36.999  1.00  0.00    -0.082 Cl
ATOM     26  C   UNL     1      24.501  22.799  38.438  1.00  0.00     0.002 A 
ENDBRANCH  17  19
ENDBRANCH  14  15
ENDBRANCH   8  10
ENDBRANCH   4   8
BRANCH   6  27
ATOM     27  N   UNL     1      10.939  26.870  39.995  1.00  0.00    -0.354 N 
ATOM     28  C   UNL     1      10.536  27.577  38.775  1.00  0.00     0.133 C 
ATOM     29  C   UNL     1       9.952  26.704  41.068  1.00  0.00     0.133 C 
ATOM     30  C   UNL     1       9.232  28.361  39.006  1.00  0.00     0.106 C 
ATOM     31  C   UNL     1       9.353  28.069  41.460  1.00  0.00     0.106 C 
ATOM     32  N   UNL     1       9.233  29.030  40.325  1.00  0.00    -0.298 NA
BRANCH  32  33
ATOM     33  C   UNL     1      10.231  30.130  40.393  1.00  0.00     0.112 C 
BRANCH  33  34
ATOM     34  C   UNL     1      11.073  30.022  41.670  1.00  0.00     0.171 C 
BRANCH  34  35
ATOM     35  O   UNL     1      12.442  30.087  41.374  1.00  0.00    -0.395 OA
ATOM     36  H   UNL     1      12.621  29.395  40.677  1.00  0.00     0.210 HD
ENDBRANCH  34  35
ENDBRANCH  33  34
ENDBRANCH  32  33
ENDBRANCH   6  27
TORSDOF 8
ENDMDL
MODEL 7
REMARK VINA RESULT:    -8.138      5.974     11.626
REMARK INTER + INTRA:         -12.852
REMARK INTER:                 -12.043
REMARK INTRA:                  -0.809
REMARK UNBOUND:                -1.146
REMARK SMILES Cc1nc(Nc2ncc(C(=O)Nc3c(C)cccc3Cl)s2)cc(N2CCN(CCO)CC2)n1
REMARK SMILES IDX 1 1 2 2 3 3 4 4 22 5 23 6 33 7 5 8 6 10 7 11 21 12 8 13 9 14
REMARK SMILES IDX 10 15 11 16 12 17 13 19 14 20 19 21 15 22 16 23 18 24 20 25
REMARK SMILES IDX 17 26 24 27 25 28 32 29 26 30 31 31 27 32 28 33 29 34 30 35
REMARK H PARENT 5 9 12 18 30 36
REMARK Flexibility Score: inf
ROOT
ATOM      1  C   UNL     1      26.211  24.616  32.388  1.00  0.00     0.090 C 
ATOM      2  C   UNL     1      26.295  23.374  33.210  1.00  0.00     0.130 A 
ATOM      3  N   UNL     1      25.994  23.412  34.535  1.00  0.00    -0.216 NA
ATOM      4  C   UNL     1      26.043  22.290  35.303  1.00  0.00     0.137 A 
ATOM      5  C   UNL     1      26.400  21.070  34.716  1.00  0.00     0.094 A 
ATOM      6  C   UNL     1      26.722  21.044  33.351  1.00  0.00     0.134 A 
ATOM      7  N   UNL     1      26.641  22.195  32.628  1.00  0.00    -0.216 NA
ENDROOT
BRANCH   4   8
ATOM      8  N   UNL     1      25.696  22.344  36.697  1.00  0.00    -0.316 N 
ATOM      9  H   UNL     1      26.382  21.987  37.399  1.00  0.00     0.170 HD
BRANCH   8  10
ATOM     10  C   UNL     1      24.490  22.939  37.191  1.00  0.00     0.189 A 
ATOM     11  N   UNL     1      23.358  23.070  36.463  1.00  0.00    -0.228 NA
ATOM     12  S   UNL     1      24.347  23.656  38.707  1.00  0.00    -0.091 S 
ATOM     13  C   UNL     1      22.391  23.735  37.149  1.00  0.00     0.139 A 
ATOM     14  C   UNL     1      22.756  24.142  38.430  1.00  0.00     0.114 A 
BRANCH  14  15
ATOM     15  C   UNL     1      21.906  24.902  39.364  1.00  0.00     0.267 C 
ATOM     16  O   UNL     1      22.137  24.838  40.604  1.00  0.00    -0.268 OA
ATOM     17  N   UNL     1      20.831  25.718  38.877  1.00  0.00    -0.320 N 
ATOM     18  H   UNL     1      20.798  25.972  37.864  1.00  0.00     0.170 HD
BRANCH  17  19
ATOM     19  C   UNL     1      19.921  26.373  39.774  1.00  0.00     0.063 A 
ATOM     20  C   UNL     1      18.894  25.634  40.407  1.00  0.00    -0.026 A 
ATOM     21  C   UNL     1      20.055  27.753  40.043  1.00  0.00     0.064 A 
ATOM     22  C   UNL     1      18.744  24.157  40.155  1.00  0.00     0.046 C 
ATOM     23  C   UNL     1      18.009  26.290  41.280  1.00  0.00     0.005 A 
ATOM     24  C   UNL     1      19.166  28.389  40.917  1.00  0.00     0.023 A 
ATOM     25  Cl  UNL     1      21.362  28.700  39.334  1.00  0.00    -0.082 Cl
ATOM     26  C   UNL     1      18.142  27.661  41.528  1.00  0.00     0.002 A 
ENDBRANCH  17  19
ENDBRANCH  14  15
ENDBRANCH   8  10
ENDBRANCH   4   8
BRANCH   6  27
ATOM     27  N   UNL     1      27.084  19.814  32.697  1.00  0.00    -0.354 N 
ATOM     28  C   UNL     1      26.332  19.379  31.516  1.00  0.00     0.133 C 
ATOM     29  C   UNL     1      28.287  19.065  33.077  1.00  0.00     0.133 C 
ATOM     30  C   UNL     1      26.745  17.955  31.101  1.00  0.00     0.106 C 
ATOM     31  C   UNL     1      27.962  17.566  33.220  1.00  0.00     0.106 C 
ATOM     32  N   UNL     1      26.910  17.079  32.282  1.00  0.00    -0.298 NA
BRANCH  32  33
ATOM     33  C   UNL     1      25.616  16.803  32.959  1.00  0.00     0.112 C 
BRANCH  33  34
ATOM     34  C   UNL     1      25.773  16.880  34.482  1.00  0.00     0.171 C 
BRANCH  34  35
ATOM     35  O   UNL     1      24.859  17.789  35.035  1.00  0.00    -0.395 OA
ATOM     36  H   UNL     1      23.946  17.436  34.838  1.00  0.00     0.210 HD
ENDBRANCH  34  35
ENDBRANCH  33  34
ENDBRANCH  32  33
ENDBRANCH   6  27
TORSDOF 8
ENDMDL
MODEL 8
REMARK VINA RESULT:    -8.095      4.753      8.350
REMARK INTER + INTRA:         -12.790
REMARK INTER:                 -11.806
REMARK INTRA:                  -0.984
REMARK UNBOUND:                -1.146
REMARK SMILES Cc1nc(Nc2ncc(C(=O)Nc3c(C)cccc3Cl)s2)cc(N2CCN(CCO)CC2)n1
REMARK SMILES IDX 1 1 2 2 3 3 4 4 22 5 23 6 33 7 5 8 6 10 7 11 21 12 8 13 9 14
REMARK SMILES IDX 10 15 11 16 12 17 13 19 14 20 19 21 15 22 16 23 18 24 20 25
REMARK SMILES IDX 17 26 24 27 25 28 32 29 26 30 31 31 27 32 28 33 29 34 30 35
REMARK H PARENT 5 9 12 18 30 36
REMARK Flexibility Score: inf
ROOT
ATOM      1  C   UNL     1      11.392  15.262  38.363  1.00  0.00     0.090 C 
ATOM      2  C   UNL     1      11.175  16.578  37.696  1.00  0.00     0.130 A 
ATOM      3  N   UNL     1      12.166  17.507  37.683  1.00  0.00    -0.216 NA
ATOM      4  C   UNL     1      12.003  18.708  37.064  1.00  0.00     0.137 A 
ATOM      5  C   UNL     1      10.792  18.989  36.420  1.00  0.00     0.094 A 
ATOM      6  C   UNL     1       9.769  18.029  36.451  1.00  0.00     0.134 A 
ATOM      7  N   UNL     1       9.996  16.838  37.072  1.00  0.00    -0.216 NA
ENDROOT
BRANCH   4   8
ATOM      8  N   UNL     1      13.071  19.668  37.038  1.00  0.00    -0.316 N 
ATOM      9  H   UNL     1      13.804  19.585  36.299  1.00  0.00     0.170 HD
BRANCH   8  10
ATOM     10  C   UNL     1      13.147  20.793  37.923  1.00  0.00     0.189 A 
ATOM     11  N   UNL     1      12.608  20.818  39.163  1.00  0.00    -0.228 NA
ATOM     12  S   UNL     1      13.822  22.276  37.504  1.00  0.00    -0.091 S 
ATOM     13  C   UNL     1      12.763  22.031  39.756  1.00  0.00     0.139 A 
ATOM     14  C   UNL     1      13.424  22.981  38.983  1.00  0.00     0.114 A 
BRANCH  14  15
ATOM     15  C   UNL     1      13.692  24.376  39.380  1.00  0.00     0.267 C 
ATOM     16  O   UNL     1      13.614  25.292  38.514  1.00  0.00    -0.268 OA
ATOM     17  N   UNL     1      14.029  24.699  40.736  1.00  0.00    -0.320 N 
ATOM     18  H   UNL     1      13.848  23.999  41.490  1.00  0.00     0.170 HD
BRANCH  17  19
ATOM     19  C   UNL     1      14.407  26.031  41.118  1.00  0.00     0.063 A 
ATOM     20  C   UNL     1      15.770  26.410  41.116  1.00  0.00    -0.026 A 
ATOM     21  C   UNL     1      13.420  26.974  41.481  1.00  0.00     0.064 A 
ATOM     22  C   UNL     1      16.838  25.429  40.710  1.00  0.00     0.046 C 
ATOM     23  C   UNL     1      16.123  27.717  41.496  1.00  0.00     0.005 A 
ATOM     24  C   UNL     1      13.791  28.271  41.854  1.00  0.00     0.023 A 
ATOM     25  Cl  UNL     1      11.705  26.570  41.430  1.00  0.00    -0.082 Cl
ATOM     26  C   UNL     1      15.139  28.639  41.868  1.00  0.00     0.002 A 
ENDBRANCH  17  19
ENDBRANCH  14  15
ENDBRANCH   8  10
ENDBRANCH   4   8
BRANCH   6  27
ATOM     27  N   UNL     1       8.510  18.264  35.794  1.00  0.00    -0.354 N 
ATOM     28  C   UNL     1       7.856  17.163  35.080  1.00  0.00     0.133 C 
ATOM     29  C   UNL     1       7.781  19.527  35.957  1.00  0.00     0.133 C 
ATOM     30  C   UNL     1       6.640  17.676  34.287  1.00  0.00     0.106 C 
ATOM     31  C   UNL     1       7.294  20.043  34.589  1.00  0.00     0.106 C 
ATOM     32  N   UNL     1       6.936  18.964  33.623  1.00  0.00    -0.298 NA
BRANCH  32  33
ATOM     33  C   UNL     1       7.933  18.814  32.531  1.00  0.00     0.112 C 
BRANCH  33  34
ATOM     34  C   UNL     1       8.738  20.106  32.349  1.00  0.00     0.171 C 
BRANCH  34  35
ATOM     35  O   UNL     1       8.179  20.907  31.342  1.00  0.00    -0.395 OA
ATOM     36  H   UNL     1       7.344  20.451  31.040  1.00  0.00     0.210 HD
ENDBRANCH  34  35
ENDBRANCH  33  34
ENDBRANCH  32  33
ENDBRANCH   6  27
TORSDOF 8
ENDMDL
MODEL 9
REMARK VINA RESULT:    -8.091      1.758      2.437
REMARK INTER + INTRA:         -12.784
REMARK INTER:                 -11.846
REMARK INTRA:                  -0.939
REMARK UNBOUND:                -1.146
REMARK SMILES Cc1nc(Nc2ncc(C(=O)Nc3c(C)cccc3Cl)s2)cc(N2CCN(CCO)CC2)n1
REMARK SMILES IDX 1 1 2 2 3 3 4 4 22 5 23 6 33 7 5 8 6 10 7 11 21 12 8 13 9 14
REMARK SMILES IDX 10 15 11 16 12 17 13 19 14 20 19 21 15 22 16 23 18 24 20 25
REMARK SMILES IDX 17 26 24 27 25 28 32 29 26 30 31 31 27 32 28 33 29 34 30 35
REMARK H PARENT 5 9 12 18 30 36
REMARK Flexibility Score: inf
ROOT
ATOM      1  C   UNL     1      11.074  27.164  39.681  1.00  0.00     0.090 C 
ATOM      2  C   UNL     1      12.169  26.162  39.829  1.00  0.00     0.130 A 
ATOM      3  N   UNL     1      13.270  26.459  40.567  1.00  0.00    -0.216 NA
ATOM      4  C   UNL     1      14.274  25.555  40.735  1.00  0.00     0.137 A 
ATOM      5  C   UNL     1      14.166  24.291  40.143  1.00  0.00     0.094 A 
ATOM      6  C   UNL     1      13.032  23.999  39.371  1.00  0.00     0.134 A 
ATOM      7  N   UNL     1      12.051  24.937  39.251  1.00  0.00    -0.216 NA
ENDROOT
BRANCH   4   8
ATOM      8  N   UNL     1      15.419  25.878  41.540  1.00  0.00    -0.316 N 
ATOM      9  H   UNL     1      15.307  25.923  42.577  1.00  0.00     0.170 HD
BRANCH   8  10
ATOM     10  C   UNL     1      16.737  26.061  41.006  1.00  0.00     0.189 A 
ATOM     11  N   UNL     1      17.139  27.172  40.350  1.00  0.00    -0.228 NA
ATOM     12  S   UNL     1      17.932  24.877  41.025  1.00  0.00    -0.091 S 
ATOM     13  C   UNL     1      18.412  27.052  39.887  1.00  0.00     0.139 A 
ATOM     14  C   UNL     1      19.025  25.835  40.170  1.00  0.00     0.114 A 
BRANCH  14  15
ATOM     15  C   UNL     1      20.384  25.442  39.756  1.00  0.00     0.267 C 
ATOM     16  O   UNL     1      21.180  26.323  39.324  1.00  0.00    -0.268 OA
ATOM     17  N   UNL     1      20.812  24.076  39.850  1.00  0.00    -0.320 N 
ATOM     18  H   UNL     1      20.261  23.405  40.432  1.00  0.00     0.170 HD
BRANCH  17  19
ATOM     19  C   UNL     1      22.088  23.652  39.344  1.00  0.00     0.063 A 
ATOM     20  C   UNL     1      22.223  23.269  37.989  1.00  0.00    -0.026 A 
ATOM     21  C   UNL     1      23.218  23.633  40.191  1.00  0.00     0.064 A 
ATOM     22  C   UNL     1      21.038  23.305  37.060  1.00  0.00     0.046 C 
ATOM     23  C   UNL     1      23.478  22.855  37.511  1.00  0.00     0.005 A 
ATOM     24  C   UNL     1      24.460  23.219  39.696  1.00  0.00     0.023 A 
ATOM     25  Cl  UNL     1      23.115  24.170  41.867  1.00  0.00    -0.082 Cl
ATOM     26  C   UNL     1      24.588  22.825  38.362  1.00  0.00     0.002 A 
ENDBRANCH  17  19
ENDBRANCH  14  15
ENDBRANCH   8  10
ENDBRANCH   4   8
BRANCH   6  27
ATOM     27  N   UNL     1      12.866  22.710  38.752  1.00  0.00    -0.354 N 
ATOM     28  C   UNL     1      11.593  21.999  38.900  1.00  0.00     0.133 C 
ATOM     29  C   UNL     1      13.875  22.161  37.839  1.00  0.00     0.133 C 
ATOM     30  C   UNL     1      11.700  20.569  38.340  1.00  0.00     0.106 C 
ATOM     31  C   UNL     1      14.167  20.689  38.188  1.00  0.00     0.106 C 
ATOM     32  N   UNL     1      12.987  19.941  38.713  1.00  0.00    -0.298 NA
BRANCH  32  33
ATOM     33  C   UNL     1      13.077  19.673  40.172  1.00  0.00     0.112 C 
BRANCH  33  34
ATOM     34  C   UNL     1      12.963  18.170  40.456  1.00  0.00     0.171 C 
BRANCH  34  35
ATOM     35  O   UNL     1      14.193  17.528  40.256  1.00  0.00    -0.395 OA
ATOM     36  H   UNL     1      14.351  16.950  41.054  1.00  0.00     0.210 HD
ENDBRANCH  34  35
ENDBRANCH  33  34
ENDBRANCH  32  33
ENDBRANCH   6  27
TORSDOF 8
ENDMDL
MODEL 10
REMARK VINA RESULT:    -7.917      2.412      3.356
REMARK INTER + INTRA:         -12.535
REMARK INTER:                 -12.131
REMARK INTRA:                  -0.404
REMARK UNBOUND:                -1.146
REMARK SMILES Cc1nc(Nc2ncc(C(=O)Nc3c(C)cccc3Cl)s2)cc(N2CCN(CCO)CC2)n1
REMARK SMILES IDX 1 1 2 2 3 3 4 4 22 5 23 6 33 7 5 8 6 10 7 11 21 12 8 13 9 14
REMARK SMILES IDX 10 15 11 16 12 17 13 19 14 20 19 21 15 22 16 23 18 24 20 25
REMARK SMILES IDX 17 26 24 27 25 28 32 29 26 30 31 31 27 32 28 33 29 34 30 35
REMARK H PARENT 5 9 12 18 30 36
REMARK Flexibility Score: inf
ROOT
ATOM      1  C   UNL     1      12.606  29.999  43.978  1.00  0.00     0.090 C 
ATOM      2  C   UNL     1      13.296  29.038  43.070  1.00  0.00     0.130 A 
ATOM      3  N   UNL     1      14.557  29.297  42.636  1.00  0.00    -0.216 NA
ATOM      4  C   UNL     1      15.218  28.427  41.824  1.00  0.00     0.137 A 
ATOM      5  C   UNL     1      14.590  27.238  41.435  1.00  0.00     0.094 A 
ATOM      6  C   UNL     1      13.283  26.986  41.877  1.00  0.00     0.134 A 
ATOM      7  N   UNL     1      12.677  27.885  42.702  1.00  0.00    -0.216 NA
ENDROOT
BRANCH   4   8
ATOM      8  N   UNL     1      16.561  28.705  41.395  1.00  0.00    -0.316 N 
ATOM      9  H   UNL     1      16.907  29.689  41.433  1.00  0.00     0.170 HD
BRANCH   8  10
ATOM     10  C   UNL     1      17.490  27.691  40.992  1.00  0.00     0.189 A 
ATOM     11  N   UNL     1      17.272  26.365  41.138  1.00  0.00    -0.228 NA
ATOM     12  S   UNL     1      19.026  28.011  40.382  1.00  0.00    -0.091 S 
ATOM     13  C   UNL     1      18.345  25.630  40.741  1.00  0.00     0.139 A 
ATOM     14  C   UNL     1      19.428  26.376  40.281  1.00  0.00     0.114 A 
BRANCH  14  15
ATOM     15  C   UNL     1      20.716  25.826  39.823  1.00  0.00     0.267 C 
ATOM     16  O   UNL     1      21.564  26.596  39.290  1.00  0.00    -0.268 OA
ATOM     17  N   UNL     1      21.018  24.433  39.988  1.00  0.00    -0.320 N 
ATOM     18  H   UNL     1      20.442  23.858  40.643  1.00  0.00     0.170 HD
BRANCH  17  19
ATOM     19  C   UNL     1      22.216  23.856  39.446  1.00  0.00     0.063 A 
ATOM     20  C   UNL     1      23.360  23.696  40.262  1.00  0.00    -0.026 A 
ATOM     21  C   UNL     1      22.253  23.427  38.101  1.00  0.00     0.064 A 
ATOM     22  C   UNL     1      23.337  24.123  41.707  1.00  0.00     0.046 C 
ATOM     23  C   UNL     1      24.525  23.132  39.716  1.00  0.00     0.005 A 
ATOM     24  C   UNL     1      23.422  22.866  37.574  1.00  0.00     0.023 A 
ATOM     25  Cl  UNL     1      20.831  23.539  37.065  1.00  0.00    -0.082 Cl
ATOM     26  C   UNL     1      24.557  22.725  38.378  1.00  0.00     0.002 A 
ENDBRANCH  17  19
ENDBRANCH  14  15
ENDBRANCH   8  10
ENDBRANCH   4   8
BRANCH   6  27
ATOM     27  N   UNL     1      12.598  25.773  41.517  1.00  0.00    -0.354 N 
ATOM     28  C   UNL     1      12.966  25.079  40.280  1.00  0.00     0.133 C 
ATOM     29  C   UNL     1      11.655  25.122  42.434  1.00  0.00     0.133 C 
ATOM     30  C   UNL     1      11.983  23.931  39.986  1.00  0.00     0.106 C 
ATOM     31  C   UNL     1      10.368  24.725  41.685  1.00  0.00     0.106 C 
ATOM     32  N   UNL     1      10.587  24.337  40.261  1.00  0.00    -0.298 NA
BRANCH  32  33
ATOM     33  C   UNL     1      10.105  25.366  39.302  1.00  0.00     0.112 C 
BRANCH  33  34
ATOM     34  C   UNL     1       9.379  26.498  40.040  1.00  0.00     0.171 C 
BRANCH  34  35
ATOM     35  O   UNL     1       9.680  27.742  39.468  1.00  0.00    -0.395 OA
ATOM     36  H   UNL     1      10.104  27.559  38.583  1.00  0.00     0.210 HD
ENDBRANCH  34  35
ENDBRANCH  33  34
ENDBRANCH  32  33
ENDBRANCH   6  27
TORSDOF 8
ENDMDL
MODEL 11
REMARK VINA RESULT:    -7.892      2.779      4.865
REMARK INTER + INTRA:         -12.498
REMARK INTER:                 -11.937
REMARK INTRA:                  -0.561
REMARK UNBOUND:                -1.146
REMARK SMILES Cc1nc(Nc2ncc(C(=O)Nc3c(C)cccc3Cl)s2)cc(N2CCN(CCO)CC2)n1
REMARK SMILES IDX 1 1 2 2 3 3 4 4 22 5 23 6 33 7 5 8 6 10 7 11 21 12 8 13 9 14
REMARK SMILES IDX 10 15 11 16 12 17 13 19 14 20 19 21 15 22 16 23 18 24 20 25
REMARK SMILES IDX 17 26 24 27 25 28 32 29 26 30 31 31 27 32 28 33 29 34 30 35
REMARK H PARENT 5 9 12 18 30 36
REMARK Flexibility Score: inf
ROOT
ATOM      1  C   UNL     1      13.900  24.410  38.921  1.00  0.00     0.090 C 
ATOM      2  C   UNL     1      13.770  25.576  39.842  1.00  0.00     0.130 A 
ATOM      3  N   UNL     1      14.866  26.069  40.476  1.00  0.00    -0.216 NA
ATOM      4  C   UNL     1      14.780  27.144  41.306  1.00  0.00     0.137 A 
ATOM      5  C   UNL     1      13.539  27.761  41.503  1.00  0.00     0.094 A 
ATOM      6  C   UNL     1      12.410  27.237  40.855  1.00  0.00     0.134 A 
ATOM      7  N   UNL     1      12.560  26.168  40.023  1.00  0.00    -0.216 NA
ENDROOT
BRANCH   4   8
ATOM      8  N   UNL     1      15.954  27.667  41.948  1.00  0.00    -0.316 N 
ATOM      9  H   UNL     1      15.861  28.090  42.897  1.00  0.00     0.170 HD
BRANCH   8  10
ATOM     10  C   UNL     1      17.272  27.568  41.392  1.00  0.00     0.189 A 
ATOM     11  N   UNL     1      17.968  28.620  40.905  1.00  0.00    -0.228 NA
ATOM     12  S   UNL     1      18.091  26.116  41.166  1.00  0.00    -0.091 S 
ATOM     13  C   UNL     1      19.158  28.234  40.373  1.00  0.00     0.139 A 
ATOM     14  C   UNL     1      19.408  26.866  40.429  1.00  0.00     0.114 A 
BRANCH  14  15
ATOM     15  C   UNL     1      20.605  26.189  39.896  1.00  0.00     0.267 C 
ATOM     16  O   UNL     1      21.515  26.877  39.352  1.00  0.00    -0.268 OA
ATOM     17  N   UNL     1      20.749  24.766  40.000  1.00  0.00    -0.320 N 
ATOM     18  H   UNL     1      20.137  24.235  40.660  1.00  0.00     0.170 HD
BRANCH  17  19
ATOM     19  C   UNL     1      21.849  24.076  39.387  1.00  0.00     0.063 A 
ATOM     20  C   UNL     1      21.804  23.751  38.011  1.00  0.00    -0.026 A 
ATOM     21  C   UNL     1      22.988  23.734  40.148  1.00  0.00     0.064 A 
ATOM     22  C   UNL     1      20.611  24.126  37.172  1.00  0.00     0.046 C 
ATOM     23  C   UNL     1      22.888  23.073  37.426  1.00  0.00     0.005 A 
ATOM     24  C   UNL     1      24.058  23.061  39.548  1.00  0.00     0.023 A 
ATOM     25  Cl  UNL     1      23.121  24.181  41.848  1.00  0.00    -0.082 Cl
ATOM     26  C   UNL     1      24.005  22.725  38.193  1.00  0.00     0.002 A 
ENDBRANCH  17  19
ENDBRANCH  14  15
ENDBRANCH   8  10
ENDBRANCH   4   8
BRANCH   6  27
ATOM     27  N   UNL     1      11.114  27.841  41.014  1.00  0.00    -0.354 N 
ATOM     28  C   UNL     1       9.912  27.021  40.844  1.00  0.00     0.133 C 
ATOM     29  C   UNL     1      10.962  29.216  41.504  1.00  0.00     0.133 C 
ATOM     30  C   UNL     1       8.647  27.899  40.855  1.00  0.00     0.106 C 
ATOM     31  C   UNL     1       9.955  29.987  40.630  1.00  0.00     0.106 C 
ATOM     32  N   UNL     1       8.852  29.145  40.084  1.00  0.00    -0.298 NA
BRANCH  32  33
ATOM     33  C   UNL     1       8.993  28.884  38.627  1.00  0.00     0.112 C 
BRANCH  33  34
ATOM     34  C   UNL     1       8.113  29.842  37.816  1.00  0.00     0.171 C 
BRANCH  34  35
ATOM     35  O   UNL     1       6.945  29.201  37.379  1.00  0.00    -0.395 OA
ATOM     36  H   UNL     1       6.196  29.548  37.941  1.00  0.00     0.210 HD
ENDBRANCH  34  35
ENDBRANCH  33  34
ENDBRANCH  32  33
ENDBRANCH   6  27
TORSDOF 8
ENDMDL
MODEL 12
REMARK VINA RESULT:    -7.811      5.084      8.456
REMARK INTER + INTRA:         -12.382
REMARK INTER:                 -11.500
REMARK INTRA:                  -0.882
REMARK UNBOUND:                -1.146
REMARK SMILES Cc1nc(Nc2ncc(C(=O)Nc3c(C)cccc3Cl)s2)cc(N2CCN(CCO)CC2)n1
REMARK SMILES IDX 1 1 2 2 3 3 4 4 22 5 23 6 33 7 5 8 6 10 7 11 21 12 8 13 9 14
REMARK SMILES IDX 10 15 11 16 12 17 13 19 14 20 19 21 15 22 16 23 18 24 20 25
REMARK SMILES IDX 17 26 24 27 25 28 32 29 26 30 31 31 27 32 28 33 29 34 30 35
REMARK H PARENT 5 9 12 18 30 36
REMARK Flexibility Score: inf
ROOT
ATOM      1  C   UNL     1      11.262  15.250  38.371  1.00  0.00     0.090 C 
ATOM      2  C   UNL     1      11.092  16.578  37.716  1.00  0.00     0.130 A 
ATOM      3  N   UNL     1      12.082  17.505  37.788  1.00  0.00    -0.216 NA
ATOM      4  C   UNL     1      11.962  18.718  37.182  1.00  0.00     0.137 A 
ATOM      5  C   UNL     1      10.798  19.014  36.463  1.00  0.00     0.094 A 
ATOM      6  C   UNL     1       9.775  18.056  36.407  1.00  0.00     0.134 A 
ATOM      7  N   UNL     1       9.958  16.853  37.019  1.00  0.00    -0.216 NA
ENDROOT
BRANCH   4   8
ATOM      8  N   UNL     1      13.031  19.676  37.247  1.00  0.00    -0.316 N 
ATOM      9  H   UNL     1      13.853  19.555  36.614  1.00  0.00     0.170 HD
BRANCH   8  10
ATOM     10  C   UNL     1      12.999  20.844  38.077  1.00  0.00     0.189 A 
ATOM     11  N   UNL     1      12.179  20.993  39.141  1.00  0.00    -0.228 NA
ATOM     12  S   UNL     1      13.898  22.235  37.778  1.00  0.00    -0.091 S 
ATOM     13  C   UNL     1      12.303  22.224  39.705  1.00  0.00     0.139 A 
ATOM     14  C   UNL     1      13.222  23.064  39.082  1.00  0.00     0.114 A 
BRANCH  14  15
ATOM     15  C   UNL     1      13.521  24.452  39.476  1.00  0.00     0.267 C 
ATOM     16  O   UNL     1      13.468  25.368  38.607  1.00  0.00    -0.268 OA
ATOM     17  N   UNL     1      13.858  24.772  40.833  1.00  0.00    -0.320 N 
ATOM     18  H   UNL     1      13.657  24.079  41.589  1.00  0.00     0.170 HD
BRANCH  17  19
ATOM     19  C   UNL     1      14.265  26.096  41.214  1.00  0.00     0.063 A 
ATOM     20  C   UNL     1      13.302  27.039  41.641  1.00  0.00    -0.026 A 
ATOM     21  C   UNL     1      15.630  26.458  41.180  1.00  0.00     0.064 A 
ATOM     22  C   UNL     1      11.843  26.669  41.709  1.00  0.00     0.046 C 
ATOM     23  C   UNL     1      13.716  28.331  42.008  1.00  0.00     0.005 A 
ATOM     24  C   UNL     1      16.023  27.749  41.550  1.00  0.00     0.023 A 
ATOM     25  Cl  UNL     1      16.874  25.296  40.723  1.00  0.00    -0.082 Cl
ATOM     26  C   UNL     1      15.069  28.685  41.956  1.00  0.00     0.002 A 
ENDBRANCH  17  19
ENDBRANCH  14  15
ENDBRANCH   8  10
ENDBRANCH   4   8
BRANCH   6  27
ATOM     27  N   UNL     1       8.563  18.305  35.670  1.00  0.00    -0.354 N 
ATOM     28  C   UNL     1       8.184  17.399  34.582  1.00  0.00     0.133 C 
ATOM     29  C   UNL     1       7.613  19.344  36.083  1.00  0.00     0.133 C 
ATOM     30  C   UNL     1       6.978  17.959  33.804  1.00  0.00     0.106 C 
ATOM     31  C   UNL     1       7.177  20.184  34.867  1.00  0.00     0.106 C 
ATOM     32  N   UNL     1       7.108  19.416  33.590  1.00  0.00    -0.298 NA
BRANCH  32  33
ATOM     33  C   UNL     1       8.216  19.749  32.656  1.00  0.00     0.112 C 
BRANCH  33  34
ATOM     34  C   UNL     1       7.741  19.672  31.201  1.00  0.00     0.171 C 
BRANCH  34  35
ATOM     35  O   UNL     1       7.855  20.920  30.571  1.00  0.00    -0.395 OA
ATOM     36  H   UNL     1       8.564  21.427  31.058  1.00  0.00     0.210 HD
ENDBRANCH  34  35
ENDBRANCH  33  34
ENDBRANCH  32  33
ENDBRANCH   6  27
TORSDOF 8
ENDMDL
MODEL 13
REMARK VINA RESULT:    -7.709      2.136      3.011
REMARK INTER + INTRA:         -12.235
REMARK INTER:                 -11.771
REMARK INTRA:                  -0.464
REMARK UNBOUND:                -1.146
REMARK SMILES Cc1nc(Nc2ncc(C(=O)Nc3c(C)cccc3Cl)s2)cc(N2CCN(CCO)CC2)n1
REMARK SMILES IDX 1 1 2 2 3 3 4 4 22 5 23 6 33 7 5 8 6 10 7 11 21 12 8 13 9 14
REMARK SMILES IDX 10 15 11 16 12 17 13 19 14 20 19 21 15 22 16 23 18 24 20 25
REMARK SMILES IDX 17 26 24 27 25 28 32 29 26 30 31 31 27 32 28 33 29 34 30 35
REMARK H PARENT 5 9 12 18 30 36
REMARK Flexibility Score: inf
ROOT
ATOM      1  C   UNL     1      12.384  28.973  44.054  1.00  0.00     0.090 C 
ATOM      2  C   UNL     1      13.124  28.303  42.947  1.00  0.00     0.130 A 
ATOM      3  N   UNL     1      14.434  28.591  42.730  1.00  0.00    -0.216 NA
ATOM      4  C   UNL     1      15.139  27.978  41.740  1.00  0.00     0.137 A 
ATOM      5  C   UNL     1      14.504  27.026  40.934  1.00  0.00     0.094 A 
ATOM      6  C   UNL     1      13.148  26.745  41.156  1.00  0.00     0.134 A 
ATOM      7  N   UNL     1      12.497  27.378  42.172  1.00  0.00    -0.216 NA
ENDROOT
BRANCH   4   8
ATOM      8  N   UNL     1      16.531  28.276  41.543  1.00  0.00    -0.316 N 
ATOM      9  H   UNL     1      16.889  29.213  41.830  1.00  0.00     0.170 HD
BRANCH   8  10
ATOM     10  C   UNL     1      17.482  27.325  41.047  1.00  0.00     0.189 A 
ATOM     11  N   UNL     1      17.256  25.994  40.981  1.00  0.00    -0.228 NA
ATOM     12  S   UNL     1      19.050  27.719  40.581  1.00  0.00    -0.091 S 
ATOM     13  C   UNL     1      18.351  25.318  40.541  1.00  0.00     0.139 A 
ATOM     14  C   UNL     1      19.457  26.115  40.261  1.00  0.00     0.114 A 
BRANCH  14  15
ATOM     15  C   UNL     1      20.771  25.629  39.801  1.00  0.00     0.267 C 
ATOM     16  O   UNL     1      21.559  26.428  39.221  1.00  0.00    -0.268 OA
ATOM     17  N   UNL     1      21.163  24.265  40.015  1.00  0.00    -0.320 N 
ATOM     18  H   UNL     1      20.636  23.682  40.703  1.00  0.00     0.170 HD
BRANCH  17  19
ATOM     19  C   UNL     1      22.386  23.742  39.473  1.00  0.00     0.063 A 
ATOM     20  C   UNL     1      23.536  23.637  40.290  1.00  0.00    -0.026 A 
ATOM     21  C   UNL     1      22.443  23.314  38.129  1.00  0.00     0.064 A 
ATOM     22  C   UNL     1      23.494  24.065  41.734  1.00  0.00     0.046 C 
ATOM     23  C   UNL     1      24.726  23.126  39.744  1.00  0.00     0.005 A 
ATOM     24  C   UNL     1      23.636  22.805  37.603  1.00  0.00     0.023 A 
ATOM     25  Cl  UNL     1      21.017  23.358  37.093  1.00  0.00    -0.082 Cl
ATOM     26  C   UNL     1      24.776  22.718  38.407  1.00  0.00     0.002 A 
ENDBRANCH  17  19
ENDBRANCH  14  15
ENDBRANCH   8  10
ENDBRANCH   4   8
BRANCH   6  27
ATOM     27  N   UNL     1      12.452  25.766  40.363  1.00  0.00    -0.354 N 
ATOM     28  C   UNL     1      10.997  25.861  40.216  1.00  0.00     0.133 C 
ATOM     29  C   UNL     1      13.175  24.770  39.563  1.00  0.00     0.133 C 
ATOM     30  C   UNL     1      10.439  24.613  39.508  1.00  0.00     0.106 C 
ATOM     31  C   UNL     1      12.563  23.372  39.769  1.00  0.00     0.106 C 
ATOM     32  N   UNL     1      11.089  23.380  40.001  1.00  0.00    -0.298 NA
BRANCH  32  33
ATOM     33  C   UNL     1      10.725  23.081  41.411  1.00  0.00     0.112 C 
BRANCH  33  34
ATOM     34  C   UNL     1      10.901  21.589  41.713  1.00  0.00     0.171 C 
BRANCH  34  35
ATOM     35  O   UNL     1      11.704  21.398  42.846  1.00  0.00    -0.395 OA
ATOM     36  H   UNL     1      11.632  20.433  43.093  1.00  0.00     0.210 HD
ENDBRANCH  34  35
ENDBRANCH  33  34
ENDBRANCH  32  33
ENDBRANCH   6  27
TORSDOF 8
ENDMDL
MODEL 14
REMARK VINA RESULT:    -7.621      2.397      3.224
REMARK INTER + INTRA:         -12.108
REMARK INTER:                 -11.895
REMARK INTRA:                  -0.213
REMARK UNBOUND:                -1.146
REMARK SMILES Cc1nc(Nc2ncc(C(=O)Nc3c(C)cccc3Cl)s2)cc(N2CCN(CCO)CC2)n1
REMARK SMILES IDX 1 1 2 2 3 3 4 4 22 5 23 6 33 7 5 8 6 10 7 11 21 12 8 13 9 14
REMARK SMILES IDX 10 15 11 16 12 17 13 19 14 20 19 21 15 22 16 23 18 24 20 25
REMARK SMILES IDX 17 26 24 27 25 28 32 29 26 30 31 31 27 32 28 33 29 34 30 35
REMARK H PARENT 5 9 12 18 30 36
REMARK Flexibility Score: inf
ROOT
ATOM      1  C   UNL     1      11.689  30.240  41.613  1.00  0.00     0.090 C 
ATOM      2  C   UNL     1      12.613  29.070  41.559  1.00  0.00     0.130 A 
ATOM      3  N   UNL     1      13.958  29.264  41.555  1.00  0.00    -0.216 NA
ATOM      4  C   UNL     1      14.823  28.214  41.527  1.00  0.00     0.137 A 
ATOM      5  C   UNL     1      14.319  26.908  41.511  1.00  0.00     0.094 A 
ATOM      6  C   UNL     1      12.929  26.719  41.501  1.00  0.00     0.134 A 
ATOM      7  N   UNL     1      12.111  27.807  41.546  1.00  0.00    -0.216 NA
ENDROOT
BRANCH   4   8
ATOM      8  N   UNL     1      16.243  28.437  41.550  1.00  0.00    -0.316 N 
ATOM      9  H   UNL     1      16.605  29.321  41.969  1.00  0.00     0.170 HD
BRANCH   8  10
ATOM     10  C   UNL     1      17.204  27.472  41.102  1.00  0.00     0.189 A 
ATOM     11  N   UNL     1      17.006  26.135  41.138  1.00  0.00    -0.228 NA
ATOM     12  S   UNL     1      18.752  27.863  40.573  1.00  0.00    -0.091 S 
ATOM     13  C   UNL     1      18.105  25.452  40.722  1.00  0.00     0.139 A 
ATOM     14  C   UNL     1      19.188  26.248  40.359  1.00  0.00     0.114 A 
BRANCH  14  15
ATOM     15  C   UNL     1      20.501  25.756  39.905  1.00  0.00     0.267 C 
ATOM     16  O   UNL     1      21.375  26.585  39.524  1.00  0.00    -0.268 OA
ATOM     17  N   UNL     1      20.796  24.353  39.903  1.00  0.00    -0.320 N 
ATOM     18  H   UNL     1      20.187  23.699  40.445  1.00  0.00     0.170 HD
BRANCH  17  19
ATOM     19  C   UNL     1      22.024  23.845  39.357  1.00  0.00     0.063 A 
ATOM     20  C   UNL     1      22.095  23.479  37.992  1.00  0.00    -0.026 A 
ATOM     21  C   UNL     1      23.170  23.724  40.173  1.00  0.00     0.064 A 
ATOM     22  C   UNL     1      20.893  23.621  37.095  1.00  0.00     0.046 C 
ATOM     23  C   UNL     1      23.303  22.981  37.473  1.00  0.00     0.005 A 
ATOM     24  C   UNL     1      24.364  23.228  39.638  1.00  0.00     0.023 A 
ATOM     25  Cl  UNL     1      23.150  24.234  41.860  1.00  0.00    -0.082 Cl
ATOM     26  C   UNL     1      24.428  22.851  38.294  1.00  0.00     0.002 A 
ENDBRANCH  17  19
ENDBRANCH  14  15
ENDBRANCH   8  10
ENDBRANCH   4   8
BRANCH   6  27
ATOM     27  N   UNL     1      12.359  25.397  41.497  1.00  0.00    -0.354 N 
ATOM     28  C   UNL     1      12.678  24.480  40.398  1.00  0.00     0.133 C 
ATOM     29  C   UNL     1      11.601  24.883  42.643  1.00  0.00     0.133 C 
ATOM     30  C   UNL     1      11.813  23.209  40.482  1.00  0.00     0.106 C 
ATOM     31  C   UNL     1      10.300  24.210  42.166  1.00  0.00     0.106 C 
ATOM     32  N   UNL     1      10.415  23.534  40.840  1.00  0.00    -0.298 NA
BRANCH  32  33
ATOM     33  C   UNL     1       9.716  24.272  39.755  1.00  0.00     0.112 C 
BRANCH  33  34
ATOM     34  C   UNL     1       8.913  23.308  38.873  1.00  0.00     0.171 C 
BRANCH  34  35
ATOM     35  O   UNL     1       9.697  22.826  37.815  1.00  0.00    -0.395 OA
ATOM     36  H   UNL     1       9.514  23.413  37.028  1.00  0.00     0.210 HD
ENDBRANCH  34  35
ENDBRANCH  33  34
ENDBRANCH  32  33
ENDBRANCH   6  27
TORSDOF 8
ENDMDL
MODEL 15
REMARK VINA RESULT:    -7.463      4.650      8.066
REMARK INTER + INTRA:         -11.882
REMARK INTER:                 -10.965
REMARK INTRA:                  -0.916
REMARK UNBOUND:                -1.146
REMARK SMILES Cc1nc(Nc2ncc(C(=O)Nc3c(C)cccc3Cl)s2)cc(N2CCN(CCO)CC2)n1
REMARK SMILES IDX 1 1 2 2 3 3 4 4 22 5 23 6 33 7 5 8 6 10 7 11 21 12 8 13 9 14
REMARK SMILES IDX 10 15 11 16 12 17 13 19 14 20 19 21 15 22 16 23 18 24 20 25
REMARK SMILES IDX 17 26 24 27 25 28 32 29 26 30 31 31 27 32 28 33 29 34 30 35
REMARK H PARENT 5 9 12 18 30 36
REMARK Flexibility Score: inf
ROOT
ATOM      1  C   UNL     1       9.978  19.842  33.406  1.00  0.00     0.090 C 
ATOM      2  C   UNL     1      10.480  19.289  34.696  1.00  0.00     0.130 A 
ATOM      3  N   UNL     1      11.684  19.684  35.186  1.00  0.00    -0.216 NA
ATOM      4  C   UNL     1      12.156  19.210  36.371  1.00  0.00     0.137 A 
ATOM      5  C   UNL     1      11.382  18.304  37.106  1.00  0.00     0.094 A 
ATOM      6  C   UNL     1      10.146  17.891  36.585  1.00  0.00     0.134 A 
ATOM      7  N   UNL     1       9.718  18.411  35.402  1.00  0.00    -0.216 NA
ENDROOT
BRANCH   4   8
ATOM      8  N   UNL     1      13.420  19.660  36.886  1.00  0.00    -0.316 N 
ATOM      9  H   UNL     1      14.294  19.220  36.524  1.00  0.00     0.170 HD
BRANCH   8  10
ATOM     10  C   UNL     1      13.557  20.743  37.815  1.00  0.00     0.189 A 
ATOM     11  N   UNL     1      13.359  20.626  39.147  1.00  0.00    -0.228 NA
ATOM     12  S   UNL     1      13.876  22.333  37.366  1.00  0.00    -0.091 S 
ATOM     13  C   UNL     1      13.483  21.821  39.783  1.00  0.00     0.139 A 
ATOM     14  C   UNL     1      13.775  22.899  38.951  1.00  0.00     0.114 A 
BRANCH  14  15
ATOM     15  C   UNL     1      13.930  24.300  39.383  1.00  0.00     0.267 C 
ATOM     16  O   UNL     1      13.664  25.232  38.573  1.00  0.00    -0.268 OA
ATOM     17  N   UNL     1      14.368  24.611  40.713  1.00  0.00    -0.320 N 
ATOM     18  H   UNL     1      14.344  23.869  41.449  1.00  0.00     0.170 HD
BRANCH  17  19
ATOM     19  C   UNL     1      14.637  25.963  41.118  1.00  0.00     0.063 A 
ATOM     20  C   UNL     1      15.963  26.455  41.111  1.00  0.00    -0.026 A 
ATOM     21  C   UNL     1      13.579  26.813  41.507  1.00  0.00     0.064 A 
ATOM     22  C   UNL     1      17.106  25.575  40.677  1.00  0.00     0.046 C 
ATOM     23  C   UNL     1      16.210  27.780  41.512  1.00  0.00     0.005 A 
ATOM     24  C   UNL     1      13.844  28.129  41.901  1.00  0.00     0.023 A 
ATOM     25  Cl  UNL     1      11.903  26.267  41.463  1.00  0.00    -0.082 Cl
ATOM     26  C   UNL     1      15.156  28.609  41.910  1.00  0.00     0.002 A 
ENDBRANCH  17  19
ENDBRANCH  14  15
ENDBRANCH   8  10
ENDBRANCH   4   8
BRANCH   6  27
ATOM     27  N   UNL     1       9.307  16.971  37.307  1.00  0.00    -0.354 N 
ATOM     28  C   UNL     1       8.303  17.492  38.240  1.00  0.00     0.133 C 
ATOM     29  C   UNL     1       9.313  15.533  37.014  1.00  0.00     0.133 C 
ATOM     30  C   UNL     1       7.664  16.348  39.047  1.00  0.00     0.106 C 
ATOM     31  C   UNL     1       9.380  14.721  38.321  1.00  0.00     0.106 C 
ATOM     32  N   UNL     1       8.678  15.359  39.472  1.00  0.00    -0.298 NA
BRANCH  32  33
ATOM     33  C   UNL     1       9.615  15.917  40.482  1.00  0.00     0.112 C 
BRANCH  33  34
ATOM     34  C   UNL     1      11.069  15.741  40.029  1.00  0.00     0.171 C 
BRANCH  34  35
ATOM     35  O   UNL     1      11.923  15.598  41.132  1.00  0.00    -0.395 OA
ATOM     36  H   UNL     1      11.851  14.648  41.433  1.00  0.00     0.210 HD
ENDBRANCH  34  35
ENDBRANCH  33  34
ENDBRANCH  32  33
ENDBRANCH   6  27
TORSDOF 8
ENDMDL
