MODEL 1
REMARK VINA RESULT:    -6.315      0.000      0.000
REMARK INTER + INTRA:         -10.170
REMARK INTER:                  -9.083
REMARK INTRA:                  -1.087
REMARK UNBOUND:                -1.087
REMARK SMILES CC(=O)Nc1ccc(OCC(O)CNC(C)C)cc1
REMARK SMILES IDX 10 1 11 2 13 3 14 4 15 6 16 7 17 8 12 9 9 11 8 12 7 13 18 14
REMARK SMILES IDX 6 15 19 16 5 17 4 18 2 19 1 21 3 22
REMARK H PARENT 14 5 12 10 4 20
REMARK Flexibility Score: inf
ROOT
ATOM      1  C   UNL     1      14.316   9.409  18.881  1.00  0.00     0.262 C 
ENDROOT
BRANCH   1   2
ATOM      2  C   UNL     1      13.753   7.981  18.940  1.00  0.00     0.165 C 
BRANCH   2   3
ATOM      3  C   UNL     1      12.222   7.997  19.150  1.00  0.00     0.116 C 
BRANCH   3   4
ATOM      4  N   UNL     1      11.776   9.137  19.976  1.00  0.00    -0.312 NA
ATOM      5  H   UNL     1      12.587   9.770  20.171  1.00  0.00     0.123 HD
BRANCH   4   6
ATOM      6  C   UNL     1      10.652   9.883  19.375  1.00  0.00     0.047 C 
ATOM      7  C   UNL     1      10.276   9.288  18.011  1.00  0.00     0.024 C 
ATOM      8  C   UNL     1      11.045  11.356  19.201  1.00  0.00     0.024 C 
ENDBRANCH   4   6
ENDBRANCH   3   4
ENDBRANCH   2   3
BRANCH   2   9
ATOM      9  O   UNL     1      14.394   7.239  19.948  1.00  0.00    -0.388 OA
ATOM     10  H   UNL     1      13.785   7.210  20.732  1.00  0.00     0.211 HD
ENDBRANCH   2   9
ENDBRANCH   1   2
BRANCH   1  11
ATOM     11  O   UNL     1      14.683   9.721  17.539  1.00  0.00    -0.491 OA
BRANCH  11  12
ATOM     12  C   UNL     1      13.808  10.252  16.580  1.00  0.00     0.119 A 
ATOM     13  C   UNL     1      13.112   9.442  15.663  1.00  0.00     0.048 A 
ATOM     14  C   UNL     1      13.622  11.637  16.544  1.00  0.00     0.048 A 
ATOM     15  C   UNL     1      12.251  10.020  14.725  1.00  0.00     0.030 A 
ATOM     16  C   UNL     1      12.760  12.216  15.606  1.00  0.00     0.030 A 
ATOM     17  C   UNL     1      12.081  11.410  14.676  1.00  0.00     0.041 A 
BRANCH  17  18
ATOM     18  N   UNL     1      11.170  11.976  13.716  1.00  0.00    -0.326 N 
ATOM     19  C   UNL     1      11.578  12.730  12.564  1.00  0.00     0.221 C 
ATOM     20  H   UNL     1      10.154  11.757  13.815  1.00  0.00     0.169 HD
ATOM     21  C   UNL     1      10.555  13.441  11.740  1.00  0.00     0.114 C 
ATOM     22  O   UNL     1      12.782  12.733  12.190  1.00  0.00    -0.275 OA
ENDBRANCH  17  18
ENDBRANCH  11  12
ENDBRANCH   1  11
TORSDOF 8
ENDMDL
MODEL 2
REMARK VINA RESULT:    -6.120      1.717      2.664
REMARK INTER + INTRA:          -9.891
REMARK INTER:                  -8.614
REMARK INTRA:                  -1.277
REMARK UNBOUND:                -1.087
REMARK SMILES CC(=O)Nc1ccc(OCC(O)CNC(C)C)cc1
REMARK SMILES IDX 10 1 11 2 13 3 14 4 15 6 16 7 17 8 12 9 9 11 8 12 7 13 18 14
REMARK SMILES IDX 6 15 19 16 5 17 4 18 2 19 1 21 3 22
REMARK H PARENT 14 5 12 10 4 20
REMARK Flexibility Score: inf
ROOT
ATOM      1  C   UNL     1      11.767   7.943  18.410  1.00  0.00     0.262 C 
ENDROOT
BRANCH   1   2
ATOM      2  C   UNL     1      13.036   7.627  19.216  1.00  0.00     0.165 C 
BRANCH   2   3
ATOM      3  C   UNL     1      13.733   8.925  19.684  1.00  0.00     0.116 C 
BRANCH   3   4
ATOM      4  N   UNL     1      14.693   9.442  18.687  1.00  0.00    -0.312 NA
ATOM      5  H   UNL     1      14.358   9.213  17.722  1.00  0.00     0.123 HD
BRANCH   4   6
ATOM      6  C   UNL     1      14.951  10.890  18.830  1.00  0.00     0.047 C 
ATOM      7  C   UNL     1      13.936  11.528  19.787  1.00  0.00     0.024 C 
ATOM      8  C   UNL     1      14.859  11.568  17.457  1.00  0.00     0.024 C 
ENDBRANCH   4   6
ENDBRANCH   3   4
ENDBRANCH   2   3
BRANCH   2   9
ATOM      9  O   UNL     1      13.912   6.825  18.463  1.00  0.00    -0.388 OA
ATOM     10  H   UNL     1      13.791   5.887  18.764  1.00  0.00     0.211 HD
ENDBRANCH   2   9
ENDBRANCH   1   2
BRANCH   1  11
ATOM     11  O   UNL     1      11.639   9.355  18.255  1.00  0.00    -0.491 OA
BRANCH  11  12
ATOM     12  C   UNL     1      11.507  10.009  17.021  1.00  0.00     0.119 A 
ATOM     13  C   UNL     1      10.750  11.186  16.868  1.00  0.00     0.048 A 
ATOM     14  C   UNL     1      12.159   9.468  15.909  1.00  0.00     0.048 A 
ATOM     15  C   UNL     1      10.648  11.799  15.616  1.00  0.00     0.030 A 
ATOM     16  C   UNL     1      12.058  10.082  14.656  1.00  0.00     0.030 A 
ATOM     17  C   UNL     1      11.284  11.245  14.497  1.00  0.00     0.041 A 
BRANCH  17  18
ATOM     18  N   UNL     1      11.182  11.911  13.225  1.00  0.00    -0.326 N 
ATOM     19  C   UNL     1      12.018  13.005  12.818  1.00  0.00     0.221 C 
ATOM     20  H   UNL     1      10.515  11.523  12.521  1.00  0.00     0.169 HD
ATOM     21  C   UNL     1      11.704  13.754  11.564  1.00  0.00     0.114 C 
ATOM     22  O   UNL     1      13.064  13.291  13.463  1.00  0.00    -0.275 OA
ENDBRANCH  17  18
ENDBRANCH  11  12
ENDBRANCH   1  11
TORSDOF 8
ENDMDL
MODEL 3
REMARK VINA RESULT:    -6.096      2.134      7.312
REMARK INTER + INTRA:          -9.855
REMARK INTER:                  -8.999
REMARK INTRA:                  -0.856
REMARK UNBOUND:                -1.087
REMARK SMILES CC(=O)Nc1ccc(OCC(O)CNC(C)C)cc1
REMARK SMILES IDX 10 1 11 2 13 3 14 4 15 6 16 7 17 8 12 9 9 11 8 12 7 13 18 14
REMARK SMILES IDX 6 15 19 16 5 17 4 18 2 19 1 21 3 22
REMARK H PARENT 14 5 12 10 4 20
REMARK Flexibility Score: inf
ROOT
ATOM      1  C   UNL     1      10.954  11.910  14.174  1.00  0.00     0.262 C 
ENDROOT
BRANCH   1   2
ATOM      2  C   UNL     1      10.786  13.418  13.937  1.00  0.00     0.165 C 
BRANCH   2   3
ATOM      3  C   UNL     1      10.572  13.723  12.437  1.00  0.00     0.116 C 
BRANCH   3   4
ATOM      4  N   UNL     1      11.141  12.679  11.561  1.00  0.00    -0.312 NA
ATOM      5  H   UNL     1      10.371  12.190  11.047  1.00  0.00     0.123 HD
BRANCH   4   6
ATOM      6  C   UNL     1      12.157  13.200  10.624  1.00  0.00     0.047 C 
ATOM      7  C   UNL     1      13.539  13.237  11.291  1.00  0.00     0.024 C 
ATOM      8  C   UNL     1      11.767  14.613  10.174  1.00  0.00     0.024 C 
ENDBRANCH   4   6
ENDBRANCH   3   4
ENDBRANCH   2   3
BRANCH   2   9
ATOM      9  O   UNL     1      11.890  14.124  14.445  1.00  0.00    -0.388 OA
ATOM     10  H   UNL     1      12.556  14.205  13.713  1.00  0.00     0.211 HD
ENDBRANCH   2   9
ENDBRANCH   1   2
BRANCH   1  11
ATOM     11  O   UNL     1      12.333  11.609  14.375  1.00  0.00    -0.491 OA
BRANCH  11  12
ATOM     12  C   UNL     1      12.831  10.843  15.440  1.00  0.00     0.119 A 
ATOM     13  C   UNL     1      13.514  11.418  16.528  1.00  0.00     0.048 A 
ATOM     14  C   UNL     1      12.633   9.459  15.413  1.00  0.00     0.048 A 
ATOM     15  C   UNL     1      13.992  10.611  17.565  1.00  0.00     0.030 A 
ATOM     16  C   UNL     1      13.111   8.652  16.450  1.00  0.00     0.030 A 
ATOM     17  C   UNL     1      13.812   9.221  17.528  1.00  0.00     0.041 A 
BRANCH  17  18
ATOM     18  N   UNL     1      14.294   8.418  18.619  1.00  0.00    -0.326 N 
ATOM     19  C   UNL     1      13.557   8.175  19.828  1.00  0.00     0.221 C 
ATOM     20  H   UNL     1      15.199   7.912  18.494  1.00  0.00     0.169 HD
ATOM     21  C   UNL     1      14.222   7.493  20.979  1.00  0.00     0.114 C 
ATOM     22  O   UNL     1      12.330   8.455  19.902  1.00  0.00    -0.275 OA
ENDBRANCH  17  18
ENDBRANCH  11  12
ENDBRANCH   1  11
TORSDOF 8
ENDMDL
MODEL 4
REMARK VINA RESULT:    -6.032      3.422      5.120
REMARK INTER + INTRA:          -9.763
REMARK INTER:                  -8.569
REMARK INTRA:                  -1.195
REMARK UNBOUND:                -1.087
REMARK SMILES CC(=O)Nc1ccc(OCC(O)CNC(C)C)cc1
REMARK SMILES IDX 10 1 11 2 13 3 14 4 15 6 16 7 17 8 12 9 9 11 8 12 7 13 18 14
REMARK SMILES IDX 6 15 19 16 5 17 4 18 2 19 1 21 3 22
REMARK H PARENT 14 5 12 10 4 20
REMARK Flexibility Score: inf
ROOT
ATOM      1  C   UNL     1      11.821   8.229  18.606  1.00  0.00     0.262 C 
ENDROOT
BRANCH   1   2
ATOM      2  C   UNL     1      12.287   7.232  17.536  1.00  0.00     0.165 C 
BRANCH   2   3
ATOM      3  C   UNL     1      12.882   7.968  16.313  1.00  0.00     0.116 C 
BRANCH   3   4
ATOM      4  N   UNL     1      11.863   8.730  15.563  1.00  0.00    -0.312 NA
ATOM      5  H   UNL     1      10.979   8.785  16.122  1.00  0.00     0.123 HD
BRANCH   4   6
ATOM      6  C   UNL     1      12.324  10.076  15.166  1.00  0.00     0.047 C 
ATOM      7  C   UNL     1      13.446  10.559  16.095  1.00  0.00     0.024 C 
ATOM      8  C   UNL     1      11.150  11.062  15.224  1.00  0.00     0.024 C 
ENDBRANCH   4   6
ENDBRANCH   3   4
ENDBRANCH   2   3
BRANCH   2   9
ATOM      9  O   UNL     1      11.230   6.387  17.154  1.00  0.00    -0.388 OA
ATOM     10  H   UNL     1      11.462   5.998  16.270  1.00  0.00     0.211 HD
ENDBRANCH   2   9
ENDBRANCH   1   2
BRANCH   1  11
ATOM     11  O   UNL     1      10.460   8.581  18.371  1.00  0.00    -0.491 OA
BRANCH  11  12
ATOM     12  C   UNL     1       9.907   9.841  18.643  1.00  0.00     0.119 A 
ATOM     13  C   UNL     1       8.518  10.063  18.689  1.00  0.00     0.048 A 
ATOM     14  C   UNL     1      10.776  10.910  18.882  1.00  0.00     0.048 A 
ATOM     15  C   UNL     1       8.017  11.339  18.963  1.00  0.00     0.030 A 
ATOM     16  C   UNL     1      10.276  12.187  19.157  1.00  0.00     0.030 A 
ATOM     17  C   UNL     1       8.889  12.415  19.182  1.00  0.00     0.041 A 
BRANCH  17  18
ATOM     18  N   UNL     1       8.346  13.712  19.485  1.00  0.00    -0.326 N 
ATOM     19  C   UNL     1       8.010  14.698  18.496  1.00  0.00     0.221 C 
ATOM     20  H   UNL     1       8.103  13.922  20.479  1.00  0.00     0.169 HD
ATOM     21  C   UNL     1       7.640  16.081  18.921  1.00  0.00     0.114 C 
ATOM     22  O   UNL     1       7.943  14.388  17.276  1.00  0.00    -0.275 OA
ENDBRANCH  17  18
ENDBRANCH  11  12
ENDBRANCH   1  11
TORSDOF 8
ENDMDL
MODEL 5
REMARK VINA RESULT:    -6.014      9.493     11.975
REMARK INTER + INTRA:          -9.738
REMARK INTER:                  -9.087
REMARK INTRA:                  -0.651
REMARK UNBOUND:                -1.087
REMARK SMILES CC(=O)Nc1ccc(OCC(O)CNC(C)C)cc1
REMARK SMILES IDX 10 1 11 2 13 3 14 4 15 6 16 7 17 8 12 9 9 11 8 12 7 13 18 14
REMARK SMILES IDX 6 15 19 16 5 17 4 18 2 19 1 21 3 22
REMARK H PARENT 14 5 12 10 4 20
REMARK Flexibility Score: inf
ROOT
ATOM      1  C   UNL     1      23.783   7.038  15.823  1.00  0.00     0.262 C 
ENDROOT
BRANCH   1   2
ATOM      2  C   UNL     1      23.448   8.357  15.110  1.00  0.00     0.165 C 
BRANCH   2   3
ATOM      3  C   UNL     1      23.623   9.562  16.062  1.00  0.00     0.116 C 
BRANCH   3   4
ATOM      4  N   UNL     1      22.331  10.155  16.465  1.00  0.00    -0.312 NA
ATOM      5  H   UNL     1      21.743   9.431  16.942  1.00  0.00     0.123 HD
BRANCH   4   6
ATOM      6  C   UNL     1      22.485  11.356  17.310  1.00  0.00     0.047 C 
ATOM      7  C   UNL     1      21.178  11.664  18.055  1.00  0.00     0.024 C 
ATOM      8  C   UNL     1      22.872  12.556  16.437  1.00  0.00     0.024 C 
ENDBRANCH   4   6
ENDBRANCH   3   4
ENDBRANCH   2   3
BRANCH   2   9
ATOM      9  O   UNL     1      22.148   8.315  14.579  1.00  0.00    -0.388 OA
ATOM     10  H   UNL     1      22.028   9.124  14.015  1.00  0.00     0.211 HD
ENDBRANCH   2   9
ENDBRANCH   1   2
BRANCH   1  11
ATOM     11  O   UNL     1      22.585   6.451  16.328  1.00  0.00    -0.491 OA
BRANCH  11  12
ATOM     12  C   UNL     1      22.315   6.246  17.689  1.00  0.00     0.119 A 
ATOM     13  C   UNL     1      22.153   7.311  18.596  1.00  0.00     0.048 A 
ATOM     14  C   UNL     1      22.198   4.932  18.153  1.00  0.00     0.048 A 
ATOM     15  C   UNL     1      21.885   7.053  19.943  1.00  0.00     0.030 A 
ATOM     16  C   UNL     1      21.930   4.674  19.501  1.00  0.00     0.030 A 
ATOM     17  C   UNL     1      21.789   5.735  20.412  1.00  0.00     0.041 A 
BRANCH  17  18
ATOM     18  N   UNL     1      21.489   5.500  21.799  1.00  0.00    -0.326 N 
ATOM     19  C   UNL     1      20.197   5.704  22.391  1.00  0.00     0.221 C 
ATOM     20  H   UNL     1      22.234   5.077  22.397  1.00  0.00     0.169 HD
ATOM     21  C   UNL     1      20.037   5.621  23.874  1.00  0.00     0.114 C 
ATOM     22  O   UNL     1      19.177   5.869  21.668  1.00  0.00    -0.275 OA
ENDBRANCH  17  18
ENDBRANCH  11  12
ENDBRANCH   1  11
TORSDOF 8
ENDMDL
MODEL 6
REMARK VINA RESULT:    -6.007      1.850      2.932
REMARK INTER + INTRA:          -9.728
REMARK INTER:                  -8.460
REMARK INTRA:                  -1.268
REMARK UNBOUND:                -1.087
REMARK SMILES CC(=O)Nc1ccc(OCC(O)CNC(C)C)cc1
REMARK SMILES IDX 10 1 11 2 13 3 14 4 15 6 16 7 17 8 12 9 9 11 8 12 7 13 18 14
REMARK SMILES IDX 6 15 19 16 5 17 4 18 2 19 1 21 3 22
REMARK H PARENT 14 5 12 10 4 20
REMARK Flexibility Score: inf
ROOT
ATOM      1  C   UNL     1      13.962   7.684  19.881  1.00  0.00     0.262 C 
ENDROOT
BRANCH   1   2
ATOM      2  C   UNL     1      13.602   8.523  21.116  1.00  0.00     0.165 C 
BRANCH   2   3
ATOM      3  C   UNL     1      13.830  10.029  20.849  1.00  0.00     0.116 C 
BRANCH   3   4
ATOM      4  N   UNL     1      14.735  10.270  19.707  1.00  0.00    -0.312 NA
ATOM      5  H   UNL     1      14.645   9.490  19.014  1.00  0.00     0.123 HD
BRANCH   4   6
ATOM      6  C   UNL     1      14.518  11.581  19.064  1.00  0.00     0.047 C 
ATOM      7  C   UNL     1      13.031  11.959  19.095  1.00  0.00     0.024 C 
ATOM      8  C   UNL     1      15.005  11.530  17.611  1.00  0.00     0.024 C 
ENDBRANCH   4   6
ENDBRANCH   3   4
ENDBRANCH   2   3
BRANCH   2   9
ATOM      9  O   UNL     1      14.334   8.091  22.236  1.00  0.00    -0.388 OA
ATOM     10  H   UNL     1      14.884   8.857  22.548  1.00  0.00     0.211 HD
ENDBRANCH   2   9
ENDBRANCH   1   2
BRANCH   1  11
ATOM     11  O   UNL     1      12.801   7.499  19.075  1.00  0.00    -0.491 OA
BRANCH  11  12
ATOM     12  C   UNL     1      12.494   8.262  17.938  1.00  0.00     0.119 A 
ATOM     13  C   UNL     1      11.328   9.046  17.847  1.00  0.00     0.048 A 
ATOM     14  C   UNL     1      13.388   8.242  16.863  1.00  0.00     0.048 A 
ATOM     15  C   UNL     1      11.068   9.789  16.691  1.00  0.00     0.030 A 
ATOM     16  C   UNL     1      13.127   8.985  15.706  1.00  0.00     0.030 A 
ATOM     17  C   UNL     1      11.953   9.751  15.605  1.00  0.00     0.041 A 
BRANCH  17  18
ATOM     18  N   UNL     1      11.672  10.543  14.438  1.00  0.00    -0.326 N 
ATOM     19  C   UNL     1      12.004  11.935  14.308  1.00  0.00     0.221 C 
ATOM     20  H   UNL     1      11.276  10.061  13.600  1.00  0.00     0.169 HD
ATOM     21  C   UNL     1      11.495  12.715  13.140  1.00  0.00     0.114 C 
ATOM     22  O   UNL     1      12.789  12.488  15.125  1.00  0.00    -0.275 OA
ENDBRANCH  17  18
ENDBRANCH  11  12
ENDBRANCH   1  11
TORSDOF 8
ENDMDL
MODEL 7
REMARK VINA RESULT:    -6.007      1.504      2.031
REMARK INTER + INTRA:          -9.728
REMARK INTER:                  -8.772
REMARK INTRA:                  -0.956
REMARK UNBOUND:                -1.087
REMARK SMILES CC(=O)Nc1ccc(OCC(O)CNC(C)C)cc1
REMARK SMILES IDX 10 1 11 2 13 3 14 4 15 6 16 7 17 8 12 9 9 11 8 12 7 13 18 14
REMARK SMILES IDX 6 15 19 16 5 17 4 18 2 19 1 21 3 22
REMARK H PARENT 14 5 12 10 4 20
REMARK Flexibility Score: inf
ROOT
ATOM      1  C   UNL     1      14.018   8.980  19.455  1.00  0.00     0.262 C 
ENDROOT
BRANCH   1   2
ATOM      2  C   UNL     1      12.840   8.638  20.379  1.00  0.00     0.165 C 
BRANCH   2   3
ATOM      3  C   UNL     1      12.368   9.886  21.160  1.00  0.00     0.116 C 
BRANCH   3   4
ATOM      4  N   UNL     1      10.921  10.138  21.001  1.00  0.00    -0.312 NA
ATOM      5  H   UNL     1      10.677  11.068  21.415  1.00  0.00     0.123 HD
BRANCH   4   6
ATOM      6  C   UNL     1      10.469  10.045  19.598  1.00  0.00     0.047 C 
ATOM      7  C   UNL     1      10.593  11.406  18.899  1.00  0.00     0.024 C 
ATOM      8  C   UNL     1       9.009   9.577  19.557  1.00  0.00     0.024 C 
ENDBRANCH   4   6
ENDBRANCH   3   4
ENDBRANCH   2   3
BRANCH   2   9
ATOM      9  O   UNL     1      13.186   7.594  21.255  1.00  0.00    -0.388 OA
ATOM     10  H   UNL     1      13.735   7.984  21.985  1.00  0.00     0.211 HD
ENDBRANCH   2   9
ENDBRANCH   1   2
BRANCH   1  11
ATOM     11  O   UNL     1      13.719   8.560  18.126  1.00  0.00    -0.491 OA
BRANCH  11  12
ATOM     12  C   UNL     1      13.316   9.421  17.093  1.00  0.00     0.119 A 
ATOM     13  C   UNL     1      13.688  10.778  17.053  1.00  0.00     0.048 A 
ATOM     14  C   UNL     1      12.520   8.901  16.068  1.00  0.00     0.048 A 
ATOM     15  C   UNL     1      13.260  11.594  16.003  1.00  0.00     0.030 A 
ATOM     16  C   UNL     1      12.091   9.718  15.016  1.00  0.00     0.030 A 
ATOM     17  C   UNL     1      12.444  11.079  14.986  1.00  0.00     0.041 A 
BRANCH  17  18
ATOM     18  N   UNL     1      12.037  11.936  13.905  1.00  0.00    -0.326 N 
ATOM     19  C   UNL     1      10.847  12.740  13.916  1.00  0.00     0.221 C 
ATOM     20  H   UNL     1      12.687  12.046  13.094  1.00  0.00     0.169 HD
ATOM     21  C   UNL     1      10.411  13.442  12.672  1.00  0.00     0.114 C 
ATOM     22  O   UNL     1      10.209  12.929  14.987  1.00  0.00    -0.275 OA
ENDBRANCH  17  18
ENDBRANCH  11  12
ENDBRANCH   1  11
TORSDOF 8
ENDMDL
MODEL 8
REMARK VINA RESULT:    -6.006      3.192      4.916
REMARK INTER + INTRA:          -9.727
REMARK INTER:                  -9.041
REMARK INTRA:                  -0.686
REMARK UNBOUND:                -1.087
REMARK SMILES CC(=O)Nc1ccc(OCC(O)CNC(C)C)cc1
REMARK SMILES IDX 10 1 11 2 13 3 14 4 15 6 16 7 17 8 12 9 9 11 8 12 7 13 18 14
REMARK SMILES IDX 6 15 19 16 5 17 4 18 2 19 1 21 3 22
REMARK H PARENT 14 5 12 10 4 20
REMARK Flexibility Score: inf
ROOT
ATOM      1  C   UNL     1      11.782   8.369  18.763  1.00  0.00     0.262 C 
ENDROOT
BRANCH   1   2
ATOM      2  C   UNL     1      13.166   7.879  19.214  1.00  0.00     0.165 C 
BRANCH   2   3
ATOM      3  C   UNL     1      14.125   9.069  19.451  1.00  0.00     0.116 C 
BRANCH   3   4
ATOM      4  N   UNL     1      14.781   9.522  18.208  1.00  0.00    -0.312 NA
ATOM      5  H   UNL     1      14.634   8.813  17.452  1.00  0.00     0.123 HD
BRANCH   4   6
ATOM      6  C   UNL     1      14.336  10.862  17.775  1.00  0.00     0.047 C 
ATOM      7  C   UNL     1      13.745  10.804  16.359  1.00  0.00     0.024 C 
ATOM      8  C   UNL     1      15.523  11.833  17.796  1.00  0.00     0.024 C 
ENDBRANCH   4   6
ENDBRANCH   3   4
ENDBRANCH   2   3
BRANCH   2   9
ATOM      9  O   UNL     1      13.701   6.978  18.277  1.00  0.00    -0.388 OA
ATOM     10  H   UNL     1      14.234   7.504  17.625  1.00  0.00     0.211 HD
ENDBRANCH   2   9
ENDBRANCH   1   2
BRANCH   1  11
ATOM     11  O   UNL     1      11.169   9.105  19.819  1.00  0.00    -0.491 OA
BRANCH  11  12
ATOM     12  C   UNL     1      10.461  10.304  19.643  1.00  0.00     0.119 A 
ATOM     13  C   UNL     1      11.084  11.494  19.222  1.00  0.00     0.048 A 
ATOM     14  C   UNL     1       9.085  10.305  19.893  1.00  0.00     0.048 A 
ATOM     15  C   UNL     1      10.334  12.662  19.063  1.00  0.00     0.030 A 
ATOM     16  C   UNL     1       8.334  11.475  19.734  1.00  0.00     0.030 A 
ATOM     17  C   UNL     1       8.958  12.669  19.334  1.00  0.00     0.041 A 
BRANCH  17  18
ATOM     18  N   UNL     1       8.207  13.881  19.139  1.00  0.00    -0.326 N 
ATOM     19  C   UNL     1       7.988  14.497  17.861  1.00  0.00     0.221 C 
ATOM     20  H   UNL     1       7.720  14.295  19.965  1.00  0.00     0.169 HD
ATOM     21  C   UNL     1       7.365  15.853  17.786  1.00  0.00     0.114 C 
ATOM     22  O   UNL     1       8.238  13.873  16.794  1.00  0.00    -0.275 OA
ENDBRANCH  17  18
ENDBRANCH  11  12
ENDBRANCH   1  11
TORSDOF 8
ENDMDL
MODEL 9
REMARK VINA RESULT:    -6.006      1.889      2.456
REMARK INTER + INTRA:          -9.726
REMARK INTER:                  -8.627
REMARK INTRA:                  -1.099
REMARK UNBOUND:                -1.087
REMARK SMILES CC(=O)Nc1ccc(OCC(O)CNC(C)C)cc1
REMARK SMILES IDX 10 1 11 2 13 3 14 4 15 6 16 7 17 8 12 9 9 11 8 12 7 13 18 14
REMARK SMILES IDX 6 15 19 16 5 17 4 18 2 19 1 21 3 22
REMARK H PARENT 14 5 12 10 4 20
REMARK Flexibility Score: inf
ROOT
ATOM      1  C   UNL     1      12.069   7.545  16.351  1.00  0.00     0.262 C 
ENDROOT
BRANCH   1   2
ATOM      2  C   UNL     1      12.120   7.385  17.878  1.00  0.00     0.165 C 
BRANCH   2   3
ATOM      3  C   UNL     1      11.288   8.483  18.579  1.00  0.00     0.116 C 
BRANCH   3   4
ATOM      4  N   UNL     1       9.955   8.658  17.967  1.00  0.00    -0.312 NA
ATOM      5  H   UNL     1       9.226   8.214  18.575  1.00  0.00     0.123 HD
BRANCH   4   6
ATOM      6  C   UNL     1       9.627  10.071  17.689  1.00  0.00     0.047 C 
ATOM      7  C   UNL     1      10.496  11.005  18.541  1.00  0.00     0.024 C 
ATOM      8  C   UNL     1       8.146  10.326  17.994  1.00  0.00     0.024 C 
ENDBRANCH   4   6
ENDBRANCH   3   4
ENDBRANCH   2   3
BRANCH   2   9
ATOM      9  O   UNL     1      13.451   7.393  18.330  1.00  0.00    -0.388 OA
ATOM     10  H   UNL     1      13.931   6.659  17.864  1.00  0.00     0.211 HD
ENDBRANCH   2   9
ENDBRANCH   1   2
BRANCH   1  11
ATOM     11  O   UNL     1      13.063   8.478  15.935  1.00  0.00    -0.491 OA
BRANCH  11  12
ATOM     12  C   UNL     1      12.826   9.842  15.711  1.00  0.00     0.119 A 
ATOM     13  C   UNL     1      13.566  10.853  16.353  1.00  0.00     0.048 A 
ATOM     14  C   UNL     1      11.818  10.203  14.810  1.00  0.00     0.048 A 
ATOM     15  C   UNL     1      13.290  12.199  16.096  1.00  0.00     0.030 A 
ATOM     16  C   UNL     1      11.542  11.550  14.553  1.00  0.00     0.030 A 
ATOM     17  C   UNL     1      12.266  12.560  15.210  1.00  0.00     0.041 A 
BRANCH  17  18
ATOM     18  N   UNL     1      12.020  13.953  14.946  1.00  0.00    -0.326 N 
ATOM     19  C   UNL     1      12.723  14.724  13.960  1.00  0.00     0.221 C 
ATOM     20  H   UNL     1      11.225  14.414  15.444  1.00  0.00     0.169 HD
ATOM     21  C   UNL     1      12.533  16.204  13.899  1.00  0.00     0.114 C 
ATOM     22  O   UNL     1      13.436  14.157  13.088  1.00  0.00    -0.275 OA
ENDBRANCH  17  18
ENDBRANCH  11  12
ENDBRANCH   1  11
TORSDOF 8
ENDMDL
MODEL 10
REMARK VINA RESULT:    -5.991      2.046      5.965
REMARK INTER + INTRA:          -9.704
REMARK INTER:                  -8.632
REMARK INTRA:                  -1.072
REMARK UNBOUND:                -1.087
REMARK SMILES CC(=O)Nc1ccc(OCC(O)CNC(C)C)cc1
REMARK SMILES IDX 10 1 11 2 13 3 14 4 15 6 16 7 17 8 12 9 9 11 8 12 7 13 18 14
REMARK SMILES IDX 6 15 19 16 5 17 4 18 2 19 1 21 3 22
REMARK H PARENT 14 5 12 10 4 20
REMARK Flexibility Score: inf
ROOT
ATOM      1  C   UNL     1      12.550  12.735  15.306  1.00  0.00     0.262 C 
ENDROOT
BRANCH   1   2
ATOM      2  C   UNL     1      11.110  12.707  14.773  1.00  0.00     0.165 C 
BRANCH   2   3
ATOM      3  C   UNL     1      10.093  12.561  15.928  1.00  0.00     0.116 C 
BRANCH   3   4
ATOM      4  N   UNL     1      10.102  11.208  16.520  1.00  0.00    -0.312 NA
ATOM      5  H   UNL     1      11.069  10.809  16.476  1.00  0.00     0.123 HD
BRANCH   4   6
ATOM      6  C   UNL     1       9.576  11.178  17.900  1.00  0.00     0.047 C 
ATOM      7  C   UNL     1      10.656  10.699  18.879  1.00  0.00     0.024 C 
ATOM      8  C   UNL     1       8.366  10.238  17.971  1.00  0.00     0.024 C 
ENDBRANCH   4   6
ENDBRANCH   3   4
ENDBRANCH   2   3
BRANCH   2   9
ATOM      9  O   UNL     1      10.953  11.679  13.827  1.00  0.00    -0.388 OA
ATOM     10  H   UNL     1      11.005  10.815  14.313  1.00  0.00     0.211 HD
ENDBRANCH   2   9
ENDBRANCH   1   2
BRANCH   1  11
ATOM     11  O   UNL     1      13.145  11.449  15.140  1.00  0.00    -0.491 OA
BRANCH  11  12
ATOM     12  C   UNL     1      13.411  10.557  16.190  1.00  0.00     0.119 A 
ATOM     13  C   UNL     1      12.976   9.218  16.171  1.00  0.00     0.048 A 
ATOM     14  C   UNL     1      14.141  11.022  17.289  1.00  0.00     0.048 A 
ATOM     15  C   UNL     1      13.266   8.369  17.243  1.00  0.00     0.030 A 
ATOM     16  C   UNL     1      14.431  10.172  18.361  1.00  0.00     0.030 A 
ATOM     17  C   UNL     1      13.979   8.840  18.354  1.00  0.00     0.041 A 
BRANCH  17  18
ATOM     18  N   UNL     1      14.284   7.938  19.431  1.00  0.00    -0.326 N 
ATOM     19  C   UNL     1      13.649   7.975  20.719  1.00  0.00     0.221 C 
ATOM     20  H   UNL     1      14.949   7.155  19.243  1.00  0.00     0.169 HD
ATOM     21  C   UNL     1      14.173   7.126  21.831  1.00  0.00     0.114 C 
ATOM     22  O   UNL     1      12.602   8.653  20.900  1.00  0.00    -0.275 OA
ENDBRANCH  17  18
ENDBRANCH  11  12
ENDBRANCH   1  11
TORSDOF 8
ENDMDL
MODEL 11
REMARK VINA RESULT:    -5.979      2.546      3.837
REMARK INTER + INTRA:          -9.688
REMARK INTER:                  -8.471
REMARK INTRA:                  -1.217
REMARK UNBOUND:                -1.087
REMARK SMILES CC(=O)Nc1ccc(OCC(O)CNC(C)C)cc1
REMARK SMILES IDX 10 1 11 2 13 3 14 4 15 6 16 7 17 8 12 9 9 11 8 12 7 13 18 14
REMARK SMILES IDX 6 15 19 16 5 17 4 18 2 19 1 21 3 22
REMARK H PARENT 14 5 12 10 4 20
REMARK Flexibility Score: inf
ROOT
ATOM      1  C   UNL     1      12.890   9.120  20.468  1.00  0.00     0.262 C 
ENDROOT
BRANCH   1   2
ATOM      2  C   UNL     1      14.184   8.668  19.775  1.00  0.00     0.165 C 
BRANCH   2   3
ATOM      3  C   UNL     1      14.379   9.405  18.431  1.00  0.00     0.116 C 
BRANCH   3   4
ATOM      4  N   UNL     1      13.868   8.630  17.282  1.00  0.00    -0.312 NA
ATOM      5  H   UNL     1      12.988   8.132  17.555  1.00  0.00     0.123 HD
BRANCH   4   6
ATOM      6  C   UNL     1      13.659   9.455  16.075  1.00  0.00     0.047 C 
ATOM      7  C   UNL     1      13.669  10.948  16.431  1.00  0.00     0.024 C 
ATOM      8  C   UNL     1      12.317   9.090  15.427  1.00  0.00     0.024 C 
ENDBRANCH   4   6
ENDBRANCH   3   4
ENDBRANCH   2   3
BRANCH   2   9
ATOM      9  O   UNL     1      14.186   7.274  19.593  1.00  0.00    -0.388 OA
ATOM     10  H   UNL     1      13.239   6.974  19.564  1.00  0.00     0.211 HD
ENDBRANCH   2   9
ENDBRANCH   1   2
BRANCH   1  11
ATOM     11  O   UNL     1      11.770   8.794  19.648  1.00  0.00    -0.491 OA
BRANCH  11  12
ATOM     12  C   UNL     1      10.927   9.739  19.043  1.00  0.00     0.119 A 
ATOM     13  C   UNL     1       9.830   9.369  18.244  1.00  0.00     0.048 A 
ATOM     14  C   UNL     1      11.193  11.096  19.253  1.00  0.00     0.048 A 
ATOM     15  C   UNL     1       9.020  10.350  17.663  1.00  0.00     0.030 A 
ATOM     16  C   UNL     1      10.383  12.077  18.671  1.00  0.00     0.030 A 
ATOM     17  C   UNL     1       9.299  11.710  17.855  1.00  0.00     0.041 A 
BRANCH  17  18
ATOM     18  N   UNL     1       8.435  12.697  17.264  1.00  0.00    -0.326 N 
ATOM     19  C   UNL     1       8.774  13.477  16.106  1.00  0.00     0.221 C 
ATOM     20  H   UNL     1       7.469  12.798  17.649  1.00  0.00     0.169 HD
ATOM     21  C   UNL     1       7.895  14.610  15.690  1.00  0.00     0.114 C 
ATOM     22  O   UNL     1       9.761  13.164  15.387  1.00  0.00    -0.275 OA
ENDBRANCH  17  18
ENDBRANCH  11  12
ENDBRANCH   1  11
TORSDOF 8
ENDMDL
MODEL 12
REMARK VINA RESULT:    -5.942      2.233      6.177
REMARK INTER + INTRA:          -9.635
REMARK INTER:                  -8.344
REMARK INTRA:                  -1.291
REMARK UNBOUND:                -1.087
REMARK SMILES CC(=O)Nc1ccc(OCC(O)CNC(C)C)cc1
REMARK SMILES IDX 10 1 11 2 13 3 14 4 15 6 16 7 17 8 12 9 9 11 8 12 7 13 18 14
REMARK SMILES IDX 6 15 19 16 5 17 4 18 2 19 1 21 3 22
REMARK H PARENT 14 5 12 10 4 20
REMARK Flexibility Score: inf
ROOT
ATOM      1  C   UNL     1      12.421   9.456  14.963  1.00  0.00     0.262 C 
ENDROOT
BRANCH   1   2
ATOM      2  C   UNL     1      12.232  10.980  14.950  1.00  0.00     0.165 C 
BRANCH   2   3
ATOM      3  C   UNL     1      11.044  11.399  15.846  1.00  0.00     0.116 C 
BRANCH   3   4
ATOM      4  N   UNL     1      10.474  10.262  16.597  1.00  0.00    -0.312 NA
ATOM      5  H   UNL     1      11.192   9.506  16.691  1.00  0.00     0.123 HD
BRANCH   4   6
ATOM      6  C   UNL     1       9.936  10.651  17.916  1.00  0.00     0.047 C 
ATOM      7  C   UNL     1      10.952  11.509  18.683  1.00  0.00     0.024 C 
ATOM      8  C   UNL     1       9.607   9.394  18.731  1.00  0.00     0.024 C 
ENDBRANCH   4   6
ENDBRANCH   3   4
ENDBRANCH   2   3
BRANCH   2   9
ATOM      9  O   UNL     1      12.063  11.446  13.635  1.00  0.00    -0.388 OA
ATOM     10  H   UNL     1      11.090  11.434  13.435  1.00  0.00     0.211 HD
ENDBRANCH   2   9
ENDBRANCH   1   2
BRANCH   1  11
ATOM     11  O   UNL     1      13.590   9.127  15.712  1.00  0.00    -0.491 OA
BRANCH  11  12
ATOM     12  C   UNL     1      13.653   9.104  17.113  1.00  0.00     0.119 A 
ATOM     13  C   UNL     1      14.330  10.090  17.855  1.00  0.00     0.048 A 
ATOM     14  C   UNL     1      13.013   8.061  17.790  1.00  0.00     0.048 A 
ATOM     15  C   UNL     1      14.366  10.021  19.250  1.00  0.00     0.030 A 
ATOM     16  C   UNL     1      13.049   7.992  19.187  1.00  0.00     0.030 A 
ATOM     17  C   UNL     1      13.742   8.964  19.928  1.00  0.00     0.041 A 
BRANCH  17  18
ATOM     18  N   UNL     1      13.775   8.932  21.366  1.00  0.00    -0.326 N 
ATOM     19  C   UNL     1      12.792   9.552  22.209  1.00  0.00     0.221 C 
ATOM     20  H   UNL     1      14.511   8.352  21.827  1.00  0.00     0.169 HD
ATOM     21  C   UNL     1      13.019   9.630  23.683  1.00  0.00     0.114 C 
ATOM     22  O   UNL     1      11.698   9.958  21.731  1.00  0.00    -0.275 OA
ENDBRANCH  17  18
ENDBRANCH  11  12
ENDBRANCH   1  11
TORSDOF 8
ENDMDL
MODEL 13
REMARK VINA RESULT:    -5.927      2.276      2.508
REMARK INTER + INTRA:          -9.612
REMARK INTER:                  -8.578
REMARK INTRA:                  -1.034
REMARK UNBOUND:                -1.087
REMARK SMILES CC(=O)Nc1ccc(OCC(O)CNC(C)C)cc1
REMARK SMILES IDX 10 1 11 2 13 3 14 4 15 6 16 7 17 8 12 9 9 11 8 12 7 13 18 14
REMARK SMILES IDX 6 15 19 16 5 17 4 18 2 19 1 21 3 22
REMARK H PARENT 14 5 12 10 4 20
REMARK Flexibility Score: inf
ROOT
ATOM      1  C   UNL     1      13.168   7.937  17.425  1.00  0.00     0.262 C 
ENDROOT
BRANCH   1   2
ATOM      2  C   UNL     1      11.679   7.583  17.293  1.00  0.00     0.165 C 
BRANCH   2   3
ATOM      3  C   UNL     1      10.815   8.461  18.226  1.00  0.00     0.116 C 
BRANCH   3   4
ATOM      4  N   UNL     1       9.627   9.012  17.543  1.00  0.00    -0.312 NA
ATOM      5  H   UNL     1       8.759   8.580  17.940  1.00  0.00     0.123 HD
BRANCH   4   6
ATOM      6  C   UNL     1       9.559  10.487  17.599  1.00  0.00     0.047 C 
ATOM      7  C   UNL     1      10.614  11.040  18.568  1.00  0.00     0.024 C 
ATOM      8  C   UNL     1       8.163  10.923  18.058  1.00  0.00     0.024 C 
ENDBRANCH   4   6
ENDBRANCH   3   4
ENDBRANCH   2   3
BRANCH   2   9
ATOM      9  O   UNL     1      11.472   6.216  17.549  1.00  0.00    -0.388 OA
ATOM     10  H   UNL     1      12.050   5.964  18.316  1.00  0.00     0.211 HD
ENDBRANCH   2   9
ENDBRANCH   1   2
BRANCH   1  11
ATOM     11  O   UNL     1      13.598   8.631  16.256  1.00  0.00    -0.491 OA
BRANCH  11  12
ATOM     12  C   UNL     1      13.071   9.856  15.821  1.00  0.00     0.119 A 
ATOM     13  C   UNL     1      12.057   9.940  14.849  1.00  0.00     0.048 A 
ATOM     14  C   UNL     1      13.574  11.033  16.385  1.00  0.00     0.048 A 
ATOM     15  C   UNL     1      11.566  11.186  14.449  1.00  0.00     0.030 A 
ATOM     16  C   UNL     1      13.082  12.280  15.985  1.00  0.00     0.030 A 
ATOM     17  C   UNL     1      12.085  12.366  14.998  1.00  0.00     0.041 A 
BRANCH  17  18
ATOM     18  N   UNL     1      11.544  13.634  14.585  1.00  0.00    -0.326 N 
ATOM     19  C   UNL     1      10.252  14.125  14.974  1.00  0.00     0.221 C 
ATOM     20  H   UNL     1      12.160  14.275  14.036  1.00  0.00     0.169 HD
ATOM     21  C   UNL     1       9.702  15.359  14.336  1.00  0.00     0.114 C 
ATOM     22  O   UNL     1       9.609  13.575  15.908  1.00  0.00    -0.275 OA
ENDBRANCH  17  18
ENDBRANCH  11  12
ENDBRANCH   1  11
TORSDOF 8
ENDMDL
MODEL 14
REMARK VINA RESULT:    -5.901      2.912      4.221
REMARK INTER + INTRA:          -9.575
REMARK INTER:                  -8.777
REMARK INTRA:                  -0.799
REMARK UNBOUND:                -1.087
REMARK SMILES CC(=O)Nc1ccc(OCC(O)CNC(C)C)cc1
REMARK SMILES IDX 10 1 11 2 13 3 14 4 15 6 16 7 17 8 12 9 9 11 8 12 7 13 18 14
REMARK SMILES IDX 6 15 19 16 5 17 4 18 2 19 1 21 3 22
REMARK H PARENT 14 5 12 10 4 20
REMARK Flexibility Score: inf
ROOT
ATOM      1  C   UNL     1      12.174   8.587  15.732  1.00  0.00     0.262 C 
ENDROOT
BRANCH   1   2
ATOM      2  C   UNL     1      11.972   7.717  16.982  1.00  0.00     0.165 C 
BRANCH   2   3
ATOM      3  C   UNL     1      11.170   8.477  18.063  1.00  0.00     0.116 C 
BRANCH   3   4
ATOM      4  N   UNL     1       9.794   8.791  17.629  1.00  0.00    -0.312 NA
ATOM      5  H   UNL     1       9.110   8.221  18.182  1.00  0.00     0.123 HD
BRANCH   4   6
ATOM      6  C   UNL     1       9.475  10.230  17.712  1.00  0.00     0.047 C 
ATOM      7  C   UNL     1      10.515  10.966  18.568  1.00  0.00     0.024 C 
ATOM      8  C   UNL     1       8.082  10.416  18.326  1.00  0.00     0.024 C 
ENDBRANCH   4   6
ENDBRANCH   3   4
ENDBRANCH   2   3
BRANCH   2   9
ATOM      9  O   UNL     1      13.211   7.280  17.484  1.00  0.00    -0.388 OA
ATOM     10  H   UNL     1      13.914   7.579  16.850  1.00  0.00     0.211 HD
ENDBRANCH   2   9
ENDBRANCH   1   2
BRANCH   1  11
ATOM     11  O   UNL     1      13.480   9.158  15.754  1.00  0.00    -0.491 OA
BRANCH  11  12
ATOM     12  C   UNL     1      13.816  10.345  16.422  1.00  0.00     0.119 A 
ATOM     13  C   UNL     1      14.762  10.382  17.464  1.00  0.00     0.048 A 
ATOM     14  C   UNL     1      13.188  11.530  16.029  1.00  0.00     0.048 A 
ATOM     15  C   UNL     1      15.062  11.591  18.100  1.00  0.00     0.030 A 
ATOM     16  C   UNL     1      13.487  12.740  16.665  1.00  0.00     0.030 A 
ATOM     17  C   UNL     1      14.416  12.775  17.720  1.00  0.00     0.041 A 
BRANCH  17  18
ATOM     18  N   UNL     1      14.761  14.008  18.375  1.00  0.00    -0.326 N 
ATOM     19  C   UNL     1      15.952  14.762  18.100  1.00  0.00     0.221 C 
ATOM     20  H   UNL     1      14.065  14.426  19.033  1.00  0.00     0.169 HD
ATOM     21  C   UNL     1      16.316  15.921  18.970  1.00  0.00     0.114 C 
ATOM     22  O   UNL     1      16.651  14.511  17.082  1.00  0.00    -0.275 OA
ENDBRANCH  17  18
ENDBRANCH  11  12
ENDBRANCH   1  11
TORSDOF 8
ENDMDL
MODEL 15
REMARK VINA RESULT:    -5.829      2.255      3.420
REMARK INTER + INTRA:          -9.472
REMARK INTER:                  -8.466
REMARK INTRA:                  -1.005
REMARK UNBOUND:                -1.087
REMARK SMILES CC(=O)Nc1ccc(OCC(O)CNC(C)C)cc1
REMARK SMILES IDX 10 1 11 2 13 3 14 4 15 6 16 7 17 8 12 9 9 11 8 12 7 13 18 14
REMARK SMILES IDX 6 15 19 16 5 17 4 18 2 19 1 21 3 22
REMARK H PARENT 14 5 12 10 4 20
REMARK Flexibility Score: inf
ROOT
ATOM      1  C   UNL     1      10.735  10.649  18.486  1.00  0.00     0.262 C 
ENDROOT
BRANCH   1   2
ATOM      2  C   UNL     1      10.644   9.117  18.423  1.00  0.00     0.165 C 
BRANCH   2   3
ATOM      3  C   UNL     1      11.990   8.499  17.983  1.00  0.00     0.116 C 
BRANCH   3   4
ATOM      4  N   UNL     1      13.153   9.239  18.516  1.00  0.00    -0.312 NA
ATOM      5  H   UNL     1      13.532   8.742  19.356  1.00  0.00     0.123 HD
BRANCH   4   6
ATOM      6  C   UNL     1      14.209   9.460  17.508  1.00  0.00     0.047 C 
ATOM      7  C   UNL     1      14.345  10.955  17.187  1.00  0.00     0.024 C 
ATOM      8  C   UNL     1      13.870   8.689  16.227  1.00  0.00     0.024 C 
ENDBRANCH   4   6
ENDBRANCH   3   4
ENDBRANCH   2   3
BRANCH   2   9
ATOM      9  O   UNL     1       9.601   8.720  17.569  1.00  0.00    -0.388 OA
ATOM     10  H   UNL     1      10.013   8.349  16.745  1.00  0.00     0.211 HD
ENDBRANCH   2   9
ENDBRANCH   1   2
BRANCH   1  11
ATOM     11  O   UNL     1      10.107  11.213  17.337  1.00  0.00    -0.491 OA
BRANCH  11  12
ATOM     12  C   UNL     1      10.796  11.744  16.237  1.00  0.00     0.119 A 
ATOM     13  C   UNL     1      10.982  13.128  16.059  1.00  0.00     0.048 A 
ATOM     14  C   UNL     1      11.320  10.859  15.290  1.00  0.00     0.048 A 
ATOM     15  C   UNL     1      11.676  13.608  14.944  1.00  0.00     0.030 A 
ATOM     16  C   UNL     1      12.015  11.339  14.174  1.00  0.00     0.030 A 
ATOM     17  C   UNL     1      12.182  12.722  13.984  1.00  0.00     0.041 A 
BRANCH  17  18
ATOM     18  N   UNL     1      12.913  13.242  12.859  1.00  0.00    -0.326 N 
ATOM     19  C   UNL     1      12.420  13.248  11.510  1.00  0.00     0.221 C 
ATOM     20  H   UNL     1      13.823  13.720  13.044  1.00  0.00     0.169 HD
ATOM     21  C   UNL     1      13.330  13.628  10.388  1.00  0.00     0.114 C 
ATOM     22  O   UNL     1      11.204  13.017  11.268  1.00  0.00    -0.275 OA
ENDBRANCH  17  18
ENDBRANCH  11  12
ENDBRANCH   1  11
TORSDOF 8
ENDMDL
