MODEL 1
REMARK VINA RESULT:    -6.828      0.000      0.000
REMARK INTER + INTRA:          -9.161
REMARK INTER:                  -8.824
REMARK INTRA:                  -0.336
REMARK UNBOUND:                -0.336
REMARK SMILES CN(C)c1ccc(O)c2c1C[C@H]1C[C@H]3[C@H](N(C)C)C(O)=C(C(N)=O)C(=O)[C@@]3(O)C(O)=C1C2=O
REMARK SMILES IDX 12 1 11 2 10 3 9 4 7 5 6 6 5 7 4 8 32 9 33 10 31 11 29 12
REMARK SMILES IDX 27 13 25 14 26 15 21 16 19 17 15 18 14 19 13 20 30 21 2 23
REMARK SMILES IDX 1 24 3 25 28 26 16 28 17 29 18 30 8 31 20 33 22 35 23 36
REMARK SMILES IDX 24 37
REMARK H PARENT 30 22 28 27 8 32 20 34 23 38 23 39
REMARK Flexibility Score: inf
ROOT
ATOM      1  C   UNL     1      21.615  39.734  -9.630  1.00  0.00     0.032 C 
ATOM      2  C   UNL     1      21.806  38.214  -9.756  1.00  0.00     0.047 C 
ATOM      3  C   UNL     1      22.440  37.625  -8.514  1.00  0.00    -0.009 A 
ATOM      4  C   UNL     1      22.211  38.221  -7.245  1.00  0.00     0.069 A 
ATOM      5  C   UNL     1      22.892  37.698  -6.110  1.00  0.00     0.127 A 
ATOM      6  C   UNL     1      23.653  36.533  -6.233  1.00  0.00     0.049 A 
ATOM      7  C   UNL     1      23.809  35.910  -7.467  1.00  0.00     0.030 A 
ATOM      8  C   UNL     1      23.217  36.449  -8.610  1.00  0.00     0.040 A 
ATOM      9  C   UNL     1      21.237  39.351  -7.155  1.00  0.00     0.196 C 
ATOM     10  O   UNL     1      20.816  39.731  -6.032  1.00  0.00    -0.289 OA
ATOM     11  C   UNL     1      20.777  40.033  -8.403  1.00  0.00     0.045 C 
ATOM     12  C   UNL     1      19.759  40.942  -8.428  1.00  0.00     0.140 C 
ATOM     13  C   UNL     1      19.466  41.832  -9.640  1.00  0.00     0.190 C 
ATOM     14  C   UNL     1      18.127  41.431 -10.239  1.00  0.00     0.211 C 
ATOM     15  O   UNL     1      17.131  41.297  -9.475  1.00  0.00    -0.290 OA
ATOM     16  C   UNL     1      17.932  41.277 -11.705  1.00  0.00     0.125 C 
ATOM     17  C   UNL     1      18.903  41.671 -12.562  1.00  0.00     0.126 C 
ATOM     18  C   UNL     1      20.132  42.408 -12.059  1.00  0.00     0.130 C 
ATOM     19  C   UNL     1      20.589  41.757 -10.717  1.00  0.00     0.062 C 
ATOM     20  C   UNL     1      21.017  40.295 -10.926  1.00  0.00     0.018 C 
ENDROOT
BRANCH  12  21
ATOM     21  O   UNL     1      18.892  41.103  -7.342  1.00  0.00    -0.508 OA
ATOM     22  H   UNL     1      18.969  41.852  -6.668  1.00  0.00     0.293 HD
ENDBRANCH  12  21
BRANCH   8  23
ATOM     23  N   UNL     1      23.408  35.787  -9.869  1.00  0.00    -0.377 N 
ATOM     24  C   UNL     1      24.748  35.355 -10.260  1.00  0.00     0.143 C 
ATOM     25  C   UNL     1      22.238  35.299 -10.599  1.00  0.00     0.143 C 
ENDBRANCH   8  23
BRANCH  13  26
ATOM     26  O   UNL     1      19.339  43.162  -9.197  1.00  0.00    -0.374 OA
ATOM     27  H   UNL     1      18.587  43.200  -8.549  1.00  0.00     0.212 HD
ENDBRANCH  13  26
BRANCH  18  28
ATOM     28  N   UNL     1      19.868  43.873 -11.915  1.00  0.00    -0.299 NA
ATOM     29  C   UNL     1      19.175  44.426 -13.098  1.00  0.00     0.105 C 
ATOM     30  C   UNL     1      21.123  44.630 -11.722  1.00  0.00     0.105 C 
ENDBRANCH  18  28
BRANCH   5  31
ATOM     31  O   UNL     1      22.877  38.311  -4.856  1.00  0.00    -0.507 OA
ATOM     32  H   UNL     1      23.420  37.994  -4.067  1.00  0.00     0.293 HD
ENDBRANCH   5  31
BRANCH  17  33
ATOM     33  O   UNL     1      18.826  41.421 -13.937  1.00  0.00    -0.510 OA
ATOM     34  H   UNL     1      17.966  41.205 -14.421  1.00  0.00     0.293 HD
ENDBRANCH  17  33
BRANCH  16  35
ATOM     35  C   UNL     1      16.668  40.681 -12.193  1.00  0.00     0.255 C 
ATOM     36  N   UNL     1      15.411  41.269 -11.855  1.00  0.00    -0.365 N 
ATOM     37  O   UNL     1      16.696  39.662 -12.935  1.00  0.00    -0.269 OA
ATOM     38  H   UNL     1      14.524  40.868 -12.232  1.00  0.00     0.159 HD
ATOM     39  H   UNL     1      15.359  42.084 -11.203  1.00  0.00     0.159 HD
ENDBRANCH  16  35
TORSDOF 7
ENDMDL
MODEL 2
REMARK VINA RESULT:    -6.821      2.918      5.243
REMARK INTER + INTRA:          -9.151
REMARK INTER:                  -8.965
REMARK INTRA:                  -0.185
REMARK UNBOUND:                -0.336
REMARK SMILES CN(C)c1ccc(O)c2c1C[C@H]1C[C@H]3[C@H](N(C)C)C(O)=C(C(N)=O)C(=O)[C@@]3(O)C(O)=C1C2=O
REMARK SMILES IDX 12 1 11 2 10 3 9 4 7 5 6 6 5 7 4 8 32 9 33 10 31 11 29 12
REMARK SMILES IDX 27 13 25 14 26 15 21 16 19 17 15 18 14 19 13 20 30 21 2 23
REMARK SMILES IDX 1 24 3 25 28 26 16 28 17 29 18 30 8 31 20 33 22 35 23 36
REMARK SMILES IDX 24 37
REMARK H PARENT 30 22 28 27 8 32 20 34 23 38 23 39
REMARK Flexibility Score: inf
ROOT
ATOM      1  C   UNL     1      20.009  40.286  -8.431  1.00  0.00     0.032 C 
ATOM      2  C   UNL     1      21.383  39.606  -8.313  1.00  0.00     0.047 C 
ATOM      3  C   UNL     1      21.490  38.402  -9.224  1.00  0.00    -0.009 A 
ATOM      4  C   UNL     1      20.769  38.365 -10.447  1.00  0.00     0.069 A 
ATOM      5  C   UNL     1      20.820  37.183 -11.238  1.00  0.00     0.127 A 
ATOM      6  C   UNL     1      21.682  36.144 -10.877  1.00  0.00     0.049 A 
ATOM      7  C   UNL     1      22.445  36.221  -9.717  1.00  0.00     0.030 A 
ATOM      8  C   UNL     1      22.352  37.336  -8.883  1.00  0.00     0.040 A 
ATOM      9  C   UNL     1      20.013  39.586 -10.864  1.00  0.00     0.196 C 
ATOM     10  O   UNL     1      19.581  39.687 -12.042  1.00  0.00    -0.289 OA
ATOM     11  C   UNL     1      19.765  40.677  -9.874  1.00  0.00     0.045 C 
ATOM     12  C   UNL     1      19.251  41.895 -10.214  1.00  0.00     0.140 C 
ATOM     13  C   UNL     1      18.750  42.907  -9.180  1.00  0.00     0.190 C 
ATOM     14  C   UNL     1      19.663  44.123  -9.190  1.00  0.00     0.211 C 
ATOM     15  O   UNL     1      19.961  44.655 -10.295  1.00  0.00    -0.290 OA
ATOM     16  C   UNL     1      20.148  44.756  -7.934  1.00  0.00     0.125 C 
ATOM     17  C   UNL     1      19.635  44.374  -6.742  1.00  0.00     0.126 C 
ATOM     18  C   UNL     1      18.463  43.411  -6.671  1.00  0.00     0.130 C 
ATOM     19  C   UNL     1      18.665  42.300  -7.748  1.00  0.00     0.062 C 
ATOM     20  C   UNL     1      19.925  41.468  -7.457  1.00  0.00     0.018 C 
ENDROOT
BRANCH  12  21
ATOM     21  O   UNL     1      19.172  42.311 -11.548  1.00  0.00    -0.508 OA
ATOM     22  H   UNL     1      19.944  42.722 -12.055  1.00  0.00     0.293 HD
ENDBRANCH  12  21
BRANCH   8  23
ATOM     23  N   UNL     1      23.145  37.377  -7.688  1.00  0.00    -0.377 N 
ATOM     24  C   UNL     1      22.611  36.816  -6.449  1.00  0.00     0.143 C 
ATOM     25  C   UNL     1      24.566  37.708  -7.790  1.00  0.00     0.143 C 
ENDBRANCH   8  23
BRANCH  13  26
ATOM     26  O   UNL     1      17.471  43.348  -9.571  1.00  0.00    -0.374 OA
ATOM     27  H   UNL     1      17.364  44.288  -9.268  1.00  0.00     0.212 HD
ENDBRANCH  13  26
BRANCH  18  28
ATOM     28  N   UNL     1      17.160  44.126  -6.837  1.00  0.00    -0.299 NA
ATOM     29  C   UNL     1      17.324  45.593  -6.761  1.00  0.00     0.105 C 
ATOM     30  C   UNL     1      16.186  43.718  -5.801  1.00  0.00     0.105 C 
ENDBRANCH  18  28
BRANCH   5  31
ATOM     31  O   UNL     1      20.017  36.974 -12.360  1.00  0.00    -0.507 OA
ATOM     32  H   UNL     1      19.924  36.085 -12.830  1.00  0.00     0.293 HD
ENDBRANCH   5  31
BRANCH  17  33
ATOM     33  O   UNL     1      20.154  44.838  -5.527  1.00  0.00    -0.510 OA
ATOM     34  H   UNL     1      19.783  44.580  -4.623  1.00  0.00     0.293 HD
ENDBRANCH  17  33
BRANCH  16  35
ATOM     35  C   UNL     1      21.198  45.795  -8.026  1.00  0.00     0.255 C 
ATOM     36  N   UNL     1      21.014  47.068  -7.405  1.00  0.00    -0.365 N 
ATOM     37  O   UNL     1      22.276  45.552  -8.632  1.00  0.00    -0.269 OA
ATOM     38  H   UNL     1      21.773  47.785  -7.439  1.00  0.00     0.159 HD
ATOM     39  H   UNL     1      20.111  47.313  -6.939  1.00  0.00     0.159 HD
ENDBRANCH  16  35
TORSDOF 7
ENDMDL
MODEL 3
REMARK VINA RESULT:    -6.811      2.386      4.544
REMARK INTER + INTRA:          -9.139
REMARK INTER:                  -8.418
REMARK INTRA:                  -0.721
REMARK UNBOUND:                -0.336
REMARK SMILES CN(C)c1ccc(O)c2c1C[C@H]1C[C@H]3[C@H](N(C)C)C(O)=C(C(N)=O)C(=O)[C@@]3(O)C(O)=C1C2=O
REMARK SMILES IDX 12 1 11 2 10 3 9 4 7 5 6 6 5 7 4 8 32 9 33 10 31 11 29 12
REMARK SMILES IDX 27 13 25 14 26 15 21 16 19 17 15 18 14 19 13 20 30 21 2 23
REMARK SMILES IDX 1 24 3 25 28 26 16 28 17 29 18 30 8 31 20 33 22 35 23 36
REMARK SMILES IDX 24 37
REMARK H PARENT 30 22 28 27 8 32 20 34 23 38 23 39
REMARK Flexibility Score: inf
ROOT
ATOM      1  C   UNL     1      20.248  39.105  -9.734  1.00  0.00     0.032 C 
ATOM      2  C   UNL     1      21.506  38.801  -8.904  1.00  0.00     0.047 C 
ATOM      3  C   UNL     1      22.153  37.500  -9.326  1.00  0.00    -0.009 A 
ATOM      4  C   UNL     1      22.052  37.055 -10.672  1.00  0.00     0.069 A 
ATOM      5  C   UNL     1      22.594  35.786 -11.016  1.00  0.00     0.127 A 
ATOM      6  C   UNL     1      23.335  35.069 -10.074  1.00  0.00     0.049 A 
ATOM      7  C   UNL     1      23.497  35.548  -8.779  1.00  0.00     0.030 A 
ATOM      8  C   UNL     1      22.907  36.753  -8.393  1.00  0.00     0.040 A 
ATOM      9  C   UNL     1      21.407  37.959 -11.673  1.00  0.00     0.196 C 
ATOM     10  O   UNL     1      21.525  37.722 -12.903  1.00  0.00    -0.289 OA
ATOM     11  C   UNL     1      20.614  39.136 -11.204  1.00  0.00     0.045 C 
ATOM     12  C   UNL     1      20.151  40.108 -12.043  1.00  0.00     0.140 C 
ATOM     13  C   UNL     1      19.122  41.159 -11.613  1.00  0.00     0.190 C 
ATOM     14  C   UNL     1      19.785  42.528 -11.602  1.00  0.00     0.211 C 
ATOM     15  O   UNL     1      20.466  42.886 -12.602  1.00  0.00    -0.290 OA
ATOM     16  C   UNL     1      19.586  43.492 -10.487  1.00  0.00     0.125 C 
ATOM     17  C   UNL     1      18.657  43.244  -9.535  1.00  0.00     0.126 C 
ATOM     18  C   UNL     1      17.704  42.068  -9.665  1.00  0.00     0.130 C 
ATOM     19  C   UNL     1      18.498  40.845 -10.221  1.00  0.00     0.062 C 
ATOM     20  C   UNL     1      19.598  40.403  -9.242  1.00  0.00     0.018 C 
ENDROOT
BRANCH  12  21
ATOM     21  O   UNL     1      20.611  40.223 -13.359  1.00  0.00    -0.508 OA
ATOM     22  H   UNL     1      20.822  41.105 -13.805  1.00  0.00     0.293 HD
ENDBRANCH  12  21
BRANCH   8  23
ATOM     23  N   UNL     1      23.084  37.213  -7.046  1.00  0.00    -0.377 N 
ATOM     24  C   UNL     1      22.363  36.556  -5.959  1.00  0.00     0.143 C 
ATOM     25  C   UNL     1      24.188  38.126  -6.747  1.00  0.00     0.143 C 
ENDBRANCH   8  23
BRANCH  13  26
ATOM     26  O   UNL     1      18.099  41.204 -12.579  1.00  0.00    -0.374 OA
ATOM     27  H   UNL     1      17.844  40.271 -12.801  1.00  0.00     0.212 HD
ENDBRANCH  13  26
BRANCH  18  28
ATOM     28  N   UNL     1      16.526  42.412 -10.520  1.00  0.00    -0.299 NA
ATOM     29  C   UNL     1      15.965  43.735 -10.174  1.00  0.00     0.105 C 
ATOM     30  C   UNL     1      15.451  41.406 -10.385  1.00  0.00     0.105 C 
ENDBRANCH  18  28
BRANCH   5  31
ATOM     31  O   UNL     1      22.397  35.178 -12.257  1.00  0.00    -0.507 OA
ATOM     32  H   UNL     1      22.496  34.187 -12.422  1.00  0.00     0.293 HD
ENDBRANCH   5  31
BRANCH  17  33
ATOM     33  O   UNL     1      18.527  44.047  -8.396  1.00  0.00    -0.510 OA
ATOM     34  H   UNL     1      17.971  44.890  -8.364  1.00  0.00     0.293 HD
ENDBRANCH  17  33
BRANCH  16  35
ATOM     35  C   UNL     1      20.429  44.708 -10.444  1.00  0.00     0.255 C 
ATOM     36  N   UNL     1      21.828  44.632 -10.722  1.00  0.00    -0.365 N 
ATOM     37  O   UNL     1      19.909  45.828 -10.188  1.00  0.00    -0.269 OA
ATOM     38  H   UNL     1      22.411  45.498 -10.729  1.00  0.00     0.159 HD
ATOM     39  H   UNL     1      22.292  43.710 -10.890  1.00  0.00     0.159 HD
ENDBRANCH  16  35
TORSDOF 7
ENDMDL
MODEL 4
REMARK VINA RESULT:    -6.797      4.339      6.608
REMARK INTER + INTRA:          -9.120
REMARK INTER:                  -8.804
REMARK INTRA:                  -0.316
REMARK UNBOUND:                -0.336
REMARK SMILES CN(C)c1ccc(O)c2c1C[C@H]1C[C@H]3[C@H](N(C)C)C(O)=C(C(N)=O)C(=O)[C@@]3(O)C(O)=C1C2=O
REMARK SMILES IDX 12 1 11 2 10 3 9 4 7 5 6 6 5 7 4 8 32 9 33 10 31 11 29 12
REMARK SMILES IDX 27 13 25 14 26 15 21 16 19 17 15 18 14 19 13 20 30 21 2 23
REMARK SMILES IDX 1 24 3 25 28 26 16 28 17 29 18 30 8 31 20 33 22 35 23 36
REMARK SMILES IDX 24 37
REMARK H PARENT 30 22 28 27 8 32 20 34 23 38 23 39
REMARK Flexibility Score: inf
ROOT
ATOM      1  C   UNL     1      19.471  41.107  -6.299  1.00  0.00     0.032 C 
ATOM      2  C   UNL     1      20.737  40.367  -5.836  1.00  0.00     0.047 C 
ATOM      3  C   UNL     1      21.284  39.464  -6.920  1.00  0.00    -0.009 A 
ATOM      4  C   UNL     1      21.104  39.800  -8.289  1.00  0.00     0.069 A 
ATOM      5  C   UNL     1      21.551  38.887  -9.284  1.00  0.00     0.127 A 
ATOM      6  C   UNL     1      22.279  37.755  -8.909  1.00  0.00     0.049 A 
ATOM      7  C   UNL     1      22.519  37.472  -7.569  1.00  0.00     0.030 A 
ATOM      8  C   UNL     1      22.022  38.311  -6.570  1.00  0.00     0.040 A 
ATOM      9  C   UNL     1      20.481  41.119  -8.621  1.00  0.00     0.196 C 
ATOM     10  O   UNL     1      20.538  41.563  -9.797  1.00  0.00    -0.289 OA
ATOM     11  C   UNL     1      19.783  41.897  -7.554  1.00  0.00     0.045 C 
ATOM     12  C   UNL     1      19.352  43.180  -7.724  1.00  0.00     0.140 C 
ATOM     13  C   UNL     1      18.409  43.881  -6.740  1.00  0.00     0.190 C 
ATOM     14  C   UNL     1      19.158  45.014  -6.054  1.00  0.00     0.211 C 
ATOM     15  O   UNL     1      19.822  45.822  -6.759  1.00  0.00    -0.290 OA
ATOM     16  C   UNL     1      19.063  45.249  -4.589  1.00  0.00     0.125 C 
ATOM     17  C   UNL     1      18.155  44.568  -3.851  1.00  0.00     0.126 C 
ATOM     18  C   UNL     1      17.126  43.672  -4.517  1.00  0.00     0.130 C 
ATOM     19  C   UNL     1      17.818  42.901  -5.684  1.00  0.00     0.062 C 
ATOM     20  C   UNL     1      18.923  41.971  -5.156  1.00  0.00     0.018 C 
ENDROOT
BRANCH  12  21
ATOM     21  O   UNL     1      19.769  43.957  -8.810  1.00  0.00    -0.508 OA
ATOM     22  H   UNL     1      19.870  44.962  -8.776  1.00  0.00     0.293 HD
ENDBRANCH  12  21
BRANCH   8  23
ATOM     23  N   UNL     1      22.278  37.984  -5.197  1.00  0.00    -0.377 N 
ATOM     24  C   UNL     1      21.992  36.636  -4.712  1.00  0.00     0.143 C 
ATOM     25  C   UNL     1      23.082  38.899  -4.387  1.00  0.00     0.143 C 
ENDBRANCH   8  23
BRANCH  13  26
ATOM     26  O   UNL     1      17.356  44.465  -7.469  1.00  0.00    -0.374 OA
ATOM     27  H   UNL     1      16.522  44.364  -6.939  1.00  0.00     0.212 HD
ENDBRANCH  13  26
BRANCH  18  28
ATOM     28  N   UNL     1      15.941  44.456  -4.985  1.00  0.00    -0.299 NA
ATOM     29  C   UNL     1      15.575  45.522  -4.027  1.00  0.00     0.105 C 
ATOM     30  C   UNL     1      14.761  43.586  -5.177  1.00  0.00     0.105 C 
ENDBRANCH  18  28
BRANCH   5  31
ATOM     31  O   UNL     1      21.269  39.033 -10.643  1.00  0.00    -0.507 OA
ATOM     32  H   UNL     1      21.912  38.788 -11.382  1.00  0.00     0.293 HD
ENDBRANCH   5  31
BRANCH  17  33
ATOM     33  O   UNL     1      18.120  44.652  -2.454  1.00  0.00    -0.510 OA
ATOM     34  H   UNL     1      17.875  43.879  -1.852  1.00  0.00     0.293 HD
ENDBRANCH  17  33
BRANCH  16  35
ATOM     35  C   UNL     1      19.982  46.230  -3.969  1.00  0.00     0.255 C 
ATOM     36  N   UNL     1      20.190  47.509  -4.569  1.00  0.00    -0.365 N 
ATOM     37  O   UNL     1      20.568  45.950  -2.888  1.00  0.00    -0.269 OA
ATOM     38  H   UNL     1      20.810  48.212  -4.107  1.00  0.00     0.159 HD
ATOM     39  H   UNL     1      19.754  47.748  -5.488  1.00  0.00     0.159 HD
ENDBRANCH  16  35
TORSDOF 7
ENDMDL
MODEL 5
REMARK VINA RESULT:    -6.796      3.562      4.585
REMARK INTER + INTRA:          -9.119
REMARK INTER:                  -9.122
REMARK INTRA:                   0.003
REMARK UNBOUND:                -0.336
REMARK SMILES CN(C)c1ccc(O)c2c1C[C@H]1C[C@H]3[C@H](N(C)C)C(O)=C(C(N)=O)C(=O)[C@@]3(O)C(O)=C1C2=O
REMARK SMILES IDX 12 1 11 2 10 3 9 4 7 5 6 6 5 7 4 8 32 9 33 10 31 11 29 12
REMARK SMILES IDX 27 13 25 14 26 15 21 16 19 17 15 18 14 19 13 20 30 21 2 23
REMARK SMILES IDX 1 24 3 25 28 26 16 28 17 29 18 30 8 31 20 33 22 35 23 36
REMARK SMILES IDX 24 37
REMARK H PARENT 30 22 28 27 8 32 20 34 23 38 23 39
REMARK Flexibility Score: inf
ROOT
ATOM      1  C   UNL     1      20.317  41.739  -7.543  1.00  0.00     0.032 C 
ATOM      2  C   UNL     1      20.087  40.590  -8.539  1.00  0.00     0.047 C 
ATOM      3  C   UNL     1      20.924  39.377  -8.196  1.00  0.00    -0.009 A 
ATOM      4  C   UNL     1      21.264  39.104  -6.844  1.00  0.00     0.069 A 
ATOM      5  C   UNL     1      22.126  38.007  -6.563  1.00  0.00     0.127 A 
ATOM      6  C   UNL     1      22.504  37.140  -7.591  1.00  0.00     0.049 A 
ATOM      7  C   UNL     1      22.103  37.371  -8.902  1.00  0.00     0.030 A 
ATOM      8  C   UNL     1      21.323  38.485  -9.216  1.00  0.00     0.040 A 
ATOM      9  C   UNL     1      20.672  39.964  -5.773  1.00  0.00     0.196 C 
ATOM     10  O   UNL     1      20.738  39.604  -4.569  1.00  0.00    -0.289 OA
ATOM     11  C   UNL     1      20.014  41.254  -6.140  1.00  0.00     0.045 C 
ATOM     12  C   UNL     1      19.292  42.003  -5.258  1.00  0.00     0.140 C 
ATOM     13  C   UNL     1      18.849  43.440  -5.552  1.00  0.00     0.190 C 
ATOM     14  C   UNL     1      17.333  43.478  -5.674  1.00  0.00     0.211 C 
ATOM     15  O   UNL     1      16.634  42.919  -4.785  1.00  0.00    -0.290 OA
ATOM     16  C   UNL     1      16.648  44.225  -6.762  1.00  0.00     0.125 C 
ATOM     17  C   UNL     1      17.357  45.047  -7.570  1.00  0.00     0.126 C 
ATOM     18  C   UNL     1      18.822  45.338  -7.291  1.00  0.00     0.130 C 
ATOM     19  C   UNL     1      19.514  44.016  -6.836  1.00  0.00     0.062 C 
ATOM     20  C   UNL     1      19.489  42.962  -7.956  1.00  0.00     0.018 C 
ENDROOT
BRANCH  12  21
ATOM     21  O   UNL     1      18.884  41.491  -4.021  1.00  0.00    -0.508 OA
ATOM     22  H   UNL     1      19.260  41.798  -3.134  1.00  0.00     0.293 HD
ENDBRANCH  12  21
BRANCH   8  23
ATOM     23  N   UNL     1      20.935  38.699 -10.581  1.00  0.00    -0.377 N 
ATOM     24  C   UNL     1      21.216  39.984 -11.217  1.00  0.00     0.143 C 
ATOM     25  C   UNL     1      20.536  37.551 -11.394  1.00  0.00     0.143 C 
ENDBRANCH   8  23
BRANCH  13  26
ATOM     26  O   UNL     1      19.194  44.248  -4.451  1.00  0.00    -0.374 OA
ATOM     27  H   UNL     1      18.435  44.863  -4.271  1.00  0.00     0.212 HD
ENDBRANCH  13  26
BRANCH  18  28
ATOM     28  N   UNL     1      18.978  46.432  -6.283  1.00  0.00    -0.299 NA
ATOM     29  C   UNL     1      17.720  47.185  -6.090  1.00  0.00     0.105 C 
ATOM     30  C   UNL     1      20.030  47.390  -6.686  1.00  0.00     0.105 C 
ENDBRANCH  18  28
BRANCH   5  31
ATOM     31  O   UNL     1      22.662  37.756  -5.298  1.00  0.00    -0.507 OA
ATOM     32  H   UNL     1      22.194  37.218  -4.584  1.00  0.00     0.293 HD
ENDBRANCH   5  31
BRANCH  17  33
ATOM     33  O   UNL     1      16.786  45.663  -8.690  1.00  0.00    -0.510 OA
ATOM     34  H   UNL     1      17.317  46.175  -9.380  1.00  0.00     0.293 HD
ENDBRANCH  17  33
BRANCH  16  35
ATOM     35  C   UNL     1      15.190  44.038  -6.939  1.00  0.00     0.255 C 
ATOM     36  N   UNL     1      14.291  44.288  -5.858  1.00  0.00    -0.365 N 
ATOM     37  O   UNL     1      14.730  43.682  -8.058  1.00  0.00    -0.269 OA
ATOM     38  H   UNL     1      13.260  44.192  -5.998  1.00  0.00     0.159 HD
ATOM     39  H   UNL     1      14.649  44.537  -4.909  1.00  0.00     0.159 HD
ENDBRANCH  16  35
TORSDOF 7
ENDMDL
MODEL 6
REMARK VINA RESULT:    -6.744      0.872      0.950
REMARK INTER + INTRA:          -9.052
REMARK INTER:                  -8.868
REMARK INTRA:                  -0.184
REMARK UNBOUND:                -0.336
REMARK SMILES CN(C)c1ccc(O)c2c1C[C@H]1C[C@H]3[C@H](N(C)C)C(O)=C(C(N)=O)C(=O)[C@@]3(O)C(O)=C1C2=O
REMARK SMILES IDX 12 1 11 2 10 3 9 4 7 5 6 6 5 7 4 8 32 9 33 10 31 11 29 12
REMARK SMILES IDX 27 13 25 14 26 15 21 16 19 17 15 18 14 19 13 20 30 21 2 23
REMARK SMILES IDX 1 24 3 25 28 26 16 28 17 29 18 30 8 31 20 33 22 35 23 36
REMARK SMILES IDX 24 37
REMARK H PARENT 30 22 28 27 8 32 20 34 23 38 23 39
REMARK Flexibility Score: inf
ROOT
ATOM      1  C   UNL     1      21.753  40.232  -8.872  1.00  0.00     0.032 C 
ATOM      2  C   UNL     1      22.089  38.731  -8.879  1.00  0.00     0.047 C 
ATOM      3  C   UNL     1      22.562  38.258  -7.522  1.00  0.00    -0.009 A 
ATOM      4  C   UNL     1      22.083  38.885  -6.341  1.00  0.00     0.069 A 
ATOM      5  C   UNL     1      22.614  38.477  -5.085  1.00  0.00     0.127 A 
ATOM      6  C   UNL     1      23.480  37.382  -5.020  1.00  0.00     0.049 A 
ATOM      7  C   UNL     1      23.883  36.724  -6.176  1.00  0.00     0.030 A 
ATOM      8  C   UNL     1      23.440  37.155  -7.427  1.00  0.00     0.040 A 
ATOM      9  C   UNL     1      21.016  39.925  -6.469  1.00  0.00     0.196 C 
ATOM     10  O   UNL     1      20.390  40.313  -5.449  1.00  0.00    -0.289 OA
ATOM     11  C   UNL     1      20.707  40.506  -7.811  1.00  0.00     0.045 C 
ATOM     12  C   UNL     1      19.634  41.315  -8.047  1.00  0.00     0.140 C 
ATOM     13  C   UNL     1      19.466  42.121  -9.339  1.00  0.00     0.190 C 
ATOM     14  C   UNL     1      18.278  41.574 -10.115  1.00  0.00     0.211 C 
ATOM     15  O   UNL     1      17.188  41.382  -9.509  1.00  0.00    -0.290 OA
ATOM     16  C   UNL     1      18.336  41.338 -11.583  1.00  0.00     0.125 C 
ATOM     17  C   UNL     1      19.395  41.782 -12.299  1.00  0.00     0.126 C 
ATOM     18  C   UNL     1      20.461  42.650 -11.654  1.00  0.00     0.130 C 
ATOM     19  C   UNL     1      20.749  42.103 -10.221  1.00  0.00     0.062 C 
ATOM     20  C   UNL     1      21.327  40.678 -10.276  1.00  0.00     0.018 C 
ENDROOT
BRANCH  12  21
ATOM     21  O   UNL     1      18.593  41.444  -7.121  1.00  0.00    -0.508 OA
ATOM     22  H   UNL     1      17.756  41.984  -7.288  1.00  0.00     0.293 HD
ENDBRANCH  12  21
BRANCH   8  23
ATOM     23  N   UNL     1      23.885  36.459  -8.600  1.00  0.00    -0.377 N 
ATOM     24  C   UNL     1      25.274  36.016  -8.691  1.00  0.00     0.143 C 
ATOM     25  C   UNL     1      22.890  35.953  -9.546  1.00  0.00     0.143 C 
ENDBRANCH   8  23
BRANCH  13  26
ATOM     26  O   UNL     1      19.159  43.452  -8.998  1.00  0.00    -0.374 OA
ATOM     27  H   UNL     1      18.198  43.492  -8.748  1.00  0.00     0.212 HD
ENDBRANCH  13  26
BRANCH  18  28
ATOM     28  N   UNL     1      20.056  44.089 -11.637  1.00  0.00    -0.299 NA
ATOM     29  C   UNL     1      19.508  44.521 -12.940  1.00  0.00     0.105 C 
ATOM     30  C   UNL     1      21.199  44.967 -11.306  1.00  0.00     0.105 C 
ENDBRANCH  18  28
BRANCH   5  31
ATOM     31  O   UNL     1      22.347  39.141  -3.886  1.00  0.00    -0.507 OA
ATOM     32  H   UNL     1      22.945  39.850  -3.489  1.00  0.00     0.293 HD
ENDBRANCH   5  31
BRANCH  17  33
ATOM     33  O   UNL     1      19.561  41.466 -13.652  1.00  0.00    -0.510 OA
ATOM     34  H   UNL     1      19.877  42.127 -14.348  1.00  0.00     0.293 HD
ENDBRANCH  17  33
BRANCH  16  35
ATOM     35  C   UNL     1      17.220  40.608 -12.226  1.00  0.00     0.255 C 
ATOM     36  N   UNL     1      15.868  41.010 -12.006  1.00  0.00    -0.365 N 
ATOM     37  O   UNL     1      17.461  39.639 -12.996  1.00  0.00    -0.269 OA
ATOM     38  H   UNL     1      15.086  40.516 -12.492  1.00  0.00     0.159 HD
ATOM     39  H   UNL     1      15.638  41.778 -11.335  1.00  0.00     0.159 HD
ENDBRANCH  16  35
TORSDOF 7
ENDMDL
MODEL 7
REMARK VINA RESULT:    -6.572      2.890      4.801
REMARK INTER + INTRA:          -8.829
REMARK INTER:                  -8.472
REMARK INTRA:                  -0.358
REMARK UNBOUND:                -0.336
REMARK SMILES CN(C)c1ccc(O)c2c1C[C@H]1C[C@H]3[C@H](N(C)C)C(O)=C(C(N)=O)C(=O)[C@@]3(O)C(O)=C1C2=O
REMARK SMILES IDX 12 1 11 2 10 3 9 4 7 5 6 6 5 7 4 8 32 9 33 10 31 11 29 12
REMARK SMILES IDX 27 13 25 14 26 15 21 16 19 17 15 18 14 19 13 20 30 21 2 23
REMARK SMILES IDX 1 24 3 25 28 26 16 28 17 29 18 30 8 31 20 33 22 35 23 36
REMARK SMILES IDX 24 37
REMARK H PARENT 30 22 28 27 8 32 20 34 23 38 23 39
REMARK Flexibility Score: inf
ROOT
ATOM      1  C   UNL     1      20.592  38.572 -10.736  1.00  0.00     0.032 C 
ATOM      2  C   UNL     1      21.598  38.904  -9.621  1.00  0.00     0.047 C 
ATOM      3  C   UNL     1      22.368  37.678  -9.180  1.00  0.00    -0.009 A 
ATOM      4  C   UNL     1      22.633  36.631 -10.102  1.00  0.00     0.069 A 
ATOM      5  C   UNL     1      23.281  35.453  -9.635  1.00  0.00     0.127 A 
ATOM      6  C   UNL     1      23.769  35.403  -8.327  1.00  0.00     0.049 A 
ATOM      7  C   UNL     1      23.574  36.466  -7.452  1.00  0.00     0.030 A 
ATOM      8  C   UNL     1      22.872  37.600  -7.862  1.00  0.00     0.040 A 
ATOM      9  C   UNL     1      22.247  36.829 -11.534  1.00  0.00     0.196 C 
ATOM     10  O   UNL     1      22.688  36.049 -12.418  1.00  0.00    -0.289 OA
ATOM     11  C   UNL     1      21.327  37.947 -11.904  1.00  0.00     0.045 C 
ATOM     12  C   UNL     1      21.073  38.310 -13.194  1.00  0.00     0.140 C 
ATOM     13  C   UNL     1      19.940  39.265 -13.584  1.00  0.00     0.190 C 
ATOM     14  C   UNL     1      20.539  40.553 -14.125  1.00  0.00     0.211 C 
ATOM     15  O   UNL     1      21.447  40.485 -14.998  1.00  0.00    -0.290 OA
ATOM     16  C   UNL     1      20.030  41.891 -13.721  1.00  0.00     0.125 C 
ATOM     17  C   UNL     1      18.892  41.992 -12.997  1.00  0.00     0.126 C 
ATOM     18  C   UNL     1      18.039  40.768 -12.713  1.00  0.00     0.130 C 
ATOM     19  C   UNL     1      18.982  39.567 -12.393  1.00  0.00     0.062 C 
ATOM     20  C   UNL     1      19.801  39.828 -11.117  1.00  0.00     0.018 C 
ENDROOT
BRANCH  12  21
ATOM     21  O   UNL     1      21.857  37.846 -14.256  1.00  0.00    -0.508 OA
ATOM     22  H   UNL     1      22.153  38.425 -15.030  1.00  0.00     0.293 HD
ENDBRANCH  12  21
BRANCH   8  23
ATOM     23  N   UNL     1      22.679  38.673  -6.930  1.00  0.00    -0.377 N 
ATOM     24  C   UNL     1      21.775  38.490  -5.797  1.00  0.00     0.143 C 
ATOM     25  C   UNL     1      23.597  39.812  -6.959  1.00  0.00     0.143 C 
ENDBRANCH   8  23
BRANCH  13  26
ATOM     26  O   UNL     1      19.203  38.680 -14.632  1.00  0.00    -0.374 OA
ATOM     27  H   UNL     1      19.040  37.729 -14.399  1.00  0.00     0.212 HD
ENDBRANCH  13  26
BRANCH  18  28
ATOM     28  N   UNL     1      17.115  40.471 -13.852  1.00  0.00    -0.299 NA
ATOM     29  C   UNL     1      17.208  41.494 -14.915  1.00  0.00     0.105 C 
ATOM     30  C   UNL     1      15.709  40.403 -13.401  1.00  0.00     0.105 C 
ENDBRANCH  18  28
BRANCH   5  31
ATOM     31  O   UNL     1      23.431  34.301 -10.408  1.00  0.00    -0.507 OA
ATOM     32  H   UNL     1      22.930  33.440 -10.240  1.00  0.00     0.293 HD
ENDBRANCH   5  31
BRANCH  17  33
ATOM     33  O   UNL     1      18.448  43.214 -12.476  1.00  0.00    -0.510 OA
ATOM     34  H   UNL     1      17.879  43.870 -12.993  1.00  0.00     0.293 HD
ENDBRANCH  17  33
BRANCH  16  35
ATOM     35  C   UNL     1      20.799  43.091 -14.121  1.00  0.00     0.255 C 
ATOM     36  N   UNL     1      22.171  43.231 -13.750  1.00  0.00    -0.365 N 
ATOM     37  O   UNL     1      20.252  43.988 -14.819  1.00  0.00    -0.269 OA
ATOM     38  H   UNL     1      22.721  44.061 -14.067  1.00  0.00     0.159 HD
ATOM     39  H   UNL     1      22.634  42.526 -13.132  1.00  0.00     0.159 HD
ENDBRANCH  16  35
TORSDOF 7
ENDMDL
MODEL 8
REMARK VINA RESULT:    -6.568      6.664      8.554
REMARK INTER + INTRA:          -8.824
REMARK INTER:                  -8.084
REMARK INTRA:                  -0.741
REMARK UNBOUND:                -0.336
REMARK SMILES CN(C)c1ccc(O)c2c1C[C@H]1C[C@H]3[C@H](N(C)C)C(O)=C(C(N)=O)C(=O)[C@@]3(O)C(O)=C1C2=O
REMARK SMILES IDX 12 1 11 2 10 3 9 4 7 5 6 6 5 7 4 8 32 9 33 10 31 11 29 12
REMARK SMILES IDX 27 13 25 14 26 15 21 16 19 17 15 18 14 19 13 20 30 21 2 23
REMARK SMILES IDX 1 24 3 25 28 26 16 28 17 29 18 30 8 31 20 33 22 35 23 36
REMARK SMILES IDX 24 37
REMARK H PARENT 30 22 28 27 8 32 20 34 23 38 23 39
REMARK Flexibility Score: inf
ROOT
ATOM      1  C   UNL     1      22.478  38.150 -15.103  1.00  0.00     0.032 C 
ATOM      2  C   UNL     1      21.975  38.968 -13.902  1.00  0.00     0.047 C 
ATOM      3  C   UNL     1      21.772  38.099 -12.680  1.00  0.00    -0.009 A 
ATOM      4  C   UNL     1      22.579  36.947 -12.481  1.00  0.00     0.069 A 
ATOM      5  C   UNL     1      22.305  36.103 -11.369  1.00  0.00     0.127 A 
ATOM      6  C   UNL     1      21.354  36.490 -10.421  1.00  0.00     0.049 A 
ATOM      7  C   UNL     1      20.622  37.660 -10.583  1.00  0.00     0.030 A 
ATOM      8  C   UNL     1      20.816  38.465 -11.707  1.00  0.00     0.040 A 
ATOM      9  C   UNL     1      23.704  36.693 -13.433  1.00  0.00     0.196 C 
ATOM     10  O   UNL     1      24.588  35.844 -13.150  1.00  0.00    -0.289 OA
ATOM     11  C   UNL     1      23.764  37.444 -14.724  1.00  0.00     0.045 C 
ATOM     12  C   UNL     1      24.842  37.410 -15.559  1.00  0.00     0.140 C 
ATOM     13  C   UNL     1      24.804  37.953 -16.992  1.00  0.00     0.190 C 
ATOM     14  C   UNL     1      25.710  39.171 -17.086  1.00  0.00     0.211 C 
ATOM     15  O   UNL     1      26.879  39.101 -16.617  1.00  0.00    -0.290 OA
ATOM     16  C   UNL     1      25.291  40.413 -17.789  1.00  0.00     0.125 C 
ATOM     17  C   UNL     1      24.156  40.424 -18.526  1.00  0.00     0.126 C 
ATOM     18  C   UNL     1      23.375  39.144 -18.771  1.00  0.00     0.130 C 
ATOM     19  C   UNL     1      23.360  38.310 -17.453  1.00  0.00     0.062 C 
ATOM     20  C   UNL     1      22.622  39.057 -16.330  1.00  0.00     0.018 C 
ENDROOT
BRANCH  12  21
ATOM     21  O   UNL     1      26.075  36.892 -15.147  1.00  0.00    -0.508 OA
ATOM     22  H   UNL     1      26.965  37.200 -15.516  1.00  0.00     0.293 HD
ENDBRANCH  12  21
BRANCH   8  23
ATOM     23  N   UNL     1      20.035  39.661 -11.847  1.00  0.00    -0.377 N 
ATOM     24  C   UNL     1      18.757  39.608 -12.554  1.00  0.00     0.143 C 
ATOM     25  C   UNL     1      20.381  40.833 -11.043  1.00  0.00     0.143 C 
ENDBRANCH   8  23
BRANCH  13  26
ATOM     26  O   UNL     1      25.336  36.975 -17.854  1.00  0.00    -0.374 OA
ATOM     27  H   UNL     1      24.603  36.646 -18.437  1.00  0.00     0.212 HD
ENDBRANCH  13  26
BRANCH  18  28
ATOM     28  N   UNL     1      23.941  38.373 -19.921  1.00  0.00    -0.299 NA
ATOM     29  C   UNL     1      24.212  39.242 -21.086  1.00  0.00     0.105 C 
ATOM     30  C   UNL     1      23.022  37.298 -20.353  1.00  0.00     0.105 C 
ENDBRANCH  18  28
BRANCH   5  31
ATOM     31  O   UNL     1      22.916  34.862 -11.178  1.00  0.00    -0.507 OA
ATOM     32  H   UNL     1      22.643  34.203 -10.464  1.00  0.00     0.293 HD
ENDBRANCH   5  31
BRANCH  17  33
ATOM     33  O   UNL     1      23.649  41.600 -19.091  1.00  0.00    -0.510 OA
ATOM     34  H   UNL     1      23.250  42.355 -18.550  1.00  0.00     0.293 HD
ENDBRANCH  17  33
BRANCH  16  35
ATOM     35  C   UNL     1      26.136  41.621 -17.654  1.00  0.00     0.255 C 
ATOM     36  N   UNL     1      26.414  42.171 -16.365  1.00  0.00    -0.365 N 
ATOM     37  O   UNL     1      26.637  42.158 -18.678  1.00  0.00    -0.269 OA
ATOM     38  H   UNL     1      27.042  43.000 -16.272  1.00  0.00     0.159 HD
ATOM     39  H   UNL     1      25.972  41.774 -15.506  1.00  0.00     0.159 HD
ENDBRANCH  16  35
TORSDOF 7
ENDMDL
MODEL 9
REMARK VINA RESULT:    -6.536      3.031      5.051
REMARK INTER + INTRA:          -8.783
REMARK INTER:                  -8.598
REMARK INTRA:                  -0.185
REMARK UNBOUND:                -0.336
REMARK SMILES CN(C)c1ccc(O)c2c1C[C@H]1C[C@H]3[C@H](N(C)C)C(O)=C(C(N)=O)C(=O)[C@@]3(O)C(O)=C1C2=O
REMARK SMILES IDX 12 1 11 2 10 3 9 4 7 5 6 6 5 7 4 8 32 9 33 10 31 11 29 12
REMARK SMILES IDX 27 13 25 14 26 15 21 16 19 17 15 18 14 19 13 20 30 21 2 23
REMARK SMILES IDX 1 24 3 25 28 26 16 28 17 29 18 30 8 31 20 33 22 35 23 36
REMARK SMILES IDX 24 37
REMARK H PARENT 30 22 28 27 8 32 20 34 23 38 23 39
REMARK Flexibility Score: inf
ROOT
ATOM      1  C   UNL     1      19.805  40.773  -7.878  1.00  0.00     0.032 C 
ATOM      2  C   UNL     1      20.896  40.375  -6.871  1.00  0.00     0.047 C 
ATOM      3  C   UNL     1      21.543  39.058  -7.238  1.00  0.00    -0.009 A 
ATOM      4  C   UNL     1      21.641  38.665  -8.600  1.00  0.00     0.069 A 
ATOM      5  C   UNL     1      22.173  37.382  -8.906  1.00  0.00     0.127 A 
ATOM      6  C   UNL     1      22.718  36.595  -7.888  1.00  0.00     0.049 A 
ATOM      7  C   UNL     1      22.689  37.021  -6.565  1.00  0.00     0.030 A 
ATOM      8  C   UNL     1      22.100  38.241  -6.228  1.00  0.00     0.040 A 
ATOM      9  C   UNL     1      21.209  39.636  -9.652  1.00  0.00     0.196 C 
ATOM     10  O   UNL     1      21.514  39.435 -10.857  1.00  0.00    -0.289 OA
ATOM     11  C   UNL     1      20.406  40.835  -9.268  1.00  0.00     0.045 C 
ATOM     12  C   UNL     1      20.130  41.858 -10.128  1.00  0.00     0.140 C 
ATOM     13  C   UNL     1      19.095  42.946  -9.824  1.00  0.00     0.190 C 
ATOM     14  C   UNL     1      19.809  44.278  -9.649  1.00  0.00     0.211 C 
ATOM     15  O   UNL     1      20.659  44.633 -10.511  1.00  0.00    -0.290 OA
ATOM     16  C   UNL     1      19.476  45.211  -8.541  1.00  0.00     0.125 C 
ATOM     17  C   UNL     1      18.394  44.980  -7.762  1.00  0.00     0.126 C 
ATOM     18  C   UNL     1      17.423  43.860  -8.093  1.00  0.00     0.130 C 
ATOM     19  C   UNL     1      18.239  42.617  -8.566  1.00  0.00     0.062 C 
ATOM     20  C   UNL     1      19.144  42.086  -7.442  1.00  0.00     0.018 C 
ENDROOT
BRANCH  12  21
ATOM     21  O   UNL     1      20.803  41.994 -11.347  1.00  0.00    -0.508 OA
ATOM     22  H   UNL     1      21.256  41.229 -11.827  1.00  0.00     0.293 HD
ENDBRANCH  12  21
BRANCH   8  23
ATOM     23  N   UNL     1      22.077  38.645  -4.852  1.00  0.00    -0.377 N 
ATOM     24  C   UNL     1      23.335  38.913  -4.159  1.00  0.00     0.143 C 
ATOM     25  C   UNL     1      20.808  39.060  -4.254  1.00  0.00     0.143 C 
ENDBRANCH   8  23
BRANCH  13  26
ATOM     26  O   UNL     1      18.245  43.078 -10.940  1.00  0.00    -0.374 OA
ATOM     27  H   UNL     1      18.125  42.178 -11.343  1.00  0.00     0.212 HD
ENDBRANCH  13  26
BRANCH  18  28
ATOM     28  N   UNL     1      16.416  44.295  -9.110  1.00  0.00    -0.299 NA
ATOM     29  C   UNL     1      15.833  45.612  -8.779  1.00  0.00     0.105 C 
ATOM     30  C   UNL     1      15.311  43.319  -9.225  1.00  0.00     0.105 C 
ENDBRANCH  18  28
BRANCH   5  31
ATOM     31  O   UNL     1      22.152  36.828 -10.188  1.00  0.00    -0.507 OA
ATOM     32  H   UNL     1      21.988  35.850 -10.377  1.00  0.00     0.293 HD
ENDBRANCH   5  31
BRANCH  17  33
ATOM     33  O   UNL     1      18.119  45.749  -6.625  1.00  0.00    -0.510 OA
ATOM     34  H   UNL     1      17.409  46.468  -6.593  1.00  0.00     0.293 HD
ENDBRANCH  17  33
BRANCH  16  35
ATOM     35  C   UNL     1      20.356  46.380  -8.312  1.00  0.00     0.255 C 
ATOM     36  N   UNL     1      21.769  46.211  -8.188  1.00  0.00    -0.365 N 
ATOM     37  O   UNL     1      19.863  47.539  -8.252  1.00  0.00    -0.269 OA
ATOM     38  H   UNL     1      22.389  47.042  -8.065  1.00  0.00     0.159 HD
ATOM     39  H   UNL     1      22.197  45.258  -8.186  1.00  0.00     0.159 HD
ENDBRANCH  16  35
TORSDOF 7
ENDMDL
MODEL 10
REMARK VINA RESULT:    -6.488      4.264      5.785
REMARK INTER + INTRA:          -8.721
REMARK INTER:                  -7.942
REMARK INTRA:                  -0.779
REMARK UNBOUND:                -0.336
REMARK SMILES CN(C)c1ccc(O)c2c1C[C@H]1C[C@H]3[C@H](N(C)C)C(O)=C(C(N)=O)C(=O)[C@@]3(O)C(O)=C1C2=O
REMARK SMILES IDX 12 1 11 2 10 3 9 4 7 5 6 6 5 7 4 8 32 9 33 10 31 11 29 12
REMARK SMILES IDX 27 13 25 14 26 15 21 16 19 17 15 18 14 19 13 20 30 21 2 23
REMARK SMILES IDX 1 24 3 25 28 26 16 28 17 29 18 30 8 31 20 33 22 35 23 36
REMARK SMILES IDX 24 37
REMARK H PARENT 30 22 28 27 8 32 20 34 23 38 23 39
REMARK Flexibility Score: inf
ROOT
ATOM      1  C   UNL     1      22.168  40.230 -13.515  1.00  0.00     0.032 C 
ATOM      2  C   UNL     1      22.726  40.196 -14.948  1.00  0.00     0.047 C 
ATOM      3  C   UNL     1      23.642  39.011 -15.163  1.00  0.00    -0.009 A 
ATOM      4  C   UNL     1      23.432  37.805 -14.441  1.00  0.00     0.069 A 
ATOM      5  C   UNL     1      24.364  36.741 -14.600  1.00  0.00     0.127 A 
ATOM      6  C   UNL     1      25.376  36.842 -15.557  1.00  0.00     0.049 A 
ATOM      7  C   UNL     1      25.528  37.997 -16.316  1.00  0.00     0.030 A 
ATOM      8  C   UNL     1      24.676  39.086 -16.123  1.00  0.00     0.040 A 
ATOM      9  C   UNL     1      22.220  37.698 -13.572  1.00  0.00     0.196 C 
ATOM     10  O   UNL     1      21.863  36.577 -13.126  1.00  0.00    -0.289 OA
ATOM     11  C   UNL     1      21.446  38.929 -13.228  1.00  0.00     0.045 C 
ATOM     12  C   UNL     1      20.235  38.900 -12.600  1.00  0.00     0.140 C 
ATOM     13  C   UNL     1      19.571  40.149 -12.011  1.00  0.00     0.190 C 
ATOM     14  C   UNL     1      18.313  40.465 -12.806  1.00  0.00     0.211 C 
ATOM     15  O   UNL     1      17.492  39.538 -13.046  1.00  0.00    -0.290 OA
ATOM     16  C   UNL     1      17.980  41.849 -13.236  1.00  0.00     0.125 C 
ATOM     17  C   UNL     1      18.699  42.896 -12.768  1.00  0.00     0.126 C 
ATOM     18  C   UNL     1      19.752  42.697 -11.692  1.00  0.00     0.130 C 
ATOM     19  C   UNL     1      20.528  41.377 -11.992  1.00  0.00     0.062 C 
ATOM     20  C   UNL     1      21.287  41.470 -13.326  1.00  0.00     0.018 C 
ENDROOT
BRANCH  12  21
ATOM     21  O   UNL     1      19.501  37.715 -12.475  1.00  0.00    -0.508 OA
ATOM     22  H   UNL     1      19.908  36.827 -12.214  1.00  0.00     0.293 HD
ENDBRANCH  12  21
BRANCH   8  23
ATOM     23  N   UNL     1      24.868  40.266 -16.915  1.00  0.00    -0.377 N 
ATOM     24  C   UNL     1      25.889  41.237 -16.527  1.00  0.00     0.143 C 
ATOM     25  C   UNL     1      24.253  40.340 -18.240  1.00  0.00     0.143 C 
ENDBRANCH   8  23
BRANCH  13  26
ATOM     26  O   UNL     1      19.164  39.859 -10.694  1.00  0.00    -0.374 OA
ATOM     27  H   UNL     1      19.859  39.286 -10.277  1.00  0.00     0.212 HD
ENDBRANCH  13  26
BRANCH  18  28
ATOM     28  N   UNL     1      19.141  42.694 -10.326  1.00  0.00    -0.299 NA
ATOM     29  C   UNL     1      18.177  43.801 -10.153  1.00  0.00     0.105 C 
ATOM     30  C   UNL     1      20.174  42.815  -9.275  1.00  0.00     0.105 C 
ENDBRANCH  18  28
BRANCH   5  31
ATOM     31  O   UNL     1      24.353  35.588 -13.813  1.00  0.00    -0.507 OA
ATOM     32  H   UNL     1      24.402  35.592 -12.805  1.00  0.00     0.293 HD
ENDBRANCH   5  31
BRANCH  17  33
ATOM     33  O   UNL     1      18.514  44.198 -13.247  1.00  0.00    -0.510 OA
ATOM     34  H   UNL     1      17.832  44.445 -13.951  1.00  0.00     0.293 HD
ENDBRANCH  17  33
BRANCH  16  35
ATOM     35  C   UNL     1      16.859  42.045 -14.183  1.00  0.00     0.255 C 
ATOM     36  N   UNL     1      16.784  41.279 -15.386  1.00  0.00    -0.365 N 
ATOM     37  O   UNL     1      15.946  42.874 -13.919  1.00  0.00    -0.269 OA
ATOM     38  H   UNL     1      15.972  41.393 -16.033  1.00  0.00     0.159 HD
ATOM     39  H   UNL     1      17.551  40.621 -15.652  1.00  0.00     0.159 HD
ENDBRANCH  16  35
TORSDOF 7
ENDMDL
MODEL 11
REMARK VINA RESULT:    -6.457      3.123      5.334
REMARK INTER + INTRA:          -8.680
REMARK INTER:                  -8.005
REMARK INTRA:                  -0.675
REMARK UNBOUND:                -0.336
REMARK SMILES CN(C)c1ccc(O)c2c1C[C@H]1C[C@H]3[C@H](N(C)C)C(O)=C(C(N)=O)C(=O)[C@@]3(O)C(O)=C1C2=O
REMARK SMILES IDX 12 1 11 2 10 3 9 4 7 5 6 6 5 7 4 8 32 9 33 10 31 11 29 12
REMARK SMILES IDX 27 13 25 14 26 15 21 16 19 17 15 18 14 19 13 20 30 21 2 23
REMARK SMILES IDX 1 24 3 25 28 26 16 28 17 29 18 30 8 31 20 33 22 35 23 36
REMARK SMILES IDX 24 37
REMARK H PARENT 30 22 28 27 8 32 20 34 23 38 23 39
REMARK Flexibility Score: inf
ROOT
ATOM      1  C   UNL     1      20.509  41.170  -9.660  1.00  0.00     0.032 C 
ATOM      2  C   UNL     1      21.639  40.236  -9.199  1.00  0.00     0.047 C 
ATOM      3  C   UNL     1      21.473  38.839  -9.758  1.00  0.00    -0.009 A 
ATOM      4  C   UNL     1      20.845  38.645 -11.017  1.00  0.00     0.069 A 
ATOM      5  C   UNL     1      20.624  37.315 -11.474  1.00  0.00     0.127 A 
ATOM      6  C   UNL     1      21.150  36.238 -10.757  1.00  0.00     0.049 A 
ATOM      7  C   UNL     1      21.833  36.443  -9.563  1.00  0.00     0.030 A 
ATOM      8  C   UNL     1      21.993  37.732  -9.052  1.00  0.00     0.040 A 
ATOM      9  C   UNL     1      20.473  39.850 -11.821  1.00  0.00     0.196 C 
ATOM     10  O   UNL     1      20.157  39.725 -13.032  1.00  0.00    -0.289 OA
ATOM     11  C   UNL     1      20.469  41.197 -11.175  1.00  0.00     0.045 C 
ATOM     12  C   UNL     1      20.324  42.361 -11.872  1.00  0.00     0.140 C 
ATOM     13  C   UNL     1      20.051  43.709 -11.198  1.00  0.00     0.190 C 
ATOM     14  C   UNL     1      21.257  44.615 -11.391  1.00  0.00     0.211 C 
ATOM     15  O   UNL     1      21.754  44.734 -12.544  1.00  0.00    -0.290 OA
ATOM     16  C   UNL     1      21.817  45.431 -10.280  1.00  0.00     0.125 C 
ATOM     17  C   UNL     1      21.149  45.528  -9.108  1.00  0.00     0.126 C 
ATOM     18  C   UNL     1      19.758  44.937  -8.954  1.00  0.00     0.130 C 
ATOM     19  C   UNL     1      19.719  43.559  -9.683  1.00  0.00     0.062 C 
ATOM     20  C   UNL     1      20.688  42.558  -9.032  1.00  0.00     0.018 C 
ENDROOT
BRANCH  12  21
ATOM     21  O   UNL     1      20.441  42.401 -13.266  1.00  0.00    -0.508 OA
ATOM     22  H   UNL     1      20.923  43.135 -13.768  1.00  0.00     0.293 HD
ENDBRANCH  12  21
BRANCH   8  23
ATOM     23  N   UNL     1      22.693  37.906  -7.812  1.00  0.00    -0.377 N 
ATOM     24  C   UNL     1      21.961  37.809  -6.551  1.00  0.00     0.143 C 
ATOM     25  C   UNL     1      24.156  37.885  -7.814  1.00  0.00     0.143 C 
ENDBRANCH   8  23
BRANCH  13  26
ATOM     26  O   UNL     1      18.965  44.324 -11.850  1.00  0.00    -0.374 OA
ATOM     27  H   UNL     1      18.863  45.240 -11.481  1.00  0.00     0.212 HD
ENDBRANCH  13  26
BRANCH  18  28
ATOM     28  N   UNL     1      18.708  45.874  -9.462  1.00  0.00    -0.299 NA
ATOM     29  C   UNL     1      18.928  47.256  -8.985  1.00  0.00     0.105 C 
ATOM     30  C   UNL     1      17.357  45.450  -9.037  1.00  0.00     0.105 C 
ENDBRANCH  18  28
BRANCH   5  31
ATOM     31  O   UNL     1      19.864  37.008 -12.604  1.00  0.00    -0.507 OA
ATOM     32  H   UNL     1      19.443  36.106 -12.773  1.00  0.00     0.293 HD
ENDBRANCH   5  31
BRANCH  17  33
ATOM     33  O   UNL     1      21.698  46.167  -7.990  1.00  0.00    -0.510 OA
ATOM     34  H   UNL     1      22.108  45.676  -7.208  1.00  0.00     0.293 HD
ENDBRANCH  17  33
BRANCH  16  35
ATOM     35  C   UNL     1      23.112  46.117 -10.490  1.00  0.00     0.255 C 
ATOM     36  N   UNL     1      24.120  45.528 -11.312  1.00  0.00    -0.365 N 
ATOM     37  O   UNL     1      23.323  47.243  -9.962  1.00  0.00    -0.269 OA
ATOM     38  H   UNL     1      25.017  46.033 -11.488  1.00  0.00     0.159 HD
ATOM     39  H   UNL     1      23.990  44.575 -11.721  1.00  0.00     0.159 HD
ENDBRANCH  16  35
TORSDOF 7
ENDMDL
MODEL 12
REMARK VINA RESULT:    -6.431      4.010      5.347
REMARK INTER + INTRA:          -8.648
REMARK INTER:                  -8.011
REMARK INTRA:                  -0.637
REMARK UNBOUND:                -0.336
REMARK SMILES CN(C)c1ccc(O)c2c1C[C@H]1C[C@H]3[C@H](N(C)C)C(O)=C(C(N)=O)C(=O)[C@@]3(O)C(O)=C1C2=O
REMARK SMILES IDX 12 1 11 2 10 3 9 4 7 5 6 6 5 7 4 8 32 9 33 10 31 11 29 12
REMARK SMILES IDX 27 13 25 14 26 15 21 16 19 17 15 18 14 19 13 20 30 21 2 23
REMARK SMILES IDX 1 24 3 25 28 26 16 28 17 29 18 30 8 31 20 33 22 35 23 36
REMARK SMILES IDX 24 37
REMARK H PARENT 30 22 28 27 8 32 20 34 23 38 23 39
REMARK Flexibility Score: inf
ROOT
ATOM      1  C   UNL     1      19.642  42.491  -7.996  1.00  0.00     0.032 C 
ATOM      2  C   UNL     1      19.341  41.550  -9.175  1.00  0.00     0.047 C 
ATOM      3  C   UNL     1      20.219  40.318  -9.145  1.00  0.00    -0.009 A 
ATOM      4  C   UNL     1      20.677  39.798  -7.905  1.00  0.00     0.069 A 
ATOM      5  C   UNL     1      21.573  38.692  -7.914  1.00  0.00     0.127 A 
ATOM      6  C   UNL     1      21.872  38.052  -9.120  1.00  0.00     0.049 A 
ATOM      7  C   UNL     1      21.357  38.521 -10.323  1.00  0.00     0.030 A 
ATOM      8  C   UNL     1      20.540  39.652 -10.349  1.00  0.00     0.040 A 
ATOM      9  C   UNL     1      20.168  40.417  -6.642  1.00  0.00     0.196 C 
ATOM     10  O   UNL     1      20.341  39.832  -5.541  1.00  0.00    -0.289 OA
ATOM     11  C   UNL     1      19.467  41.734  -6.695  1.00  0.00     0.045 C 
ATOM     12  C   UNL     1      18.814  42.278  -5.627  1.00  0.00     0.140 C 
ATOM     13  C   UNL     1      18.330  43.731  -5.597  1.00  0.00     0.190 C 
ATOM     14  C   UNL     1      16.809  43.749  -5.586  1.00  0.00     0.211 C 
ATOM     15  O   UNL     1      16.195  43.009  -4.769  1.00  0.00    -0.290 OA
ATOM     16  C   UNL     1      16.025  44.673  -6.448  1.00  0.00     0.125 C 
ATOM     17  C   UNL     1      16.652  45.656  -7.134  1.00  0.00     0.126 C 
ATOM     18  C   UNL     1      18.132  45.929  -6.924  1.00  0.00     0.130 C 
ATOM     19  C   UNL     1      18.876  44.564  -6.795  1.00  0.00     0.062 C 
ATOM     20  C   UNL     1      18.767  43.746  -8.093  1.00  0.00     0.018 C 
ENDROOT
BRANCH  12  21
ATOM     21  O   UNL     1      18.519  41.525  -4.485  1.00  0.00    -0.508 OA
ATOM     22  H   UNL     1      19.213  41.232  -3.811  1.00  0.00     0.293 HD
ENDBRANCH  12  21
BRANCH   8  23
ATOM     23  N   UNL     1      20.034  40.115 -11.609  1.00  0.00    -0.377 N 
ATOM     24  C   UNL     1      20.959  40.663 -12.599  1.00  0.00     0.143 C 
ATOM     25  C   UNL     1      18.667  39.769 -11.996  1.00  0.00     0.143 C 
ENDBRANCH   8  23
BRANCH  13  26
ATOM     26  O   UNL     1      18.758  44.320  -4.392  1.00  0.00    -0.374 OA
ATOM     27  H   UNL     1      18.606  45.299  -4.456  1.00  0.00     0.212 HD
ENDBRANCH  13  26
BRANCH  18  28
ATOM     28  N   UNL     1      18.360  46.811  -5.738  1.00  0.00    -0.299 NA
ATOM     29  C   UNL     1      17.357  47.893  -5.656  1.00  0.00     0.105 C 
ATOM     30  C   UNL     1      19.702  47.430  -5.779  1.00  0.00     0.105 C 
ENDBRANCH  18  28
BRANCH   5  31
ATOM     31  O   UNL     1      22.218  38.216  -6.772  1.00  0.00    -0.507 OA
ATOM     32  H   UNL     1      22.478  37.251  -6.631  1.00  0.00     0.293 HD
ENDBRANCH   5  31
BRANCH  17  33
ATOM     33  O   UNL     1      15.980  46.460  -8.062  1.00  0.00    -0.510 OA
ATOM     34  H   UNL     1      16.400  47.256  -8.523  1.00  0.00     0.293 HD
ENDBRANCH  17  33
BRANCH  16  35
ATOM     35  C   UNL     1      14.559  44.483  -6.538  1.00  0.00     0.255 C 
ATOM     36  N   UNL     1      13.713  44.840  -5.444  1.00  0.00    -0.365 N 
ATOM     37  O   UNL     1      14.045  44.029  -7.596  1.00  0.00    -0.269 OA
ATOM     38  H   UNL     1      12.676  44.740  -5.526  1.00  0.00     0.159 HD
ATOM     39  H   UNL     1      14.117  45.173  -4.540  1.00  0.00     0.159 HD
ENDBRANCH  16  35
TORSDOF 7
ENDMDL
MODEL 13
REMARK VINA RESULT:    -6.379      2.845      4.137
REMARK INTER + INTRA:          -8.580
REMARK INTER:                  -8.060
REMARK INTRA:                  -0.520
REMARK UNBOUND:                -0.336
REMARK SMILES CN(C)c1ccc(O)c2c1C[C@H]1C[C@H]3[C@H](N(C)C)C(O)=C(C(N)=O)C(=O)[C@@]3(O)C(O)=C1C2=O
REMARK SMILES IDX 12 1 11 2 10 3 9 4 7 5 6 6 5 7 4 8 32 9 33 10 31 11 29 12
REMARK SMILES IDX 27 13 25 14 26 15 21 16 19 17 15 18 14 19 13 20 30 21 2 23
REMARK SMILES IDX 1 24 3 25 28 26 16 28 17 29 18 30 8 31 20 33 22 35 23 36
REMARK SMILES IDX 24 37
REMARK H PARENT 30 22 28 27 8 32 20 34 23 38 23 39
REMARK Flexibility Score: inf
ROOT
ATOM      1  C   UNL     1      21.170  40.312  -9.906  1.00  0.00     0.032 C 
ATOM      2  C   UNL     1      21.290  39.205  -8.846  1.00  0.00     0.047 C 
ATOM      3  C   UNL     1      20.800  39.671  -7.492  1.00  0.00    -0.009 A 
ATOM      4  C   UNL     1      19.772  40.647  -7.402  1.00  0.00     0.069 A 
ATOM      5  C   UNL     1      19.396  41.129  -6.117  1.00  0.00     0.127 A 
ATOM      6  C   UNL     1      19.933  40.540  -4.970  1.00  0.00     0.049 A 
ATOM      7  C   UNL     1      20.883  39.529  -5.066  1.00  0.00     0.030 A 
ATOM      8  C   UNL     1      21.328  39.094  -6.316  1.00  0.00     0.040 A 
ATOM      9  C   UNL     1      19.108  41.100  -8.663  1.00  0.00     0.196 C 
ATOM     10  O   UNL     1      18.037  41.757  -8.609  1.00  0.00    -0.289 OA
ATOM     11  C   UNL     1      19.729  40.777  -9.983  1.00  0.00     0.045 C 
ATOM     12  C   UNL     1      19.103  40.988 -11.177  1.00  0.00     0.140 C 
ATOM     13  C   UNL     1      19.828  40.912 -12.524  1.00  0.00     0.190 C 
ATOM     14  C   UNL     1      19.300  39.720 -13.307  1.00  0.00     0.211 C 
ATOM     15  O   UNL     1      18.052  39.561 -13.410  1.00  0.00    -0.290 OA
ATOM     16  C   UNL     1      20.205  38.785 -14.027  1.00  0.00     0.125 C 
ATOM     17  C   UNL     1      21.520  39.079 -14.155  1.00  0.00     0.126 C 
ATOM     18  C   UNL     1      22.063  40.425 -13.706  1.00  0.00     0.130 C 
ATOM     19  C   UNL     1      21.374  40.816 -12.362  1.00  0.00     0.062 C 
ATOM     20  C   UNL     1      21.722  39.815 -11.247  1.00  0.00     0.018 C 
ENDROOT
BRANCH  12  21
ATOM     21  O   UNL     1      17.733  41.266 -11.248  1.00  0.00    -0.508 OA
ATOM     22  H   UNL     1      17.351  42.201 -11.270  1.00  0.00     0.293 HD
ENDBRANCH  12  21
BRANCH   8  23
ATOM     23  N   UNL     1      22.317  38.056  -6.378  1.00  0.00    -0.377 N 
ATOM     24  C   UNL     1      23.734  38.408  -6.321  1.00  0.00     0.143 C 
ATOM     25  C   UNL     1      21.899  36.665  -6.205  1.00  0.00     0.143 C 
ENDBRANCH   8  23
BRANCH  13  26
ATOM     26  O   UNL     1      19.512  42.066 -13.267  1.00  0.00    -0.374 OA
ATOM     27  H   UNL     1      18.818  42.572 -12.769  1.00  0.00     0.212 HD
ENDBRANCH  13  26
BRANCH  18  28
ATOM     28  N   UNL     1      21.876  41.468 -14.761  1.00  0.00    -0.299 NA
ATOM     29  C   UNL     1      22.205  40.954 -16.107  1.00  0.00     0.105 C 
ATOM     30  C   UNL     1      22.721  42.653 -14.501  1.00  0.00     0.105 C 
ENDBRANCH  18  28
BRANCH   5  31
ATOM     31  O   UNL     1      18.529  42.206  -5.925  1.00  0.00    -0.507 OA
ATOM     32  H   UNL     1      18.000  42.643  -6.665  1.00  0.00     0.293 HD
ENDBRANCH   5  31
BRANCH  17  33
ATOM     33  O   UNL     1      22.435  38.171 -14.700  1.00  0.00    -0.510 OA
ATOM     34  H   UNL     1      22.485  37.197 -14.433  1.00  0.00     0.293 HD
ENDBRANCH  17  33
BRANCH  16  35
ATOM     35  C   UNL     1      19.636  37.536 -14.583  1.00  0.00     0.255 C 
ATOM     36  N   UNL     1      19.539  37.350 -15.995  1.00  0.00    -0.365 N 
ATOM     37  O   UNL     1      19.258  36.616 -13.809  1.00  0.00    -0.269 OA
ATOM     38  H   UNL     1      19.172  36.452 -16.384  1.00  0.00     0.159 HD
ATOM     39  H   UNL     1      19.800  38.115 -16.657  1.00  0.00     0.159 HD
ENDBRANCH  16  35
TORSDOF 7
ENDMDL
MODEL 14
REMARK VINA RESULT:    -6.372      1.999      2.620
REMARK INTER + INTRA:          -8.571
REMARK INTER:                  -8.172
REMARK INTRA:                  -0.399
REMARK UNBOUND:                -0.336
REMARK SMILES CN(C)c1ccc(O)c2c1C[C@H]1C[C@H]3[C@H](N(C)C)C(O)=C(C(N)=O)C(=O)[C@@]3(O)C(O)=C1C2=O
REMARK SMILES IDX 12 1 11 2 10 3 9 4 7 5 6 6 5 7 4 8 32 9 33 10 31 11 29 12
REMARK SMILES IDX 27 13 25 14 26 15 21 16 19 17 15 18 14 19 13 20 30 21 2 23
REMARK SMILES IDX 1 24 3 25 28 26 16 28 17 29 18 30 8 31 20 33 22 35 23 36
REMARK SMILES IDX 24 37
REMARK H PARENT 30 22 28 27 8 32 20 34 23 38 23 39
REMARK Flexibility Score: inf
ROOT
ATOM      1  C   UNL     1      21.217  41.451  -7.988  1.00  0.00     0.032 C 
ATOM      2  C   UNL     1      21.376  39.933  -8.172  1.00  0.00     0.047 C 
ATOM      3  C   UNL     1      21.467  39.214  -6.843  1.00  0.00    -0.009 A 
ATOM      4  C   UNL     1      20.801  39.737  -5.702  1.00  0.00     0.069 A 
ATOM      5  C   UNL     1      20.979  39.088  -4.448  1.00  0.00     0.127 A 
ATOM      6  C   UNL     1      21.679  37.880  -4.385  1.00  0.00     0.049 A 
ATOM      7  C   UNL     1      22.262  37.334  -5.523  1.00  0.00     0.030 A 
ATOM      8  C   UNL     1      22.170  37.993  -6.750  1.00  0.00     0.040 A 
ATOM      9  C   UNL     1      19.916  40.929  -5.879  1.00  0.00     0.196 C 
ATOM     10  O   UNL     1      19.118  41.261  -4.964  1.00  0.00    -0.289 OA
ATOM     11  C   UNL     1      19.992  41.727  -7.140  1.00  0.00     0.045 C 
ATOM     12  C   UNL     1      19.100  42.709  -7.459  1.00  0.00     0.140 C 
ATOM     13  C   UNL     1      19.325  43.699  -8.606  1.00  0.00     0.190 C 
ATOM     14  C   UNL     1      18.295  43.443  -9.695  1.00  0.00     0.211 C 
ATOM     15  O   UNL     1      17.080  43.331  -9.373  1.00  0.00    -0.290 OA
ATOM     16  C   UNL     1      18.663  43.405 -11.135  1.00  0.00     0.125 C 
ATOM     17  C   UNL     1      19.901  43.782 -11.528  1.00  0.00     0.126 C 
ATOM     18  C   UNL     1      20.881  44.389 -10.538  1.00  0.00     0.130 C 
ATOM     19  C   UNL     1      20.767  43.615  -9.188  1.00  0.00     0.062 C 
ATOM     20  C   UNL     1      21.179  42.143  -9.355  1.00  0.00     0.018 C 
ENDROOT
BRANCH  12  21
ATOM     21  O   UNL     1      17.894  42.860  -6.765  1.00  0.00    -0.508 OA
ATOM     22  H   UNL     1      17.819  43.300  -5.858  1.00  0.00     0.293 HD
ENDBRANCH  12  21
BRANCH   8  23
ATOM     23  N   UNL     1      22.793  37.406  -7.902  1.00  0.00    -0.377 N 
ATOM     24  C   UNL     1      21.973  37.027  -9.050  1.00  0.00     0.143 C 
ATOM     25  C   UNL     1      24.250  37.465  -8.028  1.00  0.00     0.143 C 
ENDBRANCH   8  23
BRANCH  13  26
ATOM     26  O   UNL     1      19.098  45.002  -8.122  1.00  0.00    -0.374 OA
ATOM     27  H   UNL     1      19.670  45.137  -7.321  1.00  0.00     0.212 HD
ENDBRANCH  13  26
BRANCH  18  28
ATOM     28  N   UNL     1      20.646  45.856 -10.369  1.00  0.00    -0.299 NA
ATOM     29  C   UNL     1      20.478  46.540 -11.669  1.00  0.00     0.105 C 
ATOM     30  C   UNL     1      21.766  46.502  -9.651  1.00  0.00     0.105 C 
ENDBRANCH  18  28
BRANCH   5  31
ATOM     31  O   UNL     1      20.519  39.613  -3.240  1.00  0.00    -0.507 OA
ATOM     32  H   UNL     1      19.623  40.063  -3.125  1.00  0.00     0.293 HD
ENDBRANCH   5  31
BRANCH  17  33
ATOM     33  O   UNL     1      20.339  43.634 -12.849  1.00  0.00    -0.510 OA
ATOM     34  H   UNL     1      20.793  42.801 -13.200  1.00  0.00     0.293 HD
ENDBRANCH  17  33
BRANCH  16  35
ATOM     35  C   UNL     1      17.652  42.940 -12.111  1.00  0.00     0.255 C 
ATOM     36  N   UNL     1      16.436  43.665 -12.297  1.00  0.00    -0.365 N 
ATOM     37  O   UNL     1      17.872  41.911 -12.807  1.00  0.00    -0.269 OA
ATOM     38  H   UNL     1      15.742  43.355 -13.014  1.00  0.00     0.159 HD
ATOM     39  H   UNL     1      16.208  44.492 -11.700  1.00  0.00     0.159 HD
ENDBRANCH  16  35
TORSDOF 7
ENDMDL
MODEL 15
REMARK VINA RESULT:    -6.273      3.646      5.902
REMARK INTER + INTRA:          -8.443
REMARK INTER:                  -7.922
REMARK INTRA:                  -0.521
REMARK UNBOUND:                -0.336
REMARK SMILES CN(C)c1ccc(O)c2c1C[C@H]1C[C@H]3[C@H](N(C)C)C(O)=C(C(N)=O)C(=O)[C@@]3(O)C(O)=C1C2=O
REMARK SMILES IDX 12 1 11 2 10 3 9 4 7 5 6 6 5 7 4 8 32 9 33 10 31 11 29 12
REMARK SMILES IDX 27 13 25 14 26 15 21 16 19 17 15 18 14 19 13 20 30 21 2 23
REMARK SMILES IDX 1 24 3 25 28 26 16 28 17 29 18 30 8 31 20 33 22 35 23 36
REMARK SMILES IDX 24 37
REMARK H PARENT 30 22 28 27 8 32 20 34 23 38 23 39
REMARK Flexibility Score: inf
ROOT
ATOM      1  C   UNL     1      17.726  41.526  -9.618  1.00  0.00     0.032 C 
ATOM      2  C   UNL     1      18.111  42.678  -8.675  1.00  0.00     0.047 C 
ATOM      3  C   UNL     1      18.678  42.165  -7.369  1.00  0.00    -0.009 A 
ATOM      4  C   UNL     1      19.387  40.935  -7.333  1.00  0.00     0.069 A 
ATOM      5  C   UNL     1      19.831  40.436  -6.075  1.00  0.00     0.127 A 
ATOM      6  C   UNL     1      19.690  41.222  -4.929  1.00  0.00     0.049 A 
ATOM      7  C   UNL     1      19.063  42.461  -4.986  1.00  0.00     0.030 A 
ATOM      8  C   UNL     1      18.548  42.937  -6.193  1.00  0.00     0.040 A 
ATOM      9  C   UNL     1      19.666  40.236  -8.625  1.00  0.00     0.196 C 
ATOM     10  O   UNL     1      20.500  39.294  -8.664  1.00  0.00    -0.289 OA
ATOM     11  C   UNL     1      18.940  40.653  -9.863  1.00  0.00     0.045 C 
ATOM     12  C   UNL     1      19.264  40.199 -11.108  1.00  0.00     0.140 C 
ATOM     13  C   UNL     1      18.366  40.410 -12.331  1.00  0.00     0.190 C 
ATOM     14  C   UNL     1      19.064  41.346 -13.306  1.00  0.00     0.211 C 
ATOM     15  O   UNL     1      20.267  41.123 -13.611  1.00  0.00    -0.290 OA
ATOM     16  C   UNL     1      18.348  42.465 -13.975  1.00  0.00     0.125 C 
ATOM     17  C   UNL     1      17.003  42.566 -13.872  1.00  0.00     0.126 C 
ATOM     18  C   UNL     1      16.189  41.469 -13.207  1.00  0.00     0.130 C 
ATOM     19  C   UNL     1      16.963  40.968 -11.949  1.00  0.00     0.062 C 
ATOM     20  C   UNL     1      17.112  42.088 -10.906  1.00  0.00     0.018 C 
ENDROOT
BRANCH  12  21
ATOM     21  O   UNL     1      20.464  39.524 -11.355  1.00  0.00    -0.508 OA
ATOM     22  H   UNL     1      20.541  38.717 -11.959  1.00  0.00     0.293 HD
ENDBRANCH  12  21
BRANCH   8  23
ATOM     23  N   UNL     1      17.897  44.216  -6.214  1.00  0.00    -0.377 N 
ATOM     24  C   UNL     1      16.483  44.311  -5.857  1.00  0.00     0.143 C 
ATOM     25  C   UNL     1      18.712  45.427  -6.306  1.00  0.00     0.143 C 
ENDBRANCH   8  23
BRANCH  13  26
ATOM     26  O   UNL     1      18.208  39.174 -12.988  1.00  0.00    -0.374 OA
ATOM     27  H   UNL     1      18.729  39.206 -13.833  1.00  0.00     0.212 HD
ENDBRANCH  13  26
BRANCH  18  28
ATOM     28  N   UNL     1      15.886  40.359 -14.163  1.00  0.00    -0.299 NA
ATOM     29  C   UNL     1      16.261  40.710 -15.549  1.00  0.00     0.105 C 
ATOM     30  C   UNL     1      14.449  40.013 -14.149  1.00  0.00     0.105 C 
ENDBRANCH  18  28
BRANCH   5  31
ATOM     31  O   UNL     1      20.378  39.163  -5.904  1.00  0.00    -0.507 OA
ATOM     32  H   UNL     1      19.872  38.379  -5.520  1.00  0.00     0.293 HD
ENDBRANCH   5  31
BRANCH  17  33
ATOM     33  O   UNL     1      16.301  43.672 -14.365  1.00  0.00    -0.510 OA
ATOM     34  H   UNL     1      15.492  44.072 -13.910  1.00  0.00     0.293 HD
ENDBRANCH  17  33
BRANCH  16  35
ATOM     35  C   UNL     1      19.141  43.456 -14.738  1.00  0.00     0.255 C 
ATOM     36  N   UNL     1      20.260  44.107 -14.136  1.00  0.00    -0.365 N 
ATOM     37  O   UNL     1      18.846  43.711 -15.937  1.00  0.00    -0.269 OA
ATOM     38  H   UNL     1      20.839  44.777 -14.690  1.00  0.00     0.159 HD
ATOM     39  H   UNL     1      20.495  43.950 -13.130  1.00  0.00     0.159 HD
ENDBRANCH  16  35
TORSDOF 7
ENDMDL
