MODEL 1
REMARK VINA RESULT:    -8.730      0.000      0.000
REMARK INTER + INTRA:         -13.460
REMARK INTER:                 -12.558
REMARK INTRA:                  -0.902
REMARK UNBOUND:                -0.902
REMARK SMILES Cc1nc(Nc2ncc(C(=O)Nc3c(C)cccc3Cl)s2)cc(N2CCN(CCO)CC2)n1
REMARK SMILES IDX 1 1 2 2 3 3 4 4 22 5 23 6 33 7 5 8 6 10 7 11 21 12 8 13 9 14
REMARK SMILES IDX 10 15 11 16 12 17 13 19 14 20 19 21 15 22 16 23 18 24 20 25
REMARK SMILES IDX 17 26 24 27 25 28 32 29 26 30 31 31 27 32 28 33 29 34 30 35
REMARK H PARENT 5 9 12 18 30 36
REMARK Flexibility Score: inf
ROOT
ATOM      1  C   UNL     1      14.840  34.244  14.276  1.00  0.00     0.090 C 
ATOM      2  C   UNL     1      16.132  33.916  13.608  1.00  0.00     0.130 A 
ATOM      3  N   UNL     1      17.260  33.755  14.347  1.00  0.00    -0.216 NA
ATOM      4  C   UNL     1      18.448  33.436  13.766  1.00  0.00     0.137 A 
ATOM      5  C   UNL     1      18.508  33.260  12.378  1.00  0.00     0.094 A 
ATOM      6  C   UNL     1      17.341  33.442  11.621  1.00  0.00     0.134 A 
ATOM      7  N   UNL     1      16.177  33.745  12.260  1.00  0.00    -0.216 NA
ENDROOT
BRANCH   4   8
ATOM      8  N   UNL     1      19.626  33.244  14.567  1.00  0.00    -0.316 N 
ATOM      9  H   UNL     1      19.573  32.610  15.394  1.00  0.00     0.170 HD
BRANCH   8  10
ATOM     10  C   UNL     1      20.902  33.813  14.247  1.00  0.00     0.189 A 
ATOM     11  N   UNL     1      21.125  35.138  14.105  1.00  0.00    -0.228 NA
ATOM     12  S   UNL     1      22.275  32.905  13.898  1.00  0.00    -0.091 S 
ATOM     13  C   UNL     1      22.406  35.397  13.730  1.00  0.00     0.139 A 
ATOM     14  C   UNL     1      23.207  34.270  13.566  1.00  0.00     0.114 A 
BRANCH  14  15
ATOM     15  C   UNL     1      24.617  34.275  13.137  1.00  0.00     0.267 C 
ATOM     16  O   UNL     1      25.051  35.237  12.442  1.00  0.00    -0.268 OA
ATOM     17  N   UNL     1      25.499  33.207  13.510  1.00  0.00    -0.320 N 
ATOM     18  H   UNL     1      25.221  32.556  14.279  1.00  0.00     0.170 HD
BRANCH  17  19
ATOM     19  C   UNL     1      26.843  33.132  13.007  1.00  0.00     0.063 A 
ATOM     20  C   UNL     1      27.125  32.376  11.845  1.00  0.00    -0.026 A 
ATOM     21  C   UNL     1      27.886  33.827  13.658  1.00  0.00     0.064 A 
ATOM     22  C   UNL     1      26.025  31.646  11.119  1.00  0.00     0.046 C 
ATOM     23  C   UNL     1      28.445  32.311  11.366  1.00  0.00     0.005 A 
ATOM     24  C   UNL     1      29.194  33.752  13.166  1.00  0.00     0.023 A 
ATOM     25  Cl  UNL     1      27.572  34.839  15.066  1.00  0.00    -0.082 Cl
ATOM     26  C   UNL     1      29.474  32.991  12.028  1.00  0.00     0.002 A 
ENDBRANCH  17  19
ENDBRANCH  14  15
ENDBRANCH   8  10
ENDBRANCH   4   8
BRANCH   6  27
ATOM     27  N   UNL     1      17.346  33.260  10.193  1.00  0.00    -0.354 N 
ATOM     28  C   UNL     1      16.419  34.038   9.366  1.00  0.00     0.133 C 
ATOM     29  C   UNL     1      18.364  32.441   9.526  1.00  0.00     0.133 C 
ATOM     30  C   UNL     1      16.447  33.547   7.907  1.00  0.00     0.106 C 
ATOM     31  C   UNL     1      17.705  31.500   8.499  1.00  0.00     0.106 C 
ATOM     32  N   UNL     1      16.494  32.070   7.840  1.00  0.00    -0.298 NA
BRANCH  32  33
ATOM     33  C   UNL     1      15.231  31.447   8.315  1.00  0.00     0.112 C 
BRANCH  33  34
ATOM     34  C   UNL     1      14.723  30.410   7.306  1.00  0.00     0.171 C 
BRANCH  34  35
ATOM     35  O   UNL     1      13.514  29.844   7.736  1.00  0.00    -0.395 OA
ATOM     36  H   UNL     1      13.686  28.871   7.882  1.00  0.00     0.210 HD
ENDBRANCH  34  35
ENDBRANCH  33  34
ENDBRANCH  32  33
ENDBRANCH   6  27
TORSDOF 8
ENDMDL
MODEL 2
REMARK VINA RESULT:    -8.573      1.258      1.786
REMARK INTER + INTRA:         -13.234
REMARK INTER:                 -12.344
REMARK INTRA:                  -0.889
REMARK UNBOUND:                -0.902
REMARK SMILES Cc1nc(Nc2ncc(C(=O)Nc3c(C)cccc3Cl)s2)cc(N2CCN(CCO)CC2)n1
REMARK SMILES IDX 1 1 2 2 3 3 4 4 22 5 23 6 33 7 5 8 6 10 7 11 21 12 8 13 9 14
REMARK SMILES IDX 10 15 11 16 12 17 13 19 14 20 19 21 15 22 16 23 18 24 20 25
REMARK SMILES IDX 17 26 24 27 25 28 32 29 26 30 31 31 27 32 28 33 29 34 30 35
REMARK H PARENT 5 9 12 18 30 36
REMARK Flexibility Score: inf
ROOT
ATOM      1  C   UNL     1      14.593  33.877  13.917  1.00  0.00     0.090 C 
ATOM      2  C   UNL     1      15.919  33.910  13.238  1.00  0.00     0.130 A 
ATOM      3  N   UNL     1      17.037  34.230  13.941  1.00  0.00    -0.216 NA
ATOM      4  C   UNL     1      18.263  34.248  13.350  1.00  0.00     0.137 A 
ATOM      5  C   UNL     1      18.377  33.921  11.994  1.00  0.00     0.094 A 
ATOM      6  C   UNL     1      17.216  33.605  11.273  1.00  0.00     0.134 A 
ATOM      7  N   UNL     1      16.017  33.588  11.921  1.00  0.00    -0.216 NA
ENDROOT
BRANCH   4   8
ATOM      8  N   UNL     1      19.438  34.563  14.116  1.00  0.00    -0.316 N 
ATOM      9  H   UNL     1      19.329  35.095  15.007  1.00  0.00     0.170 HD
BRANCH   8  10
ATOM     10  C   UNL     1      20.755  34.117  13.767  1.00  0.00     0.189 A 
ATOM     11  N   UNL     1      21.176  32.838  13.886  1.00  0.00    -0.228 NA
ATOM     12  S   UNL     1      21.992  35.140  13.264  1.00  0.00    -0.091 S 
ATOM     13  C   UNL     1      22.488  32.705  13.556  1.00  0.00     0.139 A 
ATOM     14  C   UNL     1      23.118  33.887  13.176  1.00  0.00     0.114 A 
BRANCH  14  15
ATOM     15  C   UNL     1      24.537  34.021  12.801  1.00  0.00     0.267 C 
ATOM     16  O   UNL     1      24.876  34.902  11.961  1.00  0.00    -0.268 OA
ATOM     17  N   UNL     1      25.533  33.170  13.386  1.00  0.00    -0.320 N 
ATOM     18  H   UNL     1      25.301  32.627  14.248  1.00  0.00     0.170 HD
BRANCH  17  19
ATOM     19  C   UNL     1      26.901  33.205  12.949  1.00  0.00     0.063 A 
ATOM     20  C   UNL     1      27.857  33.956  13.672  1.00  0.00    -0.026 A 
ATOM     21  C   UNL     1      27.302  32.477  11.808  1.00  0.00     0.064 A 
ATOM     22  C   UNL     1      27.459  34.721  14.907  1.00  0.00     0.046 C 
ATOM     23  C   UNL     1      29.191  33.982  13.230  1.00  0.00     0.005 A 
ATOM     24  C   UNL     1      28.635  32.513  11.384  1.00  0.00     0.023 A 
ATOM     25  Cl  UNL     1      26.162  31.470  10.917  1.00  0.00    -0.082 Cl
ATOM     26  C   UNL     1      29.575  33.269  12.089  1.00  0.00     0.002 A 
ENDBRANCH  17  19
ENDBRANCH  14  15
ENDBRANCH   8  10
ENDBRANCH   4   8
BRANCH   6  27
ATOM     27  N   UNL     1      17.280  33.250   9.880  1.00  0.00    -0.354 N 
ATOM     28  C   UNL     1      16.419  33.946   8.920  1.00  0.00     0.133 C 
ATOM     29  C   UNL     1      18.299  32.326   9.368  1.00  0.00     0.133 C 
ATOM     30  C   UNL     1      16.497  33.279   7.534  1.00  0.00     0.106 C 
ATOM     31  C   UNL     1      17.656  31.285   8.432  1.00  0.00     0.106 C 
ATOM     32  N   UNL     1      16.497  31.804   7.649  1.00  0.00    -0.298 NA
BRANCH  32  33
ATOM     33  C   UNL     1      15.192  31.280   8.133  1.00  0.00     0.112 C 
BRANCH  33  34
ATOM     34  C   UNL     1      14.677  30.169   7.211  1.00  0.00     0.171 C 
BRANCH  34  35
ATOM     35  O   UNL     1      13.491  29.613   7.712  1.00  0.00    -0.395 OA
ATOM     36  H   UNL     1      13.702  28.675   7.979  1.00  0.00     0.210 HD
ENDBRANCH  34  35
ENDBRANCH  33  34
ENDBRANCH  32  33
ENDBRANCH   6  27
TORSDOF 8
ENDMDL
MODEL 3
REMARK VINA RESULT:    -8.486      4.204     10.810
REMARK INTER + INTRA:         -13.108
REMARK INTER:                 -12.317
REMARK INTRA:                  -0.791
REMARK UNBOUND:                -0.902
REMARK SMILES Cc1nc(Nc2ncc(C(=O)Nc3c(C)cccc3Cl)s2)cc(N2CCN(CCO)CC2)n1
REMARK SMILES IDX 1 1 2 2 3 3 4 4 22 5 23 6 33 7 5 8 6 10 7 11 21 12 8 13 9 14
REMARK SMILES IDX 10 15 11 16 12 17 13 19 14 20 19 21 15 22 16 23 18 24 20 25
REMARK SMILES IDX 17 26 24 27 25 28 32 29 26 30 31 31 27 32 28 33 29 34 30 35
REMARK H PARENT 5 9 12 18 30 36
REMARK Flexibility Score: inf
ROOT
ATOM      1  C   UNL     1      24.272  36.204  11.497  1.00  0.00     0.090 C 
ATOM      2  C   UNL     1      24.329  34.761  11.870  1.00  0.00     0.130 A 
ATOM      3  N   UNL     1      23.185  34.035  11.960  1.00  0.00    -0.216 NA
ATOM      4  C   UNL     1      23.209  32.712  12.277  1.00  0.00     0.137 A 
ATOM      5  C   UNL     1      24.439  32.084  12.508  1.00  0.00     0.094 A 
ATOM      6  C   UNL     1      25.615  32.845  12.427  1.00  0.00     0.134 A 
ATOM      7  N   UNL     1      25.530  34.163  12.089  1.00  0.00    -0.216 NA
ENDROOT
BRANCH   4   8
ATOM      8  N   UNL     1      21.991  31.953  12.342  1.00  0.00    -0.316 N 
ATOM      9  H   UNL     1      21.954  31.021  11.874  1.00  0.00     0.170 HD
BRANCH   8  10
ATOM     10  C   UNL     1      20.839  32.366  13.088  1.00  0.00     0.189 A 
ATOM     11  N   UNL     1      19.592  32.444  12.572  1.00  0.00    -0.228 NA
ATOM     12  S   UNL     1      20.895  32.917  14.677  1.00  0.00    -0.091 S 
ATOM     13  C   UNL     1      18.702  32.933  13.476  1.00  0.00     0.139 A 
ATOM     14  C   UNL     1      19.244  33.254  14.717  1.00  0.00     0.114 A 
BRANCH  14  15
ATOM     15  C   UNL     1      18.503  33.828  15.855  1.00  0.00     0.267 C 
ATOM     16  O   UNL     1      18.677  33.351  17.012  1.00  0.00    -0.268 OA
ATOM     17  N   UNL     1      17.599  34.925  15.662  1.00  0.00    -0.320 N 
ATOM     18  H   UNL     1      17.643  35.477  14.776  1.00  0.00     0.170 HD
BRANCH  17  19
ATOM     19  C   UNL     1      16.782  35.421  16.734  1.00  0.00     0.063 A 
ATOM     20  C   UNL     1      15.421  35.045  16.822  1.00  0.00    -0.026 A 
ATOM     21  C   UNL     1      17.335  36.273  17.715  1.00  0.00     0.064 A 
ATOM     22  C   UNL     1      14.814  34.118  15.801  1.00  0.00     0.046 C 
ATOM     23  C   UNL     1      14.634  35.541  17.875  1.00  0.00     0.005 A 
ATOM     24  C   UNL     1      16.536  36.756  18.757  1.00  0.00     0.023 A 
ATOM     25  Cl  UNL     1      19.042  36.713  17.688  1.00  0.00    -0.082 Cl
ATOM     26  C   UNL     1      15.188  36.397  18.833  1.00  0.00     0.002 A 
ENDBRANCH  17  19
ENDBRANCH  14  15
ENDBRANCH   8  10
ENDBRANCH   4   8
BRANCH   6  27
ATOM     27  N   UNL     1      26.905  32.246  12.643  1.00  0.00    -0.354 N 
ATOM     28  C   UNL     1      27.558  32.393  13.947  1.00  0.00     0.133 C 
ATOM     29  C   UNL     1      27.513  31.352  11.650  1.00  0.00     0.133 C 
ATOM     30  C   UNL     1      29.000  31.857  13.897  1.00  0.00     0.106 C 
ATOM     31  C   UNL     1      28.990  31.727  11.426  1.00  0.00     0.106 C 
ATOM     32  N   UNL     1      29.677  32.252  12.642  1.00  0.00    -0.298 NA
BRANCH  32  33
ATOM     33  C   UNL     1      29.925  33.717  12.578  1.00  0.00     0.112 C 
BRANCH  33  34
ATOM     34  C   UNL     1      30.803  34.171  13.749  1.00  0.00     0.171 C 
BRANCH  34  35
ATOM     35  O   UNL     1      31.802  35.053  13.314  1.00  0.00    -0.395 OA
ATOM     36  H   UNL     1      32.669  34.704  13.664  1.00  0.00     0.210 HD
ENDBRANCH  34  35
ENDBRANCH  33  34
ENDBRANCH  32  33
ENDBRANCH   6  27
TORSDOF 8
ENDMDL
MODEL 4
REMARK VINA RESULT:    -8.444      2.581      4.274
REMARK INTER + INTRA:         -13.048
REMARK INTER:                 -12.164
REMARK INTRA:                  -0.884
REMARK UNBOUND:                -0.902
REMARK SMILES Cc1nc(Nc2ncc(C(=O)Nc3c(C)cccc3Cl)s2)cc(N2CCN(CCO)CC2)n1
REMARK SMILES IDX 1 1 2 2 3 3 4 4 22 5 23 6 33 7 5 8 6 10 7 11 21 12 8 13 9 14
REMARK SMILES IDX 10 15 11 16 12 17 13 19 14 20 19 21 15 22 16 23 18 24 20 25
REMARK SMILES IDX 17 26 24 27 25 28 32 29 26 30 31 31 27 32 28 33 29 34 30 35
REMARK H PARENT 5 9 12 18 30 36
REMARK Flexibility Score: inf
ROOT
ATOM      1  C   UNL     1      20.750  35.326  17.012  1.00  0.00     0.090 C 
ATOM      2  C   UNL     1      20.880  35.019  15.559  1.00  0.00     0.130 A 
ATOM      3  N   UNL     1      22.027  35.323  14.898  1.00  0.00    -0.216 NA
ATOM      4  C   UNL     1      22.181  35.035  13.577  1.00  0.00     0.137 A 
ATOM      5  C   UNL     1      21.139  34.404  12.886  1.00  0.00     0.094 A 
ATOM      6  C   UNL     1      19.953  34.106  13.573  1.00  0.00     0.134 A 
ATOM      7  N   UNL     1      19.863  34.403  14.900  1.00  0.00    -0.216 NA
ENDROOT
BRANCH   4   8
ATOM      8  N   UNL     1      23.411  35.341  12.900  1.00  0.00    -0.316 N 
ATOM      9  H   UNL     1      23.648  36.340  12.716  1.00  0.00     0.170 HD
BRANCH   8  10
ATOM     10  C   UNL     1      24.381  34.351  12.534  1.00  0.00     0.189 A 
ATOM     11  N   UNL     1      24.252  33.520  11.475  1.00  0.00    -0.228 NA
ATOM     12  S   UNL     1      25.763  34.011  13.432  1.00  0.00    -0.091 S 
ATOM     13  C   UNL     1      25.279  32.633  11.401  1.00  0.00     0.139 A 
ATOM     14  C   UNL     1      26.230  32.753  12.411  1.00  0.00     0.114 A 
BRANCH  14  15
ATOM     15  C   UNL     1      27.420  31.898  12.576  1.00  0.00     0.267 C 
ATOM     16  O   UNL     1      27.302  30.645  12.468  1.00  0.00    -0.268 OA
ATOM     17  N   UNL     1      28.705  32.476  12.846  1.00  0.00    -0.320 N 
ATOM     18  H   UNL     1      28.852  33.498  12.685  1.00  0.00     0.170 HD
BRANCH  17  19
ATOM     19  C   UNL     1      29.852  31.657  13.125  1.00  0.00     0.063 A 
ATOM     20  C   UNL     1      30.731  31.288  12.079  1.00  0.00    -0.026 A 
ATOM     21  C   UNL     1      30.119  31.233  14.444  1.00  0.00     0.064 A 
ATOM     22  C   UNL     1      30.481  31.749  10.667  1.00  0.00     0.046 C 
ATOM     23  C   UNL     1      31.847  30.484  12.368  1.00  0.00     0.005 A 
ATOM     24  C   UNL     1      31.236  30.434  14.713  1.00  0.00     0.023 A 
ATOM     25  Cl  UNL     1      29.093  31.727  15.790  1.00  0.00    -0.082 Cl
ATOM     26  C   UNL     1      32.094  30.056  13.677  1.00  0.00     0.002 A 
ENDBRANCH  17  19
ENDBRANCH  14  15
ENDBRANCH   8  10
ENDBRANCH   4   8
BRANCH   6  27
ATOM     27  N   UNL     1      18.858  33.446  12.913  1.00  0.00    -0.354 N 
ATOM     28  C   UNL     1      19.051  32.904  11.565  1.00  0.00     0.133 C 
ATOM     29  C   UNL     1      17.602  33.154  13.614  1.00  0.00     0.133 C 
ATOM     30  C   UNL     1      17.712  32.429  10.972  1.00  0.00     0.106 C 
ATOM     31  C   UNL     1      16.397  33.553  12.741  1.00  0.00     0.106 C 
ATOM     32  N   UNL     1      16.622  33.382  11.276  1.00  0.00    -0.298 NA
BRANCH  32  33
ATOM     33  C   UNL     1      16.795  34.675  10.564  1.00  0.00     0.112 C 
BRANCH  33  34
ATOM     34  C   UNL     1      16.116  34.633   9.190  1.00  0.00     0.171 C 
BRANCH  34  35
ATOM     35  O   UNL     1      15.374  35.802   8.962  1.00  0.00    -0.395 OA
ATOM     36  H   UNL     1      14.440  35.516   8.757  1.00  0.00     0.210 HD
ENDBRANCH  34  35
ENDBRANCH  33  34
ENDBRANCH  32  33
ENDBRANCH   6  27
TORSDOF 8
ENDMDL
MODEL 5
REMARK VINA RESULT:    -8.433      4.274     10.878
REMARK INTER + INTRA:         -13.033
REMARK INTER:                 -11.813
REMARK INTRA:                  -1.220
REMARK UNBOUND:                -0.902
REMARK SMILES Cc1nc(Nc2ncc(C(=O)Nc3c(C)cccc3Cl)s2)cc(N2CCN(CCO)CC2)n1
REMARK SMILES IDX 1 1 2 2 3 3 4 4 22 5 23 6 33 7 5 8 6 10 7 11 21 12 8 13 9 14
REMARK SMILES IDX 10 15 11 16 12 17 13 19 14 20 19 21 15 22 16 23 18 24 20 25
REMARK SMILES IDX 17 26 24 27 25 28 32 29 26 30 31 31 27 32 28 33 29 34 30 35
REMARK H PARENT 5 9 12 18 30 36
REMARK Flexibility Score: inf
ROOT
ATOM      1  C   UNL     1      24.269  36.344  11.244  1.00  0.00     0.090 C 
ATOM      2  C   UNL     1      24.196  35.087  12.043  1.00  0.00     0.130 A 
ATOM      3  N   UNL     1      23.083  34.309  11.989  1.00  0.00    -0.216 NA
ATOM      4  C   UNL     1      22.998  33.147  12.691  1.00  0.00     0.137 A 
ATOM      5  C   UNL     1      24.082  32.739  13.479  1.00  0.00     0.094 A 
ATOM      6  C   UNL     1      25.221  33.556  13.539  1.00  0.00     0.134 A 
ATOM      7  N   UNL     1      25.256  34.701  12.802  1.00  0.00    -0.216 NA
ENDROOT
BRANCH   4   8
ATOM      8  N   UNL     1      21.824  32.323  12.602  1.00  0.00    -0.316 N 
ATOM      9  H   UNL     1      21.910  31.369  12.189  1.00  0.00     0.170 HD
BRANCH   8  10
ATOM     10  C   UNL     1      20.546  32.707  13.126  1.00  0.00     0.189 A 
ATOM     11  N   UNL     1      19.366  32.249  12.651  1.00  0.00    -0.228 NA
ATOM     12  S   UNL     1      20.331  33.862  14.330  1.00  0.00    -0.091 S 
ATOM     13  C   UNL     1      18.309  32.830  13.279  1.00  0.00     0.139 A 
ATOM     14  C   UNL     1      18.649  33.761  14.256  1.00  0.00     0.114 A 
BRANCH  14  15
ATOM     15  C   UNL     1      17.697  34.550  15.059  1.00  0.00     0.267 C 
ATOM     16  O   UNL     1      17.202  35.606  14.572  1.00  0.00    -0.268 OA
ATOM     17  N   UNL     1      17.322  34.125  16.377  1.00  0.00    -0.320 N 
ATOM     18  H   UNL     1      17.524  33.144  16.677  1.00  0.00     0.170 HD
BRANCH  17  19
ATOM     19  C   UNL     1      16.489  34.937  17.219  1.00  0.00     0.063 A 
ATOM     20  C   UNL     1      17.072  35.782  18.192  1.00  0.00    -0.026 A 
ATOM     21  C   UNL     1      15.085  34.910  17.068  1.00  0.00     0.064 A 
ATOM     22  C   UNL     1      18.568  35.845  18.355  1.00  0.00     0.046 C 
ATOM     23  C   UNL     1      16.242  36.568  19.010  1.00  0.00     0.005 A 
ATOM     24  C   UNL     1      14.275  35.702  17.890  1.00  0.00     0.023 A 
ATOM     25  Cl  UNL     1      14.316  33.929  15.822  1.00  0.00    -0.082 Cl
ATOM     26  C   UNL     1      14.852  36.523  18.863  1.00  0.00     0.002 A 
ENDBRANCH  17  19
ENDBRANCH  14  15
ENDBRANCH   8  10
ENDBRANCH   4   8
BRANCH   6  27
ATOM     27  N   UNL     1      26.366  33.177  14.323  1.00  0.00    -0.354 N 
ATOM     28  C   UNL     1      26.370  33.440  15.766  1.00  0.00     0.133 C 
ATOM     29  C   UNL     1      27.461  32.385  13.751  1.00  0.00     0.133 C 
ATOM     30  C   UNL     1      27.756  33.146  16.369  1.00  0.00     0.106 C 
ATOM     31  C   UNL     1      28.822  32.994  14.141  1.00  0.00     0.106 C 
ATOM     32  N   UNL     1      28.839  33.635  15.488  1.00  0.00    -0.298 NA
BRANCH  32  33
ATOM     33  C   UNL     1      28.878  35.119  15.420  1.00  0.00     0.112 C 
BRANCH  33  34
ATOM     34  C   UNL     1      29.016  35.593  13.968  1.00  0.00     0.171 C 
BRANCH  34  35
ATOM     35  O   UNL     1      27.809  36.132  13.500  1.00  0.00    -0.395 OA
ATOM     36  H   UNL     1      27.659  35.758  12.587  1.00  0.00     0.210 HD
ENDBRANCH  34  35
ENDBRANCH  33  34
ENDBRANCH  32  33
ENDBRANCH   6  27
TORSDOF 8
ENDMDL
MODEL 6
REMARK VINA RESULT:    -8.432      2.267      3.228
REMARK INTER + INTRA:         -13.031
REMARK INTER:                 -12.085
REMARK INTRA:                  -0.945
REMARK UNBOUND:                -0.902
REMARK SMILES Cc1nc(Nc2ncc(C(=O)Nc3c(C)cccc3Cl)s2)cc(N2CCN(CCO)CC2)n1
REMARK SMILES IDX 1 1 2 2 3 3 4 4 22 5 23 6 33 7 5 8 6 10 7 11 21 12 8 13 9 14
REMARK SMILES IDX 10 15 11 16 12 17 13 19 14 20 19 21 15 22 16 23 18 24 20 25
REMARK SMILES IDX 17 26 24 27 25 28 32 29 26 30 31 31 27 32 28 33 29 34 30 35
REMARK H PARENT 5 9 12 18 30 36
REMARK Flexibility Score: inf
ROOT
ATOM      1  C   UNL     1      17.434  36.150  17.167  1.00  0.00     0.090 C 
ATOM      2  C   UNL     1      18.448  35.789  16.135  1.00  0.00     0.130 A 
ATOM      3  N   UNL     1      19.723  36.244  16.244  1.00  0.00    -0.216 NA
ATOM      4  C   UNL     1      20.673  35.914  15.328  1.00  0.00     0.137 A 
ATOM      5  C   UNL     1      20.332  35.081  14.255  1.00  0.00     0.094 A 
ATOM      6  C   UNL     1      19.010  34.627  14.143  1.00  0.00     0.134 A 
ATOM      7  N   UNL     1      18.105  34.977  15.099  1.00  0.00    -0.216 NA
ENDROOT
BRANCH   4   8
ATOM      8  N   UNL     1      22.023  36.383  15.474  1.00  0.00    -0.316 N 
ATOM      9  H   UNL     1      22.227  37.111  16.194  1.00  0.00     0.170 HD
BRANCH   8  10
ATOM     10  C   UNL     1      23.132  35.848  14.740  1.00  0.00     0.189 A 
ATOM     11  N   UNL     1      23.561  36.337  13.554  1.00  0.00    -0.228 NA
ATOM     12  S   UNL     1      23.985  34.471  15.196  1.00  0.00    -0.091 S 
ATOM     13  C   UNL     1      24.581  35.597  13.043  1.00  0.00     0.139 A 
ATOM     14  C   UNL     1      24.963  34.509  13.823  1.00  0.00     0.114 A 
BRANCH  14  15
ATOM     15  C   UNL     1      26.018  33.537  13.482  1.00  0.00     0.267 C 
ATOM     16  O   UNL     1      26.285  32.604  14.290  1.00  0.00    -0.268 OA
ATOM     17  N   UNL     1      26.730  33.635  12.241  1.00  0.00    -0.320 N 
ATOM     18  H   UNL     1      26.348  34.235  11.475  1.00  0.00     0.170 HD
BRANCH  17  19
ATOM     19  C   UNL     1      27.838  32.771  11.941  1.00  0.00     0.063 A 
ATOM     20  C   UNL     1      27.627  31.571  11.221  1.00  0.00    -0.026 A 
ATOM     21  C   UNL     1      29.144  33.122  12.346  1.00  0.00     0.064 A 
ATOM     22  C   UNL     1      26.246  31.188  10.757  1.00  0.00     0.046 C 
ATOM     23  C   UNL     1      28.721  30.735  10.938  1.00  0.00     0.005 A 
ATOM     24  C   UNL     1      30.221  32.277  12.053  1.00  0.00     0.023 A 
ATOM     25  Cl  UNL     1      29.467  34.640  13.182  1.00  0.00    -0.082 Cl
ATOM     26  C   UNL     1      30.009  31.084  11.357  1.00  0.00     0.002 A 
ENDBRANCH  17  19
ENDBRANCH  14  15
ENDBRANCH   8  10
ENDBRANCH   4   8
BRANCH   6  27
ATOM     27  N   UNL     1      18.611  33.759  13.067  1.00  0.00    -0.354 N 
ATOM     28  C   UNL     1      19.325  33.823  11.788  1.00  0.00     0.133 C 
ATOM     29  C   UNL     1      17.619  32.696  13.264  1.00  0.00     0.133 C 
ATOM     30  C   UNL     1      18.614  32.968  10.724  1.00  0.00     0.106 C 
ATOM     31  C   UNL     1      16.588  32.707  12.119  1.00  0.00     0.106 C 
ATOM     32  N   UNL     1      17.146  33.126  10.801  1.00  0.00    -0.298 NA
BRANCH  32  33
ATOM     33  C   UNL     1      16.708  34.488  10.396  1.00  0.00     0.112 C 
BRANCH  33  34
ATOM     34  C   UNL     1      16.044  34.457   9.014  1.00  0.00     0.171 C 
BRANCH  34  35
ATOM     35  O   UNL     1      15.378  35.663   8.751  1.00  0.00    -0.395 OA
ATOM     36  H   UNL     1      14.399  35.471   8.808  1.00  0.00     0.210 HD
ENDBRANCH  34  35
ENDBRANCH  33  34
ENDBRANCH  32  33
ENDBRANCH   6  27
TORSDOF 8
ENDMDL
MODEL 7
REMARK VINA RESULT:    -8.425      4.297     11.122
REMARK INTER + INTRA:         -13.021
REMARK INTER:                 -11.776
REMARK INTRA:                  -1.245
REMARK UNBOUND:                -0.902
REMARK SMILES Cc1nc(Nc2ncc(C(=O)Nc3c(C)cccc3Cl)s2)cc(N2CCN(CCO)CC2)n1
REMARK SMILES IDX 1 1 2 2 3 3 4 4 22 5 23 6 33 7 5 8 6 10 7 11 21 12 8 13 9 14
REMARK SMILES IDX 10 15 11 16 12 17 13 19 14 20 19 21 15 22 16 23 18 24 20 25
REMARK SMILES IDX 17 26 24 27 25 28 32 29 26 30 31 31 27 32 28 33 29 34 30 35
REMARK H PARENT 5 9 12 18 30 36
REMARK Flexibility Score: inf
ROOT
ATOM      1  C   UNL     1      26.261  31.293  10.866  1.00  0.00     0.090 C 
ATOM      2  C   UNL     1      26.034  32.524  11.676  1.00  0.00     0.130 A 
ATOM      3  N   UNL     1      24.886  33.235  11.528  1.00  0.00    -0.216 NA
ATOM      4  C   UNL     1      24.644  34.351  12.268  1.00  0.00     0.137 A 
ATOM      5  C   UNL     1      25.593  34.770  13.209  1.00  0.00     0.094 A 
ATOM      6  C   UNL     1      26.781  34.037  13.345  1.00  0.00     0.134 A 
ATOM      7  N   UNL     1      26.962  32.919  12.588  1.00  0.00    -0.216 NA
ENDROOT
BRANCH   4   8
ATOM      8  N   UNL     1      23.413  35.076  12.116  1.00  0.00    -0.316 N 
ATOM      9  H   UNL     1      23.389  35.896  11.470  1.00  0.00     0.170 HD
BRANCH   8  10
ATOM     10  C   UNL     1      22.182  34.687  12.740  1.00  0.00     0.189 A 
ATOM     11  N   UNL     1      21.259  33.888  12.159  1.00  0.00    -0.228 NA
ATOM     12  S   UNL     1      21.664  35.259  14.235  1.00  0.00    -0.091 S 
ATOM     13  C   UNL     1      20.157  33.740  12.940  1.00  0.00     0.139 A 
ATOM     14  C   UNL     1      20.198  34.431  14.148  1.00  0.00     0.114 A 
BRANCH  14  15
ATOM     15  C   UNL     1      19.123  34.462  15.156  1.00  0.00     0.267 C 
ATOM     16  O   UNL     1      19.033  33.522  15.996  1.00  0.00    -0.268 OA
ATOM     17  N   UNL     1      18.190  35.551  15.198  1.00  0.00    -0.320 N 
ATOM     18  H   UNL     1      18.408  36.434  14.685  1.00  0.00     0.170 HD
BRANCH  17  19
ATOM     19  C   UNL     1      17.067  35.543  16.095  1.00  0.00     0.063 A 
ATOM     20  C   UNL     1      15.839  34.970  15.690  1.00  0.00    -0.026 A 
ATOM     21  C   UNL     1      17.189  36.091  17.391  1.00  0.00     0.064 A 
ATOM     22  C   UNL     1      15.692  34.358  14.322  1.00  0.00     0.046 C 
ATOM     23  C   UNL     1      14.750  34.973  16.578  1.00  0.00     0.005 A 
ATOM     24  C   UNL     1      16.093  36.083  18.262  1.00  0.00     0.023 A 
ATOM     25  Cl  UNL     1      18.718  36.751  17.966  1.00  0.00    -0.082 Cl
ATOM     26  C   UNL     1      14.876  35.532  17.855  1.00  0.00     0.002 A 
ENDBRANCH  17  19
ENDBRANCH  14  15
ENDBRANCH   8  10
ENDBRANCH   4   8
BRANCH   6  27
ATOM     27  N   UNL     1      27.782  34.418  14.306  1.00  0.00    -0.354 N 
ATOM     28  C   UNL     1      29.051  34.984  13.838  1.00  0.00     0.133 C 
ATOM     29  C   UNL     1      27.507  34.409  15.748  1.00  0.00     0.133 C 
ATOM     30  C   UNL     1      30.046  35.129  15.004  1.00  0.00     0.106 C 
ATOM     31  C   UNL     1      28.664  33.734  16.509  1.00  0.00     0.106 C 
ATOM     32  N   UNL     1      30.006  33.948  15.893  1.00  0.00    -0.298 NA
BRANCH  32  33
ATOM     33  C   UNL     1      30.536  32.728  15.228  1.00  0.00     0.112 C 
BRANCH  33  34
ATOM     34  C   UNL     1      29.570  31.551  15.404  1.00  0.00     0.171 C 
BRANCH  34  35
ATOM     35  O   UNL     1      28.985  31.197  14.179  1.00  0.00    -0.395 OA
ATOM     36  H   UNL     1      28.591  32.031  13.795  1.00  0.00     0.210 HD
ENDBRANCH  34  35
ENDBRANCH  33  34
ENDBRANCH  32  33
ENDBRANCH   6  27
TORSDOF 8
ENDMDL
MODEL 8
REMARK VINA RESULT:    -8.425      3.487      5.872
REMARK INTER + INTRA:         -13.021
REMARK INTER:                 -12.243
REMARK INTRA:                  -0.778
REMARK UNBOUND:                -0.902
REMARK SMILES Cc1nc(Nc2ncc(C(=O)Nc3c(C)cccc3Cl)s2)cc(N2CCN(CCO)CC2)n1
REMARK SMILES IDX 1 1 2 2 3 3 4 4 22 5 23 6 33 7 5 8 6 10 7 11 21 12 8 13 9 14
REMARK SMILES IDX 10 15 11 16 12 17 13 19 14 20 19 21 15 22 16 23 18 24 20 25
REMARK SMILES IDX 17 26 24 27 25 28 32 29 26 30 31 31 27 32 28 33 29 34 30 35
REMARK H PARENT 5 9 12 18 30 36
REMARK Flexibility Score: inf
ROOT
ATOM      1  C   UNL     1      19.049  32.774  11.412  1.00  0.00     0.090 C 
ATOM      2  C   UNL     1      19.848  33.505  12.437  1.00  0.00     0.130 A 
ATOM      3  N   UNL     1      21.132  33.861  12.174  1.00  0.00    -0.216 NA
ATOM      4  C   UNL     1      21.877  34.547  13.083  1.00  0.00     0.137 A 
ATOM      5  C   UNL     1      21.307  34.901  14.311  1.00  0.00     0.094 A 
ATOM      6  C   UNL     1      19.985  34.517  14.580  1.00  0.00     0.134 A 
ATOM      7  N   UNL     1      19.282  33.846  13.625  1.00  0.00    -0.216 NA
ENDROOT
BRANCH   4   8
ATOM      8  N   UNL     1      23.226  34.937  12.776  1.00  0.00    -0.316 N 
ATOM      9  H   UNL     1      23.493  35.941  12.877  1.00  0.00     0.170 HD
BRANCH   8  10
ATOM     10  C   UNL     1      24.257  34.009  12.416  1.00  0.00     0.189 A 
ATOM     11  N   UNL     1      24.210  33.213  11.325  1.00  0.00    -0.228 NA
ATOM     12  S   UNL     1      25.617  33.702  13.358  1.00  0.00    -0.091 S 
ATOM     13  C   UNL     1      25.282  32.379  11.263  1.00  0.00     0.139 A 
ATOM     14  C   UNL     1      26.185  32.507  12.314  1.00  0.00     0.114 A 
BRANCH  14  15
ATOM     15  C   UNL     1      27.408  31.704  12.498  1.00  0.00     0.267 C 
ATOM     16  O   UNL     1      27.347  30.447  12.384  1.00  0.00    -0.268 OA
ATOM     17  N   UNL     1      28.661  32.336  12.793  1.00  0.00    -0.320 N 
ATOM     18  H   UNL     1      28.767  33.364  12.638  1.00  0.00     0.170 HD
BRANCH  17  19
ATOM     19  C   UNL     1      29.838  31.568  13.090  1.00  0.00     0.063 A 
ATOM     20  C   UNL     1      30.738  31.219  12.055  1.00  0.00    -0.026 A 
ATOM     21  C   UNL     1      30.112  31.171  14.417  1.00  0.00     0.064 A 
ATOM     22  C   UNL     1      30.479  31.650  10.636  1.00  0.00     0.046 C 
ATOM     23  C   UNL     1      31.883  30.464  12.362  1.00  0.00     0.005 A 
ATOM     24  C   UNL     1      31.259  30.422  14.704  1.00  0.00     0.023 A 
ATOM     25  Cl  UNL     1      29.059  31.643  15.750  1.00  0.00    -0.082 Cl
ATOM     26  C   UNL     1      32.138  30.063  13.678  1.00  0.00     0.002 A 
ENDBRANCH  17  19
ENDBRANCH  14  15
ENDBRANCH   8  10
ENDBRANCH   4   8
BRANCH   6  27
ATOM     27  N   UNL     1      19.347  34.867  15.822  1.00  0.00    -0.354 N 
ATOM     28  C   UNL     1      19.364  33.912  16.934  1.00  0.00     0.133 C 
ATOM     29  C   UNL     1      18.824  36.216  16.064  1.00  0.00     0.133 C 
ATOM     30  C   UNL     1      18.461  34.397  18.082  1.00  0.00     0.106 C 
ATOM     31  C   UNL     1      17.412  36.141  16.676  1.00  0.00     0.106 C 
ATOM     32  N   UNL     1      17.196  34.964  17.567  1.00  0.00    -0.298 NA
BRANCH  32  33
ATOM     33  C   UNL     1      16.327  33.927  16.953  1.00  0.00     0.112 C 
BRANCH  33  34
ATOM     34  C   UNL     1      15.226  34.574  16.104  1.00  0.00     0.171 C 
BRANCH  34  35
ATOM     35  O   UNL     1      13.955  34.243  16.595  1.00  0.00    -0.395 OA
ATOM     36  H   UNL     1      14.096  33.658  17.392  1.00  0.00     0.210 HD
ENDBRANCH  34  35
ENDBRANCH  33  34
ENDBRANCH  32  33
ENDBRANCH   6  27
TORSDOF 8
ENDMDL
MODEL 9
REMARK VINA RESULT:    -8.398      4.563     11.170
REMARK INTER + INTRA:         -12.983
REMARK INTER:                 -11.715
REMARK INTRA:                  -1.268
REMARK UNBOUND:                -0.902
REMARK SMILES Cc1nc(Nc2ncc(C(=O)Nc3c(C)cccc3Cl)s2)cc(N2CCN(CCO)CC2)n1
REMARK SMILES IDX 1 1 2 2 3 3 4 4 22 5 23 6 33 7 5 8 6 10 7 11 21 12 8 13 9 14
REMARK SMILES IDX 10 15 11 16 12 17 13 19 14 20 19 21 15 22 16 23 18 24 20 25
REMARK SMILES IDX 17 26 24 27 25 28 32 29 26 30 31 31 27 32 28 33 29 34 30 35
REMARK H PARENT 5 9 12 18 30 36
REMARK Flexibility Score: inf
ROOT
ATOM      1  C   UNL     1      25.941  31.252  10.700  1.00  0.00     0.090 C 
ATOM      2  C   UNL     1      25.774  32.458  11.561  1.00  0.00     0.130 A 
ATOM      3  N   UNL     1      24.646  33.210  11.469  1.00  0.00    -0.216 NA
ATOM      4  C   UNL     1      24.458  34.304  12.256  1.00  0.00     0.137 A 
ATOM      5  C   UNL     1      25.443  34.657  13.187  1.00  0.00     0.094 A 
ATOM      6  C   UNL     1      26.610  33.883  13.265  1.00  0.00     0.134 A 
ATOM      7  N   UNL     1      26.736  32.789  12.462  1.00  0.00    -0.216 NA
ENDROOT
BRANCH   4   8
ATOM      8  N   UNL     1      23.247  35.073  12.163  1.00  0.00    -0.316 N 
ATOM      9  H   UNL     1      23.233  35.914  11.546  1.00  0.00     0.170 HD
BRANCH   8  10
ATOM     10  C   UNL     1      22.023  34.702  12.809  1.00  0.00     0.189 A 
ATOM     11  N   UNL     1      21.062  33.945  12.233  1.00  0.00    -0.228 NA
ATOM     12  S   UNL     1      21.560  35.248  14.332  1.00  0.00    -0.091 S 
ATOM     13  C   UNL     1      19.976  33.808  13.039  1.00  0.00     0.139 A 
ATOM     14  C   UNL     1      20.069  34.465  14.262  1.00  0.00     0.114 A 
BRANCH  14  15
ATOM     15  C   UNL     1      19.022  34.499  15.300  1.00  0.00     0.267 C 
ATOM     16  O   UNL     1      18.892  33.516  16.083  1.00  0.00    -0.268 OA
ATOM     17  N   UNL     1      18.160  35.639  15.433  1.00  0.00    -0.320 N 
ATOM     18  H   UNL     1      18.422  36.537  14.968  1.00  0.00     0.170 HD
BRANCH  17  19
ATOM     19  C   UNL     1      17.061  35.644  16.357  1.00  0.00     0.063 A 
ATOM     20  C   UNL     1      17.212  36.230  17.636  1.00  0.00    -0.026 A 
ATOM     21  C   UNL     1      15.819  35.082  15.989  1.00  0.00     0.064 A 
ATOM     22  C   UNL     1      18.520  36.857  18.043  1.00  0.00     0.046 C 
ATOM     23  C   UNL     1      16.128  36.225  18.530  1.00  0.00     0.005 A 
ATOM     24  C   UNL     1      14.750  35.088  16.893  1.00  0.00     0.023 A 
ATOM     25  Cl  UNL     1      15.560  34.406  14.382  1.00  0.00    -0.082 Cl
ATOM     26  C   UNL     1      14.906  35.651  18.162  1.00  0.00     0.002 A 
ENDBRANCH  17  19
ENDBRANCH  14  15
ENDBRANCH   8  10
ENDBRANCH   4   8
BRANCH   6  27
ATOM     27  N   UNL     1      27.647  34.196  14.213  1.00  0.00    -0.354 N 
ATOM     28  C   UNL     1      28.834  34.930  13.764  1.00  0.00     0.133 C 
ATOM     29  C   UNL     1      27.476  33.947  15.649  1.00  0.00     0.133 C 
ATOM     30  C   UNL     1      29.897  34.978  14.877  1.00  0.00     0.106 C 
ATOM     31  C   UNL     1      28.730  33.263  16.226  1.00  0.00     0.106 C 
ATOM     32  N   UNL     1      30.006  33.677  15.572  1.00  0.00    -0.298 NA
BRANCH  32  33
ATOM     33  C   UNL     1      30.575  32.620  14.695  1.00  0.00     0.112 C 
BRANCH  33  34
ATOM     34  C   UNL     1      29.783  31.315  14.835  1.00  0.00     0.171 C 
BRANCH  34  35
ATOM     35  O   UNL     1      29.000  31.079  13.695  1.00  0.00    -0.395 OA
ATOM     36  H   UNL     1      28.483  31.916  13.522  1.00  0.00     0.210 HD
ENDBRANCH  34  35
ENDBRANCH  33  34
ENDBRANCH  32  33
ENDBRANCH   6  27
TORSDOF 8
ENDMDL
MODEL 10
REMARK VINA RESULT:    -8.378      4.625     11.017
REMARK INTER + INTRA:         -12.954
REMARK INTER:                 -11.768
REMARK INTRA:                  -1.186
REMARK UNBOUND:                -0.902
REMARK SMILES Cc1nc(Nc2ncc(C(=O)Nc3c(C)cccc3Cl)s2)cc(N2CCN(CCO)CC2)n1
REMARK SMILES IDX 1 1 2 2 3 3 4 4 22 5 23 6 33 7 5 8 6 10 7 11 21 12 8 13 9 14
REMARK SMILES IDX 10 15 11 16 12 17 13 19 14 20 19 21 15 22 16 23 18 24 20 25
REMARK SMILES IDX 17 26 24 27 25 28 32 29 26 30 31 31 27 32 28 33 29 34 30 35
REMARK H PARENT 5 9 12 18 30 36
REMARK Flexibility Score: inf
ROOT
ATOM      1  C   UNL     1      26.599  33.579  16.193  1.00  0.00     0.090 C 
ATOM      2  C   UNL     1      26.389  33.457  14.722  1.00  0.00     0.130 A 
ATOM      3  N   UNL     1      25.241  33.916  14.157  1.00  0.00    -0.216 NA
ATOM      4  C   UNL     1      25.031  33.835  12.815  1.00  0.00     0.137 A 
ATOM      5  C   UNL     1      26.022  33.277  11.998  1.00  0.00     0.094 A 
ATOM      6  C   UNL     1      27.197  32.794  12.591  1.00  0.00     0.134 A 
ATOM      7  N   UNL     1      27.359  32.916  13.938  1.00  0.00    -0.216 NA
ENDROOT
BRANCH   4   8
ATOM      8  N   UNL     1      23.822  34.349  12.232  1.00  0.00    -0.316 N 
ATOM      9  H   UNL     1      23.772  34.460  11.196  1.00  0.00     0.170 HD
BRANCH   8  10
ATOM     10  C   UNL     1      22.641  34.643  12.989  1.00  0.00     0.189 A 
ATOM     11  N   UNL     1      22.488  35.748  13.753  1.00  0.00    -0.228 NA
ATOM     12  S   UNL     1      21.325  33.603  13.120  1.00  0.00    -0.091 S 
ATOM     13  C   UNL     1      21.303  35.741  14.419  1.00  0.00     0.139 A 
ATOM     14  C   UNL     1      20.509  34.620  14.190  1.00  0.00     0.114 A 
BRANCH  14  15
ATOM     15  C   UNL     1      19.198  34.355  14.810  1.00  0.00     0.267 C 
ATOM     16  O   UNL     1      18.963  33.214  15.299  1.00  0.00    -0.268 OA
ATOM     17  N   UNL     1      18.197  35.381  14.871  1.00  0.00    -0.320 N 
ATOM     18  H   UNL     1      18.470  36.375  14.704  1.00  0.00     0.170 HD
BRANCH  17  19
ATOM     19  C   UNL     1      16.875  35.110  15.365  1.00  0.00     0.063 A 
ATOM     20  C   UNL     1      16.538  35.428  16.701  1.00  0.00    -0.026 A 
ATOM     21  C   UNL     1      15.901  34.543  14.515  1.00  0.00     0.064 A 
ATOM     22  C   UNL     1      17.553  36.056  17.620  1.00  0.00     0.046 C 
ATOM     23  C   UNL     1      15.241  35.155  17.170  1.00  0.00     0.005 A 
ATOM     24  C   UNL     1      14.614  34.279  14.999  1.00  0.00     0.023 A 
ATOM     25  Cl  UNL     1      16.252  34.196  12.823  1.00  0.00    -0.082 Cl
ATOM     26  C   UNL     1      14.288  34.578  16.324  1.00  0.00     0.002 A 
ENDBRANCH  17  19
ENDBRANCH  14  15
ENDBRANCH   8  10
ENDBRANCH   4   8
BRANCH   6  27
ATOM     27  N   UNL     1      28.251  32.223  11.794  1.00  0.00    -0.354 N 
ATOM     28  C   UNL     1      28.040  30.925  11.146  1.00  0.00     0.133 C 
ATOM     29  C   UNL     1      29.469  32.977  11.476  1.00  0.00     0.133 C 
ATOM     30  C   UNL     1      29.350  30.410  10.521  1.00  0.00     0.106 C 
ATOM     31  C   UNL     1      30.715  32.101  11.703  1.00  0.00     0.106 C 
ATOM     32  N   UNL     1      30.503  30.652  11.415  1.00  0.00    -0.298 NA
BRANCH  32  33
ATOM     33  C   UNL     1      30.441  29.822  12.646  1.00  0.00     0.112 C 
BRANCH  33  34
ATOM     34  C   UNL     1      30.724  30.672  13.890  1.00  0.00     0.171 C 
BRANCH  34  35
ATOM     35  O   UNL     1      29.553  30.878  14.633  1.00  0.00    -0.395 OA
ATOM     36  H   UNL     1      29.290  31.832  14.502  1.00  0.00     0.210 HD
ENDBRANCH  34  35
ENDBRANCH  33  34
ENDBRANCH  32  33
ENDBRANCH   6  27
TORSDOF 8
ENDMDL
MODEL 11
REMARK VINA RESULT:    -8.322      4.311     10.734
REMARK INTER + INTRA:         -12.873
REMARK INTER:                 -11.869
REMARK INTRA:                  -1.004
REMARK UNBOUND:                -0.902
REMARK SMILES Cc1nc(Nc2ncc(C(=O)Nc3c(C)cccc3Cl)s2)cc(N2CCN(CCO)CC2)n1
REMARK SMILES IDX 1 1 2 2 3 3 4 4 22 5 23 6 33 7 5 8 6 10 7 11 21 12 8 13 9 14
REMARK SMILES IDX 10 15 11 16 12 17 13 19 14 20 19 21 15 22 16 23 18 24 20 25
REMARK SMILES IDX 17 26 24 27 25 28 32 29 26 30 31 31 27 32 28 33 29 34 30 35
REMARK H PARENT 5 9 12 18 30 36
REMARK Flexibility Score: inf
ROOT
ATOM      1  C   UNL     1      25.985  35.860  14.149  1.00  0.00     0.090 C 
ATOM      2  C   UNL     1      25.875  34.581  13.390  1.00  0.00     0.130 A 
ATOM      3  N   UNL     1      24.659  34.007  13.194  1.00  0.00    -0.216 NA
ATOM      4  C   UNL     1      24.527  32.852  12.487  1.00  0.00     0.137 A 
ATOM      5  C   UNL     1      25.666  32.247  11.943  1.00  0.00     0.094 A 
ATOM      6  C   UNL     1      26.918  32.839  12.161  1.00  0.00     0.134 A 
ATOM      7  N   UNL     1      26.987  34.004  12.863  1.00  0.00    -0.216 NA
ENDROOT
BRANCH   4   8
ATOM      8  N   UNL     1      23.230  32.274  12.269  1.00  0.00    -0.316 N 
ATOM      9  H   UNL     1      23.159  31.399  11.704  1.00  0.00     0.170 HD
BRANCH   8  10
ATOM     10  C   UNL     1      22.025  32.784  12.855  1.00  0.00     0.189 A 
ATOM     11  N   UNL     1      21.089  33.480  12.173  1.00  0.00    -0.228 NA
ATOM     12  S   UNL     1      21.662  32.684  14.495  1.00  0.00    -0.091 S 
ATOM     13  C   UNL     1      20.086  33.908  12.986  1.00  0.00     0.139 A 
ATOM     14  C   UNL     1      20.228  33.556  14.325  1.00  0.00     0.114 A 
BRANCH  14  15
ATOM     15  C   UNL     1      19.301  33.920  15.411  1.00  0.00     0.267 C 
ATOM     16  O   UNL     1      19.225  33.183  16.435  1.00  0.00    -0.268 OA
ATOM     17  N   UNL     1      18.496  35.104  15.320  1.00  0.00    -0.320 N 
ATOM     18  H   UNL     1      18.735  35.834  14.613  1.00  0.00     0.170 HD
BRANCH  17  19
ATOM     19  C   UNL     1      17.503  35.415  16.311  1.00  0.00     0.063 A 
ATOM     20  C   UNL     1      16.164  34.996  16.130  1.00  0.00    -0.026 A 
ATOM     21  C   UNL     1      17.861  36.124  17.479  1.00  0.00     0.064 A 
ATOM     22  C   UNL     1      15.763  34.217  14.905  1.00  0.00     0.046 C 
ATOM     23  C   UNL     1      15.204  35.310  17.108  1.00  0.00     0.005 A 
ATOM     24  C   UNL     1      16.892  36.426  18.442  1.00  0.00     0.023 A 
ATOM     25  Cl  UNL     1      19.530  36.604  17.783  1.00  0.00    -0.082 Cl
ATOM     26  C   UNL     1      15.566  36.026  18.254  1.00  0.00     0.002 A 
ENDBRANCH  17  19
ENDBRANCH  14  15
ENDBRANCH   8  10
ENDBRANCH   4   8
BRANCH   6  27
ATOM     27  N   UNL     1      28.118  32.263  11.613  1.00  0.00    -0.354 N 
ATOM     28  C   UNL     1      28.085  30.895  11.087  1.00  0.00     0.133 C 
ATOM     29  C   UNL     1      29.332  33.063  11.412  1.00  0.00     0.133 C 
ATOM     30  C   UNL     1      29.504  30.411  10.741  1.00  0.00     0.106 C 
ATOM     31  C   UNL     1      30.566  32.301  11.932  1.00  0.00     0.106 C 
ATOM     32  N   UNL     1      30.479  30.820  11.776  1.00  0.00    -0.298 NA
BRANCH  32  33
ATOM     33  C   UNL     1      30.254  30.116  13.066  1.00  0.00     0.112 C 
BRANCH  33  34
ATOM     34  C   UNL     1      30.400  31.085  14.246  1.00  0.00     0.171 C 
BRANCH  34  35
ATOM     35  O   UNL     1      29.186  31.222  14.934  1.00  0.00    -0.395 OA
ATOM     36  H   UNL     1      29.090  30.416  15.515  1.00  0.00     0.210 HD
ENDBRANCH  34  35
ENDBRANCH  33  34
ENDBRANCH  32  33
ENDBRANCH   6  27
TORSDOF 8
ENDMDL
MODEL 12
REMARK VINA RESULT:    -8.272      4.023     10.738
REMARK INTER + INTRA:         -12.800
REMARK INTER:                 -11.820
REMARK INTRA:                  -0.981
REMARK UNBOUND:                -0.902
REMARK SMILES Cc1nc(Nc2ncc(C(=O)Nc3c(C)cccc3Cl)s2)cc(N2CCN(CCO)CC2)n1
REMARK SMILES IDX 1 1 2 2 3 3 4 4 22 5 23 6 33 7 5 8 6 10 7 11 21 12 8 13 9 14
REMARK SMILES IDX 10 15 11 16 12 17 13 19 14 20 19 21 15 22 16 23 18 24 20 25
REMARK SMILES IDX 17 26 24 27 25 28 32 29 26 30 31 31 27 32 28 33 29 34 30 35
REMARK H PARENT 5 9 12 18 30 36
REMARK Flexibility Score: inf
ROOT
ATOM      1  C   UNL     1      25.839  36.503  14.124  1.00  0.00     0.090 C 
ATOM      2  C   UNL     1      26.008  35.042  13.876  1.00  0.00     0.130 A 
ATOM      3  N   UNL     1      24.917  34.244  13.736  1.00  0.00    -0.216 NA
ATOM      4  C   UNL     1      25.043  32.912  13.488  1.00  0.00     0.137 A 
ATOM      5  C   UNL     1      26.321  32.354  13.366  1.00  0.00     0.094 A 
ATOM      6  C   UNL     1      27.441  33.183  13.526  1.00  0.00     0.134 A 
ATOM      7  N   UNL     1      27.254  34.512  13.756  1.00  0.00    -0.216 NA
ENDROOT
BRANCH   4   8
ATOM      8  N   UNL     1      23.878  32.088  13.317  1.00  0.00    -0.316 N 
ATOM      9  H   UNL     1      24.000  31.053  13.257  1.00  0.00     0.170 HD
BRANCH   8  10
ATOM     10  C   UNL     1      22.539  32.600  13.308  1.00  0.00     0.189 A 
ATOM     11  N   UNL     1      21.817  32.807  12.184  1.00  0.00    -0.228 NA
ATOM     12  S   UNL     1      21.721  33.119  14.683  1.00  0.00    -0.091 S 
ATOM     13  C   UNL     1      20.609  33.367  12.457  1.00  0.00     0.139 A 
ATOM     14  C   UNL     1      20.370  33.615  13.806  1.00  0.00     0.114 A 
BRANCH  14  15
ATOM     15  C   UNL     1      19.156  34.241  14.362  1.00  0.00     0.267 C 
ATOM     16  O   UNL     1      19.119  35.494  14.515  1.00  0.00    -0.268 OA
ATOM     17  N   UNL     1      18.019  33.442  14.719  1.00  0.00    -0.320 N 
ATOM     18  H   UNL     1      17.949  32.462  14.365  1.00  0.00     0.170 HD
BRANCH  17  19
ATOM     19  C   UNL     1      16.873  34.016  15.369  1.00  0.00     0.063 A 
ATOM     20  C   UNL     1      15.694  34.275  14.631  1.00  0.00    -0.026 A 
ATOM     21  C   UNL     1      16.912  34.309  16.750  1.00  0.00     0.064 A 
ATOM     22  C   UNL     1      15.621  33.949  13.162  1.00  0.00     0.046 C 
ATOM     23  C   UNL     1      14.583  34.839  15.281  1.00  0.00     0.005 A 
ATOM     24  C   UNL     1      15.795  34.869  17.380  1.00  0.00     0.023 A 
ATOM     25  Cl  UNL     1      18.332  33.938  17.725  1.00  0.00    -0.082 Cl
ATOM     26  C   UNL     1      14.636  35.139  16.647  1.00  0.00     0.002 A 
ENDBRANCH  17  19
ENDBRANCH  14  15
ENDBRANCH   8  10
ENDBRANCH   4   8
BRANCH   6  27
ATOM     27  N   UNL     1      28.776  32.661  13.397  1.00  0.00    -0.354 N 
ATOM     28  C   UNL     1      29.747  33.368  12.556  1.00  0.00     0.133 C 
ATOM     29  C   UNL     1      29.243  31.534  14.213  1.00  0.00     0.133 C 
ATOM     30  C   UNL     1      31.034  32.539  12.397  1.00  0.00     0.106 C 
ATOM     31  C   UNL     1      29.980  30.506  13.334  1.00  0.00     0.106 C 
ATOM     32  N   UNL     1      30.728  31.106  12.191  1.00  0.00    -0.298 NA
BRANCH  32  33
ATOM     33  C   UNL     1      30.076  30.856  10.879  1.00  0.00     0.112 C 
BRANCH  33  34
ATOM     34  C   UNL     1      28.860  29.937  11.044  1.00  0.00     0.171 C 
BRANCH  34  35
ATOM     35  O   UNL     1      27.709  30.525  10.500  1.00  0.00    -0.395 OA
ATOM     36  H   UNL     1      26.969  30.369  11.151  1.00  0.00     0.210 HD
ENDBRANCH  34  35
ENDBRANCH  33  34
ENDBRANCH  32  33
ENDBRANCH   6  27
TORSDOF 8
ENDMDL
MODEL 13
REMARK VINA RESULT:    -8.206      4.708     10.997
REMARK INTER + INTRA:         -12.706
REMARK INTER:                 -11.768
REMARK INTRA:                  -0.938
REMARK UNBOUND:                -0.902
REMARK SMILES Cc1nc(Nc2ncc(C(=O)Nc3c(C)cccc3Cl)s2)cc(N2CCN(CCO)CC2)n1
REMARK SMILES IDX 1 1 2 2 3 3 4 4 22 5 23 6 33 7 5 8 6 10 7 11 21 12 8 13 9 14
REMARK SMILES IDX 10 15 11 16 12 17 13 19 14 20 19 21 15 22 16 23 18 24 20 25
REMARK SMILES IDX 17 26 24 27 25 28 32 29 26 30 31 31 27 32 28 33 29 34 30 35
REMARK H PARENT 5 9 12 18 30 36
REMARK Flexibility Score: inf
ROOT
ATOM      1  C   UNL     1      25.940  33.334  17.837  1.00  0.00     0.090 C 
ATOM      2  C   UNL     1      26.149  33.444  16.364  1.00  0.00     0.130 A 
ATOM      3  N   UNL     1      25.139  33.872  15.562  1.00  0.00    -0.216 NA
ATOM      4  C   UNL     1      25.310  34.002  14.219  1.00  0.00     0.137 A 
ATOM      5  C   UNL     1      26.552  33.697  13.651  1.00  0.00     0.094 A 
ATOM      6  C   UNL     1      27.585  33.242  14.485  1.00  0.00     0.134 A 
ATOM      7  N   UNL     1      27.361  33.147  15.826  1.00  0.00    -0.216 NA
ENDROOT
BRANCH   4   8
ATOM      8  N   UNL     1      24.238  34.481  13.389  1.00  0.00    -0.316 N 
ATOM      9  H   UNL     1      24.396  34.560  12.361  1.00  0.00     0.170 HD
BRANCH   8  10
ATOM     10  C   UNL     1      22.927  34.781  13.884  1.00  0.00     0.189 A 
ATOM     11  N   UNL     1      22.551  35.996  14.342  1.00  0.00    -0.228 NA
ATOM     12  S   UNL     1      21.706  33.637  14.067  1.00  0.00    -0.091 S 
ATOM     13  C   UNL     1      21.278  35.984  14.819  1.00  0.00     0.139 A 
ATOM     14  C   UNL     1      20.637  34.750  14.747  1.00  0.00     0.114 A 
BRANCH  14  15
ATOM     15  C   UNL     1      19.272  34.463  15.222  1.00  0.00     0.267 C 
ATOM     16  O   UNL     1      19.011  33.327  15.711  1.00  0.00    -0.268 OA
ATOM     17  N   UNL     1      18.244  35.461  15.143  1.00  0.00    -0.320 N 
ATOM     18  H   UNL     1      18.509  36.459  14.982  1.00  0.00     0.170 HD
BRANCH  17  19
ATOM     19  C   UNL     1      16.882  35.165  15.491  1.00  0.00     0.063 A 
ATOM     20  C   UNL     1      16.407  35.439  16.795  1.00  0.00    -0.026 A 
ATOM     21  C   UNL     1      16.006  34.615  14.530  1.00  0.00     0.064 A 
ATOM     22  C   UNL     1      17.316  36.048  17.831  1.00  0.00     0.046 C 
ATOM     23  C   UNL     1      15.073  35.142  17.121  1.00  0.00     0.005 A 
ATOM     24  C   UNL     1      14.680  34.327  14.873  1.00  0.00     0.023 A 
ATOM     25  Cl  UNL     1      16.531  34.322  12.874  1.00  0.00    -0.082 Cl
ATOM     26  C   UNL     1      14.217  34.583  16.166  1.00  0.00     0.002 A 
ENDBRANCH  17  19
ENDBRANCH  14  15
ENDBRANCH   8  10
ENDBRANCH   4   8
BRANCH   6  27
ATOM     27  N   UNL     1      28.885  32.927  13.954  1.00  0.00    -0.354 N 
ATOM     28  C   UNL     1      29.401  33.692  12.815  1.00  0.00     0.133 C 
ATOM     29  C   UNL     1      29.778  31.974  14.622  1.00  0.00     0.133 C 
ATOM     30  C   UNL     1      30.702  33.064  12.283  1.00  0.00     0.106 C 
ATOM     31  C   UNL     1      30.377  30.993  13.597  1.00  0.00     0.106 C 
ATOM     32  N   UNL     1      30.612  31.588  12.249  1.00  0.00    -0.298 NA
BRANCH  32  33
ATOM     33  C   UNL     1      29.640  31.110  11.231  1.00  0.00     0.112 C 
BRANCH  33  34
ATOM     34  C   UNL     1      29.027  29.770  11.652  1.00  0.00     0.171 C 
BRANCH  34  35
ATOM     35  O   UNL     1      27.722  29.946  12.136  1.00  0.00    -0.395 OA
ATOM     36  H   UNL     1      27.221  29.107  11.929  1.00  0.00     0.210 HD
ENDBRANCH  34  35
ENDBRANCH  33  34
ENDBRANCH  32  33
ENDBRANCH   6  27
TORSDOF 8
ENDMDL
MODEL 14
REMARK VINA RESULT:    -8.127      4.528     10.916
REMARK INTER + INTRA:         -12.592
REMARK INTER:                 -11.349
REMARK INTRA:                  -1.243
REMARK UNBOUND:                -0.902
REMARK SMILES Cc1nc(Nc2ncc(C(=O)Nc3c(C)cccc3Cl)s2)cc(N2CCN(CCO)CC2)n1
REMARK SMILES IDX 1 1 2 2 3 3 4 4 22 5 23 6 33 7 5 8 6 10 7 11 21 12 8 13 9 14
REMARK SMILES IDX 10 15 11 16 12 17 13 19 14 20 19 21 15 22 16 23 18 24 20 25
REMARK SMILES IDX 17 26 24 27 25 28 32 29 26 30 31 31 27 32 28 33 29 34 30 35
REMARK H PARENT 5 9 12 18 30 36
REMARK Flexibility Score: inf
ROOT
ATOM      1  C   UNL     1      24.555  32.480  11.103  1.00  0.00     0.090 C 
ATOM      2  C   UNL     1      25.303  32.978  12.293  1.00  0.00     0.130 A 
ATOM      3  N   UNL     1      24.667  33.720  13.237  1.00  0.00    -0.216 NA
ATOM      4  C   UNL     1      25.320  34.169  14.343  1.00  0.00     0.137 A 
ATOM      5  C   UNL     1      26.672  33.853  14.517  1.00  0.00     0.094 A 
ATOM      6  C   UNL     1      27.325  33.099  13.531  1.00  0.00     0.134 A 
ATOM      7  N   UNL     1      26.615  32.662  12.452  1.00  0.00    -0.216 NA
ENDROOT
BRANCH   4   8
ATOM      8  N   UNL     1      24.624  34.931  15.343  1.00  0.00    -0.316 N 
ATOM      9  H   UNL     1      25.181  35.433  16.070  1.00  0.00     0.170 HD
BRANCH   8  10
ATOM     10  C   UNL     1      23.202  35.111  15.355  1.00  0.00     0.189 A 
ATOM     11  N   UNL     1      22.582  36.253  14.983  1.00  0.00    -0.228 NA
ATOM     12  S   UNL     1      22.113  33.967  15.935  1.00  0.00    -0.091 S 
ATOM     13  C   UNL     1      21.236  36.178  15.161  1.00  0.00     0.139 A 
ATOM     14  C   UNL     1      20.782  34.970  15.683  1.00  0.00     0.114 A 
BRANCH  14  15
ATOM     15  C   UNL     1      19.379  34.644  15.998  1.00  0.00     0.267 C 
ATOM     16  O   UNL     1      19.111  33.557  16.583  1.00  0.00    -0.268 OA
ATOM     17  N   UNL     1      18.322  35.552  15.655  1.00  0.00    -0.320 N 
ATOM     18  H   UNL     1      18.554  36.541  15.410  1.00  0.00     0.170 HD
BRANCH  17  19
ATOM     19  C   UNL     1      16.942  35.204  15.847  1.00  0.00     0.063 A 
ATOM     20  C   UNL     1      16.220  34.568  14.809  1.00  0.00    -0.026 A 
ATOM     21  C   UNL     1      16.303  35.477  17.076  1.00  0.00     0.064 A 
ATOM     22  C   UNL     1      16.887  34.244  13.498  1.00  0.00     0.046 C 
ATOM     23  C   UNL     1      14.869  34.236  15.011  1.00  0.00     0.005 A 
ATOM     24  C   UNL     1      14.957  35.138  17.259  1.00  0.00     0.023 A 
ATOM     25  Cl  UNL     1      17.179  36.203  18.422  1.00  0.00    -0.082 Cl
ATOM     26  C   UNL     1      14.241  34.525  16.227  1.00  0.00     0.002 A 
ENDBRANCH  17  19
ENDBRANCH  14  15
ENDBRANCH   8  10
ENDBRANCH   4   8
BRANCH   6  27
ATOM     27  N   UNL     1      28.711  32.736  13.668  1.00  0.00    -0.354 N 
ATOM     28  C   UNL     1      29.721  33.444  12.875  1.00  0.00     0.133 C 
ATOM     29  C   UNL     1      29.161  31.793  14.698  1.00  0.00     0.133 C 
ATOM     30  C   UNL     1      31.097  32.769  13.020  1.00  0.00     0.106 C 
ATOM     31  C   UNL     1      30.129  30.760  14.091  1.00  0.00     0.106 C 
ATOM     32  N   UNL     1      30.978  31.295  12.988  1.00  0.00    -0.298 NA
BRANCH  32  33
ATOM     33  C   UNL     1      30.567  30.796  11.649  1.00  0.00     0.112 C 
BRANCH  33  34
ATOM     34  C   UNL     1      29.423  29.783  11.775  1.00  0.00     0.171 C 
BRANCH  34  35
ATOM     35  O   UNL     1      28.238  30.297  11.230  1.00  0.00    -0.395 OA
ATOM     36  H   UNL     1      28.150  29.910  10.313  1.00  0.00     0.210 HD
ENDBRANCH  34  35
ENDBRANCH  33  34
ENDBRANCH  32  33
ENDBRANCH   6  27
TORSDOF 8
ENDMDL
MODEL 15
REMARK VINA RESULT:    -8.090      4.980     11.269
REMARK INTER + INTRA:         -12.539
REMARK INTER:                 -11.634
REMARK INTRA:                  -0.905
REMARK UNBOUND:                -0.902
REMARK SMILES Cc1nc(Nc2ncc(C(=O)Nc3c(C)cccc3Cl)s2)cc(N2CCN(CCO)CC2)n1
REMARK SMILES IDX 1 1 2 2 3 3 4 4 22 5 23 6 33 7 5 8 6 10 7 11 21 12 8 13 9 14
REMARK SMILES IDX 10 15 11 16 12 17 13 19 14 20 19 21 15 22 16 23 18 24 20 25
REMARK SMILES IDX 17 26 24 27 25 28 32 29 26 30 31 31 27 32 28 33 29 34 30 35
REMARK H PARENT 5 9 12 18 30 36
REMARK Flexibility Score: inf
ROOT
ATOM      1  C   UNL     1      24.750  32.581  11.082  1.00  0.00     0.090 C 
ATOM      2  C   UNL     1      25.432  33.056  12.320  1.00  0.00     0.130 A 
ATOM      3  N   UNL     1      24.752  33.803  13.229  1.00  0.00    -0.216 NA
ATOM      4  C   UNL     1      25.343  34.232  14.377  1.00  0.00     0.137 A 
ATOM      5  C   UNL     1      26.677  33.891  14.631  1.00  0.00     0.094 A 
ATOM      6  C   UNL     1      27.375  33.132  13.680  1.00  0.00     0.134 A 
ATOM      7  N   UNL     1      26.726  32.716  12.557  1.00  0.00    -0.216 NA
ENDROOT
BRANCH   4   8
ATOM      8  N   UNL     1      24.600  34.999  15.338  1.00  0.00    -0.316 N 
ATOM      9  H   UNL     1      25.123  35.532  16.067  1.00  0.00     0.170 HD
BRANCH   8  10
ATOM     10  C   UNL     1      23.174  35.143  15.306  1.00  0.00     0.189 A 
ATOM     11  N   UNL     1      22.535  36.228  14.815  1.00  0.00    -0.228 NA
ATOM     12  S   UNL     1      22.101  34.031  15.972  1.00  0.00    -0.091 S 
ATOM     13  C   UNL     1      21.188  36.135  14.974  1.00  0.00     0.139 A 
ATOM     14  C   UNL     1      20.751  34.971  15.601  1.00  0.00     0.114 A 
BRANCH  14  15
ATOM     15  C   UNL     1      19.350  34.641  15.918  1.00  0.00     0.267 C 
ATOM     16  O   UNL     1      19.068  33.488  16.350  1.00  0.00    -0.268 OA
ATOM     17  N   UNL     1      18.312  35.616  15.751  1.00  0.00    -0.320 N 
ATOM     18  H   UNL     1      18.567  36.624  15.642  1.00  0.00     0.170 HD
BRANCH  17  19
ATOM     19  C   UNL     1      16.929  35.281  15.942  1.00  0.00     0.063 A 
ATOM     20  C   UNL     1      16.294  35.562  17.175  1.00  0.00    -0.026 A 
ATOM     21  C   UNL     1      16.190  34.684  14.897  1.00  0.00     0.064 A 
ATOM     22  C   UNL     1      17.054  36.220  18.296  1.00  0.00     0.046 C 
ATOM     23  C   UNL     1      14.940  35.225  17.347  1.00  0.00     0.005 A 
ATOM     24  C   UNL     1      14.843  34.357  15.087  1.00  0.00     0.023 A 
ATOM     25  Cl  UNL     1      16.917  34.379  13.320  1.00  0.00    -0.082 Cl
ATOM     26  C   UNL     1      14.222  34.620  16.310  1.00  0.00     0.002 A 
ENDBRANCH  17  19
ENDBRANCH  14  15
ENDBRANCH   8  10
ENDBRANCH   4   8
BRANCH   6  27
ATOM     27  N   UNL     1      28.744  32.744  13.900  1.00  0.00    -0.354 N 
ATOM     28  C   UNL     1      29.783  33.223  12.983  1.00  0.00     0.133 C 
ATOM     29  C   UNL     1      29.153  32.018  15.108  1.00  0.00     0.133 C 
ATOM     30  C   UNL     1      31.127  32.532  13.276  1.00  0.00     0.106 C 
ATOM     31  C   UNL     1      30.071  30.838  14.737  1.00  0.00     0.106 C 
ATOM     32  N   UNL     1      30.941  31.090  13.552  1.00  0.00    -0.298 NA
BRANCH  32  33
ATOM     33  C   UNL     1      30.504  30.341  12.345  1.00  0.00     0.112 C 
BRANCH  33  34
ATOM     34  C   UNL     1      31.498  30.539  11.194  1.00  0.00     0.171 C 
BRANCH  34  35
ATOM     35  O   UNL     1      30.835  30.556   9.958  1.00  0.00    -0.395 OA
ATOM     36  H   UNL     1      30.639  31.513   9.749  1.00  0.00     0.210 HD
ENDBRANCH  34  35
ENDBRANCH  33  34
ENDBRANCH  32  33
ENDBRANCH   6  27
TORSDOF 8
ENDMDL
