MODEL 1
REMARK VINA RESULT:    -9.639      0.000      0.000
REMARK INTER + INTRA:         -14.747
REMARK INTER:                 -13.583
REMARK INTRA:                  -1.163
REMARK UNBOUND:                -1.163
REMARK SMILES C=C1/C(=C\C=C2/CCC[C@]3(C)[C@@H]([C@H](C)CCCC(C)C)CC[C@@H]23)C[C@@H](O)C[C@@H]1O
REMARK SMILES IDX 13 1 14 2 15 3 16 4 17 5 18 6 19 7 20 8 12 9 21 10 10 11
REMARK SMILES IDX 22 12 23 13 9 14 11 15 6 16 8 17 7 18 5 19 4 20 3 21 24 22
REMARK SMILES IDX 2 23 25 24 28 25 1 26 27 27 26 28 29 30
REMARK H PARENT 26 29 29 31
REMARK Flexibility Score: inf
ROOT
ATOM      1  C   UNL     1      11.958  78.636  -0.494  1.00  0.00    -0.011 C 
ATOM      2  C   UNL     1      12.281  77.136  -0.382  1.00  0.00     0.008 C 
ENDROOT
BRANCH   1   3
ATOM      3  C   UNL     1      10.546  78.855  -1.129  1.00  0.00     0.003 C 
BRANCH   3   4
ATOM      4  C   UNL     1       9.859  80.223  -0.913  1.00  0.00     0.001 C 
BRANCH   4   5
ATOM      5  C   UNL     1       9.726  80.633   0.566  1.00  0.00     0.003 C 
BRANCH   5   6
ATOM      6  C   UNL     1      10.811  81.622   1.057  1.00  0.00    -0.017 C 
ATOM      7  C   UNL     1      11.839  80.955   1.981  1.00  0.00     0.007 C 
ATOM      8  C   UNL     1      11.504  82.355  -0.100  1.00  0.00     0.007 C 
ENDBRANCH   5   6
ENDBRANCH   4   5
ENDBRANCH   3   4
ENDBRANCH   1   3
BRANCH   1   9
ATOM      9  C   UNL     1      13.094  79.467  -1.192  1.00  0.00    -0.002 C 
ATOM     10  C   UNL     1      14.513  78.932  -0.854  1.00  0.00     0.005 C 
ATOM     11  C   UNL     1      13.094  79.550  -2.751  1.00  0.00    -0.023 C 
ATOM     12  C   UNL     1      15.385  79.118  -2.101  1.00  0.00     0.009 C 
ATOM     13  C   UNL     1      14.540  79.996  -3.012  1.00  0.00     0.021 C 
ATOM     14  C   UNL     1      12.172  80.645  -3.356  1.00  0.00     0.008 C 
ATOM     15  C   UNL     1      12.798  78.158  -3.395  1.00  0.00     0.012 C 
ATOM     16  C   UNL     1      14.839  80.099  -4.493  1.00  0.00    -0.067 C 
ATOM     17  C   UNL     1      12.414  80.814  -4.874  1.00  0.00     0.005 C 
ATOM     18  C   UNL     1      13.898  81.014  -5.261  1.00  0.00     0.031 C 
ATOM     19  C   UNL     1      15.943  79.548  -5.038  1.00  0.00    -0.000 C 
BRANCH  19  20
ATOM     20  C   UNL     1      16.355  79.739  -6.446  1.00  0.00     0.004 C 
ATOM     21  C   UNL     1      17.504  80.347  -6.807  1.00  0.00    -0.040 C 
ATOM     22  C   UNL     1      17.736  80.702  -8.256  1.00  0.00     0.067 C 
ATOM     23  C   UNL     1      18.592  80.702  -5.853  1.00  0.00    -0.023 C 
ATOM     24  C   UNL     1      18.257  82.145  -8.391  1.00  0.00     0.121 C 
ATOM     25  C   UNL     1      19.261  82.056  -6.040  1.00  0.00     0.146 C 
ATOM     26  C   UNL     1      18.979  79.848  -4.892  1.00  0.00     0.015 C 
ATOM     27  C   UNL     1      19.518  82.349  -7.534  1.00  0.00     0.068 C 
BRANCH  24  28
ATOM     28  O   UNL     1      17.267  83.063  -8.004  1.00  0.00    -0.393 OA
ATOM     29  H   UNL     1      17.739  83.838  -7.600  1.00  0.00     0.210 HD
ENDBRANCH  24  28
BRANCH  25  30
ATOM     30  O   UNL     1      20.461  82.175  -5.314  1.00  0.00    -0.388 OA
ATOM     31  H   UNL     1      20.692  83.142  -5.271  1.00  0.00     0.211 HD
ENDBRANCH  25  30
ENDBRANCH  19  20
ENDBRANCH   1   9
TORSDOF 8
ENDMDL
MODEL 2
REMARK VINA RESULT:    -9.586      4.511      9.561
REMARK INTER + INTRA:         -14.673
REMARK INTER:                 -12.972
REMARK INTRA:                  -1.701
REMARK UNBOUND:                -1.163
REMARK SMILES C=C1/C(=C\C=C2/CCC[C@]3(C)[C@@H]([C@H](C)CCCC(C)C)CC[C@@H]23)C[C@@H](O)C[C@@H]1O
REMARK SMILES IDX 13 1 14 2 15 3 16 4 17 5 18 6 19 7 20 8 12 9 21 10 10 11
REMARK SMILES IDX 22 12 23 13 9 14 11 15 6 16 8 17 7 18 5 19 4 20 3 21 24 22
REMARK SMILES IDX 2 23 25 24 28 25 1 26 27 27 26 28 29 30
REMARK H PARENT 26 29 29 31
REMARK Flexibility Score: inf
ROOT
ATOM      1  C   UNL     1      14.596  80.890  -4.501  1.00  0.00    -0.011 C 
ATOM      2  C   UNL     1      14.435  81.923  -5.629  1.00  0.00     0.008 C 
ENDROOT
BRANCH   1   3
ATOM      3  C   UNL     1      16.030  80.267  -4.517  1.00  0.00     0.003 C 
BRANCH   3   4
ATOM      4  C   UNL     1      17.187  81.127  -5.075  1.00  0.00     0.001 C 
BRANCH   4   5
ATOM      5  C   UNL     1      18.322  80.310  -5.721  1.00  0.00     0.003 C 
BRANCH   5   6
ATOM      6  C   UNL     1      18.120  80.009  -7.225  1.00  0.00    -0.017 C 
ATOM      7  C   UNL     1      17.597  78.587  -7.475  1.00  0.00     0.007 C 
ATOM      8  C   UNL     1      17.231  81.052  -7.918  1.00  0.00     0.007 C 
ENDBRANCH   5   6
ENDBRANCH   4   5
ENDBRANCH   3   4
ENDBRANCH   1   3
BRANCH   1   9
ATOM      9  C   UNL     1      13.448  79.818  -4.470  1.00  0.00    -0.002 C 
ATOM     10  C   UNL     1      13.973  78.379  -4.733  1.00  0.00     0.005 C 
ATOM     11  C   UNL     1      12.613  79.671  -3.159  1.00  0.00    -0.023 C 
ATOM     12  C   UNL     1      13.137  77.419  -3.878  1.00  0.00     0.009 C 
ATOM     13  C   UNL     1      11.991  78.283  -3.372  1.00  0.00     0.021 C 
ATOM     14  C   UNL     1      11.435  80.671  -3.008  1.00  0.00     0.008 C 
ATOM     15  C   UNL     1      13.531  79.700  -1.895  1.00  0.00     0.012 C 
ATOM     16  C   UNL     1      11.155  77.852  -2.186  1.00  0.00    -0.067 C 
ATOM     17  C   UNL     1      10.527  80.302  -1.812  1.00  0.00     0.005 C 
ATOM     18  C   UNL     1      10.054  78.830  -1.805  1.00  0.00     0.031 C 
ATOM     19  C   UNL     1      11.285  76.632  -1.627  1.00  0.00    -0.000 C 
BRANCH  19  20
ATOM     20  C   UNL     1      10.400  76.109  -0.562  1.00  0.00     0.004 C 
ATOM     21  C   UNL     1       9.213  75.519  -0.809  1.00  0.00    -0.040 C 
ATOM     22  C   UNL     1       8.275  75.224   0.338  1.00  0.00     0.067 C 
ATOM     23  C   UNL     1       8.747  75.124  -2.167  1.00  0.00    -0.023 C 
ATOM     24  C   UNL     1       6.840  75.669   0.002  1.00  0.00     0.121 C 
ATOM     25  C   UNL     1       7.286  75.391  -2.502  1.00  0.00     0.146 C 
ATOM     26  C   UNL     1       9.575  74.533  -3.042  1.00  0.00     0.015 C 
ATOM     27  C   UNL     1       6.367  75.029  -1.314  1.00  0.00     0.068 C 
BRANCH  24  28
ATOM     28  O   UNL     1       6.771  77.069  -0.099  1.00  0.00    -0.393 OA
ATOM     29  H   UNL     1       7.662  77.418   0.164  1.00  0.00     0.210 HD
ENDBRANCH  24  28
BRANCH  25  30
ATOM     30  O   UNL     1       6.861  74.716  -3.661  1.00  0.00    -0.388 OA
ATOM     31  H   UNL     1       7.371  75.087  -4.431  1.00  0.00     0.211 HD
ENDBRANCH  25  30
ENDBRANCH  19  20
ENDBRANCH   1   9
TORSDOF 8
ENDMDL
MODEL 3
REMARK VINA RESULT:    -9.380      2.931      4.866
REMARK INTER + INTRA:         -14.381
REMARK INTER:                 -12.779
REMARK INTRA:                  -1.602
REMARK UNBOUND:                -1.163
REMARK SMILES C=C1/C(=C\C=C2/CCC[C@]3(C)[C@@H]([C@H](C)CCCC(C)C)CC[C@@H]23)C[C@@H](O)C[C@@H]1O
REMARK SMILES IDX 13 1 14 2 15 3 16 4 17 5 18 6 19 7 20 8 12 9 21 10 10 11
REMARK SMILES IDX 22 12 23 13 9 14 11 15 6 16 8 17 7 18 5 19 4 20 3 21 24 22
REMARK SMILES IDX 2 23 25 24 28 25 1 26 27 27 26 28 29 30
REMARK H PARENT 26 29 29 31
REMARK Flexibility Score: inf
ROOT
ATOM      1  C   UNL     1       8.923  77.526  -1.356  1.00  0.00    -0.011 C 
ATOM      2  C   UNL     1       8.390  76.799  -0.110  1.00  0.00     0.008 C 
ENDROOT
BRANCH   1   3
ATOM      3  C   UNL     1       8.123  77.104  -2.631  1.00  0.00     0.003 C 
BRANCH   3   4
ATOM      4  C   UNL     1       7.307  75.792  -2.573  1.00  0.00     0.001 C 
BRANCH   4   5
ATOM      5  C   UNL     1       7.614  74.809  -3.718  1.00  0.00     0.003 C 
BRANCH   5   6
ATOM      6  C   UNL     1       8.894  73.964  -3.513  1.00  0.00    -0.017 C 
ATOM      7  C   UNL     1       9.005  73.403  -2.088  1.00  0.00     0.007 C 
ATOM      8  C   UNL     1       9.033  72.846  -4.556  1.00  0.00     0.007 C 
ENDBRANCH   5   6
ENDBRANCH   4   5
ENDBRANCH   3   4
ENDBRANCH   1   3
BRANCH   1   9
ATOM      9  C   UNL     1      10.480  77.409  -1.527  1.00  0.00    -0.002 C 
ATOM     10  C   UNL     1      10.879  76.602  -2.794  1.00  0.00     0.005 C 
ATOM     11  C   UNL     1      11.308  78.726  -1.654  1.00  0.00    -0.023 C 
ATOM     12  C   UNL     1      12.159  77.231  -3.358  1.00  0.00     0.009 C 
ATOM     13  C   UNL     1      12.610  78.186  -2.263  1.00  0.00     0.021 C 
ATOM     14  C   UNL     1      11.689  79.402  -0.309  1.00  0.00     0.008 C 
ATOM     15  C   UNL     1      10.609  79.747  -2.609  1.00  0.00     0.012 C 
ATOM     16  C   UNL     1      13.598  79.296  -2.555  1.00  0.00    -0.067 C 
ATOM     17  C   UNL     1      12.699  80.554  -0.519  1.00  0.00     0.005 C 
ATOM     18  C   UNL     1      13.941  80.163  -1.354  1.00  0.00     0.031 C 
ATOM     19  C   UNL     1      14.230  79.394  -3.742  1.00  0.00    -0.000 C 
BRANCH  19  20
ATOM     20  C   UNL     1      15.305  80.369  -4.030  1.00  0.00     0.004 C 
ATOM     21  C   UNL     1      16.142  80.261  -5.083  1.00  0.00    -0.040 C 
ATOM     22  C   UNL     1      17.347  81.167  -5.173  1.00  0.00     0.067 C 
ATOM     23  C   UNL     1      15.956  79.289  -6.196  1.00  0.00    -0.023 C 
ATOM     24  C   UNL     1      18.610  80.365  -5.536  1.00  0.00     0.121 C 
ATOM     25  C   UNL     1      17.202  78.581  -6.711  1.00  0.00     0.146 C 
ATOM     26  C   UNL     1      14.747  79.072  -6.736  1.00  0.00     0.015 C 
ATOM     27  C   UNL     1      18.390  79.561  -6.828  1.00  0.00     0.068 C 
BRANCH  24  28
ATOM     28  O   UNL     1      18.957  79.494  -4.489  1.00  0.00    -0.393 OA
ATOM     29  H   UNL     1      18.905  80.023  -3.650  1.00  0.00     0.210 HD
ENDBRANCH  24  28
BRANCH  25  30
ATOM     30  O   UNL     1      16.991  77.933  -7.942  1.00  0.00    -0.388 OA
ATOM     31  H   UNL     1      16.158  77.394  -7.860  1.00  0.00     0.211 HD
ENDBRANCH  25  30
ENDBRANCH  19  20
ENDBRANCH   1   9
TORSDOF 8
ENDMDL
MODEL 4
REMARK VINA RESULT:    -9.208      3.303      5.559
REMARK INTER + INTRA:         -14.139
REMARK INTER:                 -12.705
REMARK INTRA:                  -1.434
REMARK UNBOUND:                -1.163
REMARK SMILES C=C1/C(=C\C=C2/CCC[C@]3(C)[C@@H]([C@H](C)CCCC(C)C)CC[C@@H]23)C[C@@H](O)C[C@@H]1O
REMARK SMILES IDX 13 1 14 2 15 3 16 4 17 5 18 6 19 7 20 8 12 9 21 10 10 11
REMARK SMILES IDX 22 12 23 13 9 14 11 15 6 16 8 17 7 18 5 19 4 20 3 21 24 22
REMARK SMILES IDX 2 23 25 24 28 25 1 26 27 27 26 28 29 30
REMARK H PARENT 26 29 29 31
REMARK Flexibility Score: inf
ROOT
ATOM      1  C   UNL     1       9.293  75.595  -0.602  1.00  0.00    -0.011 C 
ATOM      2  C   UNL     1       8.203  75.575   0.483  1.00  0.00     0.008 C 
ENDROOT
BRANCH   1   3
ATOM      3  C   UNL     1       9.989  74.199  -0.718  1.00  0.00     0.003 C 
BRANCH   3   4
ATOM      4  C   UNL     1       9.869  73.440  -2.060  1.00  0.00     0.001 C 
BRANCH   4   5
ATOM      5  C   UNL     1      10.392  71.992  -2.012  1.00  0.00     0.003 C 
BRANCH   5   6
ATOM      6  C   UNL     1      10.825  71.421  -3.383  1.00  0.00    -0.017 C 
ATOM      7  C   UNL     1       9.627  71.057  -4.273  1.00  0.00     0.007 C 
ATOM      8  C   UNL     1      11.798  72.349  -4.124  1.00  0.00     0.007 C 
ENDBRANCH   5   6
ENDBRANCH   4   5
ENDBRANCH   3   4
ENDBRANCH   1   3
BRANCH   1   9
ATOM      9  C   UNL     1      10.305  76.787  -0.447  1.00  0.00    -0.002 C 
ATOM     10  C   UNL     1      11.777  76.303  -0.322  1.00  0.00     0.005 C 
ATOM     11  C   UNL     1      10.365  77.855  -1.585  1.00  0.00    -0.023 C 
ATOM     12  C   UNL     1      12.663  77.334  -1.031  1.00  0.00     0.009 C 
ATOM     13  C   UNL     1      11.726  78.503  -1.295  1.00  0.00     0.021 C 
ATOM     14  C   UNL     1       9.302  78.983  -1.489  1.00  0.00     0.008 C 
ATOM     15  C   UNL     1      10.338  77.184  -2.995  1.00  0.00     0.012 C 
ATOM     16  C   UNL     1      12.073  79.565  -2.316  1.00  0.00    -0.067 C 
ATOM     17  C   UNL     1       9.583  80.114  -2.507  1.00  0.00     0.005 C 
ATOM     18  C   UNL     1      11.029  80.661  -2.462  1.00  0.00     0.031 C 
ATOM     19  C   UNL     1      13.278  79.608  -2.920  1.00  0.00    -0.000 C 
BRANCH  19  20
ATOM     20  C   UNL     1      13.718  80.700  -3.815  1.00  0.00     0.004 C 
ATOM     21  C   UNL     1      14.472  80.500  -4.916  1.00  0.00    -0.040 C 
ATOM     22  C   UNL     1      15.064  81.686  -5.640  1.00  0.00     0.067 C 
ATOM     23  C   UNL     1      14.768  79.156  -5.487  1.00  0.00    -0.023 C 
ATOM     24  C   UNL     1      16.550  81.444  -5.964  1.00  0.00     0.121 C 
ATOM     25  C   UNL     1      16.188  78.912  -5.978  1.00  0.00     0.146 C 
ATOM     26  C   UNL     1      13.815  78.217  -5.587  1.00  0.00     0.015 C 
ATOM     27  C   UNL     1      16.729  80.135  -6.751  1.00  0.00     0.068 C 
BRANCH  24  28
ATOM     28  O   UNL     1      17.309  81.395  -4.782  1.00  0.00    -0.393 OA
ATOM     29  H   UNL     1      18.201  81.037  -5.031  1.00  0.00     0.210 HD
ENDBRANCH  24  28
BRANCH  25  30
ATOM     30  O   UNL     1      16.298  77.755  -6.772  1.00  0.00    -0.388 OA
ATOM     31  H   UNL     1      15.532  77.751  -7.406  1.00  0.00     0.211 HD
ENDBRANCH  25  30
ENDBRANCH  19  20
ENDBRANCH   1   9
TORSDOF 8
ENDMDL
MODEL 5
REMARK VINA RESULT:    -9.165      1.514      2.779
REMARK INTER + INTRA:         -14.079
REMARK INTER:                 -13.107
REMARK INTRA:                  -0.973
REMARK UNBOUND:                -1.163
REMARK SMILES C=C1/C(=C\C=C2/CCC[C@]3(C)[C@@H]([C@H](C)CCCC(C)C)CC[C@@H]23)C[C@@H](O)C[C@@H]1O
REMARK SMILES IDX 13 1 14 2 15 3 16 4 17 5 18 6 19 7 20 8 12 9 21 10 10 11
REMARK SMILES IDX 22 12 23 13 9 14 11 15 6 16 8 17 7 18 5 19 4 20 3 21 24 22
REMARK SMILES IDX 2 23 25 24 28 25 1 26 27 27 26 28 29 30
REMARK H PARENT 26 29 29 31
REMARK Flexibility Score: inf
ROOT
ATOM      1  C   UNL     1      11.964  78.660  -0.458  1.00  0.00    -0.011 C 
ATOM      2  C   UNL     1      12.397  77.223  -0.123  1.00  0.00     0.008 C 
ENDROOT
BRANCH   1   3
ATOM      3  C   UNL     1      10.602  78.666  -1.225  1.00  0.00     0.003 C 
BRANCH   3   4
ATOM      4  C   UNL     1       9.762  77.368  -1.220  1.00  0.00     0.001 C 
BRANCH   4   5
ATOM      5  C   UNL     1       9.608  76.714  -2.606  1.00  0.00     0.003 C 
BRANCH   5   6
ATOM      6  C   UNL     1       9.535  75.168  -2.581  1.00  0.00    -0.017 C 
ATOM      7  C   UNL     1       9.964  74.582  -1.228  1.00  0.00     0.007 C 
ATOM      8  C   UNL     1       8.155  74.639  -2.997  1.00  0.00     0.007 C 
ENDBRANCH   5   6
ENDBRANCH   4   5
ENDBRANCH   3   4
ENDBRANCH   1   3
BRANCH   1   9
ATOM      9  C   UNL     1      13.087  79.499  -1.170  1.00  0.00    -0.002 C 
ATOM     10  C   UNL     1      14.513  78.978  -0.841  1.00  0.00     0.005 C 
ATOM     11  C   UNL     1      13.073  79.574  -2.729  1.00  0.00    -0.023 C 
ATOM     12  C   UNL     1      15.374  79.166  -2.096  1.00  0.00     0.009 C 
ATOM     13  C   UNL     1      14.512  80.032  -3.004  1.00  0.00     0.021 C 
ATOM     14  C   UNL     1      12.137  80.657  -3.331  1.00  0.00     0.008 C 
ATOM     15  C   UNL     1      12.785  78.176  -3.363  1.00  0.00     0.012 C 
ATOM     16  C   UNL     1      14.799  80.131  -4.487  1.00  0.00    -0.067 C 
ATOM     17  C   UNL     1      12.364  80.821  -4.852  1.00  0.00     0.005 C 
ATOM     18  C   UNL     1      13.843  81.033  -5.252  1.00  0.00     0.031 C 
ATOM     19  C   UNL     1      15.903  79.587  -5.039  1.00  0.00    -0.000 C 
BRANCH  19  20
ATOM     20  C   UNL     1      16.302  79.775  -6.451  1.00  0.00     0.004 C 
ATOM     21  C   UNL     1      17.457  80.363  -6.824  1.00  0.00    -0.040 C 
ATOM     22  C   UNL     1      17.678  80.719  -8.275  1.00  0.00     0.067 C 
ATOM     23  C   UNL     1      18.563  80.695  -5.882  1.00  0.00    -0.023 C 
ATOM     24  C   UNL     1      18.224  82.152  -8.412  1.00  0.00     0.121 C 
ATOM     25  C   UNL     1      19.254  82.038  -6.073  1.00  0.00     0.146 C 
ATOM     26  C   UNL     1      18.946  79.832  -4.929  1.00  0.00     0.015 C 
ATOM     27  C   UNL     1      19.498  82.331  -7.570  1.00  0.00     0.068 C 
BRANCH  24  28
ATOM     28  O   UNL     1      17.255  83.087  -8.011  1.00  0.00    -0.393 OA
ATOM     29  H   UNL     1      16.845  82.733  -7.179  1.00  0.00     0.210 HD
ENDBRANCH  24  28
BRANCH  25  30
ATOM     30  O   UNL     1      20.464  82.133  -5.361  1.00  0.00    -0.388 OA
ATOM     31  H   UNL     1      20.754  83.085  -5.386  1.00  0.00     0.211 HD
ENDBRANCH  25  30
ENDBRANCH  19  20
ENDBRANCH   1   9
TORSDOF 8
ENDMDL
MODEL 6
REMARK VINA RESULT:    -9.119      2.753      4.370
REMARK INTER + INTRA:         -14.015
REMARK INTER:                 -12.847
REMARK INTRA:                  -1.167
REMARK UNBOUND:                -1.163
REMARK SMILES C=C1/C(=C\C=C2/CCC[C@]3(C)[C@@H]([C@H](C)CCCC(C)C)CC[C@@H]23)C[C@@H](O)C[C@@H]1O
REMARK SMILES IDX 13 1 14 2 15 3 16 4 17 5 18 6 19 7 20 8 12 9 21 10 10 11
REMARK SMILES IDX 22 12 23 13 9 14 11 15 6 16 8 17 7 18 5 19 4 20 3 21 24 22
REMARK SMILES IDX 2 23 25 24 28 25 1 26 27 27 26 28 29 30
REMARK H PARENT 26 29 29 31
REMARK Flexibility Score: inf
ROOT
ATOM      1  C   UNL     1       8.807  78.486  -1.478  1.00  0.00    -0.011 C 
ATOM      2  C   UNL     1       8.364  79.244  -0.215  1.00  0.00     0.008 C 
ENDROOT
BRANCH   1   3
ATOM      3  C   UNL     1       7.949  77.194  -1.681  1.00  0.00     0.003 C 
BRANCH   3   4
ATOM      4  C   UNL     1       8.339  75.933  -0.876  1.00  0.00     0.001 C 
BRANCH   4   5
ATOM      5  C   UNL     1       7.554  75.757   0.437  1.00  0.00     0.003 C 
BRANCH   5   6
ATOM      6  C   UNL     1       6.108  76.308   0.398  1.00  0.00    -0.017 C 
ATOM      7  C   UNL     1       5.053  75.196   0.485  1.00  0.00     0.007 C 
ATOM      8  C   UNL     1       5.861  77.384   1.464  1.00  0.00     0.007 C 
ENDBRANCH   5   6
ENDBRANCH   4   5
ENDBRANCH   3   4
ENDBRANCH   1   3
BRANCH   1   9
ATOM      9  C   UNL     1      10.355  78.225  -1.537  1.00  0.00    -0.002 C 
ATOM     10  C   UNL     1      10.753  77.283  -2.708  1.00  0.00     0.005 C 
ATOM     11  C   UNL     1      11.302  79.453  -1.716  1.00  0.00    -0.023 C 
ATOM     12  C   UNL     1      12.114  77.753  -3.236  1.00  0.00     0.009 C 
ATOM     13  C   UNL     1      12.584  78.757  -2.193  1.00  0.00     0.021 C 
ATOM     14  C   UNL     1      11.663  80.206  -0.406  1.00  0.00     0.008 C 
ATOM     15  C   UNL     1      10.752  80.444  -2.791  1.00  0.00     0.012 C 
ATOM     16  C   UNL     1      13.682  79.751  -2.508  1.00  0.00    -0.067 C 
ATOM     17  C   UNL     1      12.782  81.248  -0.641  1.00  0.00     0.005 C 
ATOM     18  C   UNL     1      14.030  80.686  -1.361  1.00  0.00     0.031 C 
ATOM     19  C   UNL     1      14.388  79.695  -3.656  1.00  0.00    -0.000 C 
BRANCH  19  20
ATOM     20  C   UNL     1      15.560  80.548  -3.950  1.00  0.00     0.004 C 
ATOM     21  C   UNL     1      16.363  80.364  -5.018  1.00  0.00    -0.040 C 
ATOM     22  C   UNL     1      17.660  81.131  -5.118  1.00  0.00     0.067 C 
ATOM     23  C   UNL     1      16.054  79.433  -6.140  1.00  0.00    -0.023 C 
ATOM     24  C   UNL     1      18.821  80.200  -5.511  1.00  0.00     0.121 C 
ATOM     25  C   UNL     1      17.205  78.599  -6.683  1.00  0.00     0.146 C 
ATOM     26  C   UNL     1      14.819  79.359  -6.661  1.00  0.00     0.015 C 
ATOM     27  C   UNL     1      18.493  79.442  -6.809  1.00  0.00     0.068 C 
BRANCH  24  28
ATOM     28  O   UNL     1      19.085  79.282  -4.480  1.00  0.00    -0.393 OA
ATOM     29  H   UNL     1      19.521  79.792  -3.749  1.00  0.00     0.210 HD
ENDBRANCH  24  28
BRANCH  25  30
ATOM     30  O   UNL     1      16.904  77.995  -7.918  1.00  0.00    -0.388 OA
ATOM     31  H   UNL     1      16.081  77.450  -7.794  1.00  0.00     0.211 HD
ENDBRANCH  25  30
ENDBRANCH  19  20
ENDBRANCH   1   9
TORSDOF 8
ENDMDL
MODEL 7
REMARK VINA RESULT:    -8.826      1.829      3.759
REMARK INTER + INTRA:         -13.601
REMARK INTER:                 -12.019
REMARK INTRA:                  -1.583
REMARK UNBOUND:                -1.163
REMARK SMILES C=C1/C(=C\C=C2/CCC[C@]3(C)[C@@H]([C@H](C)CCCC(C)C)CC[C@@H]23)C[C@@H](O)C[C@@H]1O
REMARK SMILES IDX 13 1 14 2 15 3 16 4 17 5 18 6 19 7 20 8 12 9 21 10 10 11
REMARK SMILES IDX 22 12 23 13 9 14 11 15 6 16 8 17 7 18 5 19 4 20 3 21 24 22
REMARK SMILES IDX 2 23 25 24 28 25 1 26 27 27 26 28 29 30
REMARK H PARENT 26 29 29 31
REMARK Flexibility Score: inf
ROOT
ATOM      1  C   UNL     1      10.176  80.920  -0.213  1.00  0.00    -0.011 C 
ATOM      2  C   UNL     1      10.463  80.834   1.296  1.00  0.00     0.008 C 
ENDROOT
BRANCH   1   3
ATOM      3  C   UNL     1       8.644  80.797  -0.496  1.00  0.00     0.003 C 
BRANCH   3   4
ATOM      4  C   UNL     1       7.924  79.507  -0.038  1.00  0.00     0.001 C 
BRANCH   4   5
ATOM      5  C   UNL     1       7.754  78.454  -1.149  1.00  0.00     0.003 C 
BRANCH   5   6
ATOM      6  C   UNL     1       8.620  77.184  -0.967  1.00  0.00    -0.017 C 
ATOM      7  C   UNL     1       7.888  76.081  -0.189  1.00  0.00     0.007 C 
ATOM      8  C   UNL     1       9.164  76.649  -2.299  1.00  0.00     0.007 C 
ENDBRANCH   5   6
ENDBRANCH   4   5
ENDBRANCH   3   4
ENDBRANCH   1   3
BRANCH   1   9
ATOM      9  C   UNL     1      11.052  79.936  -1.070  1.00  0.00    -0.002 C 
ATOM     10  C   UNL     1      10.702  79.998  -2.583  1.00  0.00     0.005 C 
ATOM     11  C   UNL     1      12.602  80.117  -1.043  1.00  0.00    -0.023 C 
ATOM     12  C   UNL     1      12.005  79.789  -3.366  1.00  0.00     0.009 C 
ATOM     13  C   UNL     1      13.001  79.342  -2.307  1.00  0.00     0.021 C 
ATOM     14  C   UNL     1      13.328  79.434   0.148  1.00  0.00     0.008 C 
ATOM     15  C   UNL     1      13.001  81.624  -1.145  1.00  0.00     0.012 C 
ATOM     16  C   UNL     1      14.492  79.408  -2.562  1.00  0.00    -0.067 C 
ATOM     17  C   UNL     1      14.864  79.460  -0.033  1.00  0.00     0.005 C 
ATOM     18  C   UNL     1      15.349  78.928  -1.401  1.00  0.00     0.031 C 
ATOM     19  C   UNL     1      14.995  79.717  -3.774  1.00  0.00    -0.000 C 
BRANCH  19  20
ATOM     20  C   UNL     1      16.434  79.658  -4.113  1.00  0.00     0.004 C 
ATOM     21  C   UNL     1      16.988  80.360  -5.123  1.00  0.00    -0.040 C 
ATOM     22  C   UNL     1      18.409  80.067  -5.543  1.00  0.00     0.067 C 
ATOM     23  C   UNL     1      16.281  81.434  -5.874  1.00  0.00    -0.023 C 
ATOM     24  C   UNL     1      18.517  79.951  -7.075  1.00  0.00     0.121 C 
ATOM     25  C   UNL     1      16.481  81.470  -7.383  1.00  0.00     0.146 C 
ATOM     26  C   UNL     1      15.526  82.345  -5.240  1.00  0.00     0.015 C 
ATOM     27  C   UNL     1      17.958  81.212  -7.755  1.00  0.00     0.068 C 
BRANCH  24  28
ATOM     28  O   UNL     1      17.821  78.818  -7.531  1.00  0.00    -0.393 OA
ATOM     29  H   UNL     1      17.975  78.101  -6.862  1.00  0.00     0.210 HD
ENDBRANCH  24  28
BRANCH  25  30
ATOM     30  O   UNL     1      16.044  82.676  -7.962  1.00  0.00    -0.388 OA
ATOM     31  H   UNL     1      16.691  83.387  -7.704  1.00  0.00     0.211 HD
ENDBRANCH  25  30
ENDBRANCH  19  20
ENDBRANCH   1   9
TORSDOF 8
ENDMDL
MODEL 8
REMARK VINA RESULT:    -8.554      1.309      2.374
REMARK INTER + INTRA:         -13.218
REMARK INTER:                 -11.693
REMARK INTRA:                  -1.525
REMARK UNBOUND:                -1.163
REMARK SMILES C=C1/C(=C\C=C2/CCC[C@]3(C)[C@@H]([C@H](C)CCCC(C)C)CC[C@@H]23)C[C@@H](O)C[C@@H]1O
REMARK SMILES IDX 13 1 14 2 15 3 16 4 17 5 18 6 19 7 20 8 12 9 21 10 10 11
REMARK SMILES IDX 22 12 23 13 9 14 11 15 6 16 8 17 7 18 5 19 4 20 3 21 24 22
REMARK SMILES IDX 2 23 25 24 28 25 1 26 27 27 26 28 29 30
REMARK H PARENT 26 29 29 31
REMARK Flexibility Score: inf
ROOT
ATOM      1  C   UNL     1      12.073  78.742  -0.786  1.00  0.00    -0.011 C 
ATOM      2  C   UNL     1      11.441  77.342  -0.700  1.00  0.00     0.008 C 
ENDROOT
BRANCH   1   3
ATOM      3  C   UNL     1      11.409  79.716   0.240  1.00  0.00     0.003 C 
BRANCH   3   4
ATOM      4  C   UNL     1      10.252  80.612  -0.257  1.00  0.00     0.001 C 
BRANCH   4   5
ATOM      5  C   UNL     1       8.866  79.944  -0.188  1.00  0.00     0.003 C 
BRANCH   5   6
ATOM      6  C   UNL     1       8.134  79.843  -1.548  1.00  0.00    -0.017 C 
ATOM      7  C   UNL     1       8.658  80.858  -2.574  1.00  0.00     0.007 C 
ATOM      8  C   UNL     1       8.157  78.419  -2.122  1.00  0.00     0.007 C 
ENDBRANCH   5   6
ENDBRANCH   4   5
ENDBRANCH   3   4
ENDBRANCH   1   3
BRANCH   1   9
ATOM      9  C   UNL     1      12.125  79.313  -2.249  1.00  0.00    -0.002 C 
ATOM     10  C   UNL     1      12.354  80.850  -2.277  1.00  0.00     0.005 C 
ATOM     11  C   UNL     1      13.219  78.761  -3.216  1.00  0.00    -0.023 C 
ATOM     12  C   UNL     1      13.221  81.165  -3.501  1.00  0.00     0.009 C 
ATOM     13  C   UNL     1      13.234  79.862  -4.286  1.00  0.00     0.021 C 
ATOM     14  C   UNL     1      12.855  77.437  -3.941  1.00  0.00     0.008 C 
ATOM     15  C   UNL     1      14.602  78.639  -2.500  1.00  0.00     0.012 C 
ATOM     16  C   UNL     1      14.281  79.601  -5.348  1.00  0.00    -0.067 C 
ATOM     17  C   UNL     1      13.881  77.095  -5.046  1.00  0.00     0.005 C 
ATOM     18  C   UNL     1      14.156  78.251  -6.036  1.00  0.00     0.031 C 
ATOM     19  C   UNL     1      15.145  80.557  -5.748  1.00  0.00    -0.000 C 
BRANCH  19  20
ATOM     20  C   UNL     1      16.089  80.401  -6.876  1.00  0.00     0.004 C 
ATOM     21  C   UNL     1      17.397  80.722  -6.798  1.00  0.00    -0.040 C 
ATOM     22  C   UNL     1      18.235  80.747  -8.055  1.00  0.00     0.067 C 
ATOM     23  C   UNL     1      18.095  81.062  -5.527  1.00  0.00    -0.023 C 
ATOM     24  C   UNL     1      19.090  82.026  -8.119  1.00  0.00     0.121 C 
ATOM     25  C   UNL     1      19.082  82.220  -5.568  1.00  0.00     0.146 C 
ATOM     26  C   UNL     1      17.881  80.356  -4.406  1.00  0.00     0.015 C 
ATOM     27  C   UNL     1      19.944  82.172  -6.849  1.00  0.00     0.068 C 
BRANCH  24  28
ATOM     28  O   UNL     1      18.271  83.158  -8.273  1.00  0.00    -0.393 OA
ATOM     29  H   UNL     1      18.859  83.895  -8.584  1.00  0.00     0.210 HD
ENDBRANCH  24  28
BRANCH  25  30
ATOM     30  O   UNL     1      19.911  82.270  -4.433  1.00  0.00    -0.388 OA
ATOM     31  H   UNL     1      19.327  82.208  -3.630  1.00  0.00     0.211 HD
ENDBRANCH  25  30
ENDBRANCH  19  20
ENDBRANCH   1   9
TORSDOF 8
ENDMDL
MODEL 9
REMARK VINA RESULT:    -8.480      1.929      3.394
REMARK INTER + INTRA:         -13.113
REMARK INTER:                 -11.496
REMARK INTRA:                  -1.617
REMARK UNBOUND:                -1.163
REMARK SMILES C=C1/C(=C\C=C2/CCC[C@]3(C)[C@@H]([C@H](C)CCCC(C)C)CC[C@@H]23)C[C@@H](O)C[C@@H]1O
REMARK SMILES IDX 13 1 14 2 15 3 16 4 17 5 18 6 19 7 20 8 12 9 21 10 10 11
REMARK SMILES IDX 22 12 23 13 9 14 11 15 6 16 8 17 7 18 5 19 4 20 3 21 24 22
REMARK SMILES IDX 2 23 25 24 28 25 1 26 27 27 26 28 29 30
REMARK H PARENT 26 29 29 31
REMARK Flexibility Score: inf
ROOT
ATOM      1  C   UNL     1       9.774  77.139  -1.040  1.00  0.00    -0.011 C 
ATOM      2  C   UNL     1       9.415  75.972  -0.105  1.00  0.00     0.008 C 
ENDROOT
BRANCH   1   3
ATOM      3  C   UNL     1       8.736  77.261  -2.202  1.00  0.00     0.003 C 
BRANCH   3   4
ATOM      4  C   UNL     1       7.498  78.160  -1.976  1.00  0.00     0.001 C 
BRANCH   4   5
ATOM      5  C   UNL     1       7.496  78.898  -0.624  1.00  0.00     0.003 C 
BRANCH   5   6
ATOM      6  C   UNL     1       7.836  80.405  -0.715  1.00  0.00    -0.017 C 
ATOM      7  C   UNL     1       9.112  80.767   0.058  1.00  0.00     0.007 C 
ATOM      8  C   UNL     1       7.912  80.902  -2.166  1.00  0.00     0.007 C 
ENDBRANCH   5   6
ENDBRANCH   4   5
ENDBRANCH   3   4
ENDBRANCH   1   3
BRANCH   1   9
ATOM      9  C   UNL     1      11.265  77.107  -1.533  1.00  0.00    -0.002 C 
ATOM     10  C   UNL     1      11.400  76.546  -2.977  1.00  0.00     0.005 C 
ATOM     11  C   UNL     1      12.053  78.454  -1.588  1.00  0.00    -0.023 C 
ATOM     12  C   UNL     1      12.541  77.306  -3.662  1.00  0.00     0.009 C 
ATOM     13  C   UNL     1      13.205  78.071  -2.527  1.00  0.00     0.021 C 
ATOM     14  C   UNL     1      12.698  78.897  -0.246  1.00  0.00     0.008 C 
ATOM     15  C   UNL     1      11.178  79.600  -2.189  1.00  0.00     0.012 C 
ATOM     16  C   UNL     1      14.116  79.248  -2.809  1.00  0.00    -0.067 C 
ATOM     17  C   UNL     1      13.647  80.102  -0.445  1.00  0.00     0.005 C 
ATOM     18  C   UNL     1      14.695  79.905  -1.565  1.00  0.00     0.031 C 
ATOM     19  C   UNL     1      14.498  79.571  -4.061  1.00  0.00    -0.000 C 
BRANCH  19  20
ATOM     20  C   UNL     1      15.494  80.617  -4.379  1.00  0.00     0.004 C 
ATOM     21  C   UNL     1      16.394  80.506  -5.379  1.00  0.00    -0.040 C 
ATOM     22  C   UNL     1      17.516  81.511  -5.487  1.00  0.00     0.067 C 
ATOM     23  C   UNL     1      16.359  79.434  -6.413  1.00  0.00    -0.023 C 
ATOM     24  C   UNL     1      18.865  80.805  -5.721  1.00  0.00     0.121 C 
ATOM     25  C   UNL     1      17.689  78.808  -6.806  1.00  0.00     0.146 C 
ATOM     26  C   UNL     1      15.205  79.062  -6.989  1.00  0.00     0.015 C 
ATOM     27  C   UNL     1      18.789  79.883  -6.949  1.00  0.00     0.068 C 
BRANCH  24  28
ATOM     28  O   UNL     1      19.230  80.058  -4.588  1.00  0.00    -0.393 OA
ATOM     29  H   UNL     1      19.590  80.703  -3.925  1.00  0.00     0.210 HD
ENDBRANCH  24  28
BRANCH  25  30
ATOM     30  O   UNL     1      17.606  78.046  -7.986  1.00  0.00    -0.388 OA
ATOM     31  H   UNL     1      17.207  78.625  -8.691  1.00  0.00     0.211 HD
ENDBRANCH  25  30
ENDBRANCH  19  20
ENDBRANCH   1   9
TORSDOF 8
ENDMDL
MODEL 10
REMARK VINA RESULT:    -8.064      1.769      3.063
REMARK INTER + INTRA:         -12.527
REMARK INTER:                 -11.605
REMARK INTRA:                  -0.922
REMARK UNBOUND:                -1.163
REMARK SMILES C=C1/C(=C\C=C2/CCC[C@]3(C)[C@@H]([C@H](C)CCCC(C)C)CC[C@@H]23)C[C@@H](O)C[C@@H]1O
REMARK SMILES IDX 13 1 14 2 15 3 16 4 17 5 18 6 19 7 20 8 12 9 21 10 10 11
REMARK SMILES IDX 22 12 23 13 9 14 11 15 6 16 8 17 7 18 5 19 4 20 3 21 24 22
REMARK SMILES IDX 2 23 25 24 28 25 1 26 27 27 26 28 29 30
REMARK H PARENT 26 29 29 31
REMARK Flexibility Score: inf
ROOT
ATOM      1  C   UNL     1      12.345  78.670  -0.548  1.00  0.00    -0.011 C 
ATOM      2  C   UNL     1      10.977  79.362  -0.423  1.00  0.00     0.008 C 
ENDROOT
BRANCH   1   3
ATOM      3  C   UNL     1      12.824  78.130   0.839  1.00  0.00     0.003 C 
BRANCH   3   4
ATOM      4  C   UNL     1      13.656  76.827   0.860  1.00  0.00     0.001 C 
BRANCH   4   5
ATOM      5  C   UNL     1      13.395  75.934   2.088  1.00  0.00     0.003 C 
BRANCH   5   6
ATOM      6  C   UNL     1      14.673  75.467   2.825  1.00  0.00    -0.017 C 
ATOM      7  C   UNL     1      14.365  74.820   4.183  1.00  0.00     0.007 C 
ATOM      8  C   UNL     1      15.545  74.545   1.961  1.00  0.00     0.007 C 
ENDBRANCH   5   6
ENDBRANCH   4   5
ENDBRANCH   3   4
ENDBRANCH   1   3
BRANCH   1   9
ATOM      9  C   UNL     1      13.421  79.545  -1.285  1.00  0.00    -0.002 C 
ATOM     10  C   UNL     1      14.873  79.113  -0.940  1.00  0.00     0.005 C 
ATOM     11  C   UNL     1      13.405  79.571  -2.846  1.00  0.00    -0.023 C 
ATOM     12  C   UNL     1      15.724  79.309  -2.201  1.00  0.00     0.009 C 
ATOM     13  C   UNL     1      14.818  80.098  -3.135  1.00  0.00     0.021 C 
ATOM     14  C   UNL     1      12.412  80.582  -3.481  1.00  0.00     0.008 C 
ATOM     15  C   UNL     1      13.194  78.140  -3.436  1.00  0.00     0.012 C 
ATOM     16  C   UNL     1      15.101  80.166  -4.621  1.00  0.00    -0.067 C 
ATOM     17  C   UNL     1      12.633  80.711  -5.006  1.00  0.00     0.005 C 
ATOM     18  C   UNL     1      14.099  80.990  -5.413  1.00  0.00     0.031 C 
ATOM     19  C   UNL     1      16.234  79.666  -5.156  1.00  0.00    -0.000 C 
BRANCH  19  20
ATOM     20  C   UNL     1      16.624  79.831  -6.573  1.00  0.00     0.004 C 
ATOM     21  C   UNL     1      17.741  80.477  -6.965  1.00  0.00    -0.040 C 
ATOM     22  C   UNL     1      17.944  80.797  -8.427  1.00  0.00     0.067 C 
ATOM     23  C   UNL     1      18.822  80.908  -6.035  1.00  0.00    -0.023 C 
ATOM     24  C   UNL     1      18.400  82.256  -8.612  1.00  0.00     0.121 C 
ATOM     25  C   UNL     1      19.429  82.284  -6.270  1.00  0.00     0.146 C 
ATOM     26  C   UNL     1      19.256  80.102  -5.053  1.00  0.00     0.015 C 
ATOM     27  C   UNL     1      19.658  82.541  -7.775  1.00  0.00     0.068 C 
BRANCH  24  28
ATOM     28  O   UNL     1      17.374  83.142  -8.242  1.00  0.00    -0.393 OA
ATOM     29  H   UNL     1      17.292  83.087  -7.254  1.00  0.00     0.210 HD
ENDBRANCH  24  28
BRANCH  25  30
ATOM     30  O   UNL     1      20.629  82.478  -5.561  1.00  0.00    -0.388 OA
ATOM     31  H   UNL     1      21.166  81.643  -5.642  1.00  0.00     0.211 HD
ENDBRANCH  25  30
ENDBRANCH  19  20
ENDBRANCH   1   9
TORSDOF 8
ENDMDL
MODEL 11
REMARK VINA RESULT:    -8.045      2.657      4.763
REMARK INTER + INTRA:         -12.501
REMARK INTER:                 -12.182
REMARK INTRA:                  -0.319
REMARK UNBOUND:                -1.163
REMARK SMILES C=C1/C(=C\C=C2/CCC[C@]3(C)[C@@H]([C@H](C)CCCC(C)C)CC[C@@H]23)C[C@@H](O)C[C@@H]1O
REMARK SMILES IDX 13 1 14 2 15 3 16 4 17 5 18 6 19 7 20 8 12 9 21 10 10 11
REMARK SMILES IDX 22 12 23 13 9 14 11 15 6 16 8 17 7 18 5 19 4 20 3 21 24 22
REMARK SMILES IDX 2 23 25 24 28 25 1 26 27 27 26 28 29 30
REMARK H PARENT 26 29 29 31
REMARK Flexibility Score: inf
ROOT
ATOM      1  C   UNL     1       9.830  77.707  -2.243  1.00  0.00    -0.011 C 
ATOM      2  C   UNL     1       9.431  78.914  -1.377  1.00  0.00     0.008 C 
ENDROOT
BRANCH   1   3
ATOM      3  C   UNL     1       9.057  76.423  -1.799  1.00  0.00     0.003 C 
BRANCH   3   4
ATOM      4  C   UNL     1       9.175  75.164  -2.687  1.00  0.00     0.001 C 
BRANCH   4   5
ATOM      5  C   UNL     1       9.358  73.853  -1.899  1.00  0.00     0.003 C 
BRANCH   5   6
ATOM      6  C   UNL     1       9.400  72.578  -2.776  1.00  0.00    -0.017 C 
ATOM      7  C   UNL     1       9.391  72.898  -4.278  1.00  0.00     0.007 C 
ATOM      8  C   UNL     1      10.576  71.658  -2.417  1.00  0.00     0.007 C 
ENDBRANCH   5   6
ENDBRANCH   4   5
ENDBRANCH   3   4
ENDBRANCH   1   3
BRANCH   1   9
ATOM      9  C   UNL     1      11.384  77.499  -2.343  1.00  0.00    -0.002 C 
ATOM     10  C   UNL     1      11.822  76.966  -3.736  1.00  0.00     0.005 C 
ATOM     11  C   UNL     1      12.309  78.736  -2.115  1.00  0.00    -0.023 C 
ATOM     12  C   UNL     1      13.182  77.594  -4.063  1.00  0.00     0.009 C 
ATOM     13  C   UNL     1      13.613  78.237  -2.753  1.00  0.00     0.021 C 
ATOM     14  C   UNL     1      12.631  79.057  -0.631  1.00  0.00     0.008 C 
ATOM     15  C   UNL     1      11.759  80.000  -2.850  1.00  0.00     0.012 C 
ATOM     16  C   UNL     1      14.696  79.295  -2.724  1.00  0.00    -0.067 C 
ATOM     17  C   UNL     1      13.733  80.136  -0.510  1.00  0.00     0.005 C 
ATOM     18  C   UNL     1      15.005  79.839  -1.338  1.00  0.00     0.031 C 
ATOM     19  C   UNL     1      15.424  79.602  -3.817  1.00  0.00    -0.000 C 
BRANCH  19  20
ATOM     20  C   UNL     1      16.583  80.522  -3.809  1.00  0.00     0.004 C 
ATOM     21  C   UNL     1      16.967  81.240  -4.884  1.00  0.00    -0.040 C 
ATOM     22  C   UNL     1      18.288  81.973  -4.858  1.00  0.00     0.067 C 
ATOM     23  C   UNL     1      16.160  81.369  -6.130  1.00  0.00    -0.023 C 
ATOM     24  C   UNL     1      19.077  81.729  -6.157  1.00  0.00     0.121 C 
ATOM     25  C   UNL     1      16.912  81.299  -7.451  1.00  0.00     0.146 C 
ATOM     26  C   UNL     1      14.833  81.566  -6.081  1.00  0.00     0.015 C 
ATOM     27  C   UNL     1      18.230  82.102  -7.385  1.00  0.00     0.068 C 
BRANCH  24  28
ATOM     28  O   UNL     1      19.473  80.383  -6.246  1.00  0.00    -0.393 OA
ATOM     29  H   UNL     1      20.445  80.386  -6.449  1.00  0.00     0.210 HD
ENDBRANCH  24  28
BRANCH  25  30
ATOM     30  O   UNL     1      16.138  81.735  -8.542  1.00  0.00    -0.388 OA
ATOM     31  H   UNL     1      15.674  80.940  -8.920  1.00  0.00     0.211 HD
ENDBRANCH  25  30
ENDBRANCH  19  20
ENDBRANCH   1   9
TORSDOF 8
ENDMDL
MODEL 12
REMARK VINA RESULT:    -7.846      2.765      4.304
REMARK INTER + INTRA:         -12.220
REMARK INTER:                 -11.540
REMARK INTRA:                  -0.680
REMARK UNBOUND:                -1.163
REMARK SMILES C=C1/C(=C\C=C2/CCC[C@]3(C)[C@@H]([C@H](C)CCCC(C)C)CC[C@@H]23)C[C@@H](O)C[C@@H]1O
REMARK SMILES IDX 13 1 14 2 15 3 16 4 17 5 18 6 19 7 20 8 12 9 21 10 10 11
REMARK SMILES IDX 22 12 23 13 9 14 11 15 6 16 8 17 7 18 5 19 4 20 3 21 24 22
REMARK SMILES IDX 2 23 25 24 28 25 1 26 27 27 26 28 29 30
REMARK H PARENT 26 29 29 31
REMARK Flexibility Score: inf
ROOT
ATOM      1  C   UNL     1       9.739  75.528  -0.193  1.00  0.00    -0.011 C 
ATOM      2  C   UNL     1      10.353  74.343  -0.958  1.00  0.00     0.008 C 
ENDROOT
BRANCH   1   3
ATOM      3  C   UNL     1       8.304  75.849  -0.724  1.00  0.00     0.003 C 
BRANCH   3   4
ATOM      4  C   UNL     1       7.216  76.218   0.310  1.00  0.00     0.001 C 
BRANCH   4   5
ATOM      5  C   UNL     1       6.900  77.724   0.379  1.00  0.00     0.003 C 
BRANCH   5   6
ATOM      6  C   UNL     1       5.608  78.074   1.157  1.00  0.00    -0.017 C 
ATOM      7  C   UNL     1       5.632  77.551   2.600  1.00  0.00     0.007 C 
ATOM      8  C   UNL     1       5.290  79.575   1.121  1.00  0.00     0.007 C 
ENDBRANCH   5   6
ENDBRANCH   4   5
ENDBRANCH   3   4
ENDBRANCH   1   3
BRANCH   1   9
ATOM      9  C   UNL     1      10.679  76.785  -0.132  1.00  0.00    -0.002 C 
ATOM     10  C   UNL     1      12.182  76.397  -0.048  1.00  0.00     0.005 C 
ATOM     11  C   UNL     1      10.628  77.801  -1.316  1.00  0.00    -0.023 C 
ATOM     12  C   UNL     1      12.974  77.446  -0.836  1.00  0.00     0.009 C 
ATOM     13  C   UNL     1      11.956  78.543  -1.111  1.00  0.00     0.021 C 
ATOM     14  C   UNL     1       9.502  78.866  -1.226  1.00  0.00     0.008 C 
ATOM     15  C   UNL     1      10.588  77.067  -2.694  1.00  0.00     0.012 C 
ATOM     16  C   UNL     1      12.197  79.577  -2.191  1.00  0.00    -0.067 C 
ATOM     17  C   UNL     1       9.672  79.964  -2.301  1.00  0.00     0.005 C 
ATOM     18  C   UNL     1      11.082  80.600  -2.341  1.00  0.00     0.031 C 
ATOM     19  C   UNL     1      13.373  79.665  -2.846  1.00  0.00    -0.000 C 
BRANCH  19  20
ATOM     20  C   UNL     1      13.709  80.740  -3.805  1.00  0.00     0.004 C 
ATOM     21  C   UNL     1      14.427  80.535  -4.928  1.00  0.00    -0.040 C 
ATOM     22  C   UNL     1      14.917  81.720  -5.727  1.00  0.00     0.067 C 
ATOM     23  C   UNL     1      14.780  79.187  -5.454  1.00  0.00    -0.023 C 
ATOM     24  C   UNL     1      16.400  81.552  -6.105  1.00  0.00     0.121 C 
ATOM     25  C   UNL     1      16.191  79.004  -5.996  1.00  0.00     0.146 C 
ATOM     26  C   UNL     1      13.881  78.190  -5.473  1.00  0.00     0.015 C 
ATOM     27  C   UNL     1      16.624  80.221  -6.843  1.00  0.00     0.068 C 
BRANCH  24  28
ATOM     28  O   UNL     1      17.208  81.600  -4.957  1.00  0.00    -0.393 OA
ATOM     29  H   UNL     1      17.681  82.472  -4.978  1.00  0.00     0.210 HD
ENDBRANCH  24  28
BRANCH  25  30
ATOM     30  O   UNL     1      16.338  77.821  -6.745  1.00  0.00    -0.388 OA
ATOM     31  H   UNL     1      17.300  77.569  -6.725  1.00  0.00     0.211 HD
ENDBRANCH  25  30
ENDBRANCH  19  20
ENDBRANCH   1   9
TORSDOF 8
ENDMDL
MODEL 13
REMARK VINA RESULT:    -7.813      3.998      9.370
REMARK INTER + INTRA:         -12.173
REMARK INTER:                 -10.988
REMARK INTRA:                  -1.185
REMARK UNBOUND:                -1.163
REMARK SMILES C=C1/C(=C\C=C2/CCC[C@]3(C)[C@@H]([C@H](C)CCCC(C)C)CC[C@@H]23)C[C@@H](O)C[C@@H]1O
REMARK SMILES IDX 13 1 14 2 15 3 16 4 17 5 18 6 19 7 20 8 12 9 21 10 10 11
REMARK SMILES IDX 22 12 23 13 9 14 11 15 6 16 8 17 7 18 5 19 4 20 3 21 24 22
REMARK SMILES IDX 2 23 25 24 28 25 1 26 27 27 26 28 29 30
REMARK H PARENT 26 29 29 31
REMARK Flexibility Score: inf
ROOT
ATOM      1  C   UNL     1      15.812  80.158  -5.729  1.00  0.00    -0.011 C 
ATOM      2  C   UNL     1      17.145  79.662  -5.143  1.00  0.00     0.008 C 
ENDROOT
BRANCH   1   3
ATOM      3  C   UNL     1      16.055  81.272  -6.799  1.00  0.00     0.003 C 
BRANCH   3   4
ATOM      4  C   UNL     1      17.238  81.091  -7.777  1.00  0.00     0.001 C 
BRANCH   4   5
ATOM      5  C   UNL     1      18.165  82.318  -7.877  1.00  0.00     0.003 C 
BRANCH   5   6
ATOM      6  C   UNL     1      19.553  82.128  -7.220  1.00  0.00    -0.017 C 
ATOM      7  C   UNL     1      20.613  83.073  -7.804  1.00  0.00     0.007 C 
ATOM      8  C   UNL     1      19.499  82.240  -5.690  1.00  0.00     0.007 C 
ENDBRANCH   5   6
ENDBRANCH   4   5
ENDBRANCH   3   4
ENDBRANCH   1   3
BRANCH   1   9
ATOM      9  C   UNL     1      14.762  80.562  -4.632  1.00  0.00    -0.002 C 
ATOM     10  C   UNL     1      13.381  80.932  -5.242  1.00  0.00     0.005 C 
ATOM     11  C   UNL     1      14.409  79.514  -3.530  1.00  0.00    -0.023 C 
ATOM     12  C   UNL     1      12.302  80.456  -4.262  1.00  0.00     0.009 C 
ATOM     13  C   UNL     1      13.082  80.086  -3.009  1.00  0.00     0.021 C 
ATOM     14  C   UNL     1      15.383  79.471  -2.321  1.00  0.00     0.008 C 
ATOM     15  C   UNL     1      14.219  78.089  -4.141  1.00  0.00     0.012 C 
ATOM     16  C   UNL     1      12.470  79.204  -1.941  1.00  0.00    -0.067 C 
ATOM     17  C   UNL     1      14.830  78.586  -1.180  1.00  0.00     0.005 C 
ATOM     18  C   UNL     1      13.383  78.927  -0.757  1.00  0.00     0.031 C 
ATOM     19  C   UNL     1      11.172  78.838  -1.976  1.00  0.00    -0.000 C 
BRANCH  19  20
ATOM     20  C   UNL     1      10.491  78.100  -0.890  1.00  0.00     0.004 C 
ATOM     21  C   UNL     1       9.737  77.001  -1.100  1.00  0.00    -0.040 C 
ATOM     22  C   UNL     1       8.896  76.448   0.027  1.00  0.00     0.067 C 
ATOM     23  C   UNL     1       9.673  76.271  -2.397  1.00  0.00    -0.023 C 
ATOM     24  C   UNL     1       7.469  76.131  -0.458  1.00  0.00     0.121 C 
ATOM     25  C   UNL     1       8.304  75.787  -2.851  1.00  0.00     0.146 C 
ATOM     26  C   UNL     1      10.782  76.029  -3.113  1.00  0.00     0.015 C 
ATOM     27  C   UNL     1       7.505  75.189  -1.673  1.00  0.00     0.068 C 
BRANCH  24  28
ATOM     28  O   UNL     1       6.791  77.315  -0.795  1.00  0.00    -0.393 OA
ATOM     29  H   UNL     1       5.943  77.042  -1.233  1.00  0.00     0.210 HD
ENDBRANCH  24  28
BRANCH  25  30
ATOM     30  O   UNL     1       8.377  74.855  -3.903  1.00  0.00    -0.388 OA
ATOM     31  H   UNL     1       7.512  74.885  -4.394  1.00  0.00     0.211 HD
ENDBRANCH  25  30
ENDBRANCH  19  20
ENDBRANCH   1   9
TORSDOF 8
ENDMDL
MODEL 14
REMARK VINA RESULT:    -7.797      1.418      2.418
REMARK INTER + INTRA:         -12.151
REMARK INTER:                 -10.124
REMARK INTRA:                  -2.027
REMARK UNBOUND:                -1.163
REMARK SMILES C=C1/C(=C\C=C2/CCC[C@]3(C)[C@@H]([C@H](C)CCCC(C)C)CC[C@@H]23)C[C@@H](O)C[C@@H]1O
REMARK SMILES IDX 13 1 14 2 15 3 16 4 17 5 18 6 19 7 20 8 12 9 21 10 10 11
REMARK SMILES IDX 22 12 23 13 9 14 11 15 6 16 8 17 7 18 5 19 4 20 3 21 24 22
REMARK SMILES IDX 2 23 25 24 28 25 1 26 27 27 26 28 29 30
REMARK H PARENT 26 29 29 31
REMARK Flexibility Score: inf
ROOT
ATOM      1  C   UNL     1      11.734  78.480  -1.581  1.00  0.00    -0.011 C 
ATOM      2  C   UNL     1      10.815  77.252  -1.472  1.00  0.00     0.008 C 
ENDROOT
BRANCH   1   3
ATOM      3  C   UNL     1      11.257  79.618  -0.620  1.00  0.00     0.003 C 
BRANCH   3   4
ATOM      4  C   UNL     1      11.715  79.559   0.855  1.00  0.00     0.001 C 
BRANCH   4   5
ATOM      5  C   UNL     1      12.811  80.579   1.216  1.00  0.00     0.003 C 
BRANCH   5   6
ATOM      6  C   UNL     1      14.246  80.138   0.842  1.00  0.00    -0.017 C 
ATOM      7  C   UNL     1      14.406  78.611   0.825  1.00  0.00     0.007 C 
ATOM      8  C   UNL     1      14.724  80.755  -0.481  1.00  0.00     0.007 C 
ENDBRANCH   5   6
ENDBRANCH   4   5
ENDBRANCH   3   4
ENDBRANCH   1   3
BRANCH   1   9
ATOM      9  C   UNL     1      11.957  78.962  -3.059  1.00  0.00    -0.002 C 
ATOM     10  C   UNL     1      12.027  80.510  -3.174  1.00  0.00     0.005 C 
ATOM     11  C   UNL     1      13.242  78.480  -3.804  1.00  0.00    -0.023 C 
ATOM     12  C   UNL     1      13.041  80.846  -4.275  1.00  0.00     0.009 C 
ATOM     13  C   UNL     1      13.312  79.507  -4.943  1.00  0.00     0.021 C 
ATOM     14  C   UNL     1      13.135  77.081  -4.469  1.00  0.00     0.008 C 
ATOM     15  C   UNL     1      14.499  78.561  -2.881  1.00  0.00     0.012 C 
ATOM     16  C   UNL     1      14.536  79.303  -5.812  1.00  0.00    -0.067 C 
ATOM     17  C   UNL     1      14.353  76.790  -5.377  1.00  0.00     0.005 C 
ATOM     18  C   UNL     1      14.661  77.907  -6.401  1.00  0.00     0.031 C 
ATOM     19  C   UNL     1      15.348  80.324  -6.151  1.00  0.00    -0.000 C 
BRANCH  19  20
ATOM     20  C   UNL     1      16.471  80.207  -7.108  1.00  0.00     0.004 C 
ATOM     21  C   UNL     1      17.715  80.659  -6.850  1.00  0.00    -0.040 C 
ATOM     22  C   UNL     1      18.737  80.705  -7.962  1.00  0.00     0.067 C 
ATOM     23  C   UNL     1      18.169  81.126  -5.510  1.00  0.00    -0.023 C 
ATOM     24  C   UNL     1      19.474  82.057  -7.974  1.00  0.00     0.121 C 
ATOM     25  C   UNL     1      19.042  82.372  -5.472  1.00  0.00     0.146 C 
ATOM     26  C   UNL     1      17.843  80.457  -4.393  1.00  0.00     0.015 C 
ATOM     27  C   UNL     1      20.098  82.347  -6.599  1.00  0.00     0.068 C 
BRANCH  24  28
ATOM     28  O   UNL     1      18.592  83.094  -8.323  1.00  0.00    -0.393 OA
ATOM     29  H   UNL     1      19.150  83.898  -8.492  1.00  0.00     0.210 HD
ENDBRANCH  24  28
BRANCH  25  30
ATOM     30  O   UNL     1      19.672  82.557  -4.227  1.00  0.00    -0.388 OA
ATOM     31  H   UNL     1      19.560  83.513  -3.972  1.00  0.00     0.211 HD
ENDBRANCH  25  30
ENDBRANCH  19  20
ENDBRANCH   1   9
TORSDOF 8
ENDMDL
MODEL 15
REMARK VINA RESULT:    -7.557      5.858      8.614
REMARK INTER + INTRA:         -11.813
REMARK INTER:                 -11.504
REMARK INTRA:                  -0.309
REMARK UNBOUND:                -1.163
REMARK SMILES C=C1/C(=C\C=C2/CCC[C@]3(C)[C@@H]([C@H](C)CCCC(C)C)CC[C@@H]23)C[C@@H](O)C[C@@H]1O
REMARK SMILES IDX 13 1 14 2 15 3 16 4 17 5 18 6 19 7 20 8 12 9 21 10 10 11
REMARK SMILES IDX 22 12 23 13 9 14 11 15 6 16 8 17 7 18 5 19 4 20 3 21 24 22
REMARK SMILES IDX 2 23 25 24 28 25 1 26 27 27 26 28 29 30
REMARK H PARENT 26 29 29 31
REMARK Flexibility Score: inf
ROOT
ATOM      1  C   UNL     1       6.950  78.828   0.623  1.00  0.00    -0.011 C 
ATOM      2  C   UNL     1       5.421  78.947   0.747  1.00  0.00     0.008 C 
ENDROOT
BRANCH   1   3
ATOM      3  C   UNL     1       7.515  79.912  -0.352  1.00  0.00     0.003 C 
BRANCH   3   4
ATOM      4  C   UNL     1       8.754  80.718   0.101  1.00  0.00     0.001 C 
BRANCH   4   5
ATOM      5  C   UNL     1       9.865  80.813  -0.962  1.00  0.00     0.003 C 
BRANCH   5   6
ATOM      6  C   UNL     1      11.258  81.186  -0.401  1.00  0.00    -0.017 C 
ATOM      7  C   UNL     1      11.260  81.319   1.128  1.00  0.00     0.007 C 
ATOM      8  C   UNL     1      12.357  80.222  -0.871  1.00  0.00     0.007 C 
ENDBRANCH   5   6
ENDBRANCH   4   5
ENDBRANCH   3   4
ENDBRANCH   1   3
BRANCH   1   9
ATOM      9  C   UNL     1       7.437  77.372   0.291  1.00  0.00    -0.002 C 
ATOM     10  C   UNL     1       6.263  76.356   0.222  1.00  0.00     0.005 C 
ATOM     11  C   UNL     1       8.204  77.140  -1.049  1.00  0.00    -0.023 C 
ATOM     12  C   UNL     1       6.602  75.334  -0.870  1.00  0.00     0.009 C 
ATOM     13  C   UNL     1       8.060  75.619  -1.199  1.00  0.00     0.021 C 
ATOM     14  C   UNL     1       9.726  77.442  -1.001  1.00  0.00     0.008 C 
ATOM     15  C   UNL     1       7.524  77.900  -2.232  1.00  0.00     0.012 C 
ATOM     16  C   UNL     1       8.681  75.118  -2.486  1.00  0.00    -0.067 C 
ATOM     17  C   UNL     1      10.441  76.961  -2.286  1.00  0.00     0.005 C 
ATOM     18  C   UNL     1      10.144  75.492  -2.664  1.00  0.00     0.031 C 
ATOM     19  C   UNL     1       8.026  74.280  -3.316  1.00  0.00    -0.000 C 
BRANCH  19  20
ATOM     20  C   UNL     1       8.635  73.651  -4.508  1.00  0.00     0.004 C 
ATOM     21  C   UNL     1       9.690  72.812  -4.447  1.00  0.00    -0.040 C 
ATOM     22  C   UNL     1      10.389  72.399  -5.720  1.00  0.00     0.067 C 
ATOM     23  C   UNL     1      10.230  72.247  -3.179  1.00  0.00    -0.023 C 
ATOM     24  C   UNL     1      11.917  72.514  -5.571  1.00  0.00     0.121 C 
ATOM     25  C   UNL     1      11.744  72.183  -3.040  1.00  0.00     0.146 C 
ATOM     26  C   UNL     1       9.412  71.789  -2.218  1.00  0.00     0.015 C 
ATOM     27  C   UNL     1      12.405  71.711  -4.353  1.00  0.00     0.068 C 
BRANCH  24  28
ATOM     28  O   UNL     1      12.297  73.860  -5.434  1.00  0.00    -0.393 OA
ATOM     29  H   UNL     1      12.380  74.035  -4.460  1.00  0.00     0.210 HD
ENDBRANCH  24  28
BRANCH  25  30
ATOM     30  O   UNL     1      12.159  71.365  -1.972  1.00  0.00    -0.388 OA
ATOM     31  H   UNL     1      12.618  71.947  -1.308  1.00  0.00     0.211 HD
ENDBRANCH  25  30
ENDBRANCH  19  20
ENDBRANCH   1   9
TORSDOF 8
ENDMDL
