MODEL 1
REMARK VINA RESULT:    -8.230      0.000      0.000
REMARK INTER + INTRA:         -10.417
REMARK INTER:                  -9.914
REMARK INTRA:                  -0.504
REMARK UNBOUND:                -0.504
REMARK SMILES COc1ccc(C(=O)c2ccccc2)c(O)c1
REMARK SMILES IDX 3 1 17 2 15 3 6 4 5 5 4 6 2 7 1 8 16 9 7 11 8 12 9 13 10 14
REMARK SMILES IDX 14 15 11 16 13 17 12 18
REMARK H PARENT 16 10
REMARK Flexibility Score: inf
ROOT
ATOM      1  C   UNL     1       8.352  77.719  -2.006  1.00  0.00     0.122 A 
ATOM      2  C   UNL     1       7.528  76.729  -1.439  1.00  0.00     0.093 A 
ATOM      3  C   UNL     1       7.936  75.391  -1.406  1.00  0.00     0.130 A 
ATOM      4  C   UNL     1       9.183  75.023  -1.962  1.00  0.00     0.065 A 
ATOM      5  C   UNL     1      10.000  76.017  -2.527  1.00  0.00     0.020 A 
ATOM      6  C   UNL     1       9.589  77.350  -2.544  1.00  0.00     0.047 A 
ENDROOT
BRANCH   1   7
ATOM      7  O   UNL     1       7.983  79.071  -2.054  1.00  0.00    -0.497 OA
ATOM      8  C   UNL     1       7.607  79.842  -0.917  1.00  0.00     0.278 C 
ENDBRANCH   1   7
BRANCH   3   9
ATOM      9  O   UNL     1       7.094  74.459  -0.794  1.00  0.00    -0.507 OA
ATOM     10  H   UNL     1       7.433  73.615  -0.353  1.00  0.00     0.293 HD
ENDBRANCH   3   9
BRANCH   4  11
ATOM     11  C   UNL     1       9.629  73.613  -2.011  1.00  0.00     0.196 C 
ATOM     12  O   UNL     1      10.076  73.082  -0.958  1.00  0.00    -0.288 OA
BRANCH  11  13
ATOM     13  C   UNL     1       9.529  72.802  -3.252  1.00  0.00     0.023 A 
ATOM     14  C   UNL     1       9.092  73.375  -4.463  1.00  0.00     0.012 A 
ATOM     15  C   UNL     1       9.895  71.443  -3.238  1.00  0.00     0.012 A 
ATOM     16  C   UNL     1       9.012  72.601  -5.625  1.00  0.00     0.001 A 
ATOM     17  C   UNL     1       9.811  70.673  -4.403  1.00  0.00     0.001 A 
ATOM     18  C   UNL     1       9.368  71.252  -5.595  1.00  0.00     0.000 A 
ENDBRANCH  11  13
ENDBRANCH   4  11
TORSDOF 4
ENDMDL
MODEL 2
REMARK VINA RESULT:    -8.025      1.968      2.962
REMARK INTER + INTRA:         -10.170
REMARK INTER:                  -9.650
REMARK INTRA:                  -0.520
REMARK UNBOUND:                -0.504
REMARK SMILES COc1ccc(C(=O)c2ccccc2)c(O)c1
REMARK SMILES IDX 3 1 17 2 15 3 6 4 5 5 4 6 2 7 1 8 16 9 7 11 8 12 9 13 10 14
REMARK SMILES IDX 14 15 11 16 13 17 12 18
REMARK H PARENT 16 10
REMARK Flexibility Score: inf
ROOT
ATOM      1  C   UNL     1       7.000  76.721   0.140  1.00  0.00     0.122 A 
ATOM      2  C   UNL     1       7.918  77.222  -0.802  1.00  0.00     0.093 A 
ATOM      3  C   UNL     1       8.198  76.513  -1.976  1.00  0.00     0.130 A 
ATOM      4  C   UNL     1       7.566  75.270  -2.212  1.00  0.00     0.065 A 
ATOM      5  C   UNL     1       6.652  74.776  -1.267  1.00  0.00     0.020 A 
ATOM      6  C   UNL     1       6.371  75.497  -0.106  1.00  0.00     0.047 A 
ENDROOT
BRANCH   1   7
ATOM      7  O   UNL     1       6.687  77.403   1.325  1.00  0.00    -0.497 OA
ATOM      8  C   UNL     1       5.837  78.543   1.395  1.00  0.00     0.278 C 
ENDBRANCH   1   7
BRANCH   3   9
ATOM      9  O   UNL     1       9.086  77.080  -2.892  1.00  0.00    -0.507 OA
ATOM     10  H   UNL     1       9.024  78.042  -3.198  1.00  0.00     0.293 HD
ENDBRANCH   3   9
BRANCH   4  11
ATOM     11  C   UNL     1       7.880  74.452  -3.405  1.00  0.00     0.196 C 
ATOM     12  O   UNL     1       7.298  74.718  -4.492  1.00  0.00    -0.288 OA
BRANCH  11  13
ATOM     13  C   UNL     1       8.883  73.357  -3.363  1.00  0.00     0.023 A 
ATOM     14  C   UNL     1       9.574  73.049  -2.174  1.00  0.00     0.012 A 
ATOM     15  C   UNL     1       9.141  72.591  -4.515  1.00  0.00     0.012 A 
ATOM     16  C   UNL     1      10.509  72.009  -2.147  1.00  0.00     0.001 A 
ATOM     17  C   UNL     1      10.078  71.553  -4.483  1.00  0.00     0.001 A 
ATOM     18  C   UNL     1      10.763  71.264  -3.300  1.00  0.00     0.000 A 
ENDBRANCH  11  13
ENDBRANCH   4  11
TORSDOF 4
ENDMDL
MODEL 3
REMARK VINA RESULT:    -7.957      1.720      2.480
REMARK INTER + INTRA:         -10.088
REMARK INTER:                  -9.458
REMARK INTRA:                  -0.630
REMARK UNBOUND:                -0.504
REMARK SMILES COc1ccc(C(=O)c2ccccc2)c(O)c1
REMARK SMILES IDX 3 1 17 2 15 3 6 4 5 5 4 6 2 7 1 8 16 9 7 11 8 12 9 13 10 14
REMARK SMILES IDX 14 15 11 16 13 17 12 18
REMARK H PARENT 16 10
REMARK Flexibility Score: inf
ROOT
ATOM      1  C   UNL     1      10.780  77.903  -1.362  1.00  0.00     0.122 A 
ATOM      2  C   UNL     1       9.700  77.915  -2.265  1.00  0.00     0.093 A 
ATOM      3  C   UNL     1       8.915  76.773  -2.456  1.00  0.00     0.130 A 
ATOM      4  C   UNL     1       9.217  75.587  -1.748  1.00  0.00     0.065 A 
ATOM      5  C   UNL     1      10.296  75.582  -0.848  1.00  0.00     0.020 A 
ATOM      6  C   UNL     1      11.065  76.730  -0.656  1.00  0.00     0.047 A 
ENDROOT
BRANCH   1   7
ATOM      7  O   UNL     1      11.587  79.028  -1.137  1.00  0.00    -0.497 OA
ATOM      8  C   UNL     1      11.097  80.300  -0.727  1.00  0.00     0.278 C 
ENDBRANCH   1   7
BRANCH   3   9
ATOM      9  O   UNL     1       7.832  76.857  -3.334  1.00  0.00    -0.507 OA
ATOM     10  H   UNL     1       7.465  76.058  -3.835  1.00  0.00     0.293 HD
ENDBRANCH   3   9
BRANCH   4  11
ATOM     11  C   UNL     1       8.457  74.335  -1.965  1.00  0.00     0.196 C 
ATOM     12  O   UNL     1       7.320  74.216  -1.433  1.00  0.00    -0.288 OA
BRANCH  11  13
ATOM     13  C   UNL     1       8.983  73.238  -2.818  1.00  0.00     0.023 A 
ATOM     14  C   UNL     1       9.563  72.088  -2.249  1.00  0.00     0.012 A 
ATOM     15  C   UNL     1       8.884  73.325  -4.220  1.00  0.00     0.012 A 
ATOM     16  C   UNL     1      10.045  71.059  -3.064  1.00  0.00     0.001 A 
ATOM     17  C   UNL     1       9.369  72.294  -5.031  1.00  0.00     0.001 A 
ATOM     18  C   UNL     1       9.950  71.163  -4.454  1.00  0.00     0.000 A 
ENDBRANCH  11  13
ENDBRANCH   4  11
TORSDOF 4
ENDMDL
MODEL 4
REMARK VINA RESULT:    -7.948      1.450      2.176
REMARK INTER + INTRA:         -10.077
REMARK INTER:                  -9.614
REMARK INTRA:                  -0.463
REMARK UNBOUND:                -0.504
REMARK SMILES COc1ccc(C(=O)c2ccccc2)c(O)c1
REMARK SMILES IDX 3 1 17 2 15 3 6 4 5 5 4 6 2 7 1 8 16 9 7 11 8 12 9 13 10 14
REMARK SMILES IDX 14 15 11 16 13 17 12 18
REMARK H PARENT 16 10
REMARK Flexibility Score: inf
ROOT
ATOM      1  C   UNL     1       8.081  78.029  -0.680  1.00  0.00     0.122 A 
ATOM      2  C   UNL     1       7.436  76.844  -0.279  1.00  0.00     0.093 A 
ATOM      3  C   UNL     1       7.381  75.735  -1.132  1.00  0.00     0.130 A 
ATOM      4  C   UNL     1       7.964  75.809  -2.418  1.00  0.00     0.065 A 
ATOM      5  C   UNL     1       8.607  76.996  -2.811  1.00  0.00     0.020 A 
ATOM      6  C   UNL     1       8.666  78.090  -1.948  1.00  0.00     0.047 A 
ENDROOT
BRANCH   1   7
ATOM      7  O   UNL     1       8.164  79.159   0.147  1.00  0.00    -0.497 OA
ATOM      8  C   UNL     1       9.009  80.277  -0.102  1.00  0.00     0.278 C 
ENDBRANCH   1   7
BRANCH   3   9
ATOM      9  O   UNL     1       6.762  74.574  -0.664  1.00  0.00    -0.507 OA
ATOM     10  H   UNL     1       6.123  74.025  -1.224  1.00  0.00     0.293 HD
ENDBRANCH   3   9
BRANCH   4  11
ATOM     11  C   UNL     1       7.874  74.689  -3.380  1.00  0.00     0.196 C 
ATOM     12  O   UNL     1       6.962  74.709  -4.251  1.00  0.00    -0.288 OA
BRANCH  11  13
ATOM     13  C   UNL     1       8.846  73.565  -3.368  1.00  0.00     0.023 A 
ATOM     14  C   UNL     1       9.563  73.236  -2.201  1.00  0.00     0.012 A 
ATOM     15  C   UNL     1       9.047  72.793  -4.528  1.00  0.00     0.012 A 
ATOM     16  C   UNL     1      10.469  72.170  -2.203  1.00  0.00     0.001 A 
ATOM     17  C   UNL     1       9.955  71.729  -4.524  1.00  0.00     0.001 A 
ATOM     18  C   UNL     1      10.667  71.419  -3.363  1.00  0.00     0.000 A 
ENDBRANCH  11  13
ENDBRANCH   4  11
TORSDOF 4
ENDMDL
MODEL 5
REMARK VINA RESULT:    -7.902      1.698      2.314
REMARK INTER + INTRA:         -10.022
REMARK INTER:                  -9.376
REMARK INTRA:                  -0.646
REMARK UNBOUND:                -0.504
REMARK SMILES COc1ccc(C(=O)c2ccccc2)c(O)c1
REMARK SMILES IDX 3 1 17 2 15 3 6 4 5 5 4 6 2 7 1 8 16 9 7 11 8 12 9 13 10 14
REMARK SMILES IDX 14 15 11 16 13 17 12 18
REMARK H PARENT 16 10
REMARK Flexibility Score: inf
ROOT
ATOM      1  C   UNL     1      10.648  77.933  -1.379  1.00  0.00     0.122 A 
ATOM      2  C   UNL     1       9.540  77.938  -2.247  1.00  0.00     0.093 A 
ATOM      3  C   UNL     1       8.774  76.782  -2.435  1.00  0.00     0.130 A 
ATOM      4  C   UNL     1       9.124  75.590  -1.759  1.00  0.00     0.065 A 
ATOM      5  C   UNL     1      10.231  75.593  -0.894  1.00  0.00     0.020 A 
ATOM      6  C   UNL     1      10.981  76.755  -0.705  1.00  0.00     0.047 A 
ENDROOT
BRANCH   1   7
ATOM      7  O   UNL     1      11.438  79.072  -1.158  1.00  0.00    -0.497 OA
ATOM      8  C   UNL     1      12.310  79.645  -2.127  1.00  0.00     0.278 C 
ENDBRANCH   1   7
BRANCH   3   9
ATOM      9  O   UNL     1       7.662  76.857  -3.277  1.00  0.00    -0.507 OA
ATOM     10  H   UNL     1       6.907  76.184  -3.256  1.00  0.00     0.293 HD
ENDBRANCH   3   9
BRANCH   4  11
ATOM     11  C   UNL     1       8.386  74.326  -1.976  1.00  0.00     0.196 C 
ATOM     12  O   UNL     1       7.258  74.181  -1.430  1.00  0.00    -0.288 OA
BRANCH  11  13
ATOM     13  C   UNL     1       8.920  73.245  -2.844  1.00  0.00     0.023 A 
ATOM     14  C   UNL     1       8.836  73.332  -4.248  1.00  0.00     0.012 A 
ATOM     15  C   UNL     1       9.544  72.122  -2.270  1.00  0.00     0.012 A 
ATOM     16  C   UNL     1       9.351  72.311  -5.053  1.00  0.00     0.001 A 
ATOM     17  C   UNL     1      10.056  71.103  -3.080  1.00  0.00     0.001 A 
ATOM     18  C   UNL     1       9.958  71.197  -4.470  1.00  0.00     0.000 A 
ENDBRANCH  11  13
ENDBRANCH   4  11
TORSDOF 4
ENDMDL
MODEL 6
REMARK VINA RESULT:    -7.749      7.577      9.799
REMARK INTER + INTRA:          -9.838
REMARK INTER:                  -9.143
REMARK INTRA:                  -0.695
REMARK UNBOUND:                -0.504
REMARK SMILES COc1ccc(C(=O)c2ccccc2)c(O)c1
REMARK SMILES IDX 3 1 17 2 15 3 6 4 5 5 4 6 2 7 1 8 16 9 7 11 8 12 9 13 10 14
REMARK SMILES IDX 14 15 11 16 13 17 12 18
REMARK H PARENT 16 10
REMARK Flexibility Score: inf
ROOT
ATOM      1  C   UNL     1      16.697  81.453  -7.169  1.00  0.00     0.122 A 
ATOM      2  C   UNL     1      16.918  80.063  -7.166  1.00  0.00     0.093 A 
ATOM      3  C   UNL     1      16.105  79.211  -6.409  1.00  0.00     0.130 A 
ATOM      4  C   UNL     1      15.060  79.751  -5.626  1.00  0.00     0.065 A 
ATOM      5  C   UNL     1      14.845  81.140  -5.633  1.00  0.00     0.020 A 
ATOM      6  C   UNL     1      15.654  81.979  -6.401  1.00  0.00     0.047 A 
ENDROOT
BRANCH   1   7
ATOM      7  O   UNL     1      17.484  82.340  -7.918  1.00  0.00    -0.497 OA
ATOM      8  C   UNL     1      18.907  82.384  -7.876  1.00  0.00     0.278 C 
ENDBRANCH   1   7
BRANCH   3   9
ATOM      9  O   UNL     1      16.347  77.837  -6.478  1.00  0.00    -0.507 OA
ATOM     10  H   UNL     1      17.225  77.446  -6.796  1.00  0.00     0.293 HD
ENDBRANCH   3   9
BRANCH   4  11
ATOM     11  C   UNL     1      14.217  78.899  -4.758  1.00  0.00     0.196 C 
ATOM     12  O   UNL     1      13.908  77.744  -5.159  1.00  0.00    -0.288 OA
BRANCH  11  13
ATOM     13  C   UNL     1      13.759  79.353  -3.419  1.00  0.00     0.023 A 
ATOM     14  C   UNL     1      14.678  79.591  -2.379  1.00  0.00     0.012 A 
ATOM     15  C   UNL     1      12.390  79.576  -3.180  1.00  0.00     0.012 A 
ATOM     16  C   UNL     1      14.234  80.027  -1.126  1.00  0.00     0.001 A 
ATOM     17  C   UNL     1      11.951  80.011  -1.925  1.00  0.00     0.001 A 
ATOM     18  C   UNL     1      12.872  80.234  -0.899  1.00  0.00     0.000 A 
ENDBRANCH  11  13
ENDBRANCH   4  11
TORSDOF 4
ENDMDL
MODEL 7
REMARK VINA RESULT:    -7.678      2.248      6.827
REMARK INTER + INTRA:          -9.752
REMARK INTER:                  -9.207
REMARK INTRA:                  -0.546
REMARK UNBOUND:                -0.504
REMARK SMILES COc1ccc(C(=O)c2ccccc2)c(O)c1
REMARK SMILES IDX 3 1 17 2 15 3 6 4 5 5 4 6 2 7 1 8 16 9 7 11 8 12 9 13 10 14
REMARK SMILES IDX 14 15 11 16 13 17 12 18
REMARK H PARENT 16 10
REMARK Flexibility Score: inf
ROOT
ATOM      1  C   UNL     1       8.334  74.864  -1.610  1.00  0.00     0.122 A 
ATOM      2  C   UNL     1       7.765  75.568  -0.532  1.00  0.00     0.093 A 
ATOM      3  C   UNL     1       7.717  76.967  -0.537  1.00  0.00     0.130 A 
ATOM      4  C   UNL     1       8.260  77.684  -1.629  1.00  0.00     0.065 A 
ATOM      5  C   UNL     1       8.826  76.974  -2.701  1.00  0.00     0.020 A 
ATOM      6  C   UNL     1       8.858  75.579  -2.691  1.00  0.00     0.047 A 
ENDROOT
BRANCH   1   7
ATOM      7  O   UNL     1       8.395  73.463  -1.646  1.00  0.00    -0.497 OA
ATOM      8  C   UNL     1       9.362  72.720  -2.382  1.00  0.00     0.278 C 
ENDBRANCH   1   7
BRANCH   3   9
ATOM      9  O   UNL     1       7.105  77.609   0.541  1.00  0.00    -0.507 OA
ATOM     10  H   UNL     1       7.496  77.616   1.474  1.00  0.00     0.293 HD
ENDBRANCH   3   9
BRANCH   4  11
ATOM     11  C   UNL     1       8.293  79.163  -1.649  1.00  0.00     0.196 C 
ATOM     12  O   UNL     1       7.328  79.784  -2.172  1.00  0.00    -0.288 OA
BRANCH  11  13
ATOM     13  C   UNL     1       9.410  79.931  -1.040  1.00  0.00     0.023 A 
ATOM     14  C   UNL     1       9.261  80.566   0.208  1.00  0.00     0.012 A 
ATOM     15  C   UNL     1      10.652  80.013  -1.699  1.00  0.00     0.012 A 
ATOM     16  C   UNL     1      10.324  81.278   0.773  1.00  0.00     0.001 A 
ATOM     17  C   UNL     1      11.711  80.727  -1.130  1.00  0.00     0.001 A 
ATOM     18  C   UNL     1      11.547  81.360   0.104  1.00  0.00     0.000 A 
ENDBRANCH  11  13
ENDBRANCH   4  11
TORSDOF 4
ENDMDL
MODEL 8
REMARK VINA RESULT:    -7.477      6.154      8.661
REMARK INTER + INTRA:          -9.510
REMARK INTER:                  -8.764
REMARK INTRA:                  -0.747
REMARK UNBOUND:                -0.504
REMARK SMILES COc1ccc(C(=O)c2ccccc2)c(O)c1
REMARK SMILES IDX 3 1 17 2 15 3 6 4 5 5 4 6 2 7 1 8 16 9 7 11 8 12 9 13 10 14
REMARK SMILES IDX 14 15 11 16 13 17 12 18
REMARK H PARENT 16 10
REMARK Flexibility Score: inf
ROOT
ATOM      1  C   UNL     1      14.897  80.989  -5.259  1.00  0.00     0.122 A 
ATOM      2  C   UNL     1      15.635  80.370  -4.233  1.00  0.00     0.093 A 
ATOM      3  C   UNL     1      14.986  79.712  -3.182  1.00  0.00     0.130 A 
ATOM      4  C   UNL     1      13.573  79.682  -3.140  1.00  0.00     0.065 A 
ATOM      5  C   UNL     1      12.843  80.303  -4.167  1.00  0.00     0.020 A 
ATOM      6  C   UNL     1      13.501  80.945  -5.217  1.00  0.00     0.047 A 
ENDROOT
BRANCH   1   7
ATOM      7  O   UNL     1      15.510  81.653  -6.333  1.00  0.00    -0.497 OA
ATOM      8  C   UNL     1      16.606  81.135  -7.079  1.00  0.00     0.278 C 
ENDBRANCH   1   7
BRANCH   3   9
ATOM      9  O   UNL     1      15.771  79.081  -2.215  1.00  0.00    -0.507 OA
ATOM     10  H   UNL     1      15.620  79.195  -1.221  1.00  0.00     0.293 HD
ENDBRANCH   3   9
BRANCH   4  11
ATOM     11  C   UNL     1      12.841  79.057  -2.015  1.00  0.00     0.196 C 
ATOM     12  O   UNL     1      13.094  77.857  -1.719  1.00  0.00    -0.288 OA
BRANCH  11  13
ATOM     13  C   UNL     1      11.849  79.814  -1.208  1.00  0.00     0.023 A 
ATOM     14  C   UNL     1      12.240  80.917  -0.424  1.00  0.00     0.012 A 
ATOM     15  C   UNL     1      10.490  79.449  -1.237  1.00  0.00     0.012 A 
ATOM     16  C   UNL     1      11.293  81.625   0.324  1.00  0.00     0.001 A 
ATOM     17  C   UNL     1       9.548  80.160  -0.487  1.00  0.00     0.001 A 
ATOM     18  C   UNL     1       9.950  81.246   0.294  1.00  0.00     0.000 A 
ENDBRANCH  11  13
ENDBRANCH   4  11
TORSDOF 4
ENDMDL
MODEL 9
REMARK VINA RESULT:    -7.474      5.396      7.712
REMARK INTER + INTRA:          -9.507
REMARK INTER:                  -8.808
REMARK INTRA:                  -0.699
REMARK UNBOUND:                -0.504
REMARK SMILES COc1ccc(C(=O)c2ccccc2)c(O)c1
REMARK SMILES IDX 3 1 17 2 15 3 6 4 5 5 4 6 2 7 1 8 16 9 7 11 8 12 9 13 10 14
REMARK SMILES IDX 14 15 11 16 13 17 12 18
REMARK H PARENT 16 10
REMARK Flexibility Score: inf
ROOT
ATOM      1  C   UNL     1      15.003  80.690  -5.304  1.00  0.00     0.122 A 
ATOM      2  C   UNL     1      15.670  80.085  -4.223  1.00  0.00     0.093 A 
ATOM      3  C   UNL     1      14.954  79.588  -3.128  1.00  0.00     0.130 A 
ATOM      4  C   UNL     1      13.545  79.708  -3.097  1.00  0.00     0.065 A 
ATOM      5  C   UNL     1      12.886  80.313  -4.181  1.00  0.00     0.020 A 
ATOM      6  C   UNL     1      13.609  80.795  -5.273  1.00  0.00     0.047 A 
ENDROOT
BRANCH   1   7
ATOM      7  O   UNL     1      15.683  81.195  -6.422  1.00  0.00    -0.497 OA
ATOM      8  C   UNL     1      16.955  80.734  -6.866  1.00  0.00     0.278 C 
ENDBRANCH   1   7
BRANCH   3   9
ATOM      9  O   UNL     1      15.667  78.962  -2.103  1.00  0.00    -0.507 OA
ATOM     10  H   UNL     1      15.373  78.982  -1.135  1.00  0.00     0.293 HD
ENDBRANCH   3   9
BRANCH   4  11
ATOM     11  C   UNL     1      12.750  79.258  -1.933  1.00  0.00     0.196 C 
ATOM     12  O   UNL     1      13.256  79.350  -0.782  1.00  0.00    -0.288 OA
BRANCH  11  13
ATOM     13  C   UNL     1      11.366  78.739  -2.083  1.00  0.00     0.023 A 
ATOM     14  C   UNL     1      11.125  77.437  -2.561  1.00  0.00     0.012 A 
ATOM     15  C   UNL     1      10.268  79.543  -1.721  1.00  0.00     0.012 A 
ATOM     16  C   UNL     1       9.817  76.958  -2.688  1.00  0.00     0.001 A 
ATOM     17  C   UNL     1       8.962  79.060  -1.851  1.00  0.00     0.001 A 
ATOM     18  C   UNL     1       8.736  77.770  -2.336  1.00  0.00     0.000 A 
ENDBRANCH  11  13
ENDBRANCH   4  11
TORSDOF 4
ENDMDL
MODEL 10
REMARK VINA RESULT:    -7.439      7.702     10.069
REMARK INTER + INTRA:          -9.464
REMARK INTER:                  -8.832
REMARK INTRA:                  -0.632
REMARK UNBOUND:                -0.504
REMARK SMILES COc1ccc(C(=O)c2ccccc2)c(O)c1
REMARK SMILES IDX 3 1 17 2 15 3 6 4 5 5 4 6 2 7 1 8 16 9 7 11 8 12 9 13 10 14
REMARK SMILES IDX 14 15 11 16 13 17 12 18
REMARK H PARENT 16 10
REMARK Flexibility Score: inf
ROOT
ATOM      1  C   UNL     1      17.325  80.864  -7.232  1.00  0.00     0.122 A 
ATOM      2  C   UNL     1      16.465  81.966  -7.068  1.00  0.00     0.093 A 
ATOM      3  C   UNL     1      15.316  81.866  -6.276  1.00  0.00     0.130 A 
ATOM      4  C   UNL     1      15.004  80.640  -5.644  1.00  0.00     0.065 A 
ATOM      5  C   UNL     1      15.866  79.544  -5.812  1.00  0.00     0.020 A 
ATOM      6  C   UNL     1      17.016  79.659  -6.594  1.00  0.00     0.047 A 
ENDROOT
BRANCH   1   7
ATOM      7  O   UNL     1      18.489  80.925  -8.012  1.00  0.00    -0.497 OA
ATOM      8  C   UNL     1      19.443  81.980  -7.952  1.00  0.00     0.278 C 
ENDBRANCH   1   7
BRANCH   3   9
ATOM      9  O   UNL     1      14.523  83.005  -6.118  1.00  0.00    -0.507 OA
ATOM     10  H   UNL     1      14.660  83.674  -5.372  1.00  0.00     0.293 HD
ENDBRANCH   3   9
BRANCH   4  11
ATOM     11  C   UNL     1      13.767  80.466  -4.851  1.00  0.00     0.196 C 
ATOM     12  O   UNL     1      12.675  80.874  -5.333  1.00  0.00    -0.288 OA
BRANCH  11  13
ATOM     13  C   UNL     1      13.773  79.793  -3.526  1.00  0.00     0.023 A 
ATOM     14  C   UNL     1      14.778  80.065  -2.577  1.00  0.00     0.012 A 
ATOM     15  C   UNL     1      12.751  78.884  -3.192  1.00  0.00     0.012 A 
ATOM     16  C   UNL     1      14.766  79.430  -1.331  1.00  0.00     0.001 A 
ATOM     17  C   UNL     1      12.745  78.251  -1.944  1.00  0.00     0.001 A 
ATOM     18  C   UNL     1      13.752  78.523  -1.015  1.00  0.00     0.000 A 
ENDBRANCH  11  13
ENDBRANCH   4  11
TORSDOF 4
ENDMDL
MODEL 11
REMARK VINA RESULT:    -7.412      1.728      6.201
REMARK INTER + INTRA:          -9.432
REMARK INTER:                  -8.705
REMARK INTRA:                  -0.727
REMARK UNBOUND:                -0.504
REMARK SMILES COc1ccc(C(=O)c2ccccc2)c(O)c1
REMARK SMILES IDX 3 1 17 2 15 3 6 4 5 5 4 6 2 7 1 8 16 9 7 11 8 12 9 13 10 14
REMARK SMILES IDX 14 15 11 16 13 17 12 18
REMARK H PARENT 16 10
REMARK Flexibility Score: inf
ROOT
ATOM      1  C   UNL     1       9.018  73.434  -3.232  1.00  0.00     0.122 A 
ATOM      2  C   UNL     1       9.612  73.587  -1.965  1.00  0.00     0.093 A 
ATOM      3  C   UNL     1       9.336  74.711  -1.177  1.00  0.00     0.130 A 
ATOM      4  C   UNL     1       8.465  75.712  -1.664  1.00  0.00     0.065 A 
ATOM      5  C   UNL     1       7.876  75.553  -2.929  1.00  0.00     0.020 A 
ATOM      6  C   UNL     1       8.148  74.423  -3.702  1.00  0.00     0.047 A 
ENDROOT
BRANCH   1   7
ATOM      7  O   UNL     1       9.263  72.321  -4.050  1.00  0.00    -0.497 OA
ATOM      8  C   UNL     1       9.838  71.100  -3.595  1.00  0.00     0.278 C 
ENDBRANCH   1   7
BRANCH   3   9
ATOM      9  O   UNL     1       9.923  74.788   0.088  1.00  0.00    -0.507 OA
ATOM     10  H   UNL     1       9.919  74.020   0.746  1.00  0.00     0.293 HD
ENDBRANCH   3   9
BRANCH   4  11
ATOM     11  C   UNL     1       8.195  76.949  -0.897  1.00  0.00     0.196 C 
ATOM     12  O   UNL     1       7.613  76.856   0.218  1.00  0.00    -0.288 OA
BRANCH  11  13
ATOM     13  C   UNL     1       8.623  78.285  -1.388  1.00  0.00     0.023 A 
ATOM     14  C   UNL     1       9.986  78.632  -1.457  1.00  0.00     0.012 A 
ATOM     15  C   UNL     1       7.662  79.220  -1.816  1.00  0.00     0.012 A 
ATOM     16  C   UNL     1      10.374  79.890  -1.930  1.00  0.00     0.001 A 
ATOM     17  C   UNL     1       8.055  80.477  -2.286  1.00  0.00     0.001 A 
ATOM     18  C   UNL     1       9.410  80.812  -2.342  1.00  0.00     0.000 A 
ENDBRANCH  11  13
ENDBRANCH   4  11
TORSDOF 4
ENDMDL
MODEL 12
REMARK VINA RESULT:    -7.361      2.177      6.541
REMARK INTER + INTRA:          -9.371
REMARK INTER:                  -8.737
REMARK INTRA:                  -0.634
REMARK UNBOUND:                -0.504
REMARK SMILES COc1ccc(C(=O)c2ccccc2)c(O)c1
REMARK SMILES IDX 3 1 17 2 15 3 6 4 5 5 4 6 2 7 1 8 16 9 7 11 8 12 9 13 10 14
REMARK SMILES IDX 14 15 11 16 13 17 12 18
REMARK H PARENT 16 10
REMARK Flexibility Score: inf
ROOT
ATOM      1  C   UNL     1       8.920  74.077  -1.940  1.00  0.00     0.122 A 
ATOM      2  C   UNL     1       8.074  74.699  -2.877  1.00  0.00     0.093 A 
ATOM      3  C   UNL     1       7.967  76.093  -2.929  1.00  0.00     0.130 A 
ATOM      4  C   UNL     1       8.703  76.888  -2.021  1.00  0.00     0.065 A 
ATOM      5  C   UNL     1       9.546  76.260  -1.088  1.00  0.00     0.020 A 
ATOM      6  C   UNL     1       9.655  74.869  -1.053  1.00  0.00     0.047 A 
ENDROOT
BRANCH   1   7
ATOM      7  O   UNL     1       9.060  72.683  -1.860  1.00  0.00    -0.497 OA
ATOM      8  C   UNL     1      10.146  71.951  -2.419  1.00  0.00     0.278 C 
ENDBRANCH   1   7
BRANCH   3   9
ATOM      9  O   UNL     1       7.142  76.655  -3.906  1.00  0.00    -0.507 OA
ATOM     10  H   UNL     1       7.097  76.310  -4.856  1.00  0.00     0.293 HD
ENDBRANCH   3   9
BRANCH   4  11
ATOM     11  C   UNL     1       8.573  78.362  -1.992  1.00  0.00     0.196 C 
ATOM     12  O   UNL     1       7.469  78.879  -2.316  1.00  0.00    -0.288 OA
BRANCH  11  13
ATOM     13  C   UNL     1       9.691  79.240  -1.559  1.00  0.00     0.023 A 
ATOM     14  C   UNL     1      10.914  79.257  -2.257  1.00  0.00     0.012 A 
ATOM     15  C   UNL     1       9.532  80.090  -0.449  1.00  0.00     0.012 A 
ATOM     16  C   UNL     1      11.955  80.094  -1.844  1.00  0.00     0.001 A 
ATOM     17  C   UNL     1      10.576  80.925  -0.039  1.00  0.00     0.001 A 
ATOM     18  C   UNL     1      11.787  80.926  -0.734  1.00  0.00     0.000 A 
ENDBRANCH  11  13
ENDBRANCH   4  11
TORSDOF 4
ENDMDL
MODEL 13
REMARK VINA RESULT:    -7.324      1.852      6.203
REMARK INTER + INTRA:          -9.326
REMARK INTER:                  -8.803
REMARK INTRA:                  -0.523
REMARK UNBOUND:                -0.504
REMARK SMILES COc1ccc(C(=O)c2ccccc2)c(O)c1
REMARK SMILES IDX 3 1 17 2 15 3 6 4 5 5 4 6 2 7 1 8 16 9 7 11 8 12 9 13 10 14
REMARK SMILES IDX 14 15 11 16 13 17 12 18
REMARK H PARENT 16 10
REMARK Flexibility Score: inf
ROOT
ATOM      1  C   UNL     1       9.013  73.252  -3.469  1.00  0.00     0.122 A 
ATOM      2  C   UNL     1       8.101  74.153  -4.050  1.00  0.00     0.093 A 
ATOM      3  C   UNL     1       7.774  75.353  -3.409  1.00  0.00     0.130 A 
ATOM      4  C   UNL     1       8.352  75.660  -2.156  1.00  0.00     0.065 A 
ATOM      5  C   UNL     1       9.261  74.755  -1.581  1.00  0.00     0.020 A 
ATOM      6  C   UNL     1       9.590  73.567  -2.235  1.00  0.00     0.047 A 
ENDROOT
BRANCH   1   7
ATOM      7  O   UNL     1       9.372  72.043  -4.082  1.00  0.00    -0.497 OA
ATOM      8  C   UNL     1       9.535  71.870  -5.485  1.00  0.00     0.278 C 
ENDBRANCH   1   7
BRANCH   3   9
ATOM      9  O   UNL     1       6.894  76.226  -4.053  1.00  0.00    -0.507 OA
ATOM     10  H   UNL     1       7.189  77.101  -4.467  1.00  0.00     0.293 HD
ENDBRANCH   3   9
BRANCH   4  11
ATOM     11  C   UNL     1       7.987  76.884  -1.408  1.00  0.00     0.196 C 
ATOM     12  O   UNL     1       7.173  76.788  -0.449  1.00  0.00    -0.288 OA
BRANCH  11  13
ATOM     13  C   UNL     1       8.580  78.207  -1.733  1.00  0.00     0.023 A 
ATOM     14  C   UNL     1       9.976  78.384  -1.792  1.00  0.00     0.012 A 
ATOM     15  C   UNL     1       7.744  79.305  -2.013  1.00  0.00     0.012 A 
ATOM     16  C   UNL     1      10.519  79.633  -2.108  1.00  0.00     0.001 A 
ATOM     17  C   UNL     1       8.293  80.552  -2.328  1.00  0.00     0.001 A 
ATOM     18  C   UNL     1       9.680  80.717  -2.373  1.00  0.00     0.000 A 
ENDBRANCH  11  13
ENDBRANCH   4  11
TORSDOF 4
ENDMDL
MODEL 14
REMARK VINA RESULT:    -7.277      4.848      6.179
REMARK INTER + INTRA:          -9.269
REMARK INTER:                  -8.581
REMARK INTRA:                  -0.688
REMARK UNBOUND:                -0.504
REMARK SMILES COc1ccc(C(=O)c2ccccc2)c(O)c1
REMARK SMILES IDX 3 1 17 2 15 3 6 4 5 5 4 6 2 7 1 8 16 9 7 11 8 12 9 13 10 14
REMARK SMILES IDX 14 15 11 16 13 17 12 18
REMARK H PARENT 16 10
REMARK Flexibility Score: inf
ROOT
ATOM      1  C   UNL     1       8.308  79.402  -1.052  1.00  0.00     0.122 A 
ATOM      2  C   UNL     1       9.234  80.332  -0.542  1.00  0.00     0.093 A 
ATOM      3  C   UNL     1      10.599  80.211  -0.825  1.00  0.00     0.130 A 
ATOM      4  C   UNL     1      11.059  79.135  -1.618  1.00  0.00     0.065 A 
ATOM      5  C   UNL     1      10.129  78.210  -2.123  1.00  0.00     0.020 A 
ATOM      6  C   UNL     1       8.769  78.347  -1.845  1.00  0.00     0.047 A 
ENDROOT
BRANCH   1   7
ATOM      7  O   UNL     1       6.932  79.491  -0.797  1.00  0.00    -0.497 OA
ATOM      8  C   UNL     1       6.295  78.978   0.369  1.00  0.00     0.278 C 
ENDBRANCH   1   7
BRANCH   3   9
ATOM      9  O   UNL     1      11.465  81.187  -0.326  1.00  0.00    -0.507 OA
ATOM     10  H   UNL     1      12.143  81.670  -0.901  1.00  0.00     0.293 HD
ENDBRANCH   3   9
BRANCH   4  11
ATOM     11  C   UNL     1      12.499  78.927  -1.889  1.00  0.00     0.196 C 
ATOM     12  O   UNL     1      13.267  78.672  -0.922  1.00  0.00    -0.288 OA
BRANCH  11  13
ATOM     13  C   UNL     1      13.052  78.974  -3.268  1.00  0.00     0.023 A 
ATOM     14  C   UNL     1      13.453  77.798  -3.931  1.00  0.00     0.012 A 
ATOM     15  C   UNL     1      13.159  80.204  -3.943  1.00  0.00     0.012 A 
ATOM     16  C   UNL     1      13.964  77.857  -5.232  1.00  0.00     0.001 A 
ATOM     17  C   UNL     1      13.672  80.258  -5.244  1.00  0.00     0.001 A 
ATOM     18  C   UNL     1      14.075  79.085  -5.887  1.00  0.00     0.000 A 
ENDBRANCH  11  13
ENDBRANCH   4  11
TORSDOF 4
ENDMDL
MODEL 15
REMARK VINA RESULT:    -7.183      7.798      9.541
REMARK INTER + INTRA:          -9.156
REMARK INTER:                  -8.516
REMARK INTRA:                  -0.640
REMARK UNBOUND:                -0.504
REMARK SMILES COc1ccc(C(=O)c2ccccc2)c(O)c1
REMARK SMILES IDX 3 1 17 2 15 3 6 4 5 5 4 6 2 7 1 8 16 9 7 11 8 12 9 13 10 14
REMARK SMILES IDX 14 15 11 16 13 17 12 18
REMARK H PARENT 16 10
REMARK Flexibility Score: inf
ROOT
ATOM      1  C   UNL     1      12.778  79.537  -3.737  1.00  0.00     0.122 A 
ATOM      2  C   UNL     1      13.167  78.231  -4.087  1.00  0.00     0.093 A 
ATOM      3  C   UNL     1      14.260  78.013  -4.934  1.00  0.00     0.130 A 
ATOM      4  C   UNL     1      14.973  79.116  -5.458  1.00  0.00     0.065 A 
ATOM      5  C   UNL     1      14.578  80.417  -5.104  1.00  0.00     0.020 A 
ATOM      6  C   UNL     1      13.495  80.623  -4.249  1.00  0.00     0.047 A 
ENDROOT
BRANCH   1   7
ATOM      7  O   UNL     1      11.693  79.799  -2.886  1.00  0.00    -0.497 OA
ATOM      8  C   UNL     1      11.600  79.345  -1.540  1.00  0.00     0.278 C 
ENDBRANCH   1   7
BRANCH   3   9
ATOM      9  O   UNL     1      14.624  76.694  -5.214  1.00  0.00    -0.507 OA
ATOM     10  H   UNL     1      14.648  76.315  -6.152  1.00  0.00     0.293 HD
ENDBRANCH   3   9
BRANCH   4  11
ATOM     11  C   UNL     1      16.092  78.938  -6.409  1.00  0.00     0.196 C 
ATOM     12  O   UNL     1      16.151  77.874  -7.084  1.00  0.00    -0.288 OA
BRANCH  11  13
ATOM     13  C   UNL     1      17.121  79.991  -6.614  1.00  0.00     0.023 A 
ATOM     14  C   UNL     1      17.109  80.805  -7.764  1.00  0.00     0.012 A 
ATOM     15  C   UNL     1      18.115  80.205  -5.641  1.00  0.00     0.012 A 
ATOM     16  C   UNL     1      18.078  81.798  -7.939  1.00  0.00     0.001 A 
ATOM     17  C   UNL     1      19.083  81.199  -5.822  1.00  0.00     0.001 A 
ATOM     18  C   UNL     1      19.066  81.993  -6.971  1.00  0.00     0.000 A 
ENDBRANCH  11  13
ENDBRANCH   4  11
TORSDOF 4
ENDMDL
