MODEL 1
REMARK VINA RESULT:    -9.345      0.000      0.000
REMARK INTER + INTRA:         -13.816
REMARK INTER:                 -13.443
REMARK INTRA:                  -0.373
REMARK UNBOUND:                -0.373
REMARK SMILES CC(C)(Oc1ccc(CCNC(=O)c2ccc(Cl)cc2)cc1)C(=O)O
REMARK SMILES IDX 5 1 6 2 7 3 8 4 21 5 22 6 4 7 2 8 1 9 3 10 23 11 24 12 25 13
REMARK SMILES IDX 9 15 10 16 11 17 12 18 13 20 14 21 15 22 20 23 16 24 19 25
REMARK SMILES IDX 17 26 18 27
REMARK H PARENT 25 14 11 19
REMARK Flexibility Score: inf
ROOT
ATOM      1  C   UNL     1      14.940  79.936  -5.744  1.00  0.00     0.121 A 
ATOM      2  C   UNL     1      14.452  80.748  -4.713  1.00  0.00     0.047 A 
ATOM      3  C   UNL     1      13.688  80.193  -3.682  1.00  0.00     0.007 A 
ATOM      4  C   UNL     1      13.404  78.817  -3.674  1.00  0.00    -0.046 A 
ATOM      5  C   UNL     1      13.870  78.011  -4.725  1.00  0.00     0.007 A 
ATOM      6  C   UNL     1      14.634  78.570  -5.754  1.00  0.00     0.047 A 
ENDROOT
BRANCH   1   7
ATOM      7  O   UNL     1      15.695  80.495  -6.780  1.00  0.00    -0.476 OA
BRANCH   7   8
ATOM      8  C   UNL     1      17.120  80.679  -6.732  1.00  0.00     0.199 C 
ATOM      9  C   UNL     1      17.833  79.467  -7.357  1.00  0.00     0.069 C 
ATOM     10  C   UNL     1      17.582  80.874  -5.277  1.00  0.00     0.069 C 
BRANCH   8  11
ATOM     11  C   UNL     1      17.472  81.914  -7.525  1.00  0.00     0.347 C 
ATOM     12  O   UNL     1      18.672  82.166  -7.819  1.00  0.00    -0.248 OA
BRANCH  11  13
ATOM     13  O   UNL     1      16.468  82.788  -7.938  1.00  0.00    -0.478 OA
ATOM     14  H   UNL     1      15.705  82.466  -8.520  1.00  0.00     0.296 HD
ENDBRANCH  11  13
ENDBRANCH   8  11
ENDBRANCH   7   8
ENDBRANCH   1   7
BRANCH   4  15
ATOM     15  C   UNL     1      12.552  78.224  -2.584  1.00  0.00     0.057 C 
BRANCH  15  16
ATOM     16  C   UNL     1      11.166  78.874  -2.570  1.00  0.00     0.121 C 
BRANCH  16  17
ATOM     17  N   UNL     1      10.196  77.994  -1.920  1.00  0.00    -0.352 N 
ATOM     18  C   UNL     1       8.817  78.364  -1.748  1.00  0.00     0.251 C 
ATOM     19  H   UNL     1      10.533  77.062  -1.594  1.00  0.00     0.163 HD
ATOM     20  O   UNL     1       8.393  79.440  -2.254  1.00  0.00    -0.269 OA
BRANCH  18  21
ATOM     21  C   UNL     1       7.877  77.496  -1.000  1.00  0.00     0.039 A 
ATOM     22  C   UNL     1       7.098  78.004   0.057  1.00  0.00     0.015 A 
ATOM     23  C   UNL     1       7.732  76.143  -1.360  1.00  0.00     0.015 A 
ATOM     24  C   UNL     1       6.211  77.171   0.748  1.00  0.00     0.021 A 
ATOM     25  C   UNL     1       6.846  75.314  -0.666  1.00  0.00     0.021 A 
ATOM     26  C   UNL     1       6.087  75.826   0.389  1.00  0.00     0.041 A 
ATOM     27  Cl  UNL     1       4.974  74.785   1.257  1.00  0.00    -0.084 Cl
ENDBRANCH  18  21
ENDBRANCH  16  17
ENDBRANCH  15  16
ENDBRANCH   4  15
TORSDOF 8
ENDMDL
MODEL 2
REMARK VINA RESULT:    -9.244      4.815      9.186
REMARK INTER + INTRA:         -13.669
REMARK INTER:                 -12.820
REMARK INTRA:                  -0.849
REMARK UNBOUND:                -0.373
REMARK SMILES CC(C)(Oc1ccc(CCNC(=O)c2ccc(Cl)cc2)cc1)C(=O)O
REMARK SMILES IDX 5 1 6 2 7 3 8 4 21 5 22 6 4 7 2 8 1 9 3 10 23 11 24 12 25 13
REMARK SMILES IDX 9 15 10 16 11 17 12 18 13 20 14 21 15 22 20 23 16 24 19 25
REMARK SMILES IDX 17 26 18 27
REMARK H PARENT 25 14 11 19
REMARK Flexibility Score: inf
ROOT
ATOM      1  C   UNL     1       8.716  73.975  -2.619  1.00  0.00     0.121 A 
ATOM      2  C   UNL     1       7.891  74.738  -3.453  1.00  0.00     0.047 A 
ATOM      3  C   UNL     1       7.675  76.092  -3.181  1.00  0.00     0.007 A 
ATOM      4  C   UNL     1       8.283  76.695  -2.067  1.00  0.00    -0.046 A 
ATOM      5  C   UNL     1       9.086  75.918  -1.216  1.00  0.00     0.007 A 
ATOM      6  C   UNL     1       9.301  74.565  -1.493  1.00  0.00     0.047 A 
ENDROOT
BRANCH   1   7
ATOM      7  O   UNL     1       8.922  72.617  -2.888  1.00  0.00    -0.476 OA
BRANCH   7   8
ATOM      8  C   UNL     1      10.070  72.096  -3.578  1.00  0.00     0.199 C 
ATOM      9  C   UNL     1      10.841  73.238  -4.263  1.00  0.00     0.069 C 
ATOM     10  C   UNL     1       9.635  71.049  -4.618  1.00  0.00     0.069 C 
BRANCH   8  11
ATOM     11  C   UNL     1      10.977  71.433  -2.569  1.00  0.00     0.347 C 
ATOM     12  O   UNL     1      12.212  71.686  -2.554  1.00  0.00    -0.248 OA
BRANCH  11  13
ATOM     13  O   UNL     1      10.452  70.531  -1.646  1.00  0.00    -0.478 OA
ATOM     14  H   UNL     1      10.768  69.570  -1.619  1.00  0.00     0.296 HD
ENDBRANCH  11  13
ENDBRANCH   8  11
ENDBRANCH   7   8
ENDBRANCH   1   7
BRANCH   4  15
ATOM     15  C   UNL     1       8.024  78.144  -1.751  1.00  0.00     0.057 C 
BRANCH  15  16
ATOM     16  C   UNL     1       9.287  78.810  -1.201  1.00  0.00     0.121 C 
BRANCH  16  17
ATOM     17  N   UNL     1      10.280  78.976  -2.261  1.00  0.00    -0.352 N 
ATOM     18  C   UNL     1      11.620  78.466  -2.147  1.00  0.00     0.251 C 
ATOM     19  H   UNL     1       9.980  79.468  -3.131  1.00  0.00     0.163 HD
ATOM     20  O   UNL     1      11.936  77.766  -1.144  1.00  0.00    -0.269 OA
BRANCH  18  21
ATOM     21  C   UNL     1      12.635  78.731  -3.194  1.00  0.00     0.039 A 
ATOM     22  C   UNL     1      13.181  80.017  -3.372  1.00  0.00     0.015 A 
ATOM     23  C   UNL     1      13.089  77.681  -4.014  1.00  0.00     0.015 A 
ATOM     24  C   UNL     1      14.143  80.247  -4.361  1.00  0.00     0.021 A 
ATOM     25  C   UNL     1      14.050  77.917  -5.002  1.00  0.00     0.021 A 
ATOM     26  C   UNL     1      14.575  79.199  -5.178  1.00  0.00     0.041 A 
ATOM     27  Cl  UNL     1      15.782  79.491  -6.417  1.00  0.00    -0.084 Cl
ENDBRANCH  18  21
ENDBRANCH  16  17
ENDBRANCH  15  16
ENDBRANCH   4  15
TORSDOF 8
ENDMDL
MODEL 3
REMARK VINA RESULT:    -9.065      4.616     10.802
REMARK INTER + INTRA:         -13.413
REMARK INTER:                 -12.887
REMARK INTRA:                  -0.526
REMARK UNBOUND:                -0.373
REMARK SMILES CC(C)(Oc1ccc(CCNC(=O)c2ccc(Cl)cc2)cc1)C(=O)O
REMARK SMILES IDX 5 1 6 2 7 3 8 4 21 5 22 6 4 7 2 8 1 9 3 10 23 11 24 12 25 13
REMARK SMILES IDX 9 15 10 16 11 17 12 18 13 20 14 21 15 22 20 23 16 24 19 25
REMARK SMILES IDX 17 26 18 27
REMARK H PARENT 25 14 11 19
REMARK Flexibility Score: inf
ROOT
ATOM      1  C   UNL     1       9.948  77.555  -2.253  1.00  0.00     0.121 A 
ATOM      2  C   UNL     1      11.042  77.075  -2.984  1.00  0.00     0.047 A 
ATOM      3  C   UNL     1      12.185  77.865  -3.138  1.00  0.00     0.007 A 
ATOM      4  C   UNL     1      12.243  79.145  -2.562  1.00  0.00    -0.046 A 
ATOM      5  C   UNL     1      11.133  79.633  -1.854  1.00  0.00     0.007 A 
ATOM      6  C   UNL     1       9.993  78.840  -1.701  1.00  0.00     0.047 A 
ENDROOT
BRANCH   1   7
ATOM      7  O   UNL     1       8.801  76.767  -2.109  1.00  0.00    -0.476 OA
BRANCH   7   8
ATOM      8  C   UNL     1       8.597  75.825  -1.042  1.00  0.00     0.199 C 
ATOM      9  C   UNL     1       7.638  76.412   0.008  1.00  0.00     0.069 C 
ATOM     10  C   UNL     1       9.943  75.463  -0.389  1.00  0.00     0.069 C 
BRANCH   8  11
ATOM     11  C   UNL     1       7.982  74.573  -1.618  1.00  0.00     0.347 C 
ATOM     12  O   UNL     1       6.933  74.085  -1.116  1.00  0.00    -0.248 OA
BRANCH  11  13
ATOM     13  O   UNL     1       8.573  73.945  -2.712  1.00  0.00    -0.478 OA
ATOM     14  H   UNL     1       8.672  74.426  -3.598  1.00  0.00     0.296 HD
ENDBRANCH  11  13
ENDBRANCH   8  11
ENDBRANCH   7   8
ENDBRANCH   1   7
BRANCH   4  15
ATOM     15  C   UNL     1      13.460  80.010  -2.757  1.00  0.00     0.057 C 
BRANCH  15  16
ATOM     16  C   UNL     1      14.684  79.153  -3.084  1.00  0.00     0.121 C 
BRANCH  16  17
ATOM     17  N   UNL     1      15.723  79.965  -3.715  1.00  0.00    -0.352 N 
ATOM     18  C   UNL     1      15.887  80.031  -5.142  1.00  0.00     0.251 C 
ATOM     19  H   UNL     1      16.344  80.524  -3.090  1.00  0.00     0.163 HD
ATOM     20  O   UNL     1      15.055  79.448  -5.892  1.00  0.00    -0.269 OA
BRANCH  18  21
ATOM     21  C   UNL     1      17.009  80.784  -5.752  1.00  0.00     0.039 A 
ATOM     22  C   UNL     1      18.110  81.205  -4.983  1.00  0.00     0.015 A 
ATOM     23  C   UNL     1      16.995  81.068  -7.131  1.00  0.00     0.015 A 
ATOM     24  C   UNL     1      19.162  81.909  -5.578  1.00  0.00     0.021 A 
ATOM     25  C   UNL     1      18.048  81.772  -7.721  1.00  0.00     0.021 A 
ATOM     26  C   UNL     1      19.130  82.196  -6.946  1.00  0.00     0.041 A 
ATOM     27  Cl  UNL     1      20.452  83.079  -7.689  1.00  0.00    -0.084 Cl
ENDBRANCH  18  21
ENDBRANCH  16  17
ENDBRANCH  15  16
ENDBRANCH   4  15
TORSDOF 8
ENDMDL
MODEL 4
REMARK VINA RESULT:    -9.041      4.516      6.156
REMARK INTER + INTRA:         -13.378
REMARK INTER:                 -12.736
REMARK INTRA:                  -0.642
REMARK UNBOUND:                -0.373
REMARK SMILES CC(C)(Oc1ccc(CCNC(=O)c2ccc(Cl)cc2)cc1)C(=O)O
REMARK SMILES IDX 5 1 6 2 7 3 8 4 21 5 22 6 4 7 2 8 1 9 3 10 23 11 24 12 25 13
REMARK SMILES IDX 9 15 10 16 11 17 12 18 13 20 14 21 15 22 20 23 16 24 19 25
REMARK SMILES IDX 17 26 18 27
REMARK H PARENT 25 14 11 19
REMARK Flexibility Score: inf
ROOT
ATOM      1  C   UNL     1      11.640  80.106  -0.999  1.00  0.00     0.121 A 
ATOM      2  C   UNL     1      11.249  79.074  -1.861  1.00  0.00     0.047 A 
ATOM      3  C   UNL     1       9.929  78.615  -1.853  1.00  0.00     0.007 A 
ATOM      4  C   UNL     1       8.987  79.184  -0.980  1.00  0.00    -0.046 A 
ATOM      5  C   UNL     1       9.391  80.199  -0.097  1.00  0.00     0.007 A 
ATOM      6  C   UNL     1      10.711  80.656  -0.108  1.00  0.00     0.047 A 
ENDROOT
BRANCH   1   7
ATOM      7  O   UNL     1      12.965  80.558  -1.001  1.00  0.00    -0.476 OA
BRANCH   7   8
ATOM      8  C   UNL     1      14.008  80.005  -0.179  1.00  0.00     0.199 C 
ATOM      9  C   UNL     1      13.436  78.911   0.739  1.00  0.00     0.069 C 
ATOM     10  C   UNL     1      14.666  81.114   0.661  1.00  0.00     0.069 C 
BRANCH   8  11
ATOM     11  C   UNL     1      15.052  79.390  -1.079  1.00  0.00     0.347 C 
ATOM     12  O   UNL     1      14.917  79.422  -2.332  1.00  0.00    -0.248 OA
BRANCH  11  13
ATOM     13  O   UNL     1      16.176  78.779  -0.526  1.00  0.00    -0.478 OA
ATOM     14  H   UNL     1      16.131  78.326   0.378  1.00  0.00     0.296 HD
ENDBRANCH  11  13
ENDBRANCH   8  11
ENDBRANCH   7   8
ENDBRANCH   1   7
BRANCH   4  15
ATOM     15  C   UNL     1       7.574  78.667  -0.946  1.00  0.00     0.057 C 
BRANCH  15  16
ATOM     16  C   UNL     1       7.518  77.298  -0.265  1.00  0.00     0.121 C 
BRANCH  16  17
ATOM     17  N   UNL     1       7.737  76.232  -1.241  1.00  0.00    -0.352 N 
ATOM     18  C   UNL     1       8.682  75.171  -1.023  1.00  0.00     0.251 C 
ATOM     19  H   UNL     1       7.163  76.250  -2.113  1.00  0.00     0.163 HD
ATOM     20  O   UNL     1       9.282  75.090   0.085  1.00  0.00    -0.269 OA
BRANCH  18  21
ATOM     21  C   UNL     1       8.956  74.157  -2.070  1.00  0.00     0.039 A 
ATOM     22  C   UNL     1       9.697  72.995  -1.785  1.00  0.00     0.015 A 
ATOM     23  C   UNL     1       8.449  74.338  -3.370  1.00  0.00     0.015 A 
ATOM     24  C   UNL     1       9.940  72.047  -2.785  1.00  0.00     0.021 A 
ATOM     25  C   UNL     1       8.694  73.388  -4.366  1.00  0.00     0.021 A 
ATOM     26  C   UNL     1       9.442  72.245  -4.076  1.00  0.00     0.041 A 
ATOM     27  Cl  UNL     1       9.747  71.054  -5.327  1.00  0.00    -0.084 Cl
ENDBRANCH  18  21
ENDBRANCH  16  17
ENDBRANCH  15  16
ENDBRANCH   4  15
TORSDOF 8
ENDMDL
MODEL 5
REMARK VINA RESULT:    -9.027      4.442     10.728
REMARK INTER + INTRA:         -13.358
REMARK INTER:                 -12.972
REMARK INTRA:                  -0.386
REMARK UNBOUND:                -0.373
REMARK SMILES CC(C)(Oc1ccc(CCNC(=O)c2ccc(Cl)cc2)cc1)C(=O)O
REMARK SMILES IDX 5 1 6 2 7 3 8 4 21 5 22 6 4 7 2 8 1 9 3 10 23 11 24 12 25 13
REMARK SMILES IDX 9 15 10 16 11 17 12 18 13 20 14 21 15 22 20 23 16 24 19 25
REMARK SMILES IDX 17 26 18 27
REMARK H PARENT 25 14 11 19
REMARK Flexibility Score: inf
ROOT
ATOM      1  C   UNL     1       9.464  77.736  -2.209  1.00  0.00     0.121 A 
ATOM      2  C   UNL     1       9.543  79.067  -1.779  1.00  0.00     0.047 A 
ATOM      3  C   UNL     1      10.750  79.766  -1.874  1.00  0.00     0.007 A 
ATOM      4  C   UNL     1      11.891  79.139  -2.401  1.00  0.00    -0.046 A 
ATOM      5  C   UNL     1      11.815  77.796  -2.804  1.00  0.00     0.007 A 
ATOM      6  C   UNL     1      10.606  77.100  -2.708  1.00  0.00     0.047 A 
ENDROOT
BRANCH   1   7
ATOM      7  O   UNL     1       8.258  77.035  -2.102  1.00  0.00    -0.476 OA
BRANCH   7   8
ATOM      8  C   UNL     1       7.931  76.151  -1.017  1.00  0.00     0.199 C 
ATOM      9  C   UNL     1       7.136  76.908   0.062  1.00  0.00     0.069 C 
ATOM     10  C   UNL     1       9.214  75.556  -0.412  1.00  0.00     0.069 C 
BRANCH   8  11
ATOM     11  C   UNL     1       7.078  75.027  -1.553  1.00  0.00     0.347 C 
ATOM     12  O   UNL     1       6.612  74.151  -0.776  1.00  0.00    -0.248 OA
BRANCH  11  13
ATOM     13  O   UNL     1       6.800  74.951  -2.916  1.00  0.00    -0.478 OA
ATOM     14  H   UNL     1       6.881  75.767  -3.510  1.00  0.00     0.296 HD
ENDBRANCH  11  13
ENDBRANCH   8  11
ENDBRANCH   7   8
ENDBRANCH   1   7
BRANCH   4  15
ATOM     15  C   UNL     1      13.200  79.879  -2.472  1.00  0.00     0.057 C 
BRANCH  15  16
ATOM     16  C   UNL     1      14.319  78.950  -2.946  1.00  0.00     0.121 C 
BRANCH  16  17
ATOM     17  N   UNL     1      15.374  79.716  -3.607  1.00  0.00    -0.352 N 
ATOM     18  C   UNL     1      15.438  79.865  -5.035  1.00  0.00     0.251 C 
ATOM     19  H   UNL     1      16.086  80.180  -3.000  1.00  0.00     0.163 HD
ATOM     20  O   UNL     1      14.506  79.403  -5.751  1.00  0.00    -0.269 OA
BRANCH  18  21
ATOM     21  C   UNL     1      16.572  80.564  -5.686  1.00  0.00     0.039 A 
ATOM     22  C   UNL     1      16.521  80.932  -7.044  1.00  0.00     0.015 A 
ATOM     23  C   UNL     1      17.716  80.895  -4.935  1.00  0.00     0.015 A 
ATOM     24  C   UNL     1      17.598  81.598  -7.638  1.00  0.00     0.021 A 
ATOM     25  C   UNL     1      18.790  81.559  -5.534  1.00  0.00     0.021 A 
ATOM     26  C   UNL     1      18.733  81.908  -6.885  1.00  0.00     0.041 A 
ATOM     27  Cl  UNL     1      20.082  82.743  -7.634  1.00  0.00    -0.084 Cl
ENDBRANCH  18  21
ENDBRANCH  16  17
ENDBRANCH  15  16
ENDBRANCH   4  15
TORSDOF 8
ENDMDL
MODEL 6
REMARK VINA RESULT:    -8.997      4.068      5.706
REMARK INTER + INTRA:         -13.315
REMARK INTER:                 -12.690
REMARK INTRA:                  -0.624
REMARK UNBOUND:                -0.373
REMARK SMILES CC(C)(Oc1ccc(CCNC(=O)c2ccc(Cl)cc2)cc1)C(=O)O
REMARK SMILES IDX 5 1 6 2 7 3 8 4 21 5 22 6 4 7 2 8 1 9 3 10 23 11 24 12 25 13
REMARK SMILES IDX 9 15 10 16 11 17 12 18 13 20 14 21 15 22 20 23 16 24 19 25
REMARK SMILES IDX 17 26 18 27
REMARK H PARENT 25 14 11 19
REMARK Flexibility Score: inf
ROOT
ATOM      1  C   UNL     1      11.782  80.584  -1.251  1.00  0.00     0.121 A 
ATOM      2  C   UNL     1      10.935  80.327  -2.336  1.00  0.00     0.047 A 
ATOM      3  C   UNL     1       9.549  80.284  -2.152  1.00  0.00     0.007 A 
ATOM      4  C   UNL     1       8.999  80.498  -0.877  1.00  0.00    -0.046 A 
ATOM      5  C   UNL     1       9.854  80.727   0.214  1.00  0.00     0.007 A 
ATOM      6  C   UNL     1      11.238  80.770   0.025  1.00  0.00     0.047 A 
ENDROOT
BRANCH   1   7
ATOM      7  O   UNL     1      13.169  80.617  -1.436  1.00  0.00    -0.476 OA
BRANCH   7   8
ATOM      8  C   UNL     1      14.001  79.447  -1.505  1.00  0.00     0.199 C 
ATOM      9  C   UNL     1      14.841  79.468  -2.794  1.00  0.00     0.069 C 
ATOM     10  C   UNL     1      13.136  78.175  -1.456  1.00  0.00     0.069 C 
BRANCH   8  11
ATOM     11  C   UNL     1      14.932  79.449  -0.317  1.00  0.00     0.347 C 
ATOM     12  O   UNL     1      14.633  80.086   0.730  1.00  0.00    -0.248 OA
BRANCH  11  13
ATOM     13  O   UNL     1      16.134  78.746  -0.370  1.00  0.00    -0.478 OA
ATOM     14  H   UNL     1      16.154  77.741  -0.252  1.00  0.00     0.296 HD
ENDBRANCH  11  13
ENDBRANCH   8  11
ENDBRANCH   7   8
ENDBRANCH   1   7
BRANCH   4  15
ATOM     15  C   UNL     1       7.510  80.417  -0.670  1.00  0.00     0.057 C 
BRANCH  15  16
ATOM     16  C   UNL     1       7.121  79.059  -0.081  1.00  0.00     0.121 C 
BRANCH  16  17
ATOM     17  N   UNL     1       7.457  77.984  -1.012  1.00  0.00    -0.352 N 
ATOM     18  C   UNL     1       7.739  76.644  -0.572  1.00  0.00     0.251 C 
ATOM     19  H   UNL     1       7.467  78.213  -2.031  1.00  0.00     0.163 HD
ATOM     20  O   UNL     1       7.605  76.349   0.648  1.00  0.00    -0.269 OA
BRANCH  18  21
ATOM     21  C   UNL     1       8.172  75.596  -1.527  1.00  0.00     0.039 A 
ATOM     22  C   UNL     1       9.243  74.733  -1.229  1.00  0.00     0.015 A 
ATOM     23  C   UNL     1       7.489  75.435  -2.748  1.00  0.00     0.015 A 
ATOM     24  C   UNL     1       9.633  73.746  -2.140  1.00  0.00     0.021 A 
ATOM     25  C   UNL     1       7.883  74.447  -3.655  1.00  0.00     0.021 A 
ATOM     26  C   UNL     1       8.956  73.605  -3.354  1.00  0.00     0.041 A 
ATOM     27  Cl  UNL     1       9.446  72.365  -4.494  1.00  0.00    -0.084 Cl
ENDBRANCH  18  21
ENDBRANCH  16  17
ENDBRANCH  15  16
ENDBRANCH   4  15
TORSDOF 8
ENDMDL
MODEL 7
REMARK VINA RESULT:    -8.836      5.245      8.366
REMARK INTER + INTRA:         -13.083
REMARK INTER:                 -12.339
REMARK INTRA:                  -0.744
REMARK UNBOUND:                -0.373
REMARK SMILES CC(C)(Oc1ccc(CCNC(=O)c2ccc(Cl)cc2)cc1)C(=O)O
REMARK SMILES IDX 5 1 6 2 7 3 8 4 21 5 22 6 4 7 2 8 1 9 3 10 23 11 24 12 25 13
REMARK SMILES IDX 9 15 10 16 11 17 12 18 13 20 14 21 15 22 20 23 16 24 19 25
REMARK SMILES IDX 17 26 18 27
REMARK H PARENT 25 14 11 19
REMARK Flexibility Score: inf
ROOT
ATOM      1  C   UNL     1       9.085  74.050  -3.201  1.00  0.00     0.121 A 
ATOM      2  C   UNL     1       9.717  74.269  -1.971  1.00  0.00     0.047 A 
ATOM      3  C   UNL     1       9.022  74.879  -0.922  1.00  0.00     0.007 A 
ATOM      4  C   UNL     1       7.687  75.278  -1.096  1.00  0.00    -0.046 A 
ATOM      5  C   UNL     1       7.066  75.083  -2.341  1.00  0.00     0.007 A 
ATOM      6  C   UNL     1       7.763  74.472  -3.386  1.00  0.00     0.047 A 
ENDROOT
BRANCH   1   7
ATOM      7  O   UNL     1       9.785  73.448  -4.253  1.00  0.00    -0.476 OA
BRANCH   7   8
ATOM      8  C   UNL     1      10.286  72.101  -4.223  1.00  0.00     0.199 C 
ATOM      9  C   UNL     1       9.991  71.396  -5.558  1.00  0.00     0.069 C 
ATOM     10  C   UNL     1       9.649  71.324  -3.058  1.00  0.00     0.069 C 
BRANCH   8  11
ATOM     11  C   UNL     1      11.781  72.150  -4.017  1.00  0.00     0.347 C 
ATOM     12  O   UNL     1      12.288  71.791  -2.919  1.00  0.00    -0.248 OA
BRANCH  11  13
ATOM     13  O   UNL     1      12.613  72.593  -5.042  1.00  0.00    -0.478 OA
ATOM     14  H   UNL     1      13.422  73.169  -4.844  1.00  0.00     0.296 HD
ENDBRANCH  11  13
ENDBRANCH   8  11
ENDBRANCH   7   8
ENDBRANCH   1   7
BRANCH   4  15
ATOM     15  C   UNL     1       6.948  75.967   0.020  1.00  0.00     0.057 C 
BRANCH  15  16
ATOM     16  C   UNL     1       7.090  77.486  -0.098  1.00  0.00     0.121 C 
BRANCH  16  17
ATOM     17  N   UNL     1       8.468  77.847  -0.424  1.00  0.00    -0.352 N 
ATOM     18  C   UNL     1       8.813  78.567  -1.620  1.00  0.00     0.251 C 
ATOM     19  H   UNL     1       9.212  77.580   0.258  1.00  0.00     0.163 HD
ATOM     20  O   UNL     1       7.896  78.992  -2.377  1.00  0.00    -0.269 OA
BRANCH  18  21
ATOM     21  C   UNL     1      10.227  78.835  -1.976  1.00  0.00     0.039 A 
ATOM     22  C   UNL     1      10.843  80.058  -1.647  1.00  0.00     0.015 A 
ATOM     23  C   UNL     1      10.985  77.847  -2.632  1.00  0.00     0.015 A 
ATOM     24  C   UNL     1      12.181  80.290  -1.985  1.00  0.00     0.021 A 
ATOM     25  C   UNL     1      12.321  78.084  -2.968  1.00  0.00     0.021 A 
ATOM     26  C   UNL     1      12.919  79.306  -2.649  1.00  0.00     0.041 A 
ATOM     27  Cl  UNL     1      14.596  79.600  -3.070  1.00  0.00    -0.084 Cl
ENDBRANCH  18  21
ENDBRANCH  16  17
ENDBRANCH  15  16
ENDBRANCH   4  15
TORSDOF 8
ENDMDL
MODEL 8
REMARK VINA RESULT:    -8.665      5.807      8.345
REMARK INTER + INTRA:         -12.837
REMARK INTER:                 -12.136
REMARK INTRA:                  -0.701
REMARK UNBOUND:                -0.373
REMARK SMILES CC(C)(Oc1ccc(CCNC(=O)c2ccc(Cl)cc2)cc1)C(=O)O
REMARK SMILES IDX 5 1 6 2 7 3 8 4 21 5 22 6 4 7 2 8 1 9 3 10 23 11 24 12 25 13
REMARK SMILES IDX 9 15 10 16 11 17 12 18 13 20 14 21 15 22 20 23 16 24 19 25
REMARK SMILES IDX 17 26 18 27
REMARK H PARENT 25 14 11 19
REMARK Flexibility Score: inf
ROOT
ATOM      1  C   UNL     1       9.596  74.333  -2.896  1.00  0.00     0.121 A 
ATOM      2  C   UNL     1       9.983  74.570  -1.571  1.00  0.00     0.047 A 
ATOM      3  C   UNL     1       9.031  74.940  -0.616  1.00  0.00     0.007 A 
ATOM      4  C   UNL     1       7.681  75.077  -0.980  1.00  0.00    -0.046 A 
ATOM      5  C   UNL     1       7.302  74.867  -2.316  1.00  0.00     0.007 A 
ATOM      6  C   UNL     1       8.256  74.497  -3.267  1.00  0.00     0.047 A 
ENDROOT
BRANCH   1   7
ATOM      7  O   UNL     1      10.552  73.974  -3.853  1.00  0.00    -0.476 OA
BRANCH   7   8
ATOM      8  C   UNL     1      10.951  72.620  -4.127  1.00  0.00     0.199 C 
ATOM      9  C   UNL     1      11.131  71.844  -2.811  1.00  0.00     0.069 C 
ATOM     10  C   UNL     1      12.259  72.606  -4.936  1.00  0.00     0.069 C 
BRANCH   8  11
ATOM     11  C   UNL     1       9.867  71.956  -4.940  1.00  0.00     0.347 C 
ATOM     12  O   UNL     1       9.388  72.527  -5.957  1.00  0.00    -0.248 OA
BRANCH  11  13
ATOM     13  O   UNL     1       9.386  70.702  -4.570  1.00  0.00    -0.478 OA
ATOM     14  H   UNL     1       9.374  70.414  -3.599  1.00  0.00     0.296 HD
ENDBRANCH  11  13
ENDBRANCH   8  11
ENDBRANCH   7   8
ENDBRANCH   1   7
BRANCH   4  15
ATOM     15  C   UNL     1       6.660  75.509   0.039  1.00  0.00     0.057 C 
BRANCH  15  16
ATOM     16  C   UNL     1       6.423  77.018  -0.043  1.00  0.00     0.121 C 
BRANCH  16  17
ATOM     17  N   UNL     1       7.694  77.738   0.001  1.00  0.00    -0.352 N 
ATOM     18  C   UNL     1       8.156  78.553  -1.091  1.00  0.00     0.251 C 
ATOM     19  H   UNL     1       8.264  77.660   0.873  1.00  0.00     0.163 HD
ATOM     20  O   UNL     1       7.405  78.739  -2.089  1.00  0.00    -0.269 OA
BRANCH  18  21
ATOM     21  C   UNL     1       9.492  79.194  -1.060  1.00  0.00     0.039 A 
ATOM     22  C   UNL     1      10.598  78.607  -1.704  1.00  0.00     0.015 A 
ATOM     23  C   UNL     1       9.665  80.425  -0.401  1.00  0.00     0.015 A 
ATOM     24  C   UNL     1      11.850  79.230  -1.670  1.00  0.00     0.021 A 
ATOM     25  C   UNL     1      10.918  81.043  -0.369  1.00  0.00     0.021 A 
ATOM     26  C   UNL     1      12.012  80.445  -1.000  1.00  0.00     0.041 A 
ATOM     27  Cl  UNL     1      13.583  81.224  -0.960  1.00  0.00    -0.084 Cl
ENDBRANCH  18  21
ENDBRANCH  16  17
ENDBRANCH  15  16
ENDBRANCH   4  15
TORSDOF 8
ENDMDL
MODEL 9
REMARK VINA RESULT:    -8.662      4.767      9.081
REMARK INTER + INTRA:         -12.833
REMARK INTER:                 -11.841
REMARK INTRA:                  -0.991
REMARK UNBOUND:                -0.373
REMARK SMILES CC(C)(Oc1ccc(CCNC(=O)c2ccc(Cl)cc2)cc1)C(=O)O
REMARK SMILES IDX 5 1 6 2 7 3 8 4 21 5 22 6 4 7 2 8 1 9 3 10 23 11 24 12 25 13
REMARK SMILES IDX 9 15 10 16 11 17 12 18 13 20 14 21 15 22 20 23 16 24 19 25
REMARK SMILES IDX 17 26 18 27
REMARK H PARENT 25 14 11 19
REMARK Flexibility Score: inf
ROOT
ATOM      1  C   UNL     1       8.488  74.779  -2.444  1.00  0.00     0.121 A 
ATOM      2  C   UNL     1       7.963  75.753  -3.302  1.00  0.00     0.047 A 
ATOM      3  C   UNL     1       7.883  77.086  -2.887  1.00  0.00     0.007 A 
ATOM      4  C   UNL     1       8.329  77.456  -1.608  1.00  0.00    -0.046 A 
ATOM      5  C   UNL     1       8.828  76.471  -0.740  1.00  0.00     0.007 A 
ATOM      6  C   UNL     1       8.906  75.140  -1.158  1.00  0.00     0.047 A 
ENDROOT
BRANCH   1   7
ATOM      7  O   UNL     1       8.557  73.443  -2.856  1.00  0.00    -0.476 OA
BRANCH   7   8
ATOM      8  C   UNL     1       9.765  72.790  -3.281  1.00  0.00     0.199 C 
ATOM      9  C   UNL     1      10.350  71.955  -2.128  1.00  0.00     0.069 C 
ATOM     10  C   UNL     1      10.793  73.833  -3.756  1.00  0.00     0.069 C 
BRANCH   8  11
ATOM     11  C   UNL     1       9.436  71.870  -4.431  1.00  0.00     0.347 C 
ATOM     12  O   UNL     1       9.532  70.620  -4.299  1.00  0.00    -0.248 OA
BRANCH  11  13
ATOM     13  O   UNL     1       9.022  72.400  -5.651  1.00  0.00    -0.478 OA
ATOM     14  H   UNL     1       8.723  71.796  -6.407  1.00  0.00     0.296 HD
ENDBRANCH  11  13
ENDBRANCH   8  11
ENDBRANCH   7   8
ENDBRANCH   1   7
BRANCH   4  15
ATOM     15  C   UNL     1       8.212  78.884  -1.147  1.00  0.00     0.057 C 
BRANCH  15  16
ATOM     16  C   UNL     1       9.577  79.426  -0.718  1.00  0.00     0.121 C 
BRANCH  16  17
ATOM     17  N   UNL     1      10.495  79.456  -1.855  1.00  0.00    -0.352 N 
ATOM     18  C   UNL     1      11.739  78.734  -1.859  1.00  0.00     0.251 C 
ATOM     19  H   UNL     1      10.209  80.012  -2.691  1.00  0.00     0.163 HD
ATOM     20  O   UNL     1      12.017  77.968  -0.895  1.00  0.00    -0.269 OA
BRANCH  18  21
ATOM     21  C   UNL     1      12.696  78.859  -2.984  1.00  0.00     0.039 A 
ATOM     22  C   UNL     1      12.965  77.774  -3.839  1.00  0.00     0.015 A 
ATOM     23  C   UNL     1      13.336  80.090  -3.227  1.00  0.00     0.015 A 
ATOM     24  C   UNL     1      13.867  77.913  -4.899  1.00  0.00     0.021 A 
ATOM     25  C   UNL     1      14.237  80.223  -4.287  1.00  0.00     0.021 A 
ATOM     26  C   UNL     1      14.506  79.135  -5.121  1.00  0.00     0.041 A 
ATOM     27  Cl  UNL     1      15.636  79.307  -6.452  1.00  0.00    -0.084 Cl
ENDBRANCH  18  21
ENDBRANCH  16  17
ENDBRANCH  15  16
ENDBRANCH   4  15
TORSDOF 8
ENDMDL
MODEL 10
REMARK VINA RESULT:    -8.604      3.439      4.336
REMARK INTER + INTRA:         -12.749
REMARK INTER:                 -12.646
REMARK INTRA:                  -0.102
REMARK UNBOUND:                -0.373
REMARK SMILES CC(C)(Oc1ccc(CCNC(=O)c2ccc(Cl)cc2)cc1)C(=O)O
REMARK SMILES IDX 5 1 6 2 7 3 8 4 21 5 22 6 4 7 2 8 1 9 3 10 23 11 24 12 25 13
REMARK SMILES IDX 9 15 10 16 11 17 12 18 13 20 14 21 15 22 20 23 16 24 19 25
REMARK SMILES IDX 17 26 18 27
REMARK H PARENT 25 14 11 19
REMARK Flexibility Score: inf
ROOT
ATOM      1  C   UNL     1      14.201  79.526  -3.271  1.00  0.00     0.121 A 
ATOM      2  C   UNL     1      13.707  80.339  -2.244  1.00  0.00     0.047 A 
ATOM      3  C   UNL     1      12.514  80.006  -1.595  1.00  0.00     0.007 A 
ATOM      4  C   UNL     1      11.803  78.854  -1.970  1.00  0.00    -0.046 A 
ATOM      5  C   UNL     1      12.287  78.057  -3.021  1.00  0.00     0.007 A 
ATOM      6  C   UNL     1      13.480  78.393  -3.666  1.00  0.00     0.047 A 
ENDROOT
BRANCH   1   7
ATOM      7  O   UNL     1      15.390  79.867  -3.926  1.00  0.00    -0.476 OA
BRANCH   7   8
ATOM      8  C   UNL     1      15.457  80.349  -5.279  1.00  0.00     0.199 C 
ATOM      9  C   UNL     1      14.406  81.450  -5.502  1.00  0.00     0.069 C 
ATOM     10  C   UNL     1      15.230  79.190  -6.267  1.00  0.00     0.069 C 
BRANCH   8  11
ATOM     11  C   UNL     1      16.830  80.929  -5.515  1.00  0.00     0.347 C 
ATOM     12  O   UNL     1      17.264  81.090  -6.687  1.00  0.00    -0.248 OA
BRANCH  11  13
ATOM     13  O   UNL     1      17.629  81.291  -4.433  1.00  0.00    -0.478 OA
ATOM     14  H   UNL     1      17.298  81.184  -3.482  1.00  0.00     0.296 HD
ENDBRANCH  11  13
ENDBRANCH   8  11
ENDBRANCH   7   8
ENDBRANCH   1   7
BRANCH   4  15
ATOM     15  C   UNL     1      10.501  78.513  -1.297  1.00  0.00     0.057 C 
BRANCH  15  16
ATOM     16  C   UNL     1      10.556  77.106  -0.699  1.00  0.00     0.121 C 
BRANCH  16  17
ATOM     17  N   UNL     1      10.308  76.101  -1.732  1.00  0.00    -0.352 N 
ATOM     18  C   UNL     1       9.915  74.755  -1.417  1.00  0.00     0.251 C 
ATOM     19  H   UNL     1      10.408  76.399  -2.728  1.00  0.00     0.163 HD
ATOM     20  O   UNL     1       9.679  74.439  -0.218  1.00  0.00    -0.269 OA
BRANCH  18  21
ATOM     21  C   UNL     1       9.765  73.730  -2.478  1.00  0.00     0.039 A 
ATOM     22  C   UNL     1      10.326  72.447  -2.338  1.00  0.00     0.015 A 
ATOM     23  C   UNL     1       9.028  74.026  -3.640  1.00  0.00     0.015 A 
ATOM     24  C   UNL     1      10.169  71.491  -3.347  1.00  0.00     0.021 A 
ATOM     25  C   UNL     1       8.874  73.068  -4.646  1.00  0.00     0.021 A 
ATOM     26  C   UNL     1       9.446  71.801  -4.502  1.00  0.00     0.041 A 
ATOM     27  Cl  UNL     1       9.250  70.600  -5.765  1.00  0.00    -0.084 Cl
ENDBRANCH  18  21
ENDBRANCH  16  17
ENDBRANCH  15  16
ENDBRANCH   4  15
TORSDOF 8
ENDMDL
MODEL 11
REMARK VINA RESULT:    -8.569      4.513     10.792
REMARK INTER + INTRA:         -12.699
REMARK INTER:                 -12.392
REMARK INTRA:                  -0.307
REMARK UNBOUND:                -0.373
REMARK SMILES CC(C)(Oc1ccc(CCNC(=O)c2ccc(Cl)cc2)cc1)C(=O)O
REMARK SMILES IDX 5 1 6 2 7 3 8 4 21 5 22 6 4 7 2 8 1 9 3 10 23 11 24 12 25 13
REMARK SMILES IDX 9 15 10 16 11 17 12 18 13 20 14 21 15 22 20 23 16 24 19 25
REMARK SMILES IDX 17 26 18 27
REMARK H PARENT 25 14 11 19
REMARK Flexibility Score: inf
ROOT
ATOM      1  C   UNL     1      10.387  77.416  -1.363  1.00  0.00     0.121 A 
ATOM      2  C   UNL     1      11.048  77.091  -2.554  1.00  0.00     0.047 A 
ATOM      3  C   UNL     1      12.115  77.876  -3.003  1.00  0.00     0.007 A 
ATOM      4  C   UNL     1      12.529  78.996  -2.263  1.00  0.00    -0.046 A 
ATOM      5  C   UNL     1      11.845  79.335  -1.085  1.00  0.00     0.007 A 
ATOM      6  C   UNL     1      10.780  78.548  -0.639  1.00  0.00     0.047 A 
ENDROOT
BRANCH   1   7
ATOM      7  O   UNL     1       9.313  76.636  -0.921  1.00  0.00    -0.476 OA
BRANCH   7   8
ATOM      8  C   UNL     1       7.956  76.803  -1.366  1.00  0.00     0.199 C 
ATOM      9  C   UNL     1       7.074  75.671  -0.814  1.00  0.00     0.069 C 
ATOM     10  C   UNL     1       7.900  76.820  -2.904  1.00  0.00     0.069 C 
BRANCH   8  11
ATOM     11  C   UNL     1       7.440  78.122  -0.845  1.00  0.00     0.347 C 
ATOM     12  O   UNL     1       7.285  79.102  -1.623  1.00  0.00    -0.248 OA
BRANCH  11  13
ATOM     13  O   UNL     1       7.130  78.266   0.506  1.00  0.00    -0.478 OA
ATOM     14  H   UNL     1       6.296  77.845   0.897  1.00  0.00     0.296 HD
ENDBRANCH  11  13
ENDBRANCH   8  11
ENDBRANCH   7   8
ENDBRANCH   1   7
BRANCH   4  15
ATOM     15  C   UNL     1      13.654  79.862  -2.763  1.00  0.00     0.057 C 
BRANCH  15  16
ATOM     16  C   UNL     1      14.694  79.019  -3.506  1.00  0.00     0.121 C 
BRANCH  16  17
ATOM     17  N   UNL     1      15.752  79.871  -4.044  1.00  0.00    -0.352 N 
ATOM     18  C   UNL     1      15.985  80.010  -5.456  1.00  0.00     0.251 C 
ATOM     19  H   UNL     1      16.337  80.404  -3.362  1.00  0.00     0.163 HD
ATOM     20  O   UNL     1      15.197  79.459  -6.274  1.00  0.00    -0.269 OA
BRANCH  18  21
ATOM     21  C   UNL     1      17.126  80.803  -5.973  1.00  0.00     0.039 A 
ATOM     22  C   UNL     1      18.183  81.195  -5.131  1.00  0.00     0.015 A 
ATOM     23  C   UNL     1      17.176  81.154  -7.335  1.00  0.00     0.015 A 
ATOM     24  C   UNL     1      19.255  81.938  -5.638  1.00  0.00     0.021 A 
ATOM     25  C   UNL     1      18.248  81.897  -7.838  1.00  0.00     0.021 A 
ATOM     26  C   UNL     1      19.286  82.292  -6.990  1.00  0.00     0.041 A 
ATOM     27  Cl  UNL     1      20.631  83.223  -7.623  1.00  0.00    -0.084 Cl
ENDBRANCH  18  21
ENDBRANCH  16  17
ENDBRANCH  15  16
ENDBRANCH   4  15
TORSDOF 8
ENDMDL
MODEL 12
REMARK VINA RESULT:    -8.496      1.939      3.088
REMARK INTER + INTRA:         -12.594
REMARK INTER:                 -12.334
REMARK INTRA:                  -0.260
REMARK UNBOUND:                -0.373
REMARK SMILES CC(C)(Oc1ccc(CCNC(=O)c2ccc(Cl)cc2)cc1)C(=O)O
REMARK SMILES IDX 5 1 6 2 7 3 8 4 21 5 22 6 4 7 2 8 1 9 3 10 23 11 24 12 25 13
REMARK SMILES IDX 9 15 10 16 11 17 12 18 13 20 14 21 15 22 20 23 16 24 19 25
REMARK SMILES IDX 17 26 18 27
REMARK H PARENT 25 14 11 19
REMARK Flexibility Score: inf
ROOT
ATOM      1  C   UNL     1      14.306  79.771  -2.816  1.00  0.00     0.121 A 
ATOM      2  C   UNL     1      12.919  79.667  -2.975  1.00  0.00     0.047 A 
ATOM      3  C   UNL     1      12.060  80.116  -1.968  1.00  0.00     0.007 A 
ATOM      4  C   UNL     1      12.583  80.673  -0.789  1.00  0.00    -0.046 A 
ATOM      5  C   UNL     1      13.975  80.749  -0.621  1.00  0.00     0.007 A 
ATOM      6  C   UNL     1      14.830  80.300  -1.631  1.00  0.00     0.047 A 
ENDROOT
BRANCH   1   7
ATOM      7  O   UNL     1      15.164  79.312  -3.821  1.00  0.00    -0.476 OA
BRANCH   7   8
ATOM      8  C   UNL     1      15.101  79.736  -5.193  1.00  0.00     0.199 C 
ATOM      9  C   UNL     1      14.420  81.112  -5.292  1.00  0.00     0.069 C 
ATOM     10  C   UNL     1      14.332  78.701  -6.033  1.00  0.00     0.069 C 
BRANCH   8  11
ATOM     11  C   UNL     1      16.508  79.848  -5.727  1.00  0.00     0.347 C 
ATOM     12  O   UNL     1      16.713  80.074  -6.950  1.00  0.00    -0.248 OA
BRANCH  11  13
ATOM     13  O   UNL     1      17.594  79.702  -4.867  1.00  0.00    -0.478 OA
ATOM     14  H   UNL     1      17.512  79.924  -3.882  1.00  0.00     0.296 HD
ENDBRANCH  11  13
ENDBRANCH   8  11
ENDBRANCH   7   8
ENDBRANCH   1   7
BRANCH   4  15
ATOM     15  C   UNL     1      11.660  81.124   0.312  1.00  0.00     0.057 C 
BRANCH  15  16
ATOM     16  C   UNL     1      10.222  81.225  -0.199  1.00  0.00     0.121 C 
BRANCH  16  17
ATOM     17  N   UNL     1       9.479  80.008   0.122  1.00  0.00    -0.352 N 
ATOM     18  C   UNL     1       8.297  79.615  -0.598  1.00  0.00     0.251 C 
ATOM     19  H   UNL     1       9.847  79.406   0.891  1.00  0.00     0.163 HD
ATOM     20  O   UNL     1       7.930  80.284  -1.604  1.00  0.00    -0.269 OA
BRANCH  18  21
ATOM     21  C   UNL     1       7.508  78.429  -0.190  1.00  0.00     0.039 A 
ATOM     22  C   UNL     1       7.849  77.137  -0.634  1.00  0.00     0.015 A 
ATOM     23  C   UNL     1       6.409  78.581   0.677  1.00  0.00     0.015 A 
ATOM     24  C   UNL     1       7.096  76.028  -0.233  1.00  0.00     0.021 A 
ATOM     25  C   UNL     1       5.658  77.471   1.073  1.00  0.00     0.021 A 
ATOM     26  C   UNL     1       5.999  76.195   0.617  1.00  0.00     0.041 A 
ATOM     27  Cl  UNL     1       5.057  74.803   1.118  1.00  0.00    -0.084 Cl
ENDBRANCH  18  21
ENDBRANCH  16  17
ENDBRANCH  15  16
ENDBRANCH   4  15
TORSDOF 8
ENDMDL
MODEL 13
REMARK VINA RESULT:    -8.478      4.432     10.277
REMARK INTER + INTRA:         -12.568
REMARK INTER:                 -12.095
REMARK INTRA:                  -0.473
REMARK UNBOUND:                -0.373
REMARK SMILES CC(C)(Oc1ccc(CCNC(=O)c2ccc(Cl)cc2)cc1)C(=O)O
REMARK SMILES IDX 5 1 6 2 7 3 8 4 21 5 22 6 4 7 2 8 1 9 3 10 23 11 24 12 25 13
REMARK SMILES IDX 9 15 10 16 11 17 12 18 13 20 14 21 15 22 20 23 16 24 19 25
REMARK SMILES IDX 17 26 18 27
REMARK H PARENT 25 14 11 19
REMARK Flexibility Score: inf
ROOT
ATOM      1  C   UNL     1       8.709  77.320  -2.355  1.00  0.00     0.121 A 
ATOM      2  C   UNL     1      10.041  77.006  -2.654  1.00  0.00     0.047 A 
ATOM      3  C   UNL     1      11.032  77.988  -2.561  1.00  0.00     0.007 A 
ATOM      4  C   UNL     1      10.698  79.295  -2.169  1.00  0.00    -0.046 A 
ATOM      5  C   UNL     1       9.357  79.612  -1.898  1.00  0.00     0.007 A 
ATOM      6  C   UNL     1       8.370  78.628  -1.991  1.00  0.00     0.047 A 
ENDROOT
BRANCH   1   7
ATOM      7  O   UNL     1       7.717  76.338  -2.459  1.00  0.00    -0.476 OA
BRANCH   7   8
ATOM      8  C   UNL     1       7.624  75.190  -1.599  1.00  0.00     0.199 C 
ATOM      9  C   UNL     1       8.485  74.041  -2.153  1.00  0.00     0.069 C 
ATOM     10  C   UNL     1       6.158  74.741  -1.470  1.00  0.00     0.069 C 
BRANCH   8  11
ATOM     11  C   UNL     1       8.140  75.571  -0.233  1.00  0.00     0.347 C 
ATOM     12  O   UNL     1       7.475  76.343   0.510  1.00  0.00    -0.248 OA
BRANCH  11  13
ATOM     13  O   UNL     1       9.359  75.070   0.217  1.00  0.00    -0.478 OA
ATOM     14  H   UNL     1      10.089  75.692   0.543  1.00  0.00     0.296 HD
ENDBRANCH  11  13
ENDBRANCH   8  11
ENDBRANCH   7   8
ENDBRANCH   1   7
BRANCH   4  15
ATOM     15  C   UNL     1      11.759  80.362  -2.102  1.00  0.00     0.057 C 
BRANCH  15  16
ATOM     16  C   UNL     1      13.154  79.735  -2.121  1.00  0.00     0.121 C 
BRANCH  16  17
ATOM     17  N   UNL     1      13.945  80.281  -3.223  1.00  0.00    -0.352 N 
ATOM     18  C   UNL     1      14.370  79.478  -4.337  1.00  0.00     0.251 C 
ATOM     19  H   UNL     1      14.182  81.297  -3.189  1.00  0.00     0.163 HD
ATOM     20  O   UNL     1      13.975  78.282  -4.429  1.00  0.00    -0.269 OA
BRANCH  18  21
ATOM     21  C   UNL     1      15.252  80.031  -5.392  1.00  0.00     0.039 A 
ATOM     22  C   UNL     1      16.125  79.203  -6.123  1.00  0.00     0.015 A 
ATOM     23  C   UNL     1      15.207  81.406  -5.694  1.00  0.00     0.015 A 
ATOM     24  C   UNL     1      16.945  79.743  -7.119  1.00  0.00     0.021 A 
ATOM     25  C   UNL     1      16.030  81.940  -6.690  1.00  0.00     0.021 A 
ATOM     26  C   UNL     1      16.901  81.111  -7.400  1.00  0.00     0.041 A 
ATOM     27  Cl  UNL     1      17.931  81.784  -8.650  1.00  0.00    -0.084 Cl
ENDBRANCH  18  21
ENDBRANCH  16  17
ENDBRANCH  15  16
ENDBRANCH   4  15
TORSDOF 8
ENDMDL
MODEL 14
REMARK VINA RESULT:    -8.477      3.388      5.385
REMARK INTER + INTRA:         -12.566
REMARK INTER:                 -12.109
REMARK INTRA:                  -0.457
REMARK UNBOUND:                -0.373
REMARK SMILES CC(C)(Oc1ccc(CCNC(=O)c2ccc(Cl)cc2)cc1)C(=O)O
REMARK SMILES IDX 5 1 6 2 7 3 8 4 21 5 22 6 4 7 2 8 1 9 3 10 23 11 24 12 25 13
REMARK SMILES IDX 9 15 10 16 11 17 12 18 13 20 14 21 15 22 20 23 16 24 19 25
REMARK SMILES IDX 17 26 18 27
REMARK H PARENT 25 14 11 19
REMARK Flexibility Score: inf
ROOT
ATOM      1  C   UNL     1      11.547  80.044  -1.926  1.00  0.00     0.121 A 
ATOM      2  C   UNL     1      10.466  80.652  -2.577  1.00  0.00     0.047 A 
ATOM      3  C   UNL     1       9.156  80.360  -2.186  1.00  0.00     0.007 A 
ATOM      4  C   UNL     1       8.915  79.454  -1.140  1.00  0.00    -0.046 A 
ATOM      5  C   UNL     1      10.001  78.825  -0.510  1.00  0.00     0.007 A 
ATOM      6  C   UNL     1      11.309  79.120  -0.902  1.00  0.00     0.047 A 
ENDROOT
BRANCH   1   7
ATOM      7  O   UNL     1      12.857  80.330  -2.325  1.00  0.00    -0.476 OA
BRANCH   7   8
ATOM      8  C   UNL     1      13.560  79.620  -3.359  1.00  0.00     0.199 C 
ATOM      9  C   UNL     1      13.520  80.420  -4.672  1.00  0.00     0.069 C 
ATOM     10  C   UNL     1      12.935  78.229  -3.565  1.00  0.00     0.069 C 
BRANCH   8  11
ATOM     11  C   UNL     1      14.998  79.451  -2.934  1.00  0.00     0.347 C 
ATOM     12  O   UNL     1      15.279  79.053  -1.771  1.00  0.00    -0.248 OA
BRANCH  11  13
ATOM     13  O   UNL     1      16.028  79.736  -3.827  1.00  0.00    -0.478 OA
ATOM     14  H   UNL     1      16.910  79.242  -3.779  1.00  0.00     0.296 HD
ENDBRANCH  11  13
ENDBRANCH   8  11
ENDBRANCH   7   8
ENDBRANCH   1   7
BRANCH   4  15
ATOM     15  C   UNL     1       7.504  79.111  -0.742  1.00  0.00     0.057 C 
BRANCH  15  16
ATOM     16  C   UNL     1       7.410  77.651  -0.295  1.00  0.00     0.121 C 
BRANCH  16  17
ATOM     17  N   UNL     1       7.794  76.757  -1.385  1.00  0.00    -0.352 N 
ATOM     18  C   UNL     1       7.752  75.325  -1.257  1.00  0.00     0.251 C 
ATOM     19  H   UNL     1       8.087  77.193  -2.287  1.00  0.00     0.163 HD
ATOM     20  O   UNL     1       7.280  74.808  -0.207  1.00  0.00    -0.269 OA
BRANCH  18  21
ATOM     21  C   UNL     1       8.238  74.442  -2.344  1.00  0.00     0.039 A 
ATOM     22  C   UNL     1       7.765  74.578  -3.663  1.00  0.00     0.015 A 
ATOM     23  C   UNL     1       9.209  73.461  -2.068  1.00  0.00     0.015 A 
ATOM     24  C   UNL     1       8.241  73.739  -4.676  1.00  0.00     0.021 A 
ATOM     25  C   UNL     1       9.681  72.624  -3.084  1.00  0.00     0.021 A 
ATOM     26  C   UNL     1       9.195  72.760  -4.387  1.00  0.00     0.041 A 
ATOM     27  Cl  UNL     1       9.790  71.710  -5.660  1.00  0.00    -0.084 Cl
ENDBRANCH  18  21
ENDBRANCH  16  17
ENDBRANCH  15  16
ENDBRANCH   4  15
TORSDOF 8
ENDMDL
MODEL 15
REMARK VINA RESULT:    -8.249      2.377      3.700
REMARK INTER + INTRA:         -12.238
REMARK INTER:                 -12.713
REMARK INTRA:                   0.475
REMARK UNBOUND:                -0.373
REMARK SMILES CC(C)(Oc1ccc(CCNC(=O)c2ccc(Cl)cc2)cc1)C(=O)O
REMARK SMILES IDX 5 1 6 2 7 3 8 4 21 5 22 6 4 7 2 8 1 9 3 10 23 11 24 12 25 13
REMARK SMILES IDX 9 15 10 16 11 17 12 18 13 20 14 21 15 22 20 23 16 24 19 25
REMARK SMILES IDX 17 26 18 27
REMARK H PARENT 25 14 11 19
REMARK Flexibility Score: inf
ROOT
ATOM      1  C   UNL     1      13.598  79.899  -2.735  1.00  0.00     0.121 A 
ATOM      2  C   UNL     1      12.260  79.721  -3.108  1.00  0.00     0.047 A 
ATOM      3  C   UNL     1      11.232  80.093  -2.237  1.00  0.00     0.007 A 
ATOM      4  C   UNL     1      11.534  80.648  -0.982  1.00  0.00    -0.046 A 
ATOM      5  C   UNL     1      12.877  80.798  -0.600  1.00  0.00     0.007 A 
ATOM      6  C   UNL     1      13.902  80.425  -1.474  1.00  0.00     0.047 A 
ENDROOT
BRANCH   1   7
ATOM      7  O   UNL     1      14.626  79.516  -3.604  1.00  0.00    -0.476 OA
BRANCH   7   8
ATOM      8  C   UNL     1      14.708  79.914  -4.982  1.00  0.00     0.199 C 
ATOM      9  C   UNL     1      13.837  81.159  -5.228  1.00  0.00     0.069 C 
ATOM     10  C   UNL     1      14.257  78.761  -5.896  1.00  0.00     0.069 C 
BRANCH   8  11
ATOM     11  C   UNL     1      16.144  80.254  -5.300  1.00  0.00     0.347 C 
ATOM     12  O   UNL     1      16.422  81.048  -6.238  1.00  0.00    -0.248 OA
BRANCH  11  13
ATOM     13  O   UNL     1      17.176  79.688  -4.554  1.00  0.00    -0.478 OA
ATOM     14  H   UNL     1      17.493  78.744  -4.737  1.00  0.00     0.296 HD
ENDBRANCH  11  13
ENDBRANCH   8  11
ENDBRANCH   7   8
ENDBRANCH   1   7
BRANCH   4  15
ATOM     15  C   UNL     1      10.429  81.016  -0.029  1.00  0.00     0.057 C 
BRANCH  15  16
ATOM     16  C   UNL     1       9.118  80.340  -0.436  1.00  0.00     0.121 C 
BRANCH  16  17
ATOM     17  N   UNL     1       9.359  78.952  -0.826  1.00  0.00    -0.352 N 
ATOM     18  C   UNL     1       8.469  78.230  -1.695  1.00  0.00     0.251 C 
ATOM     19  H   UNL     1      10.225  78.492  -0.465  1.00  0.00     0.163 HD
ATOM     20  O   UNL     1       7.493  78.831  -2.223  1.00  0.00    -0.269 OA
BRANCH  18  21
ATOM     21  C   UNL     1       8.684  76.795  -1.996  1.00  0.00     0.039 A 
ATOM     22  C   UNL     1       9.898  76.338  -2.544  1.00  0.00     0.015 A 
ATOM     23  C   UNL     1       7.673  75.859  -1.710  1.00  0.00     0.015 A 
ATOM     24  C   UNL     1      10.085  74.978  -2.815  1.00  0.00     0.021 A 
ATOM     25  C   UNL     1       7.864  74.501  -1.983  1.00  0.00     0.021 A 
ATOM     26  C   UNL     1       9.068  74.061  -2.539  1.00  0.00     0.041 A 
ATOM     27  Cl  UNL     1       9.306  72.356  -2.880  1.00  0.00    -0.084 Cl
ENDBRANCH  18  21
ENDBRANCH  16  17
ENDBRANCH  15  16
ENDBRANCH   4  15
TORSDOF 8
ENDMDL
