MODEL 1
REMARK VINA RESULT:    -5.865      0.000      0.000
REMARK INTER + INTRA:          -6.810
REMARK INTER:                  -6.551
REMARK INTRA:                  -0.260
REMARK UNBOUND:                -0.260
REMARK SMILES CCC1(CC)C(=O)NC(=O)NC1=O
REMARK SMILES IDX 3 1 6 2 7 3 8 4 9 5 10 6 11 7 12 8 13 9 2 12 1 13 4 14 5 15
REMARK H PARENT 8 10 11 11
REMARK Flexibility Score: inf
ROOT
ATOM      1  C   UNL     1      22.664  38.429  -5.594  1.00  0.00     0.128 C 
ATOM      2  C   UNL     1      23.569  39.029  -6.665  1.00  0.00     0.243 C 
ATOM      3  O   UNL     1      23.659  40.283  -6.765  1.00  0.00    -0.273 OA
ATOM      4  N   UNL     1      24.323  38.213  -7.565  1.00  0.00    -0.277 N 
ATOM      5  C   UNL     1      24.266  36.792  -7.505  1.00  0.00     0.328 C 
ATOM      6  O   UNL     1      24.943  36.100  -8.311  1.00  0.00    -0.248 OA
ATOM      7  N   UNL     1      23.446  36.151  -6.534  1.00  0.00    -0.277 N 
ATOM      8  C   UNL     1      22.664  36.903  -5.603  1.00  0.00     0.243 C 
ATOM      9  O   UNL     1      21.955  36.281  -4.765  1.00  0.00    -0.273 OA
ATOM     10  H   UNL     1      24.931  38.669  -8.282  1.00  0.00     0.174 HD
ATOM     11  H   UNL     1      23.414  35.106  -6.502  1.00  0.00     0.174 HD
ENDROOT
BRANCH   1  12
ATOM     12  C   UNL     1      21.209  38.934  -5.824  1.00  0.00     0.023 C 
ATOM     13  C   UNL     1      20.544  39.509  -4.566  1.00  0.00     0.005 C 
ENDBRANCH   1  12
BRANCH   1  14
ATOM     14  C   UNL     1      23.140  38.925  -4.197  1.00  0.00     0.023 C 
ATOM     15  C   UNL     1      24.479  38.326  -3.748  1.00  0.00     0.005 C 
ENDBRANCH   1  14
TORSDOF 2
ENDMDL
MODEL 2
REMARK VINA RESULT:    -5.857      0.055      3.024
REMARK INTER + INTRA:          -6.801
REMARK INTER:                  -6.542
REMARK INTRA:                  -0.259
REMARK UNBOUND:                -0.260
REMARK SMILES CCC1(CC)C(=O)NC(=O)NC1=O
REMARK SMILES IDX 3 1 6 2 7 3 8 4 9 5 10 6 11 7 12 8 13 9 2 12 1 13 4 14 5 15
REMARK H PARENT 8 10 11 11
REMARK Flexibility Score: inf
ROOT
ATOM      1  C   UNL     1      22.640  38.433  -5.585  1.00  0.00     0.128 C 
ATOM      2  C   UNL     1      22.633  36.909  -5.597  1.00  0.00     0.243 C 
ATOM      3  O   UNL     1      21.938  36.288  -4.746  1.00  0.00    -0.273 OA
ATOM      4  N   UNL     1      23.390  36.153  -6.546  1.00  0.00    -0.277 N 
ATOM      5  C   UNL     1      24.194  36.791  -7.532  1.00  0.00     0.328 C 
ATOM      6  O   UNL     1      24.849  36.098  -8.355  1.00  0.00    -0.248 OA
ATOM      7  N   UNL     1      24.257  38.212  -7.591  1.00  0.00    -0.277 N 
ATOM      8  C   UNL     1      23.528  39.031  -6.674  1.00  0.00     0.243 C 
ATOM      9  O   UNL     1      23.623  40.285  -6.773  1.00  0.00    -0.273 OA
ATOM     10  H   UNL     1      23.352  35.109  -6.516  1.00  0.00     0.174 HD
ATOM     11  H   UNL     1      24.852  38.667  -8.321  1.00  0.00     0.174 HD
ENDROOT
BRANCH   1  12
ATOM     12  C   UNL     1      23.149  38.923  -4.197  1.00  0.00     0.023 C 
ATOM     13  C   UNL     1      24.499  38.324  -3.783  1.00  0.00     0.005 C 
ENDBRANCH   1  12
BRANCH   1  14
ATOM     14  C   UNL     1      21.184  38.947  -5.783  1.00  0.00     0.023 C 
ATOM     15  C   UNL     1      20.538  39.493  -4.504  1.00  0.00     0.005 C 
ENDBRANCH   1  14
TORSDOF 2
ENDMDL
MODEL 3
REMARK VINA RESULT:    -5.769      2.402      4.066
REMARK INTER + INTRA:          -6.704
REMARK INTER:                  -6.413
REMARK INTRA:                  -0.291
REMARK UNBOUND:                -0.260
REMARK SMILES CCC1(CC)C(=O)NC(=O)NC1=O
REMARK SMILES IDX 3 1 6 2 7 3 8 4 9 5 10 6 11 7 12 8 13 9 2 12 1 13 4 14 5 15
REMARK H PARENT 8 10 11 11
REMARK Flexibility Score: inf
ROOT
ATOM      1  C   UNL     1      23.264  37.793  -6.036  1.00  0.00     0.128 C 
ATOM      2  C   UNL     1      23.441  38.441  -4.668  1.00  0.00     0.243 C 
ATOM      3  O   UNL     1      24.582  38.441  -4.128  1.00  0.00    -0.273 OA
ATOM      4  N   UNL     1      22.353  39.056  -3.972  1.00  0.00    -0.277 N 
ATOM      5  C   UNL     1      21.043  39.091  -4.526  1.00  0.00     0.328 C 
ATOM      6  O   UNL     1      20.105  39.639  -3.888  1.00  0.00    -0.248 OA
ATOM      7  N   UNL     1      20.790  38.508  -5.800  1.00  0.00    -0.277 N 
ATOM      8  C   UNL     1      21.830  37.877  -6.551  1.00  0.00     0.243 C 
ATOM      9  O   UNL     1      21.547  37.376  -7.674  1.00  0.00    -0.273 OA
ATOM     10  H   UNL     1      22.524  39.488  -3.036  1.00  0.00     0.174 HD
ATOM     11  H   UNL     1      19.822  38.541  -6.193  1.00  0.00     0.174 HD
ENDROOT
BRANCH   1  12
ATOM     12  C   UNL     1      23.678  36.294  -5.940  1.00  0.00     0.023 C 
ATOM     13  C   UNL     1      24.854  35.915  -6.849  1.00  0.00     0.005 C 
ENDBRANCH   1  12
BRANCH   1  14
ATOM     14  C   UNL     1      24.207  38.498  -7.055  1.00  0.00     0.023 C 
ATOM     15  C   UNL     1      23.828  39.955  -7.347  1.00  0.00     0.005 C 
ENDBRANCH   1  14
TORSDOF 2
ENDMDL
MODEL 4
REMARK VINA RESULT:    -5.762      2.399      3.944
REMARK INTER + INTRA:          -6.695
REMARK INTER:                  -6.404
REMARK INTRA:                  -0.291
REMARK UNBOUND:                -0.260
REMARK SMILES CCC1(CC)C(=O)NC(=O)NC1=O
REMARK SMILES IDX 3 1 6 2 7 3 8 4 9 5 10 6 11 7 12 8 13 9 2 12 1 13 4 14 5 15
REMARK H PARENT 8 10 11 11
REMARK Flexibility Score: inf
ROOT
ATOM      1  C   UNL     1      23.272  37.780  -6.046  1.00  0.00     0.128 C 
ATOM      2  C   UNL     1      21.841  37.857  -6.565  1.00  0.00     0.243 C 
ATOM      3  O   UNL     1      21.561  37.339  -7.681  1.00  0.00    -0.273 OA
ATOM      4  N   UNL     1      20.798  38.498  -5.826  1.00  0.00    -0.277 N 
ATOM      5  C   UNL     1      21.047  39.101  -4.561  1.00  0.00     0.328 C 
ATOM      6  O   UNL     1      20.107  39.658  -3.934  1.00  0.00    -0.248 OA
ATOM      7  N   UNL     1      22.356  39.074  -4.003  1.00  0.00    -0.277 N 
ATOM      8  C   UNL     1      23.447  38.451  -4.686  1.00  0.00     0.243 C 
ATOM      9  O   UNL     1      24.585  38.459  -4.143  1.00  0.00    -0.273 OA
ATOM     10  H   UNL     1      19.832  38.525  -6.223  1.00  0.00     0.174 HD
ATOM     11  H   UNL     1      22.524  39.521  -3.073  1.00  0.00     0.174 HD
ENDROOT
BRANCH   1  12
ATOM     12  C   UNL     1      24.218  38.470  -7.073  1.00  0.00     0.023 C 
ATOM     13  C   UNL     1      23.841  39.924  -7.386  1.00  0.00     0.005 C 
ENDBRANCH   1  12
BRANCH   1  14
ATOM     14  C   UNL     1      23.686  36.284  -5.926  1.00  0.00     0.023 C 
ATOM     15  C   UNL     1      24.842  35.883  -6.851  1.00  0.00     0.005 C 
ENDBRANCH   1  14
TORSDOF 2
ENDMDL
MODEL 5
REMARK VINA RESULT:    -5.762      3.035      4.821
REMARK INTER + INTRA:          -6.695
REMARK INTER:                  -6.600
REMARK INTRA:                  -0.095
REMARK UNBOUND:                -0.260
REMARK SMILES CCC1(CC)C(=O)NC(=O)NC1=O
REMARK SMILES IDX 3 1 6 2 7 3 8 4 9 5 10 6 11 7 12 8 13 9 2 12 1 13 4 14 5 15
REMARK H PARENT 8 10 11 11
REMARK Flexibility Score: inf
ROOT
ATOM      1  C   UNL     1      25.729  35.481  -5.395  1.00  0.00     0.128 C 
ATOM      2  C   UNL     1      25.132  36.420  -6.438  1.00  0.00     0.243 C 
ATOM      3  O   UNL     1      25.396  36.234  -7.658  1.00  0.00    -0.273 OA
ATOM      4  N   UNL     1      24.278  37.509  -6.078  1.00  0.00    -0.277 N 
ATOM      5  C   UNL     1      23.941  37.772  -4.721  1.00  0.00     0.328 C 
ATOM      6  O   UNL     1      23.185  38.738  -4.436  1.00  0.00    -0.248 OA
ATOM      7  N   UNL     1      24.456  36.943  -3.684  1.00  0.00    -0.277 N 
ATOM      8  C   UNL     1      25.316  35.837  -3.970  1.00  0.00     0.243 C 
ATOM      9  O   UNL     1      25.743  35.138  -3.010  1.00  0.00    -0.273 OA
ATOM     10  H   UNL     1      23.892  38.125  -6.829  1.00  0.00     0.174 HD
ATOM     11  H   UNL     1      24.200  37.149  -2.692  1.00  0.00     0.174 HD
ENDROOT
BRANCH   1  12
ATOM     12  C   UNL     1      27.282  35.536  -5.498  1.00  0.00     0.023 C 
ATOM     13  C   UNL     1      27.916  36.690  -4.709  1.00  0.00     0.005 C 
ENDBRANCH   1  12
BRANCH   1  14
ATOM     14  C   UNL     1      25.269  34.026  -5.704  1.00  0.00     0.023 C 
ATOM     15  C   UNL     1      26.378  33.131  -6.272  1.00  0.00     0.005 C 
ENDBRANCH   1  14
TORSDOF 2
ENDMDL
MODEL 6
REMARK VINA RESULT:    -5.747      3.047      5.030
REMARK INTER + INTRA:          -6.679
REMARK INTER:                  -6.563
REMARK INTRA:                  -0.116
REMARK UNBOUND:                -0.260
REMARK SMILES CCC1(CC)C(=O)NC(=O)NC1=O
REMARK SMILES IDX 3 1 6 2 7 3 8 4 9 5 10 6 11 7 12 8 13 9 2 12 1 13 4 14 5 15
REMARK H PARENT 8 10 11 11
REMARK Flexibility Score: inf
ROOT
ATOM      1  C   UNL     1      25.731  35.474  -5.376  1.00  0.00     0.128 C 
ATOM      2  C   UNL     1      25.329  35.833  -3.950  1.00  0.00     0.243 C 
ATOM      3  O   UNL     1      25.759  35.133  -2.992  1.00  0.00    -0.273 OA
ATOM      4  N   UNL     1      24.477  36.944  -3.657  1.00  0.00    -0.277 N 
ATOM      5  C   UNL     1      23.958  37.774  -4.691  1.00  0.00     0.328 C 
ATOM      6  O   UNL     1      23.210  38.746  -4.402  1.00  0.00    -0.248 OA
ATOM      7  N   UNL     1      24.284  37.509  -6.051  1.00  0.00    -0.277 N 
ATOM      8  C   UNL     1      25.129  36.416  -6.416  1.00  0.00     0.243 C 
ATOM      9  O   UNL     1      25.384  36.228  -7.638  1.00  0.00    -0.273 OA
ATOM     10  H   UNL     1      24.230  37.152  -2.664  1.00  0.00     0.174 HD
ATOM     11  H   UNL     1      23.895  38.127  -6.799  1.00  0.00     0.174 HD
ENDROOT
BRANCH   1  12
ATOM     12  C   UNL     1      25.261  34.021  -5.681  1.00  0.00     0.023 C 
ATOM     13  C   UNL     1      26.359  33.123  -6.265  1.00  0.00     0.005 C 
ENDBRANCH   1  12
BRANCH   1  14
ATOM     14  C   UNL     1      27.283  35.522  -5.490  1.00  0.00     0.023 C 
ATOM     15  C   UNL     1      27.925  36.694  -4.736  1.00  0.00     0.005 C 
ENDBRANCH   1  14
TORSDOF 2
ENDMDL
MODEL 7
REMARK VINA RESULT:    -5.711      2.147      3.182
REMARK INTER + INTRA:          -6.638
REMARK INTER:                  -6.334
REMARK INTRA:                  -0.304
REMARK UNBOUND:                -0.260
REMARK SMILES CCC1(CC)C(=O)NC(=O)NC1=O
REMARK SMILES IDX 3 1 6 2 7 3 8 4 9 5 10 6 11 7 12 8 13 9 2 12 1 13 4 14 5 15
REMARK H PARENT 8 10 11 11
REMARK Flexibility Score: inf
ROOT
ATOM      1  C   UNL     1      23.566  38.055  -6.144  1.00  0.00     0.128 C 
ATOM      2  C   UNL     1      24.557  37.038  -6.700  1.00  0.00     0.243 C 
ATOM      3  O   UNL     1      24.540  36.772  -7.934  1.00  0.00    -0.273 OA
ATOM      4  N   UNL     1      25.511  36.373  -5.868  1.00  0.00    -0.277 N 
ATOM      5  C   UNL     1      25.582  36.629  -4.470  1.00  0.00     0.328 C 
ATOM      6  O   UNL     1      26.434  36.027  -3.763  1.00  0.00    -0.248 OA
ATOM      7  N   UNL     1      24.693  37.564  -3.869  1.00  0.00    -0.277 N 
ATOM      8  C   UNL     1      23.714  38.265  -4.639  1.00  0.00     0.243 C 
ATOM      9  O   UNL     1      22.953  39.082  -4.052  1.00  0.00    -0.273 OA
ATOM     10  H   UNL     1      26.170  35.684  -6.296  1.00  0.00     0.174 HD
ATOM     11  H   UNL     1      24.758  37.741  -2.840  1.00  0.00     0.174 HD
ENDROOT
BRANCH   1  12
ATOM     12  C   UNL     1      22.119  37.563  -6.443  1.00  0.00     0.023 C 
ATOM     13  C   UNL     1      21.770  36.221  -5.787  1.00  0.00     0.005 C 
ENDBRANCH   1  12
BRANCH   1  14
ATOM     14  C   UNL     1      23.781  39.417  -6.867  1.00  0.00     0.023 C 
ATOM     15  C   UNL     1      22.515  39.976  -7.528  1.00  0.00     0.005 C 
ENDBRANCH   1  14
TORSDOF 2
ENDMDL
MODEL 8
REMARK VINA RESULT:    -5.705      2.017      3.712
REMARK INTER + INTRA:          -6.631
REMARK INTER:                  -6.358
REMARK INTRA:                  -0.273
REMARK UNBOUND:                -0.260
REMARK SMILES CCC1(CC)C(=O)NC(=O)NC1=O
REMARK SMILES IDX 3 1 6 2 7 3 8 4 9 5 10 6 11 7 12 8 13 9 2 12 1 13 4 14 5 15
REMARK H PARENT 8 10 11 11
REMARK Flexibility Score: inf
ROOT
ATOM      1  C   UNL     1      23.121  38.230  -6.355  1.00  0.00     0.128 C 
ATOM      2  C   UNL     1      21.999  37.227  -6.599  1.00  0.00     0.243 C 
ATOM      3  O   UNL     1      21.836  36.274  -5.788  1.00  0.00    -0.273 OA
ATOM      4  N   UNL     1      21.118  37.330  -7.721  1.00  0.00    -0.277 N 
ATOM      5  C   UNL     1      21.248  38.381  -8.672  1.00  0.00     0.328 C 
ATOM      6  O   UNL     1      20.456  38.446  -9.650  1.00  0.00    -0.248 OA
ATOM      7  N   UNL     1      22.270  39.361  -8.519  1.00  0.00    -0.277 N 
ATOM      8  C   UNL     1      23.185  39.319  -7.423  1.00  0.00     0.243 C 
ATOM      9  O   UNL     1      24.071  40.213  -7.339  1.00  0.00    -0.273 OA
ATOM     10  H   UNL     1      20.363  36.619  -7.845  1.00  0.00     0.174 HD
ATOM     11  H   UNL     1      22.352  40.126  -9.226  1.00  0.00     0.174 HD
ENDROOT
BRANCH   1  12
ATOM     12  C   UNL     1      24.480  37.469  -6.330  1.00  0.00     0.023 C 
ATOM     13  C   UNL     1      24.728  36.599  -7.570  1.00  0.00     0.005 C 
ENDBRANCH   1  12
BRANCH   1  14
ATOM     14  C   UNL     1      22.908  38.898  -4.965  1.00  0.00     0.023 C 
ATOM     15  C   UNL     1      23.978  38.532  -3.929  1.00  0.00     0.005 C 
ENDBRANCH   1  14
TORSDOF 2
ENDMDL
MODEL 9
REMARK VINA RESULT:    -5.693      2.145      3.209
REMARK INTER + INTRA:          -6.618
REMARK INTER:                  -6.316
REMARK INTRA:                  -0.302
REMARK UNBOUND:                -0.260
REMARK SMILES CCC1(CC)C(=O)NC(=O)NC1=O
REMARK SMILES IDX 3 1 6 2 7 3 8 4 9 5 10 6 11 7 12 8 13 9 2 12 1 13 4 14 5 15
REMARK H PARENT 8 10 11 11
REMARK Flexibility Score: inf
ROOT
ATOM      1  C   UNL     1      23.547  38.005  -6.138  1.00  0.00     0.128 C 
ATOM      2  C   UNL     1      23.713  38.237  -4.640  1.00  0.00     0.243 C 
ATOM      3  O   UNL     1      22.959  39.062  -4.056  1.00  0.00    -0.273 OA
ATOM      4  N   UNL     1      24.700  37.546  -3.869  1.00  0.00    -0.277 N 
ATOM      5  C   UNL     1      25.582  36.602  -4.467  1.00  0.00     0.328 C 
ATOM      6  O   UNL     1      26.441  36.008  -3.762  1.00  0.00    -0.248 OA
ATOM      7  N   UNL     1      25.494  36.326  -5.861  1.00  0.00    -0.277 N 
ATOM      8  C   UNL     1      24.532  36.980  -6.692  1.00  0.00     0.243 C 
ATOM      9  O   UNL     1      24.501  36.696  -7.921  1.00  0.00    -0.273 OA
ATOM     10  H   UNL     1      24.775  37.737  -2.845  1.00  0.00     0.174 HD
ATOM     11  H   UNL     1      26.149  35.630  -6.286  1.00  0.00     0.174 HD
ENDROOT
BRANCH   1  12
ATOM     12  C   UNL     1      23.755  39.357  -6.882  1.00  0.00     0.023 C 
ATOM     13  C   UNL     1      22.473  39.927  -7.504  1.00  0.00     0.005 C 
ENDBRANCH   1  12
BRANCH   1  14
ATOM     14  C   UNL     1      22.097  37.511  -6.414  1.00  0.00     0.023 C 
ATOM     15  C   UNL     1      21.759  36.172  -5.746  1.00  0.00     0.005 C 
ENDBRANCH   1  14
TORSDOF 2
ENDMDL
MODEL 10
REMARK VINA RESULT:    -5.691      2.000      2.851
REMARK INTER + INTRA:          -6.616
REMARK INTER:                  -6.335
REMARK INTRA:                  -0.281
REMARK UNBOUND:                -0.260
REMARK SMILES CCC1(CC)C(=O)NC(=O)NC1=O
REMARK SMILES IDX 3 1 6 2 7 3 8 4 9 5 10 6 11 7 12 8 13 9 2 12 1 13 4 14 5 15
REMARK H PARENT 8 10 11 11
REMARK Flexibility Score: inf
ROOT
ATOM      1  C   UNL     1      23.159  38.216  -6.364  1.00  0.00     0.128 C 
ATOM      2  C   UNL     1      23.233  39.322  -7.412  1.00  0.00     0.243 C 
ATOM      3  O   UNL     1      24.143  40.192  -7.328  1.00  0.00    -0.273 OA
ATOM      4  N   UNL     1      22.301  39.407  -8.493  1.00  0.00    -0.277 N 
ATOM      5  C   UNL     1      21.251  38.458  -8.646  1.00  0.00     0.328 C 
ATOM      6  O   UNL     1      20.447  38.559  -9.609  1.00  0.00    -0.248 OA
ATOM      7  N   UNL     1      21.110  37.393  -7.711  1.00  0.00    -0.277 N 
ATOM      8  C   UNL     1      22.005  37.247  -6.606  1.00  0.00     0.243 C 
ATOM      9  O   UNL     1      21.831  36.284  -5.809  1.00  0.00    -0.273 OA
ATOM     10  H   UNL     1      22.393  40.183  -9.187  1.00  0.00     0.174 HD
ATOM     11  H   UNL     1      20.334  36.704  -7.836  1.00  0.00     0.174 HD
ENDROOT
BRANCH   1  12
ATOM     12  C   UNL     1      22.985  38.865  -4.959  1.00  0.00     0.023 C 
ATOM     13  C   UNL     1      24.068  38.462  -3.950  1.00  0.00     0.005 C 
ENDBRANCH   1  12
BRANCH   1  14
ATOM     14  C   UNL     1      24.497  37.420  -6.375  1.00  0.00     0.023 C 
ATOM     15  C   UNL     1      24.713  36.587  -7.644  1.00  0.00     0.005 C 
ENDBRANCH   1  14
TORSDOF 2
ENDMDL
MODEL 11
REMARK VINA RESULT:    -5.617      1.983      4.175
REMARK INTER + INTRA:          -6.533
REMARK INTER:                  -6.244
REMARK INTRA:                  -0.289
REMARK UNBOUND:                -0.260
REMARK SMILES CCC1(CC)C(=O)NC(=O)NC1=O
REMARK SMILES IDX 3 1 6 2 7 3 8 4 9 5 10 6 11 7 12 8 13 9 2 12 1 13 4 14 5 15
REMARK H PARENT 8 10 11 11
REMARK Flexibility Score: inf
ROOT
ATOM      1  C   UNL     1      23.166  38.088  -6.376  1.00  0.00     0.128 C 
ATOM      2  C   UNL     1      21.855  37.592  -5.774  1.00  0.00     0.243 C 
ATOM      3  O   UNL     1      21.756  36.386  -5.419  1.00  0.00    -0.273 OA
ATOM      4  N   UNL     1      20.728  38.454  -5.596  1.00  0.00    -0.277 N 
ATOM      5  C   UNL     1      20.774  39.825  -5.975  1.00  0.00     0.328 C 
ATOM      6  O   UNL     1      19.765  40.559  -5.806  1.00  0.00    -0.248 OA
ATOM      7  N   UNL     1      21.960  40.369  -6.544  1.00  0.00    -0.277 N 
ATOM      8  C   UNL     1      23.125  39.567  -6.752  1.00  0.00     0.243 C 
ATOM      9  O   UNL     1      24.147  40.103  -7.261  1.00  0.00    -0.273 OA
ATOM     10  H   UNL     1      19.851  38.069  -5.179  1.00  0.00     0.174 HD
ATOM     11  H   UNL     1      21.979  41.378  -6.818  1.00  0.00     0.174 HD
ENDROOT
BRANCH   1  12
ATOM     12  C   UNL     1      23.482  37.252  -7.651  1.00  0.00     0.023 C 
ATOM     13  C   UNL     1      24.671  36.295  -7.489  1.00  0.00     0.005 C 
ENDBRANCH   1  12
BRANCH   1  14
ATOM     14  C   UNL     1      24.311  37.862  -5.345  1.00  0.00     0.023 C 
ATOM     15  C   UNL     1      24.070  38.538  -3.990  1.00  0.00     0.005 C 
ENDBRANCH   1  14
TORSDOF 2
ENDMDL
MODEL 12
REMARK VINA RESULT:    -5.610      1.979      3.536
REMARK INTER + INTRA:          -6.526
REMARK INTER:                  -6.240
REMARK INTRA:                  -0.285
REMARK UNBOUND:                -0.260
REMARK SMILES CCC1(CC)C(=O)NC(=O)NC1=O
REMARK SMILES IDX 3 1 6 2 7 3 8 4 9 5 10 6 11 7 12 8 13 9 2 12 1 13 4 14 5 15
REMARK H PARENT 8 10 11 11
REMARK Flexibility Score: inf
ROOT
ATOM      1  C   UNL     1      23.185  38.091  -6.383  1.00  0.00     0.128 C 
ATOM      2  C   UNL     1      23.123  39.570  -6.751  1.00  0.00     0.243 C 
ATOM      3  O   UNL     1      24.137  40.122  -7.261  1.00  0.00    -0.273 OA
ATOM      4  N   UNL     1      21.948  40.356  -6.539  1.00  0.00    -0.277 N 
ATOM      5  C   UNL     1      20.771  39.794  -5.969  1.00  0.00     0.328 C 
ATOM      6  O   UNL     1      19.751  40.513  -5.795  1.00  0.00    -0.248 OA
ATOM      7  N   UNL     1      20.744  38.421  -5.597  1.00  0.00    -0.277 N 
ATOM      8  C   UNL     1      21.882  37.575  -5.780  1.00  0.00     0.243 C 
ATOM      9  O   UNL     1      21.800  36.366  -5.430  1.00  0.00    -0.273 OA
ATOM     10  H   UNL     1      21.953  41.366  -6.809  1.00  0.00     0.174 HD
ATOM     11  H   UNL     1      19.872  38.022  -5.179  1.00  0.00     0.174 HD
ENDROOT
BRANCH   1  12
ATOM     12  C   UNL     1      24.336  37.876  -5.356  1.00  0.00     0.023 C 
ATOM     13  C   UNL     1      24.076  38.521  -3.988  1.00  0.00     0.005 C 
ENDBRANCH   1  12
BRANCH   1  14
ATOM     14  C   UNL     1      23.510  37.266  -7.663  1.00  0.00     0.023 C 
ATOM     15  C   UNL     1      24.723  36.339  -7.513  1.00  0.00     0.005 C 
ENDBRANCH   1  14
TORSDOF 2
ENDMDL
MODEL 13
REMARK VINA RESULT:    -5.457      1.812      2.358
REMARK INTER + INTRA:          -6.355
REMARK INTER:                  -6.104
REMARK INTRA:                  -0.251
REMARK UNBOUND:                -0.260
REMARK SMILES CCC1(CC)C(=O)NC(=O)NC1=O
REMARK SMILES IDX 3 1 6 2 7 3 8 4 9 5 10 6 11 7 12 8 13 9 2 12 1 13 4 14 5 15
REMARK H PARENT 8 10 11 11
REMARK Flexibility Score: inf
ROOT
ATOM      1  C   UNL     1      22.789  38.070  -5.754  1.00  0.00     0.128 C 
ATOM      2  C   UNL     1      22.657  37.114  -6.934  1.00  0.00     0.243 C 
ATOM      3  O   UNL     1      21.671  37.227  -7.713  1.00  0.00    -0.273 OA
ATOM      4  N   UNL     1      23.619  36.087  -7.192  1.00  0.00    -0.277 N 
ATOM      5  C   UNL     1      24.754  35.907  -6.352  1.00  0.00     0.328 C 
ATOM      6  O   UNL     1      25.585  34.994  -6.605  1.00  0.00    -0.248 OA
ATOM      7  N   UNL     1      24.954  36.757  -5.227  1.00  0.00    -0.277 N 
ATOM      8  C   UNL     1      24.032  37.802  -4.910  1.00  0.00     0.243 C 
ATOM      9  O   UNL     1      24.260  38.524  -3.900  1.00  0.00    -0.273 OA
ATOM     10  H   UNL     1      23.486  35.457  -8.014  1.00  0.00     0.174 HD
ATOM     11  H   UNL     1      25.792  36.611  -4.620  1.00  0.00     0.174 HD
ENDROOT
BRANCH   1  12
ATOM     12  C   UNL     1      21.528  37.931  -4.850  1.00  0.00     0.023 C 
ATOM     13  C   UNL     1      20.819  39.261  -4.563  1.00  0.00     0.005 C 
ENDBRANCH   1  12
BRANCH   1  14
ATOM     14  C   UNL     1      22.849  39.530  -6.291  1.00  0.00     0.023 C 
ATOM     15  C   UNL     1      23.892  39.743  -7.395  1.00  0.00     0.005 C 
ENDBRANCH   1  14
TORSDOF 2
ENDMDL
MODEL 14
REMARK VINA RESULT:    -5.456      1.799      2.549
REMARK INTER + INTRA:          -6.354
REMARK INTER:                  -6.096
REMARK INTRA:                  -0.258
REMARK UNBOUND:                -0.260
REMARK SMILES CCC1(CC)C(=O)NC(=O)NC1=O
REMARK SMILES IDX 3 1 6 2 7 3 8 4 9 5 10 6 11 7 12 8 13 9 2 12 1 13 4 14 5 15
REMARK H PARENT 8 10 11 11
REMARK Flexibility Score: inf
ROOT
ATOM      1  C   UNL     1      22.805  38.101  -5.797  1.00  0.00     0.128 C 
ATOM      2  C   UNL     1      24.047  37.852  -4.949  1.00  0.00     0.243 C 
ATOM      3  O   UNL     1      24.253  38.569  -3.931  1.00  0.00    -0.273 OA
ATOM      4  N   UNL     1      24.992  36.828  -5.269  1.00  0.00    -0.277 N 
ATOM      5  C   UNL     1      24.818  35.985  -6.403  1.00  0.00     0.328 C 
ATOM      6  O   UNL     1      25.667  35.090  -6.658  1.00  0.00    -0.248 OA
ATOM      7  N   UNL     1      23.684  36.150  -7.248  1.00  0.00    -0.277 N 
ATOM      8  C   UNL     1      22.700  37.154  -6.989  1.00  0.00     0.243 C 
ATOM      9  O   UNL     1      21.717  37.254  -7.773  1.00  0.00    -0.273 OA
ATOM     10  H   UNL     1      25.828  36.694  -4.657  1.00  0.00     0.174 HD
ATOM     11  H   UNL     1      23.571  35.524  -8.077  1.00  0.00     0.174 HD
ENDROOT
BRANCH   1  12
ATOM     12  C   UNL     1      22.838  39.568  -6.321  1.00  0.00     0.023 C 
ATOM     13  C   UNL     1      23.901  39.818  -7.399  1.00  0.00     0.005 C 
ENDBRANCH   1  12
BRANCH   1  14
ATOM     14  C   UNL     1      21.541  37.929  -4.904  1.00  0.00     0.023 C 
ATOM     15  C   UNL     1      20.816  39.244  -4.593  1.00  0.00     0.005 C 
ENDBRANCH   1  14
TORSDOF 2
ENDMDL
MODEL 15
REMARK VINA RESULT:    -5.260      2.348      3.200
REMARK INTER + INTRA:          -6.135
REMARK INTER:                  -5.916
REMARK INTRA:                  -0.219
REMARK UNBOUND:                -0.260
REMARK SMILES CCC1(CC)C(=O)NC(=O)NC1=O
REMARK SMILES IDX 3 1 6 2 7 3 8 4 9 5 10 6 11 7 12 8 13 9 2 12 1 13 4 14 5 15
REMARK H PARENT 8 10 11 11
REMARK Flexibility Score: inf
ROOT
ATOM      1  C   UNL     1      23.824  37.169  -6.750  1.00  0.00     0.128 C 
ATOM      2  C   UNL     1      24.178  36.078  -7.755  1.00  0.00     0.243 C 
ATOM      3  O   UNL     1      23.616  36.073  -8.885  1.00  0.00    -0.273 OA
ATOM      4  N   UNL     1      25.133  35.055  -7.460  1.00  0.00    -0.277 N 
ATOM      5  C   UNL     1      25.803  35.004  -6.205  1.00  0.00     0.328 C 
ATOM      6  O   UNL     1      26.640  34.091  -5.975  1.00  0.00    -0.248 OA
ATOM      7  N   UNL     1      25.531  35.985  -5.210  1.00  0.00    -0.277 N 
ATOM      8  C   UNL     1      24.588  37.035  -5.436  1.00  0.00     0.243 C 
ATOM      9  O   UNL     1      24.386  37.876  -4.517  1.00  0.00    -0.273 OA
ATOM     10  H   UNL     1      25.344  34.329  -8.182  1.00  0.00     0.174 HD
ATOM     11  H   UNL     1      26.030  35.934  -4.293  1.00  0.00     0.174 HD
ENDROOT
BRANCH   1  12
ATOM     12  C   UNL     1      22.296  37.102  -6.454  1.00  0.00     0.023 C 
ATOM     13  C   UNL     1      21.886  35.918  -5.568  1.00  0.00     0.005 C 
ENDBRANCH   1  12
BRANCH   1  14
ATOM     14  C   UNL     1      24.141  38.557  -7.380  1.00  0.00     0.023 C 
ATOM     15  C   UNL     1      23.014  39.584  -7.219  1.00  0.00     0.005 C 
ENDBRANCH   1  14
TORSDOF 2
ENDMDL
