MODEL 1
REMARK VINA RESULT:    -5.526      0.000      0.000
REMARK INTER + INTRA:         -10.409
REMARK INTER:                  -9.241
REMARK INTRA:                  -1.167
REMARK UNBOUND:                -1.167
REMARK SMILES CC(C)=CCC[C@]1(C)[C@@H](CC=C(C)C)C[C@]2(CC=C(C)C)C(=O)C(CC=C(C)C)=C(O)[C@@]1(C(=O)C(C)C)C2=O
REMARK SMILES IDX 32 1 30 2 24 3 22 4 23 5 16 6 15 7 9 8 7 9 8 10 38 11 39 12
REMARK SMILES IDX 33 13 34 14 35 15 36 16 37 17 31 18 6 20 5 21 4 22 2 23 1 24
REMARK SMILES IDX 3 25 25 26 26 27 27 28 28 29 29 30 10 31 11 32 12 33 13 34
REMARK SMILES IDX 14 35 17 36 18 37 19 38 20 39 21 40
REMARK H PARENT 31 19
REMARK Flexibility Score: inf
ROOT
ATOM      1  C   UNL     1      10.648  78.263  -1.951  1.00  0.00     0.151 C 
ATOM      2  C   UNL     1      11.804  78.348  -2.997  1.00  0.00     0.121 C 
ATOM      3  C   UNL     1      12.184  77.242  -3.720  1.00  0.00     0.039 C 
ATOM      4  C   UNL     1      11.555  75.916  -3.429  1.00  0.00     0.176 C 
ATOM      5  O   UNL     1      12.158  74.865  -3.781  1.00  0.00    -0.293 OA
ATOM      6  C   UNL     1      10.259  75.809  -2.642  1.00  0.00     0.097 C 
ATOM      7  C   UNL     1      10.553  75.302  -1.190  1.00  0.00     0.028 C 
ATOM      8  C   UNL     1      10.423  76.385  -0.076  1.00  0.00     0.002 C 
ATOM      9  C   UNL     1      11.167  77.729  -0.489  1.00  0.00    -0.002 C 
ATOM     10  C   UNL     1      10.943  78.788   0.637  1.00  0.00     0.014 C 
ATOM     11  C   UNL     1       9.720  77.217  -2.578  1.00  0.00     0.168 C 
ATOM     12  O   UNL     1       8.701  77.530  -3.184  1.00  0.00    -0.297 OA
ENDROOT
BRANCH   1  13
ATOM     13  C   UNL     1       9.844  79.601  -1.829  1.00  0.00     0.157 C 
ATOM     14  O   UNL     1      10.467  80.656  -1.843  1.00  0.00    -0.298 OA
BRANCH  13  15
ATOM     15  C   UNL     1       8.321  79.712  -1.814  1.00  0.00     0.051 C 
ATOM     16  C   UNL     1       7.825  80.938  -2.601  1.00  0.00     0.015 C 
ATOM     17  C   UNL     1       7.820  79.803  -0.366  1.00  0.00     0.015 C 
ENDBRANCH  13  15
ENDBRANCH   1  13
BRANCH   2  18
ATOM     18  O   UNL     1      12.512  79.547  -3.099  1.00  0.00    -0.510 OA
ATOM     19  H   UNL     1      12.135  80.482  -3.027  1.00  0.00     0.293 HD
ENDBRANCH   2  18
BRANCH   9  20
ATOM     20  C   UNL     1      12.731  77.461  -0.509  1.00  0.00     0.013 C 
BRANCH  20  21
ATOM     21  C   UNL     1      13.484  77.448   0.843  1.00  0.00     0.028 C 
BRANCH  21  22
ATOM     22  C   UNL     1      14.530  76.360   0.859  1.00  0.00    -0.028 C 
ATOM     23  C   UNL     1      14.696  75.474   1.865  1.00  0.00    -0.080 C 
ATOM     24  C   UNL     1      13.793  75.456   3.077  1.00  0.00     0.039 C 
ATOM     25  C   UNL     1      15.807  74.461   1.752  1.00  0.00     0.039 C 
ENDBRANCH  21  22
ENDBRANCH  20  21
ENDBRANCH   9  20
BRANCH   3  26
ATOM     26  C   UNL     1      13.254  77.259  -4.802  1.00  0.00     0.070 C 
BRANCH  26  27
ATOM     27  C   UNL     1      13.873  78.631  -4.923  1.00  0.00    -0.023 C 
ATOM     28  C   UNL     1      14.880  78.938  -5.772  1.00  0.00    -0.080 C 
ATOM     29  C   UNL     1      15.403  80.350  -5.794  1.00  0.00     0.039 C 
ATOM     30  C   UNL     1      15.479  77.907  -6.700  1.00  0.00     0.039 C 
ENDBRANCH  26  27
ENDBRANCH   3  26
BRANCH   8  31
ATOM     31  C   UNL     1       8.930  76.565   0.358  1.00  0.00     0.031 C 
BRANCH  31  32
ATOM     32  C   UNL     1       8.017  75.539  -0.275  1.00  0.00    -0.028 C 
ATOM     33  C   UNL     1       6.672  75.512  -0.128  1.00  0.00    -0.080 C 
ATOM     34  C   UNL     1       5.925  76.558   0.667  1.00  0.00     0.039 C 
ATOM     35  C   UNL     1       5.902  74.408  -0.806  1.00  0.00     0.039 C 
ENDBRANCH  31  32
ENDBRANCH   8  31
BRANCH   6  36
ATOM     36  C   UNL     1       9.240  74.875  -3.376  1.00  0.00     0.050 C 
BRANCH  36  37
ATOM     37  C   UNL     1       9.366  73.408  -3.008  1.00  0.00    -0.027 C 
ATOM     38  C   UNL     1       9.628  72.413  -3.887  1.00  0.00    -0.080 C 
ATOM     39  C   UNL     1       9.802  72.664  -5.365  1.00  0.00     0.039 C 
ATOM     40  C   UNL     1       9.761  70.994  -3.394  1.00  0.00     0.039 C 
ENDBRANCH  36  37
ENDBRANCH   6  36
TORSDOF 12
ENDMDL
MODEL 2
REMARK VINA RESULT:    -5.176      0.989      1.713
REMARK INTER + INTRA:          -9.824
REMARK INTER:                  -9.256
REMARK INTRA:                  -0.568
REMARK UNBOUND:                -1.167
REMARK SMILES CC(C)=CCC[C@]1(C)[C@@H](CC=C(C)C)C[C@]2(CC=C(C)C)C(=O)C(CC=C(C)C)=C(O)[C@@]1(C(=O)C(C)C)C2=O
REMARK SMILES IDX 32 1 30 2 24 3 22 4 23 5 16 6 15 7 9 8 7 9 8 10 38 11 39 12
REMARK SMILES IDX 33 13 34 14 35 15 36 16 37 17 31 18 6 20 5 21 4 22 2 23 1 24
REMARK SMILES IDX 3 25 25 26 26 27 27 28 28 29 29 30 10 31 11 32 12 33 13 34
REMARK SMILES IDX 14 35 17 36 18 37 19 38 20 39 21 40
REMARK H PARENT 31 19
REMARK Flexibility Score: inf
ROOT
ATOM      1  C   UNL     1      10.628  78.013  -1.935  1.00  0.00     0.151 C 
ATOM      2  C   UNL     1      11.769  78.144  -2.992  1.00  0.00     0.121 C 
ATOM      3  C   UNL     1      12.138  77.070  -3.769  1.00  0.00     0.039 C 
ATOM      4  C   UNL     1      11.512  75.733  -3.527  1.00  0.00     0.176 C 
ATOM      5  O   UNL     1      12.108  74.698  -3.934  1.00  0.00    -0.293 OA
ATOM      6  C   UNL     1      10.227  75.591  -2.728  1.00  0.00     0.097 C 
ATOM      7  C   UNL     1      10.542  75.021  -1.303  1.00  0.00     0.028 C 
ATOM      8  C   UNL     1      10.428  76.054  -0.141  1.00  0.00     0.002 C 
ATOM      9  C   UNL     1      11.168  77.415  -0.506  1.00  0.00    -0.002 C 
ATOM     10  C   UNL     1      10.961  78.424   0.669  1.00  0.00     0.014 C 
ATOM     11  C   UNL     1       9.690  76.996  -2.593  1.00  0.00     0.168 C 
ATOM     12  O   UNL     1       8.663  77.335  -3.171  1.00  0.00    -0.297 OA
ENDROOT
BRANCH   1  13
ATOM     13  C   UNL     1       9.827  79.345  -1.743  1.00  0.00     0.157 C 
ATOM     14  O   UNL     1      10.443  80.403  -1.781  1.00  0.00    -0.298 OA
BRANCH  13  15
ATOM     15  C   UNL     1       8.308  79.446  -1.630  1.00  0.00     0.051 C 
ATOM     16  C   UNL     1       7.753  80.656  -2.403  1.00  0.00     0.015 C 
ATOM     17  C   UNL     1       7.903  79.560  -0.154  1.00  0.00     0.015 C 
ENDBRANCH  13  15
ENDBRANCH   1  13
BRANCH   2  18
ATOM     18  O   UNL     1      12.476  79.346  -3.052  1.00  0.00    -0.510 OA
ATOM     19  H   UNL     1      12.456  80.024  -3.800  1.00  0.00     0.293 HD
ENDBRANCH   2  18
BRANCH   9  20
ATOM     20  C   UNL     1      12.731  77.147  -0.560  1.00  0.00     0.013 C 
BRANCH  20  21
ATOM     21  C   UNL     1      13.576  77.521   0.681  1.00  0.00     0.028 C 
BRANCH  21  22
ATOM     22  C   UNL     1      13.803  79.012   0.740  1.00  0.00    -0.028 C 
ATOM     23  C   UNL     1      14.614  79.696  -0.097  1.00  0.00    -0.080 C 
ATOM     24  C   UNL     1      15.348  79.021  -1.234  1.00  0.00     0.039 C 
ATOM     25  C   UNL     1      14.764  81.182   0.105  1.00  0.00     0.039 C 
ENDBRANCH  21  22
ENDBRANCH  20  21
ENDBRANCH   9  20
BRANCH   3  26
ATOM     26  C   UNL     1      13.192  77.134  -4.865  1.00  0.00     0.070 C 
BRANCH  26  27
ATOM     27  C   UNL     1      13.878  78.479  -4.871  1.00  0.00    -0.023 C 
ATOM     28  C   UNL     1      14.883  78.816  -5.711  1.00  0.00    -0.080 C 
ATOM     29  C   UNL     1      15.477  80.196  -5.613  1.00  0.00     0.039 C 
ATOM     30  C   UNL     1      15.411  77.850  -6.746  1.00  0.00     0.039 C 
ENDBRANCH  26  27
ENDBRANCH   3  26
BRANCH   8  31
ATOM     31  C   UNL     1       8.942  76.216   0.322  1.00  0.00     0.031 C 
BRANCH  31  32
ATOM     32  C   UNL     1       7.995  75.333  -0.460  1.00  0.00    -0.028 C 
ATOM     33  C   UNL     1       6.646  75.378  -0.364  1.00  0.00    -0.080 C 
ATOM     34  C   UNL     1       5.932  76.372   0.524  1.00  0.00     0.039 C 
ATOM     35  C   UNL     1       5.838  74.414  -1.195  1.00  0.00     0.039 C 
ENDBRANCH  31  32
ENDBRANCH   8  31
BRANCH   6  36
ATOM     36  C   UNL     1       9.196  74.691  -3.487  1.00  0.00     0.050 C 
BRANCH  36  37
ATOM     37  C   UNL     1       9.313  73.212  -3.170  1.00  0.00    -0.027 C 
ATOM     38  C   UNL     1       9.565  72.245  -4.083  1.00  0.00    -0.080 C 
ATOM     39  C   UNL     1       9.738  72.545  -5.552  1.00  0.00     0.039 C 
ATOM     40  C   UNL     1       9.690  70.809  -3.640  1.00  0.00     0.039 C 
ENDBRANCH  36  37
ENDBRANCH   6  36
TORSDOF 12
ENDMDL
MODEL 3
REMARK VINA RESULT:    -5.046      1.833      6.889
REMARK INTER + INTRA:          -9.605
REMARK INTER:                  -8.123
REMARK INTRA:                  -1.482
REMARK UNBOUND:                -1.167
REMARK SMILES CC(C)=CCC[C@]1(C)[C@@H](CC=C(C)C)C[C@]2(CC=C(C)C)C(=O)C(CC=C(C)C)=C(O)[C@@]1(C(=O)C(C)C)C2=O
REMARK SMILES IDX 32 1 30 2 24 3 22 4 23 5 16 6 15 7 9 8 7 9 8 10 38 11 39 12
REMARK SMILES IDX 33 13 34 14 35 15 36 16 37 17 31 18 6 20 5 21 4 22 2 23 1 24
REMARK SMILES IDX 3 25 25 26 26 27 27 28 28 29 29 30 10 31 11 32 12 33 13 34
REMARK SMILES IDX 14 35 17 36 18 37 19 38 20 39 21 40
REMARK H PARENT 31 19
REMARK Flexibility Score: inf
ROOT
ATOM      1  C   UNL     1      10.848  79.160  -0.912  1.00  0.00     0.151 C 
ATOM      2  C   UNL     1       9.637  78.229  -0.588  1.00  0.00     0.121 C 
ATOM      3  C   UNL     1       9.834  76.972  -0.064  1.00  0.00     0.039 C 
ATOM      4  C   UNL     1      11.226  76.449   0.101  1.00  0.00     0.176 C 
ATOM      5  O   UNL     1      11.403  75.203   0.189  1.00  0.00    -0.293 OA
ATOM      6  C   UNL     1      12.430  77.377   0.072  1.00  0.00     0.097 C 
ATOM      7  C   UNL     1      13.189  77.228  -1.290  1.00  0.00     0.028 C 
ATOM      8  C   UNL     1      13.016  78.425  -2.273  1.00  0.00     0.002 C 
ATOM      9  C   UNL     1      11.489  78.857  -2.391  1.00  0.00    -0.002 C 
ATOM     10  C   UNL     1      11.395  80.097  -3.337  1.00  0.00     0.014 C 
ATOM     11  C   UNL     1      11.857  78.770   0.173  1.00  0.00     0.168 C 
ATOM     12  O   UNL     1      12.030  79.450   1.178  1.00  0.00    -0.297 OA
ENDROOT
BRANCH   1  13
ATOM     13  C   UNL     1      10.510  80.677  -0.723  1.00  0.00     0.157 C 
ATOM     14  O   UNL     1       9.437  81.090  -1.147  1.00  0.00    -0.298 OA
BRANCH  13  15
ATOM     15  C   UNL     1      11.360  81.675   0.058  1.00  0.00     0.051 C 
ATOM     16  C   UNL     1      10.531  82.446   1.101  1.00  0.00     0.015 C 
ATOM     17  C   UNL     1      12.011  82.674  -0.910  1.00  0.00     0.015 C 
ENDBRANCH  13  15
ENDBRANCH   1  13
BRANCH   2  18
ATOM     18  O   UNL     1       8.359  78.662  -0.944  1.00  0.00    -0.510 OA
ATOM     19  H   UNL     1       7.657  79.048  -0.330  1.00  0.00     0.293 HD
ENDBRANCH   2  18
BRANCH   9  20
ATOM     20  C   UNL     1      10.688  77.703  -3.129  1.00  0.00     0.013 C 
BRANCH  20  21
ATOM     21  C   UNL     1      11.387  76.335  -3.312  1.00  0.00     0.028 C 
BRANCH  21  22
ATOM     22  C   UNL     1      10.415  75.205  -3.069  1.00  0.00    -0.028 C 
ATOM     23  C   UNL     1      10.510  73.982  -3.634  1.00  0.00    -0.080 C 
ATOM     24  C   UNL     1      11.655  73.602  -4.544  1.00  0.00     0.039 C 
ATOM     25  C   UNL     1       9.443  72.963  -3.320  1.00  0.00     0.039 C 
ENDBRANCH  21  22
ENDBRANCH  20  21
ENDBRANCH   9  20
BRANCH   3  26
ATOM     26  C   UNL     1       8.708  76.032   0.340  1.00  0.00     0.070 C 
BRANCH  26  27
ATOM     27  C   UNL     1       8.012  75.474  -0.879  1.00  0.00    -0.023 C 
ATOM     28  C   UNL     1       6.712  75.103  -0.909  1.00  0.00    -0.080 C 
ATOM     29  C   UNL     1       6.142  74.565  -2.195  1.00  0.00     0.039 C 
ATOM     30  C   UNL     1       5.823  75.225   0.306  1.00  0.00     0.039 C 
ENDBRANCH  26  27
ENDBRANCH   3  26
BRANCH   8  31
ATOM     31  C   UNL     1      14.004  79.587  -1.922  1.00  0.00     0.031 C 
BRANCH  31  32
ATOM     32  C   UNL     1      15.211  79.612  -2.833  1.00  0.00    -0.028 C 
ATOM     33  C   UNL     1      15.227  80.152  -4.073  1.00  0.00    -0.080 C 
ATOM     34  C   UNL     1      14.021  80.841  -4.670  1.00  0.00     0.039 C 
ATOM     35  C   UNL     1      16.506  80.078  -4.868  1.00  0.00     0.039 C 
ENDBRANCH  31  32
ENDBRANCH   8  31
BRANCH   6  36
ATOM     36  C   UNL     1      13.377  77.095   1.286  1.00  0.00     0.050 C 
BRANCH  36  37
ATOM     37  C   UNL     1      14.473  76.085   0.997  1.00  0.00    -0.027 C 
ATOM     38  C   UNL     1      14.942  75.181   1.888  1.00  0.00    -0.080 C 
ATOM     39  C   UNL     1      14.427  75.097   3.304  1.00  0.00     0.039 C 
ATOM     40  C   UNL     1      16.015  74.206   1.471  1.00  0.00     0.039 C 
ENDBRANCH  36  37
ENDBRANCH   6  36
TORSDOF 12
ENDMDL
MODEL 4
REMARK VINA RESULT:    -5.000      1.805      5.631
REMARK INTER + INTRA:          -9.529
REMARK INTER:                 -10.866
REMARK INTRA:                   1.337
REMARK UNBOUND:                -1.167
REMARK SMILES CC(C)=CCC[C@]1(C)[C@@H](CC=C(C)C)C[C@]2(CC=C(C)C)C(=O)C(CC=C(C)C)=C(O)[C@@]1(C(=O)C(C)C)C2=O
REMARK SMILES IDX 32 1 30 2 24 3 22 4 23 5 16 6 15 7 9 8 7 9 8 10 38 11 39 12
REMARK SMILES IDX 33 13 34 14 35 15 36 16 37 17 31 18 6 20 5 21 4 22 2 23 1 24
REMARK SMILES IDX 3 25 25 26 26 27 27 28 28 29 29 30 10 31 11 32 12 33 13 34
REMARK SMILES IDX 14 35 17 36 18 37 19 38 20 39 21 40
REMARK H PARENT 31 19
REMARK Flexibility Score: inf
ROOT
ATOM      1  C   UNL     1      11.579  77.483  -0.886  1.00  0.00     0.151 C 
ATOM      2  C   UNL     1      12.544  78.182  -1.895  1.00  0.00     0.121 C 
ATOM      3  C   UNL     1      12.155  79.310  -2.578  1.00  0.00     0.039 C 
ATOM      4  C   UNL     1      10.754  79.816  -2.433  1.00  0.00     0.176 C 
ATOM      5  O   UNL     1      10.282  80.571  -3.326  1.00  0.00    -0.293 OA
ATOM      6  C   UNL     1       9.864  79.368  -1.285  1.00  0.00     0.097 C 
ATOM      7  C   UNL     1       8.793  78.349  -1.802  1.00  0.00     0.028 C 
ATOM      8  C   UNL     1       9.036  76.868  -1.382  1.00  0.00     0.002 C 
ATOM      9  C   UNL     1      10.550  76.442  -1.625  1.00  0.00    -0.002 C 
ATOM     10  C   UNL     1      10.740  74.974  -1.125  1.00  0.00     0.014 C 
ATOM     11  C   UNL     1      10.790  78.668  -0.319  1.00  0.00     0.168 C 
ATOM     12  O   UNL     1      11.044  79.158   0.776  1.00  0.00    -0.297 OA
ENDROOT
BRANCH   1  13
ATOM     13  C   UNL     1      12.339  76.805   0.304  1.00  0.00     0.157 C 
ATOM     14  O   UNL     1      11.743  75.966   0.970  1.00  0.00    -0.298 OA
BRANCH  13  15
ATOM     15  C   UNL     1      13.813  77.015   0.638  1.00  0.00     0.051 C 
ATOM     16  C   UNL     1      14.388  75.850   1.464  1.00  0.00     0.015 C 
ATOM     17  C   UNL     1      13.988  78.325   1.420  1.00  0.00     0.015 C 
ENDBRANCH  13  15
ENDBRANCH   1  13
BRANCH   2  18
ATOM     18  O   UNL     1      13.769  77.570  -2.166  1.00  0.00    -0.510 OA
ATOM     19  H   UNL     1      14.278  76.939  -1.563  1.00  0.00     0.293 HD
ENDBRANCH   2  18
BRANCH   9  20
ATOM     20  C   UNL     1      10.822  76.393  -3.188  1.00  0.00     0.013 C 
BRANCH  20  21
ATOM     21  C   UNL     1      11.498  75.127  -3.769  1.00  0.00     0.028 C 
BRANCH  21  22
ATOM     22  C   UNL     1      10.502  73.998  -3.881  1.00  0.00    -0.028 C 
ATOM     23  C   UNL     1      10.705  72.869  -4.594  1.00  0.00    -0.080 C 
ATOM     24  C   UNL     1      12.003  72.600  -5.322  1.00  0.00     0.039 C 
ATOM     25  C   UNL     1       9.603  71.841  -4.638  1.00  0.00     0.039 C 
ENDBRANCH  21  22
ENDBRANCH  20  21
ENDBRANCH   9  20
BRANCH   3  26
ATOM     26  C   UNL     1      13.057  80.086  -3.527  1.00  0.00     0.070 C 
BRANCH  26  27
ATOM     27  C   UNL     1      13.517  79.208  -4.667  1.00  0.00    -0.023 C 
ATOM     28  C   UNL     1      14.700  79.350  -5.305  1.00  0.00    -0.080 C 
ATOM     29  C   UNL     1      15.037  78.401  -6.426  1.00  0.00     0.039 C 
ATOM     30  C   UNL     1      15.689  80.424  -4.917  1.00  0.00     0.039 C 
ENDBRANCH  26  27
ENDBRANCH   3  26
BRANCH   8  31
ATOM     31  C   UNL     1       8.500  76.600   0.063  1.00  0.00     0.031 C 
BRANCH  31  32
ATOM     32  C   UNL     1       7.247  75.753   0.065  1.00  0.00    -0.028 C 
ATOM     33  C   UNL     1       6.060  76.137   0.588  1.00  0.00    -0.080 C 
ATOM     34  C   UNL     1       5.850  77.505   1.197  1.00  0.00     0.039 C 
ATOM     35  C   UNL     1       4.908  75.167   0.534  1.00  0.00     0.039 C 
ENDBRANCH  31  32
ENDBRANCH   8  31
BRANCH   6  36
ATOM     36  C   UNL     1       9.192  80.599  -0.590  1.00  0.00     0.050 C 
BRANCH  36  37
ATOM     37  C   UNL     1       9.941  81.108   0.628  1.00  0.00    -0.027 C 
ATOM     38  C   UNL     1      10.990  81.961   0.586  1.00  0.00    -0.080 C 
ATOM     39  C   UNL     1      11.553  82.489  -0.712  1.00  0.00     0.039 C 
ATOM     40  C   UNL     1      11.634  82.422   1.869  1.00  0.00     0.039 C 
ENDBRANCH  36  37
ENDBRANCH   6  36
TORSDOF 12
ENDMDL
MODEL 5
REMARK VINA RESULT:    -4.961      1.844      5.834
REMARK INTER + INTRA:          -9.463
REMARK INTER:                  -9.696
REMARK INTRA:                   0.232
REMARK UNBOUND:                -1.167
REMARK SMILES CC(C)=CCC[C@]1(C)[C@@H](CC=C(C)C)C[C@]2(CC=C(C)C)C(=O)C(CC=C(C)C)=C(O)[C@@]1(C(=O)C(C)C)C2=O
REMARK SMILES IDX 32 1 30 2 24 3 22 4 23 5 16 6 15 7 9 8 7 9 8 10 38 11 39 12
REMARK SMILES IDX 33 13 34 14 35 15 36 16 37 17 31 18 6 20 5 21 4 22 2 23 1 24
REMARK SMILES IDX 3 25 25 26 26 27 27 28 28 29 29 30 10 31 11 32 12 33 13 34
REMARK SMILES IDX 14 35 17 36 18 37 19 38 20 39 21 40
REMARK H PARENT 31 19
REMARK Flexibility Score: inf
ROOT
ATOM      1  C   UNL     1      12.555  78.494  -2.723  1.00  0.00     0.151 C 
ATOM      2  C   UNL     1      11.720  77.236  -3.118  1.00  0.00     0.121 C 
ATOM      3  C   UNL     1      10.471  77.021  -2.584  1.00  0.00     0.039 C 
ATOM      4  C   UNL     1       9.948  77.948  -1.531  1.00  0.00     0.176 C 
ATOM      5  O   UNL     1       9.024  77.548  -0.771  1.00  0.00    -0.293 OA
ATOM      6  C   UNL     1      10.566  79.317  -1.302  1.00  0.00     0.097 C 
ATOM      7  C   UNL     1      11.431  79.304   0.004  1.00  0.00     0.028 C 
ATOM      8  C   UNL     1      12.972  79.326  -0.227  1.00  0.00     0.002 C 
ATOM      9  C   UNL     1      13.403  78.269  -1.336  1.00  0.00    -0.002 C 
ATOM     10  C   UNL     1      14.944  78.388  -1.564  1.00  0.00     0.014 C 
ATOM     11  C   UNL     1      11.466  79.547  -2.492  1.00  0.00     0.168 C 
ATOM     12  O   UNL     1      11.196  80.401  -3.330  1.00  0.00    -0.297 OA
ENDROOT
BRANCH   1  13
ATOM     13  C   UNL     1      13.469  79.003  -3.888  1.00  0.00     0.157 C 
ATOM     14  O   UNL     1      13.641  78.268  -4.854  1.00  0.00    -0.298 OA
BRANCH  13  15
ATOM     15  C   UNL     1      14.078  80.399  -3.981  1.00  0.00     0.051 C 
ATOM     16  C   UNL     1      13.579  81.164  -5.221  1.00  0.00     0.015 C 
ATOM     17  C   UNL     1      15.609  80.298  -4.029  1.00  0.00     0.015 C 
ENDBRANCH  13  15
ENDBRANCH   1  13
BRANCH   2  18
ATOM     18  O   UNL     1      12.317  76.282  -3.943  1.00  0.00    -0.510 OA
ATOM     19  H   UNL     1      11.848  75.571  -4.487  1.00  0.00     0.293 HD
ENDBRANCH   2  18
BRANCH   9  20
ATOM     20  C   UNL     1      13.174  76.807  -0.765  1.00  0.00     0.013 C 
BRANCH  20  21
ATOM     21  C   UNL     1      13.248  76.605   0.767  1.00  0.00     0.028 C 
BRANCH  21  22
ATOM     22  C   UNL     1      14.429  75.738   1.132  1.00  0.00    -0.028 C 
ATOM     23  C   UNL     1      14.660  75.241   2.367  1.00  0.00    -0.080 C 
ATOM     24  C   UNL     1      13.705  75.469   3.517  1.00  0.00     0.039 C 
ATOM     25  C   UNL     1      15.902  74.415   2.586  1.00  0.00     0.039 C 
ENDBRANCH  21  22
ENDBRANCH  20  21
ENDBRANCH   9  20
BRANCH   3  26
ATOM     26  C   UNL     1       9.569  75.858  -2.967  1.00  0.00     0.070 C 
BRANCH  26  27
ATOM     27  C   UNL     1       9.970  74.603  -2.228  1.00  0.00    -0.023 C 
ATOM     28  C   UNL     1       9.775  73.350  -2.698  1.00  0.00    -0.080 C 
ATOM     29  C   UNL     1      10.227  72.184  -1.859  1.00  0.00     0.039 C 
ATOM     30  C   UNL     1       9.127  73.095  -4.039  1.00  0.00     0.039 C 
ENDBRANCH  26  27
ENDBRANCH   3  26
BRANCH   8  31
ATOM     31  C   UNL     1      13.481  80.785  -0.473  1.00  0.00     0.031 C 
BRANCH  31  32
ATOM     32  C   UNL     1      12.430  81.824  -0.156  1.00  0.00    -0.028 C 
ATOM     33  C   UNL     1      11.824  81.962   1.046  1.00  0.00    -0.080 C 
ATOM     34  C   UNL     1      12.178  81.097   2.234  1.00  0.00     0.039 C 
ATOM     35  C   UNL     1      10.776  83.036   1.198  1.00  0.00     0.039 C 
ENDBRANCH  31  32
ENDBRANCH   8  31
BRANCH   6  36
ATOM     36  C   UNL     1       9.460  80.423  -1.242  1.00  0.00     0.050 C 
BRANCH  36  37
ATOM     37  C   UNL     1       8.365  80.150  -0.227  1.00  0.00    -0.027 C 
ATOM     38  C   UNL     1       7.082  79.852  -0.539  1.00  0.00    -0.080 C 
ATOM     39  C   UNL     1       6.591  79.780  -1.965  1.00  0.00     0.039 C 
ATOM     40  C   UNL     1       6.090  79.569   0.561  1.00  0.00     0.039 C 
ENDBRANCH  36  37
ENDBRANCH   6  36
TORSDOF 12
ENDMDL
MODEL 6
REMARK VINA RESULT:    -4.960      1.576      5.332
REMARK INTER + INTRA:          -9.462
REMARK INTER:                  -8.850
REMARK INTRA:                  -0.612
REMARK UNBOUND:                -1.167
REMARK SMILES CC(C)=CCC[C@]1(C)[C@@H](CC=C(C)C)C[C@]2(CC=C(C)C)C(=O)C(CC=C(C)C)=C(O)[C@@]1(C(=O)C(C)C)C2=O
REMARK SMILES IDX 32 1 30 2 24 3 22 4 23 5 16 6 15 7 9 8 7 9 8 10 38 11 39 12
REMARK SMILES IDX 33 13 34 14 35 15 36 16 37 17 31 18 6 20 5 21 4 22 2 23 1 24
REMARK SMILES IDX 3 25 25 26 26 27 27 28 28 29 29 30 10 31 11 32 12 33 13 34
REMARK SMILES IDX 14 35 17 36 18 37 19 38 20 39 21 40
REMARK H PARENT 31 19
REMARK Flexibility Score: inf
ROOT
ATOM      1  C   UNL     1      11.744  77.501  -0.811  1.00  0.00     0.151 C 
ATOM      2  C   UNL     1      12.663  78.245  -1.830  1.00  0.00     0.121 C 
ATOM      3  C   UNL     1      12.221  79.368  -2.491  1.00  0.00     0.039 C 
ATOM      4  C   UNL     1      10.806  79.822  -2.312  1.00  0.00     0.176 C 
ATOM      5  O   UNL     1      10.291  80.571  -3.187  1.00  0.00    -0.293 OA
ATOM      6  C   UNL     1       9.956  79.329  -1.153  1.00  0.00     0.097 C 
ATOM      7  C   UNL     1       8.911  78.280  -1.663  1.00  0.00     0.028 C 
ATOM      8  C   UNL     1       9.214  76.803  -1.267  1.00  0.00     0.002 C 
ATOM      9  C   UNL     1      10.737  76.433  -1.544  1.00  0.00    -0.002 C 
ATOM     10  C   UNL     1      10.988  74.967  -1.067  1.00  0.00     0.014 C 
ATOM     11  C   UNL     1      10.924  78.650  -0.214  1.00  0.00     0.168 C 
ATOM     12  O   UNL     1      11.183  79.135   0.881  1.00  0.00    -0.297 OA
ENDROOT
BRANCH   1  13
ATOM     13  C   UNL     1      12.549  76.836   0.355  1.00  0.00     0.157 C 
ATOM     14  O   UNL     1      11.968  76.038   1.081  1.00  0.00    -0.298 OA
BRANCH  13  15
ATOM     15  C   UNL     1      14.047  77.007   0.597  1.00  0.00     0.051 C 
ATOM     16  C   UNL     1      14.629  75.861   1.444  1.00  0.00     0.015 C 
ATOM     17  C   UNL     1      14.310  78.344   1.304  1.00  0.00     0.015 C 
ENDBRANCH  13  15
ENDBRANCH   1  13
BRANCH   2  18
ATOM     18  O   UNL     1      13.903  77.680  -2.133  1.00  0.00    -0.510 OA
ATOM     19  H   UNL     1      14.764  78.173  -2.322  1.00  0.00     0.293 HD
ENDBRANCH   2  18
BRANCH   9  20
ATOM     20  C   UNL     1      10.980  76.413  -3.112  1.00  0.00     0.013 C 
BRANCH  20  21
ATOM     21  C   UNL     1      11.549  75.119  -3.743  1.00  0.00     0.028 C 
BRANCH  21  22
ATOM     22  C   UNL     1      10.488  74.048  -3.805  1.00  0.00    -0.028 C 
ATOM     23  C   UNL     1      10.612  72.889  -4.489  1.00  0.00    -0.080 C 
ATOM     24  C   UNL     1      11.877  72.524  -5.231  1.00  0.00     0.039 C 
ATOM     25  C   UNL     1       9.451  71.926  -4.484  1.00  0.00     0.039 C 
ENDBRANCH  21  22
ENDBRANCH  20  21
ENDBRANCH   9  20
BRANCH   3  26
ATOM     26  C   UNL     1      13.077  80.186  -3.447  1.00  0.00     0.070 C 
BRANCH  26  27
ATOM     27  C   UNL     1      13.486  79.358  -4.642  1.00  0.00    -0.023 C 
ATOM     28  C   UNL     1      14.706  79.412  -5.222  1.00  0.00    -0.080 C 
ATOM     29  C   UNL     1      14.984  78.527  -6.409  1.00  0.00     0.039 C 
ATOM     30  C   UNL     1      15.793  80.325  -4.704  1.00  0.00     0.039 C 
ENDBRANCH  26  27
ENDBRANCH   3  26
BRANCH   8  31
ATOM     31  C   UNL     1       8.716  76.498   0.185  1.00  0.00     0.031 C 
BRANCH  31  32
ATOM     32  C   UNL     1       7.224  76.259   0.245  1.00  0.00    -0.028 C 
ATOM     33  C   UNL     1       6.567  75.320  -0.474  1.00  0.00    -0.080 C 
ATOM     34  C   UNL     1       7.283  74.363  -1.400  1.00  0.00     0.039 C 
ATOM     35  C   UNL     1       5.071  75.220  -0.320  1.00  0.00     0.039 C 
ENDBRANCH  31  32
ENDBRANCH   8  31
BRANCH   6  36
ATOM     36  C   UNL     1       9.255  80.527  -0.429  1.00  0.00     0.050 C 
BRANCH  36  37
ATOM     37  C   UNL     1       7.980  80.148   0.303  1.00  0.00    -0.027 C 
ATOM     38  C   UNL     1       6.770  79.998  -0.285  1.00  0.00    -0.080 C 
ATOM     39  C   UNL     1       6.554  80.218  -1.762  1.00  0.00     0.039 C 
ATOM     40  C   UNL     1       5.580  79.588   0.546  1.00  0.00     0.039 C 
ENDBRANCH  36  37
ENDBRANCH   6  36
TORSDOF 12
ENDMDL
MODEL 7
REMARK VINA RESULT:    -4.221      1.672      5.237
REMARK INTER + INTRA:          -8.227
REMARK INTER:                  -6.859
REMARK INTRA:                  -1.368
REMARK UNBOUND:                -1.167
REMARK SMILES CC(C)=CCC[C@]1(C)[C@@H](CC=C(C)C)C[C@]2(CC=C(C)C)C(=O)C(CC=C(C)C)=C(O)[C@@]1(C(=O)C(C)C)C2=O
REMARK SMILES IDX 32 1 30 2 24 3 22 4 23 5 16 6 15 7 9 8 7 9 8 10 38 11 39 12
REMARK SMILES IDX 33 13 34 14 35 15 36 16 37 17 31 18 6 20 5 21 4 22 2 23 1 24
REMARK SMILES IDX 3 25 25 26 26 27 27 28 28 29 29 30 10 31 11 32 12 33 13 34
REMARK SMILES IDX 14 35 17 36 18 37 19 38 20 39 21 40
REMARK H PARENT 31 19
REMARK Flexibility Score: inf
ROOT
ATOM      1  C   UNL     1      10.255  78.774  -0.828  1.00  0.00     0.151 C 
ATOM      2  C   UNL     1      11.480  78.980   0.117  1.00  0.00     0.121 C 
ATOM      3  C   UNL     1      12.765  78.822  -0.349  1.00  0.00     0.039 C 
ATOM      4  C   UNL     1      12.990  78.345  -1.749  1.00  0.00     0.176 C 
ATOM      5  O   UNL     1      14.101  77.825  -2.045  1.00  0.00    -0.293 OA
ATOM      6  C   UNL     1      11.884  78.392  -2.791  1.00  0.00     0.097 C 
ATOM      7  C   UNL     1      11.321  76.952  -3.040  1.00  0.00     0.028 C 
ATOM      8  C   UNL     1       9.907  76.685  -2.442  1.00  0.00     0.002 C 
ATOM      9  C   UNL     1       9.811  77.199  -0.939  1.00  0.00    -0.002 C 
ATOM     10  C   UNL     1       8.355  76.961  -0.424  1.00  0.00     0.014 C 
ATOM     11  C   UNL     1      10.802  79.249  -2.178  1.00  0.00     0.168 C 
ATOM     12  O   UNL     1      10.545  80.358  -2.633  1.00  0.00    -0.297 OA
ENDROOT
BRANCH   1  13
ATOM     13  C   UNL     1       9.044  79.695  -0.456  1.00  0.00     0.157 C 
ATOM     14  O   UNL     1       9.241  80.632   0.309  1.00  0.00    -0.298 OA
BRANCH  13  15
ATOM     15  C   UNL     1       7.647  79.597  -1.063  1.00  0.00     0.051 C 
ATOM     16  C   UNL     1       7.388  80.709  -2.095  1.00  0.00     0.015 C 
ATOM     17  C   UNL     1       6.590  79.680   0.047  1.00  0.00     0.015 C 
ENDBRANCH  13  15
ENDBRANCH   1  13
BRANCH   2  18
ATOM     18  O   UNL     1      11.236  79.222   1.470  1.00  0.00    -0.510 OA
ATOM     19  H   UNL     1      10.343  79.185   1.940  1.00  0.00     0.293 HD
ENDBRANCH   2  18
BRANCH   9  20
ATOM     20  C   UNL     1      10.734  76.286  -0.027  1.00  0.00     0.013 C 
BRANCH  20  21
ATOM     21  C   UNL     1      10.325  74.807   0.172  1.00  0.00     0.028 C 
BRANCH  21  22
ATOM     22  C   UNL     1      10.885  73.947  -0.934  1.00  0.00    -0.028 C 
ATOM     23  C   UNL     1      10.143  73.144  -1.728  1.00  0.00    -0.080 C 
ATOM     24  C   UNL     1       8.637  73.069  -1.612  1.00  0.00     0.039 C 
ATOM     25  C   UNL     1      10.849  72.318  -2.773  1.00  0.00     0.039 C 
ENDBRANCH  21  22
ENDBRANCH  20  21
ENDBRANCH   9  20
BRANCH   3  26
ATOM     26  C   UNL     1      14.011  79.069   0.489  1.00  0.00     0.070 C 
BRANCH  26  27
ATOM     27  C   UNL     1      13.922  78.340   1.809  1.00  0.00    -0.023 C 
ATOM     28  C   UNL     1      13.971  76.995   1.939  1.00  0.00    -0.080 C 
ATOM     29  C   UNL     1      13.875  76.398   3.319  1.00  0.00     0.039 C 
ATOM     30  C   UNL     1      14.129  76.086   0.743  1.00  0.00     0.039 C 
ENDBRANCH  26  27
ENDBRANCH   3  26
BRANCH   8  31
ATOM     31  C   UNL     1       8.786  77.219  -3.394  1.00  0.00     0.031 C 
BRANCH  31  32
ATOM     32  C   UNL     1       7.462  76.521  -3.176  1.00  0.00    -0.028 C 
ATOM     33  C   UNL     1       7.137  75.311  -3.686  1.00  0.00    -0.080 C 
ATOM     34  C   UNL     1       8.107  74.494  -4.509  1.00  0.00     0.039 C 
ATOM     35  C   UNL     1       5.765  74.758  -3.396  1.00  0.00     0.039 C 
ENDBRANCH  31  32
ENDBRANCH   8  31
BRANCH   6  36
ATOM     36  C   UNL     1      12.398  79.041  -4.118  1.00  0.00     0.050 C 
BRANCH  36  37
ATOM     37  C   UNL     1      13.724  79.768  -3.981  1.00  0.00    -0.027 C 
ATOM     38  C   UNL     1      14.766  79.637  -4.834  1.00  0.00    -0.080 C 
ATOM     39  C   UNL     1      14.723  78.716  -6.029  1.00  0.00     0.039 C 
ATOM     40  C   UNL     1      16.024  80.438  -4.609  1.00  0.00     0.039 C 
ENDBRANCH  36  37
ENDBRANCH   6  36
TORSDOF 12
ENDMDL
MODEL 8
REMARK VINA RESULT:    -4.101      1.917      6.189
REMARK INTER + INTRA:          -8.026
REMARK INTER:                 -10.156
REMARK INTRA:                   2.130
REMARK UNBOUND:                -1.167
REMARK SMILES CC(C)=CCC[C@]1(C)[C@@H](CC=C(C)C)C[C@]2(CC=C(C)C)C(=O)C(CC=C(C)C)=C(O)[C@@]1(C(=O)C(C)C)C2=O
REMARK SMILES IDX 32 1 30 2 24 3 22 4 23 5 16 6 15 7 9 8 7 9 8 10 38 11 39 12
REMARK SMILES IDX 33 13 34 14 35 15 36 16 37 17 31 18 6 20 5 21 4 22 2 23 1 24
REMARK SMILES IDX 3 25 25 26 26 27 27 28 28 29 29 30 10 31 11 32 12 33 13 34
REMARK SMILES IDX 14 35 17 36 18 37 19 38 20 39 21 40
REMARK H PARENT 31 19
REMARK Flexibility Score: inf
ROOT
ATOM      1  C   UNL     1      10.452  77.079  -0.835  1.00  0.00     0.151 C 
ATOM      2  C   UNL     1      10.424  78.604  -0.501  1.00  0.00     0.121 C 
ATOM      3  C   UNL     1       9.270  79.338  -0.648  1.00  0.00     0.039 C 
ATOM      4  C   UNL     1       8.053  78.693  -1.233  1.00  0.00     0.176 C 
ATOM      5  O   UNL     1       7.155  79.425  -1.732  1.00  0.00    -0.293 OA
ATOM      6  C   UNL     1       7.920  77.181  -1.318  1.00  0.00     0.097 C 
ATOM      7  C   UNL     1       8.134  76.707  -2.796  1.00  0.00     0.028 C 
ATOM      8  C   UNL     1       9.491  75.988  -3.066  1.00  0.00     0.002 C 
ATOM      9  C   UNL     1      10.706  76.794  -2.430  1.00  0.00    -0.002 C 
ATOM     10  C   UNL     1      12.022  75.990  -2.680  1.00  0.00     0.014 C 
ATOM     11  C   UNL     1       9.034  76.638  -0.456  1.00  0.00     0.168 C 
ATOM     12  O   UNL     1       8.790  76.064   0.599  1.00  0.00    -0.297 OA
ENDROOT
BRANCH   1  13
ATOM     13  C   UNL     1      11.455  76.283   0.066  1.00  0.00     0.157 C 
ATOM     14  O   UNL     1      11.319  75.068   0.153  1.00  0.00    -0.298 OA
BRANCH  13  15
ATOM     15  C   UNL     1      12.675  76.880   0.763  1.00  0.00     0.051 C 
ATOM     16  C   UNL     1      13.704  77.423  -0.245  1.00  0.00     0.015 C 
ATOM     17  C   UNL     1      13.343  75.818   1.646  1.00  0.00     0.015 C 
ENDBRANCH  13  15
ENDBRANCH   1  13
BRANCH   2  18
ATOM     18  O   UNL     1      11.626  79.225  -0.155  1.00  0.00    -0.510 OA
ATOM     19  H   UNL     1      12.553  78.962  -0.458  1.00  0.00     0.293 HD
ENDBRANCH   2  18
BRANCH   9  20
ATOM     20  C   UNL     1      10.888  78.156  -3.225  1.00  0.00     0.013 C 
BRANCH  20  21
ATOM     21  C   UNL     1      12.243  78.893  -3.104  1.00  0.00     0.028 C 
BRANCH  21  22
ATOM     22  C   UNL     1      13.211  78.399  -4.152  1.00  0.00    -0.028 C 
ATOM     23  C   UNL     1      13.803  79.186  -5.077  1.00  0.00    -0.080 C 
ATOM     24  C   UNL     1      13.586  80.681  -5.118  1.00  0.00     0.039 C 
ATOM     25  C   UNL     1      14.726  78.542  -6.081  1.00  0.00     0.039 C 
ENDBRANCH  21  22
ENDBRANCH  20  21
ENDBRANCH   9  20
BRANCH   3  26
ATOM     26  C   UNL     1       9.144  80.809  -0.282  1.00  0.00     0.070 C 
BRANCH  26  27
ATOM     27  C   UNL     1      10.047  81.153   0.879  1.00  0.00    -0.023 C 
ATOM     28  C   UNL     1      11.191  81.865   0.766  1.00  0.00    -0.080 C 
ATOM     29  C   UNL     1      11.997  82.141   2.008  1.00  0.00     0.039 C 
ATOM     30  C   UNL     1      11.669  82.396  -0.565  1.00  0.00     0.039 C 
ENDBRANCH  26  27
ENDBRANCH   3  26
BRANCH   8  31
ATOM     31  C   UNL     1       9.417  74.479  -2.660  1.00  0.00     0.031 C 
BRANCH  31  32
ATOM     32  C   UNL     1       9.100  73.580  -3.833  1.00  0.00    -0.028 C 
ATOM     33  C   UNL     1       9.832  72.501  -4.195  1.00  0.00    -0.080 C 
ATOM     34  C   UNL     1      11.045  72.049  -3.414  1.00  0.00     0.039 C 
ATOM     35  C   UNL     1       9.398  71.717  -5.407  1.00  0.00     0.039 C 
ENDBRANCH  31  32
ENDBRANCH   8  31
BRANCH   6  36
ATOM     36  C   UNL     1       6.534  76.713  -0.764  1.00  0.00     0.050 C 
BRANCH  36  37
ATOM     37  C   UNL     1       6.402  76.814   0.745  1.00  0.00    -0.027 C 
ATOM     38  C   UNL     1       5.837  77.855   1.400  1.00  0.00    -0.080 C 
ATOM     39  C   UNL     1       5.286  79.062   0.681  1.00  0.00     0.039 C 
ATOM     40  C   UNL     1       5.737  77.827   2.905  1.00  0.00     0.039 C 
ENDBRANCH  36  37
ENDBRANCH   6  36
TORSDOF 12
ENDMDL
MODEL 9
REMARK VINA RESULT:    -4.008      1.919      6.690
REMARK INTER + INTRA:          -7.870
REMARK INTER:                  -7.693
REMARK INTRA:                  -0.177
REMARK UNBOUND:                -1.167
REMARK SMILES CC(C)=CCC[C@]1(C)[C@@H](CC=C(C)C)C[C@]2(CC=C(C)C)C(=O)C(CC=C(C)C)=C(O)[C@@]1(C(=O)C(C)C)C2=O
REMARK SMILES IDX 32 1 30 2 24 3 22 4 23 5 16 6 15 7 9 8 7 9 8 10 38 11 39 12
REMARK SMILES IDX 33 13 34 14 35 15 36 16 37 17 31 18 6 20 5 21 4 22 2 23 1 24
REMARK SMILES IDX 3 25 25 26 26 27 27 28 28 29 29 30 10 31 11 32 12 33 13 34
REMARK SMILES IDX 14 35 17 36 18 37 19 38 20 39 21 40
REMARK H PARENT 31 19
REMARK Flexibility Score: inf
ROOT
ATOM      1  C   UNL     1      11.196  78.186  -0.777  1.00  0.00     0.151 C 
ATOM      2  C   UNL     1       9.763  78.472  -0.227  1.00  0.00     0.121 C 
ATOM      3  C   UNL     1       8.677  77.766  -0.687  1.00  0.00     0.039 C 
ATOM      4  C   UNL     1       8.851  76.784  -1.803  1.00  0.00     0.176 C 
ATOM      5  O   UNL     1       7.844  76.447  -2.483  1.00  0.00    -0.293 OA
ATOM      6  C   UNL     1      10.225  76.259  -2.190  1.00  0.00     0.097 C 
ATOM      7  C   UNL     1      10.701  76.931  -3.522  1.00  0.00     0.028 C 
ATOM      8  C   UNL     1      11.830  77.993  -3.356  1.00  0.00     0.002 C 
ATOM      9  C   UNL     1      11.504  78.999  -2.168  1.00  0.00    -0.002 C 
ATOM     10  C   UNL     1      12.701  79.992  -2.015  1.00  0.00     0.014 C 
ATOM     11  C   UNL     1      11.139  76.682  -1.065  1.00  0.00     0.168 C 
ATOM     12  O   UNL     1      11.626  75.853  -0.305  1.00  0.00    -0.297 OA
ENDROOT
BRANCH   1  13
ATOM     13  C   UNL     1      12.313  78.423   0.296  1.00  0.00     0.157 C 
ATOM     14  O   UNL     1      12.080  79.200   1.214  1.00  0.00    -0.298 OA
BRANCH  13  15
ATOM     15  C   UNL     1      13.639  77.670   0.362  1.00  0.00     0.051 C 
ATOM     16  C   UNL     1      13.871  77.033   1.745  1.00  0.00     0.015 C 
ATOM     17  C   UNL     1      14.797  78.626   0.045  1.00  0.00     0.015 C 
ENDBRANCH  13  15
ENDBRANCH   1  13
BRANCH   2  18
ATOM     18  O   UNL     1       9.600  79.535   0.663  1.00  0.00    -0.510 OA
ATOM     19  H   UNL     1      10.328  80.024   1.164  1.00  0.00     0.293 HD
ENDBRANCH   2  18
BRANCH   9  20
ATOM     20  C   UNL     1      10.264  79.897  -2.584  1.00  0.00     0.013 C 
BRANCH  20  21
ATOM     21  C   UNL     1      10.305  81.403  -2.231  1.00  0.00     0.028 C 
BRANCH  21  22
ATOM     22  C   UNL     1      10.305  81.598  -0.734  1.00  0.00    -0.028 C 
ATOM     23  C   UNL     1      11.222  82.324  -0.058  1.00  0.00    -0.080 C 
ATOM     24  C   UNL     1      12.333  83.071  -0.760  1.00  0.00     0.039 C 
ATOM     25  C   UNL     1      11.109  82.401   1.444  1.00  0.00     0.039 C 
ENDBRANCH  21  22
ENDBRANCH  20  21
ENDBRANCH   9  20
BRANCH   3  26
ATOM     26  C   UNL     1       7.261  77.938  -0.156  1.00  0.00     0.070 C 
BRANCH  26  27
ATOM     27  C   UNL     1       6.593  76.597   0.036  1.00  0.00    -0.023 C 
ATOM     28  C   UNL     1       5.800  76.287   1.086  1.00  0.00    -0.080 C 
ATOM     29  C   UNL     1       5.192  74.911   1.152  1.00  0.00     0.039 C 
ATOM     30  C   UNL     1       5.503  77.286   2.180  1.00  0.00     0.039 C 
ENDBRANCH  26  27
ENDBRANCH   3  26
BRANCH   8  31
ATOM     31  C   UNL     1      13.235  77.309  -3.275  1.00  0.00     0.031 C 
BRANCH  31  32
ATOM     32  C   UNL     1      13.884  77.159  -4.632  1.00  0.00    -0.028 C 
ATOM     33  C   UNL     1      14.363  78.185  -5.373  1.00  0.00    -0.080 C 
ATOM     34  C   UNL     1      14.337  79.616  -4.884  1.00  0.00     0.039 C 
ATOM     35  C   UNL     1      14.962  77.874  -6.721  1.00  0.00     0.039 C 
ENDBRANCH  31  32
ENDBRANCH   8  31
BRANCH   6  36
ATOM     36  C   UNL     1      10.209  74.699  -2.312  1.00  0.00     0.050 C 
BRANCH  36  37
ATOM     37  C   UNL     1      10.644  74.179  -3.670  1.00  0.00    -0.027 C 
ATOM     38  C   UNL     1      11.042  72.910  -3.918  1.00  0.00    -0.080 C 
ATOM     39  C   UNL     1      11.117  71.859  -2.837  1.00  0.00     0.039 C 
ATOM     40  C   UNL     1      11.422  72.504  -5.320  1.00  0.00     0.039 C 
ENDBRANCH  36  37
ENDBRANCH   6  36
TORSDOF 12
ENDMDL
MODEL 10
REMARK VINA RESULT:    -4.005      1.879      5.885
REMARK INTER + INTRA:          -7.866
REMARK INTER:                  -6.501
REMARK INTRA:                  -1.364
REMARK UNBOUND:                -1.167
REMARK SMILES CC(C)=CCC[C@]1(C)[C@@H](CC=C(C)C)C[C@]2(CC=C(C)C)C(=O)C(CC=C(C)C)=C(O)[C@@]1(C(=O)C(C)C)C2=O
REMARK SMILES IDX 32 1 30 2 24 3 22 4 23 5 16 6 15 7 9 8 7 9 8 10 38 11 39 12
REMARK SMILES IDX 33 13 34 14 35 15 36 16 37 17 31 18 6 20 5 21 4 22 2 23 1 24
REMARK SMILES IDX 3 25 25 26 26 27 27 28 28 29 29 30 10 31 11 32 12 33 13 34
REMARK SMILES IDX 14 35 17 36 18 37 19 38 20 39 21 40
REMARK H PARENT 31 19
REMARK Flexibility Score: inf
ROOT
ATOM      1  C   UNL     1      10.769  79.267  -0.897  1.00  0.00     0.151 C 
ATOM      2  C   UNL     1       9.511  79.086  -1.804  1.00  0.00     0.121 C 
ATOM      3  C   UNL     1       9.266  77.892  -2.440  1.00  0.00     0.039 C 
ATOM      4  C   UNL     1      10.269  76.785  -2.348  1.00  0.00     0.176 C 
ATOM      5  O   UNL     1      10.255  75.875  -3.222  1.00  0.00    -0.293 OA
ATOM      6  C   UNL     1      11.354  76.785  -1.284  1.00  0.00     0.097 C 
ATOM      7  C   UNL     1      12.733  77.160  -1.924  1.00  0.00     0.028 C 
ATOM      8  C   UNL     1      13.252  78.589  -1.579  1.00  0.00     0.002 C 
ATOM      9  C   UNL     1      12.105  79.676  -1.757  1.00  0.00    -0.002 C 
ATOM     10  C   UNL     1      12.671  81.070  -1.335  1.00  0.00     0.014 C 
ATOM     11  C   UNL     1      10.949  77.864  -0.308  1.00  0.00     0.168 C 
ATOM     12  O   UNL     1      10.583  77.581   0.827  1.00  0.00    -0.297 OA
ENDROOT
BRANCH   1  13
ATOM     13  C   UNL     1      10.518  80.253   0.293  1.00  0.00     0.157 C 
ATOM     14  O   UNL     1       9.385  80.331   0.754  1.00  0.00    -0.298 OA
BRANCH  13  15
ATOM     15  C   UNL     1      11.601  81.050   1.016  1.00  0.00     0.051 C 
ATOM     16  C   UNL     1      11.909  80.470   2.409  1.00  0.00     0.015 C 
ATOM     17  C   UNL     1      11.161  82.513   1.163  1.00  0.00     0.015 C 
ENDBRANCH  13  15
ENDBRANCH   1  13
BRANCH   2  18
ATOM     18  O   UNL     1       8.703  80.200  -2.038  1.00  0.00    -0.510 OA
ATOM     19  H   UNL     1       8.538  80.972  -1.408  1.00  0.00     0.293 HD
ENDBRANCH   2  18
BRANCH   9  20
ATOM     20  C   UNL     1      11.763  79.811  -3.301  1.00  0.00     0.013 C 
BRANCH  20  21
ATOM     21  C   UNL     1      12.873  79.471  -4.324  1.00  0.00     0.028 C 
BRANCH  21  22
ATOM     22  C   UNL     1      13.294  80.707  -5.081  1.00  0.00    -0.028 C 
ATOM     23  C   UNL     1      14.570  81.132  -5.202  1.00  0.00    -0.080 C 
ATOM     24  C   UNL     1      15.733  80.362  -4.618  1.00  0.00     0.039 C 
ATOM     25  C   UNL     1      14.833  82.406  -5.964  1.00  0.00     0.039 C 
ENDBRANCH  21  22
ENDBRANCH  20  21
ENDBRANCH   9  20
BRANCH   3  26
ATOM     26  C   UNL     1       8.031  77.615  -3.286  1.00  0.00     0.070 C 
BRANCH  26  27
ATOM     27  C   UNL     1       7.399  76.300  -2.897  1.00  0.00    -0.023 C 
ATOM     28  C   UNL     1       7.007  75.987  -1.641  1.00  0.00    -0.080 C 
ATOM     29  C   UNL     1       6.385  74.638  -1.392  1.00  0.00     0.039 C 
ATOM     30  C   UNL     1       7.168  76.956  -0.494  1.00  0.00     0.039 C 
ENDBRANCH  26  27
ENDBRANCH   3  26
BRANCH   8  31
ATOM     31  C   UNL     1      13.966  78.605  -0.187  1.00  0.00     0.031 C 
BRANCH  31  32
ATOM     32  C   UNL     1      14.555  77.260   0.175  1.00  0.00    -0.028 C 
ATOM     33  C   UNL     1      14.353  76.624   1.352  1.00  0.00    -0.080 C 
ATOM     34  C   UNL     1      13.457  77.188   2.431  1.00  0.00     0.039 C 
ATOM     35  C   UNL     1      15.031  75.296   1.571  1.00  0.00     0.039 C 
ENDBRANCH  31  32
ENDBRANCH   8  31
BRANCH   6  36
ATOM     36  C   UNL     1      11.420  75.400  -0.558  1.00  0.00     0.050 C 
BRANCH  36  37
ATOM     37  C   UNL     1      10.238  74.492  -0.847  1.00  0.00    -0.027 C 
ATOM     38  C   UNL     1      10.291  73.383  -1.622  1.00  0.00    -0.080 C 
ATOM     39  C   UNL     1      11.556  72.937  -2.313  1.00  0.00     0.039 C 
ATOM     40  C   UNL     1       9.053  72.542  -1.810  1.00  0.00     0.039 C 
ENDBRANCH  36  37
ENDBRANCH   6  36
TORSDOF 12
ENDMDL
MODEL 11
REMARK VINA RESULT:    -3.876      2.165      6.203
REMARK INTER + INTRA:          -7.650
REMARK INTER:                  -7.912
REMARK INTRA:                   0.263
REMARK UNBOUND:                -1.167
REMARK SMILES CC(C)=CCC[C@]1(C)[C@@H](CC=C(C)C)C[C@]2(CC=C(C)C)C(=O)C(CC=C(C)C)=C(O)[C@@]1(C(=O)C(C)C)C2=O
REMARK SMILES IDX 32 1 30 2 24 3 22 4 23 5 16 6 15 7 9 8 7 9 8 10 38 11 39 12
REMARK SMILES IDX 33 13 34 14 35 15 36 16 37 17 31 18 6 20 5 21 4 22 2 23 1 24
REMARK SMILES IDX 3 25 25 26 26 27 27 28 28 29 29 30 10 31 11 32 12 33 13 34
REMARK SMILES IDX 14 35 17 36 18 37 19 38 20 39 21 40
REMARK H PARENT 31 19
REMARK Flexibility Score: inf
ROOT
ATOM      1  C   UNL     1       8.780  76.594  -1.961  1.00  0.00     0.151 C 
ATOM      2  C   UNL     1       8.417  78.009  -1.410  1.00  0.00     0.121 C 
ATOM      3  C   UNL     1       9.370  78.797  -0.806  1.00  0.00     0.039 C 
ATOM      4  C   UNL     1      10.745  78.252  -0.580  1.00  0.00     0.176 C 
ATOM      5  O   UNL     1      11.476  78.785   0.299  1.00  0.00    -0.293 OA
ATOM      6  C   UNL     1      11.242  77.021  -1.321  1.00  0.00     0.097 C 
ATOM      7  C   UNL     1      11.256  75.785  -0.358  1.00  0.00     0.028 C 
ATOM      8  C   UNL     1      10.135  74.735  -0.619  1.00  0.00     0.002 C 
ATOM      9  C   UNL     1       8.719  75.437  -0.799  1.00  0.00    -0.002 C 
ATOM     10  C   UNL     1       7.656  74.338  -1.121  1.00  0.00     0.014 C 
ATOM     11  C   UNL     1      10.230  76.785  -2.416  1.00  0.00     0.168 C 
ATOM     12  O   UNL     1      10.527  76.954  -3.594  1.00  0.00    -0.297 OA
ENDROOT
BRANCH   1  13
ATOM     13  C   UNL     1       7.934  76.201  -3.219  1.00  0.00     0.157 C 
ATOM     14  O   UNL     1       7.683  77.071  -4.044  1.00  0.00    -0.298 OA
BRANCH  13  15
ATOM     15  C   UNL     1       7.489  74.784  -3.570  1.00  0.00     0.051 C 
ATOM     16  C   UNL     1       8.420  74.128  -4.606  1.00  0.00     0.015 C 
ATOM     17  C   UNL     1       6.056  74.810  -4.120  1.00  0.00     0.015 C 
ENDBRANCH  13  15
ENDBRANCH   1  13
BRANCH   2  18
ATOM     18  O   UNL     1       7.080  78.407  -1.448  1.00  0.00    -0.510 OA
ATOM     19  H   UNL     1       6.726  79.319  -1.699  1.00  0.00     0.293 HD
ENDBRANCH   2  18
BRANCH   9  20
ATOM     20  C   UNL     1       8.275  76.057   0.592  1.00  0.00     0.013 C 
BRANCH  20  21
ATOM     21  C   UNL     1       6.767  76.054   0.942  1.00  0.00     0.028 C 
BRANCH  21  22
ATOM     22  C   UNL     1       6.159  77.410   0.681  1.00  0.00    -0.028 C 
ATOM     23  C   UNL     1       5.624  78.204   1.635  1.00  0.00    -0.080 C 
ATOM     24  C   UNL     1       5.632  77.821   3.097  1.00  0.00     0.039 C 
ATOM     25  C   UNL     1       5.022  79.522   1.216  1.00  0.00     0.039 C 
ENDBRANCH  21  22
ENDBRANCH  20  21
ENDBRANCH   9  20
BRANCH   3  26
ATOM     26  C   UNL     1       9.113  80.210  -0.304  1.00  0.00     0.070 C 
BRANCH  26  27
ATOM     27  C   UNL     1      10.148  81.167  -0.844  1.00  0.00    -0.023 C 
ATOM     28  C   UNL     1      11.032  81.843  -0.075  1.00  0.00    -0.080 C 
ATOM     29  C   UNL     1      12.016  82.766  -0.745  1.00  0.00     0.039 C 
ATOM     30  C   UNL     1      11.061  81.687   1.427  1.00  0.00     0.039 C 
ENDBRANCH  26  27
ENDBRANCH   3  26
BRANCH   8  31
ATOM     31  C   UNL     1      10.538  73.759  -1.773  1.00  0.00     0.031 C 
BRANCH  31  32
ATOM     32  C   UNL     1      10.128  72.331  -1.492  1.00  0.00    -0.028 C 
ATOM     33  C   UNL     1      10.232  71.313  -2.377  1.00  0.00    -0.080 C 
ATOM     34  C   UNL     1      10.827  71.497  -3.755  1.00  0.00     0.039 C 
ATOM     35  C   UNL     1       9.756  69.947  -1.953  1.00  0.00     0.039 C 
ENDBRANCH  31  32
ENDBRANCH   8  31
BRANCH   6  36
ATOM     36  C   UNL     1      12.656  77.278  -1.940  1.00  0.00     0.050 C 
BRANCH  36  37
ATOM     37  C   UNL     1      12.829  78.662  -2.537  1.00  0.00    -0.027 C 
ATOM     38  C   UNL     1      13.358  78.915  -3.757  1.00  0.00    -0.080 C 
ATOM     39  C   UNL     1      13.864  77.818  -4.662  1.00  0.00     0.039 C 
ATOM     40  C   UNL     1      13.449  80.335  -4.255  1.00  0.00     0.039 C 
ENDBRANCH  36  37
ENDBRANCH   6  36
TORSDOF 12
ENDMDL
MODEL 12
REMARK VINA RESULT:    -3.830      1.917      6.049
REMARK INTER + INTRA:          -7.573
REMARK INTER:                  -9.004
REMARK INTRA:                   1.432
REMARK UNBOUND:                -1.167
REMARK SMILES CC(C)=CCC[C@]1(C)[C@@H](CC=C(C)C)C[C@]2(CC=C(C)C)C(=O)C(CC=C(C)C)=C(O)[C@@]1(C(=O)C(C)C)C2=O
REMARK SMILES IDX 32 1 30 2 24 3 22 4 23 5 16 6 15 7 9 8 7 9 8 10 38 11 39 12
REMARK SMILES IDX 33 13 34 14 35 15 36 16 37 17 31 18 6 20 5 21 4 22 2 23 1 24
REMARK SMILES IDX 3 25 25 26 26 27 27 28 28 29 29 30 10 31 11 32 12 33 13 34
REMARK SMILES IDX 14 35 17 36 18 37 19 38 20 39 21 40
REMARK H PARENT 31 19
REMARK Flexibility Score: inf
ROOT
ATOM      1  C   UNL     1      11.698  79.921  -1.019  1.00  0.00     0.151 C 
ATOM      2  C   UNL     1      10.227  80.214  -1.450  1.00  0.00     0.121 C 
ATOM      3  C   UNL     1       9.425  79.213  -1.947  1.00  0.00     0.039 C 
ATOM      4  C   UNL     1       9.998  77.850  -2.177  1.00  0.00     0.176 C 
ATOM      5  O   UNL     1       9.416  77.071  -2.980  1.00  0.00    -0.293 OA
ATOM      6  C   UNL     1      11.310  77.424  -1.537  1.00  0.00     0.097 C 
ATOM      7  C   UNL     1      12.452  77.418  -2.608  1.00  0.00     0.028 C 
ATOM      8  C   UNL     1      13.479  78.585  -2.481  1.00  0.00     0.002 C 
ATOM      9  C   UNL     1      12.743  79.981  -2.283  1.00  0.00    -0.002 C 
ATOM     10  C   UNL     1      13.825  81.092  -2.098  1.00  0.00     0.014 C 
ATOM     11  C   UNL     1      11.604  78.482  -0.501  1.00  0.00     0.168 C 
ATOM     12  O   UNL     1      11.553  78.222   0.696  1.00  0.00    -0.297 OA
ENDROOT
BRANCH   1  13
ATOM     13  C   UNL     1      12.170  80.824   0.170  1.00  0.00     0.157 C 
ATOM     14  O   UNL     1      13.314  81.263   0.147  1.00  0.00    -0.298 OA
BRANCH  13  15
ATOM     15  C   UNL     1      11.280  81.309   1.311  1.00  0.00     0.051 C 
ATOM     16  C   UNL     1      11.199  82.845   1.365  1.00  0.00     0.015 C 
ATOM     17  C   UNL     1      11.817  80.783   2.649  1.00  0.00     0.015 C 
ENDBRANCH  13  15
ENDBRANCH   1  13
BRANCH   2  18
ATOM     18  O   UNL     1       9.783  81.537  -1.419  1.00  0.00    -0.510 OA
ATOM     19  H   UNL     1      10.242  82.320  -0.977  1.00  0.00     0.293 HD
ENDBRANCH   2  18
BRANCH   9  20
ATOM     20  C   UNL     1      11.983  80.352  -3.626  1.00  0.00     0.013 C 
BRANCH  20  21
ATOM     21  C   UNL     1      12.824  80.865  -4.819  1.00  0.00     0.028 C 
BRANCH  21  22
ATOM     22  C   UNL     1      13.589  79.730  -5.456  1.00  0.00    -0.028 C 
ATOM     23  C   UNL     1      14.925  79.726  -5.655  1.00  0.00    -0.080 C 
ATOM     24  C   UNL     1      15.809  80.864  -5.199  1.00  0.00     0.039 C 
ATOM     25  C   UNL     1      15.545  78.530  -6.334  1.00  0.00     0.039 C 
ENDBRANCH  21  22
ENDBRANCH  20  21
ENDBRANCH   9  20
BRANCH   3  26
ATOM     26  C   UNL     1       7.963  79.403  -2.327  1.00  0.00     0.070 C 
BRANCH  26  27
ATOM     27  C   UNL     1       7.131  79.726  -1.109  1.00  0.00    -0.023 C 
ATOM     28  C   UNL     1       6.763  78.818  -0.177  1.00  0.00    -0.080 C 
ATOM     29  C   UNL     1       5.934  79.277   0.993  1.00  0.00     0.039 C 
ATOM     30  C   UNL     1       7.169  77.366  -0.278  1.00  0.00     0.039 C 
ENDBRANCH  26  27
ENDBRANCH   3  26
BRANCH   8  31
ATOM     31  C   UNL     1      14.570  78.257  -1.408  1.00  0.00     0.031 C 
BRANCH  31  32
ATOM     32  C   UNL     1      14.144  77.148  -0.472  1.00  0.00    -0.028 C 
ATOM     33  C   UNL     1      14.213  77.213   0.878  1.00  0.00    -0.080 C 
ATOM     34  C   UNL     1      14.693  78.449   1.604  1.00  0.00     0.039 C 
ATOM     35  C   UNL     1      13.771  76.012   1.674  1.00  0.00     0.039 C 
ENDBRANCH  31  32
ENDBRANCH   8  31
BRANCH   6  36
ATOM     36  C   UNL     1      11.163  76.025  -0.851  1.00  0.00     0.050 C 
BRANCH  36  37
ATOM     37  C   UNL     1       9.752  75.466  -0.877  1.00  0.00    -0.027 C 
ATOM     38  C   UNL     1       9.359  74.399  -1.610  1.00  0.00    -0.080 C 
ATOM     39  C   UNL     1      10.303  73.648  -2.517  1.00  0.00     0.039 C 
ATOM     40  C   UNL     1       7.932  73.918  -1.527  1.00  0.00     0.039 C 
ENDBRANCH  36  37
ENDBRANCH   6  36
TORSDOF 12
ENDMDL
MODEL 13
REMARK VINA RESULT:    -3.567      1.754      6.393
REMARK INTER + INTRA:          -7.132
REMARK INTER:                  -7.265
REMARK INTRA:                   0.133
REMARK UNBOUND:                -1.167
REMARK SMILES CC(C)=CCC[C@]1(C)[C@@H](CC=C(C)C)C[C@]2(CC=C(C)C)C(=O)C(CC=C(C)C)=C(O)[C@@]1(C(=O)C(C)C)C2=O
REMARK SMILES IDX 32 1 30 2 24 3 22 4 23 5 16 6 15 7 9 8 7 9 8 10 38 11 39 12
REMARK SMILES IDX 33 13 34 14 35 15 36 16 37 17 31 18 6 20 5 21 4 22 2 23 1 24
REMARK SMILES IDX 3 25 25 26 26 27 27 28 28 29 29 30 10 31 11 32 12 33 13 34
REMARK SMILES IDX 14 35 17 36 18 37 19 38 20 39 21 40
REMARK H PARENT 31 19
REMARK Flexibility Score: inf
ROOT
ATOM      1  C   UNL     1      11.095  77.481  -0.840  1.00  0.00     0.151 C 
ATOM      2  C   UNL     1      10.367  78.768  -0.340  1.00  0.00     0.121 C 
ATOM      3  C   UNL     1       9.031  78.969  -0.599  1.00  0.00     0.039 C 
ATOM      4  C   UNL     1       8.290  77.995  -1.460  1.00  0.00     0.176 C 
ATOM      5  O   UNL     1       7.221  78.365  -2.019  1.00  0.00    -0.293 OA
ATOM      6  C   UNL     1       8.842  76.608  -1.744  1.00  0.00     0.097 C 
ATOM      7  C   UNL     1       9.399  76.542  -3.207  1.00  0.00     0.028 C 
ATOM      8  C   UNL     1      10.954  76.514  -3.318  1.00  0.00     0.002 C 
ATOM      9  C   UNL     1      11.618  77.622  -2.389  1.00  0.00    -0.002 C 
ATOM     10  C   UNL     1      13.171  77.497  -2.498  1.00  0.00     0.014 C 
ATOM     11  C   UNL     1       9.982  76.430  -0.770  1.00  0.00     0.168 C 
ATOM     12  O   UNL     1       9.902  75.626   0.152  1.00  0.00    -0.297 OA
ENDROOT
BRANCH   1  13
ATOM     13  C   UNL     1      12.242  77.024   0.122  1.00  0.00     0.157 C 
ATOM     14  O   UNL     1      12.487  75.826   0.206  1.00  0.00    -0.298 OA
BRANCH  13  15
ATOM     15  C   UNL     1      13.173  77.962   0.886  1.00  0.00     0.051 C 
ATOM     16  C   UNL     1      14.251  78.573  -0.027  1.00  0.00     0.015 C 
ATOM     17  C   UNL     1      13.853  77.201   2.033  1.00  0.00     0.015 C 
ENDBRANCH  13  15
ENDBRANCH   1  13
BRANCH   2  18
ATOM     18  O   UNL     1      11.131  79.757   0.281  1.00  0.00    -0.510 OA
ATOM     19  H   UNL     1      12.109  79.702   0.529  1.00  0.00     0.293 HD
ENDBRANCH   2  18
BRANCH   9  20
ATOM     20  C   UNL     1      11.269  79.055  -2.974  1.00  0.00     0.013 C 
BRANCH  20  21
ATOM     21  C   UNL     1      12.389  80.123  -3.000  1.00  0.00     0.028 C 
BRANCH  21  22
ATOM     22  C   UNL     1      13.059  80.157  -4.351  1.00  0.00    -0.028 C 
ATOM     23  C   UNL     1      14.397  80.143  -4.542  1.00  0.00    -0.080 C 
ATOM     24  C   UNL     1      15.372  80.036  -3.391  1.00  0.00     0.039 C 
ATOM     25  C   UNL     1      14.921  80.214  -5.954  1.00  0.00     0.039 C 
ENDBRANCH  21  22
ENDBRANCH  20  21
ENDBRANCH   9  20
BRANCH   3  26
ATOM     26  C   UNL     1       8.235  80.162  -0.091  1.00  0.00     0.070 C 
BRANCH  26  27
ATOM     27  C   UNL     1       6.752  79.914  -0.227  1.00  0.00    -0.023 C 
ATOM     28  C   UNL     1       6.003  79.263   0.692  1.00  0.00    -0.080 C 
ATOM     29  C   UNL     1       4.530  79.088   0.433  1.00  0.00     0.039 C 
ATOM     30  C   UNL     1       6.604  78.721   1.968  1.00  0.00     0.039 C 
ENDBRANCH  26  27
ENDBRANCH   3  26
BRANCH   8  31
ATOM     31  C   UNL     1      11.505  75.064  -3.111  1.00  0.00     0.031 C 
BRANCH  31  32
ATOM     32  C   UNL     1      10.526  74.005  -3.565  1.00  0.00    -0.028 C 
ATOM     33  C   UNL     1      10.786  73.073  -4.511  1.00  0.00    -0.080 C 
ATOM     34  C   UNL     1      12.131  72.967  -5.194  1.00  0.00     0.039 C 
ATOM     35  C   UNL     1       9.694  72.097  -4.871  1.00  0.00     0.039 C 
ENDBRANCH  31  32
ENDBRANCH   8  31
BRANCH   6  36
ATOM     36  C   UNL     1       7.750  75.514  -1.500  1.00  0.00     0.050 C 
BRANCH  36  37
ATOM     37  C   UNL     1       7.047  75.628  -0.160  1.00  0.00    -0.027 C 
ATOM     38  C   UNL     1       5.764  75.264   0.071  1.00  0.00    -0.080 C 
ATOM     39  C   UNL     1       4.872  74.712  -1.014  1.00  0.00     0.039 C 
ATOM     40  C   UNL     1       5.185  75.396   1.457  1.00  0.00     0.039 C 
ENDBRANCH  36  37
ENDBRANCH   6  36
TORSDOF 12
ENDMDL
MODEL 14
REMARK VINA RESULT:    -3.418      1.980      6.571
REMARK INTER + INTRA:          -6.884
REMARK INTER:                  -9.099
REMARK INTRA:                   2.216
REMARK UNBOUND:                -1.167
REMARK SMILES CC(C)=CCC[C@]1(C)[C@@H](CC=C(C)C)C[C@]2(CC=C(C)C)C(=O)C(CC=C(C)C)=C(O)[C@@]1(C(=O)C(C)C)C2=O
REMARK SMILES IDX 32 1 30 2 24 3 22 4 23 5 16 6 15 7 9 8 7 9 8 10 38 11 39 12
REMARK SMILES IDX 33 13 34 14 35 15 36 16 37 17 31 18 6 20 5 21 4 22 2 23 1 24
REMARK SMILES IDX 3 25 25 26 26 27 27 28 28 29 29 30 10 31 11 32 12 33 13 34
REMARK SMILES IDX 14 35 17 36 18 37 19 38 20 39 21 40
REMARK H PARENT 31 19
REMARK Flexibility Score: inf
ROOT
ATOM      1  C   UNL     1       9.997  76.012  -0.610  1.00  0.00     0.151 C 
ATOM      2  C   UNL     1       8.568  75.996   0.019  1.00  0.00     0.121 C 
ATOM      3  C   UNL     1       7.495  75.496  -0.682  1.00  0.00     0.039 C 
ATOM      4  C   UNL     1       7.676  75.059  -2.101  1.00  0.00     0.176 C 
ATOM      5  O   UNL     1       6.665  74.989  -2.852  1.00  0.00    -0.293 OA
ATOM      6  C   UNL     1       9.057  74.789  -2.677  1.00  0.00     0.097 C 
ATOM      7  C   UNL     1       9.482  75.962  -3.625  1.00  0.00     0.028 C 
ATOM      8  C   UNL     1      10.580  76.907  -3.050  1.00  0.00     0.002 C 
ATOM      9  C   UNL     1      10.248  77.332  -1.553  1.00  0.00    -0.002 C 
ATOM     10  C   UNL     1      11.416  78.222  -1.018  1.00  0.00     0.014 C 
ATOM     11  C   UNL     1       9.982  74.754  -1.485  1.00  0.00     0.168 C 
ATOM     12  O   UNL     1      10.512  73.707  -1.130  1.00  0.00    -0.297 OA
ENDROOT
BRANCH   1  13
ATOM     13  C   UNL     1      11.129  75.836   0.458  1.00  0.00     0.157 C 
ATOM     14  O   UNL     1      10.876  75.194   1.471  1.00  0.00    -0.298 OA
BRANCH  13  15
ATOM     15  C   UNL     1      12.573  76.299   0.290  1.00  0.00     0.051 C 
ATOM     16  C   UNL     1      13.554  75.432   1.101  1.00  0.00     0.015 C 
ATOM     17  C   UNL     1      12.706  77.762   0.735  1.00  0.00     0.015 C 
ENDBRANCH  13  15
ENDBRANCH   1  13
BRANCH   2  18
ATOM     18  O   UNL     1       8.390  76.599   1.264  1.00  0.00    -0.510 OA
ATOM     19  H   UNL     1       7.543  76.618   1.813  1.00  0.00     0.293 HD
ENDBRANCH   2  18
BRANCH   9  20
ATOM     20  C   UNL     1       8.971  78.272  -1.559  1.00  0.00     0.013 C 
BRANCH  20  21
ATOM     21  C   UNL     1       9.185  79.788  -1.789  1.00  0.00     0.028 C 
BRANCH  21  22
ATOM     22  C   UNL     1       9.439  80.493  -0.479  1.00  0.00    -0.028 C 
ATOM     23  C   UNL     1      10.585  81.137  -0.168  1.00  0.00    -0.080 C 
ATOM     24  C   UNL     1      11.731  81.258  -1.146  1.00  0.00     0.039 C 
ATOM     25  C   UNL     1      10.704  81.769   1.196  1.00  0.00     0.039 C 
ENDBRANCH  21  22
ENDBRANCH  20  21
ENDBRANCH   9  20
BRANCH   3  26
ATOM     26  C   UNL     1       6.087  75.384  -0.116  1.00  0.00     0.070 C 
BRANCH  26  27
ATOM     27  C   UNL     1       5.974  76.129   1.193  1.00  0.00    -0.023 C 
ATOM     28  C   UNL     1       5.793  77.465   1.293  1.00  0.00    -0.080 C 
ATOM     29  C   UNL     1       5.693  78.081   2.664  1.00  0.00     0.039 C 
ATOM     30  C   UNL     1       5.681  78.346   0.071  1.00  0.00     0.039 C 
ENDBRANCH  26  27
ENDBRANCH   3  26
BRANCH   8  31
ATOM     31  C   UNL     1      12.007  76.303  -3.264  1.00  0.00     0.031 C 
BRANCH  31  32
ATOM     32  C   UNL     1      12.762  76.986  -4.382  1.00  0.00    -0.028 C 
ATOM     33  C   UNL     1      13.646  77.995  -4.210  1.00  0.00    -0.080 C 
ATOM     34  C   UNL     1      14.011  78.524  -2.841  1.00  0.00     0.039 C 
ATOM     35  C   UNL     1      14.301  78.588  -5.431  1.00  0.00     0.039 C 
ENDBRANCH  31  32
ENDBRANCH   8  31
BRANCH   6  36
ATOM     36  C   UNL     1       9.088  73.414  -3.423  1.00  0.00     0.050 C 
BRANCH  36  37
ATOM     37  C   UNL     1      10.119  73.335  -4.535  1.00  0.00    -0.027 C 
ATOM     38  C   UNL     1      11.254  72.600  -4.482  1.00  0.00    -0.080 C 
ATOM     39  C   UNL     1      11.633  71.782  -3.272  1.00  0.00     0.039 C 
ATOM     40  C   UNL     1      12.188  72.578  -5.666  1.00  0.00     0.039 C 
ENDBRANCH  36  37
ENDBRANCH   6  36
TORSDOF 12
ENDMDL
MODEL 15
REMARK VINA RESULT:    -3.317      1.709      5.966
REMARK INTER + INTRA:          -6.715
REMARK INTER:                  -7.337
REMARK INTRA:                   0.622
REMARK UNBOUND:                -1.167
REMARK SMILES CC(C)=CCC[C@]1(C)[C@@H](CC=C(C)C)C[C@]2(CC=C(C)C)C(=O)C(CC=C(C)C)=C(O)[C@@]1(C(=O)C(C)C)C2=O
REMARK SMILES IDX 32 1 30 2 24 3 22 4 23 5 16 6 15 7 9 8 7 9 8 10 38 11 39 12
REMARK SMILES IDX 33 13 34 14 35 15 36 16 37 17 31 18 6 20 5 21 4 22 2 23 1 24
REMARK SMILES IDX 3 25 25 26 26 27 27 28 28 29 29 30 10 31 11 32 12 33 13 34
REMARK SMILES IDX 14 35 17 36 18 37 19 38 20 39 21 40
REMARK H PARENT 31 19
REMARK Flexibility Score: inf
ROOT
ATOM      1  C   UNL     1      10.612  78.604  -1.713  1.00  0.00     0.151 C 
ATOM      2  C   UNL     1       9.997  77.232  -2.135  1.00  0.00     0.121 C 
ATOM      3  C   UNL     1      10.518  76.050  -1.663  1.00  0.00     0.039 C 
ATOM      4  C   UNL     1      11.752  76.071  -0.817  1.00  0.00     0.176 C 
ATOM      5  O   UNL     1      12.445  75.021  -0.723  1.00  0.00    -0.293 OA
ATOM      6  C   UNL     1      12.233  77.348  -0.148  1.00  0.00     0.097 C 
ATOM      7  C   UNL     1      13.481  77.914  -0.907  1.00  0.00     0.028 C 
ATOM      8  C   UNL     1      13.209  79.191  -1.759  1.00  0.00     0.002 C 
ATOM      9  C   UNL     1      11.896  79.025  -2.642  1.00  0.00    -0.002 C 
ATOM     10  C   UNL     1      11.647  80.358  -3.419  1.00  0.00     0.014 C 
ATOM     11  C   UNL     1      11.086  78.320  -0.283  1.00  0.00     0.168 C 
ATOM     12  O   UNL     1      10.447  78.681   0.699  1.00  0.00    -0.297 OA
ENDROOT
BRANCH   1  13
ATOM     13  C   UNL     1       9.545  79.747  -1.641  1.00  0.00     0.157 C 
ATOM     14  O   UNL     1       9.938  80.904  -1.546  1.00  0.00    -0.298 OA
BRANCH  13  15
ATOM     15  C   UNL     1       8.039  79.554  -1.801  1.00  0.00     0.051 C 
ATOM     16  C   UNL     1       7.349  80.820  -2.339  1.00  0.00     0.015 C 
ATOM     17  C   UNL     1       7.417  79.174  -0.449  1.00  0.00     0.015 C 
ENDBRANCH  13  15
ENDBRANCH   1  13
BRANCH   2  18
ATOM     18  O   UNL     1       8.977  77.234  -3.088  1.00  0.00    -0.510 OA
ATOM     19  H   UNL     1       8.205  76.586  -3.151  1.00  0.00     0.293 HD
ENDBRANCH   2  18
BRANCH   9  20
ATOM     20  C   UNL     1      12.167  77.931  -3.760  1.00  0.00     0.013 C 
BRANCH  20  21
ATOM     21  C   UNL     1      13.606  77.798  -4.313  1.00  0.00     0.028 C 
BRANCH  21  22
ATOM     22  C   UNL     1      13.919  78.931  -5.259  1.00  0.00    -0.028 C 
ATOM     23  C   UNL     1      14.827  79.901  -5.016  1.00  0.00    -0.080 C 
ATOM     24  C   UNL     1      15.674  79.914  -3.764  1.00  0.00     0.039 C 
ATOM     25  C   UNL     1      15.007  80.989  -6.046  1.00  0.00     0.039 C 
ENDBRANCH  21  22
ENDBRANCH  20  21
ENDBRANCH   9  20
BRANCH   3  26
ATOM     26  C   UNL     1       9.936  74.679  -1.974  1.00  0.00     0.070 C 
BRANCH  26  27
ATOM     27  C   UNL     1      10.385  74.203  -3.335  1.00  0.00    -0.023 C 
ATOM     28  C   UNL     1      10.818  72.949  -3.597  1.00  0.00    -0.080 C 
ATOM     29  C   UNL     1      11.233  72.605  -5.004  1.00  0.00     0.039 C 
ATOM     30  C   UNL     1      10.887  71.891  -2.521  1.00  0.00     0.039 C 
ENDBRANCH  26  27
ENDBRANCH   3  26
BRANCH   8  31
ATOM     31  C   UNL     1      13.247  80.477  -0.869  1.00  0.00     0.031 C 
BRANCH  31  32
ATOM     32  C   UNL     1      13.048  80.170   0.598  1.00  0.00    -0.028 C 
ATOM     33  C   UNL     1      12.233  80.865   1.425  1.00  0.00    -0.080 C 
ATOM     34  C   UNL     1      11.384  82.019   0.941  1.00  0.00     0.039 C 
ATOM     35  C   UNL     1      12.161  80.449   2.872  1.00  0.00     0.039 C 
ENDBRANCH  31  32
ENDBRANCH   8  31
BRANCH   6  36
ATOM     36  C   UNL     1      12.551  77.098   1.364  1.00  0.00     0.050 C 
BRANCH  36  37
ATOM     37  C   UNL     1      13.836  76.328   1.608  1.00  0.00    -0.027 C 
ATOM     38  C   UNL     1      14.093  75.589   2.712  1.00  0.00    -0.080 C 
ATOM     39  C   UNL     1      13.113  75.469   3.853  1.00  0.00     0.039 C 
ATOM     40  C   UNL     1      15.398  74.841   2.826  1.00  0.00     0.039 C 
ENDBRANCH  36  37
ENDBRANCH   6  36
TORSDOF 12
ENDMDL
