MODEL 1
REMARK VINA RESULT:    -8.525      0.000      0.000
REMARK INTER + INTRA:         -17.083
REMARK INTER:                 -16.249
REMARK INTRA:                  -0.834
REMARK UNBOUND:                -0.834
REMARK SMILES NC[C@@H]1O[C@H](O[C@H]2[C@@H](O)[C@H](O[C@@H]3[C@@H](O)[C@H](N)C[C@H](N)[C@H]3O[C@H]3O[C@H](CO)[C@@H](O)[C@H](O)[C@H]3N)O[C@@H]2CO)[C@H](N)[C@@H](O)[C@@H]1O
REMARK SMILES IDX 11 1 10 2 7 3 34 4 8 5 33 6 6 7 5 8 3 9 4 10 41 11 39 12
REMARK SMILES IDX 37 13 2 14 1 15 42 18 40 20 38 22 35 25 36 26 9 28 12 30
REMARK SMILES IDX 13 31 20 32 15 33 18 34 17 35 14 36 21 38 22 39 23 40 31 41
REMARK SMILES IDX 24 42 29 43 27 44 32 45 25 48 26 49 30 51 28 53 16 55 19 58
REMARK H PARENT 1 16 1 17 42 19 40 21 38 23 38 24 36 27 9 29 14 37 32 46 32 47
REMARK H PARENT 26 50 30 52 28 54 16 56 16 57 19 59 19 60
REMARK Flexibility Score: inf
ROOT
ATOM      1  O   UNL     1      12.365  78.874  -1.881  1.00  0.00    -0.341 OA
ENDROOT
BRANCH   1   2
ATOM      2  C   UNL     1      13.548  79.578  -2.271  1.00  0.00     0.282 C 
ATOM      3  C   UNL     1      14.927  79.351  -4.225  1.00  0.00     0.186 C 
ATOM      4  C   UNL     1      14.204  80.707  -4.162  1.00  0.00     0.179 C 
ATOM      5  C   UNL     1      14.626  78.673  -2.895  1.00  0.00     0.202 C 
ATOM      6  O   UNL     1      13.241  80.653  -3.136  1.00  0.00    -0.341 OA
BRANCH   3   7
ATOM      7  O   UNL     1      16.297  79.390  -4.624  1.00  0.00    -0.342 OA
BRANCH   7   8
ATOM      8  C   UNL     1      16.699  80.531  -5.373  1.00  0.00     0.270 C 
ATOM      9  C   UNL     1      18.495  81.986  -5.697  1.00  0.00     0.166 C 
ATOM     10  O   UNL     1      18.061  80.790  -5.072  1.00  0.00    -0.344 OA
ATOM     11  C   UNL     1      18.500  81.823  -7.236  1.00  0.00     0.175 C 
ATOM     12  C   UNL     1      17.087  81.428  -7.714  1.00  0.00     0.167 C 
ATOM     13  C   UNL     1      16.541  80.236  -6.887  1.00  0.00     0.139 C 
BRANCH   9  14
ATOM     14  C   UNL     1      19.865  82.399  -5.131  1.00  0.00     0.112 C 
BRANCH  14  15
ATOM     15  N   UNL     1      20.631  81.240  -4.673  1.00  0.00    -0.328 NA
ATOM     16  H   UNL     1      21.278  81.562  -3.917  1.00  0.00     0.118 HD
ATOM     17  H   UNL     1      21.248  80.923  -5.455  1.00  0.00     0.118 HD
ENDBRANCH  14  15
ENDBRANCH   9  14
BRANCH  11  18
ATOM     18  O   UNL     1      19.424  80.837  -7.619  1.00  0.00    -0.388 OA
ATOM     19  H   UNL     1      20.290  81.297  -7.767  1.00  0.00     0.211 HD
ENDBRANCH  11  18
BRANCH  12  20
ATOM     20  O   UNL     1      16.231  82.536  -7.583  1.00  0.00    -0.388 OA
ATOM     21  H   UNL     1      15.302  82.182  -7.561  1.00  0.00     0.211 HD
ENDBRANCH  12  20
BRANCH  13  22
ATOM     22  N   UNL     1      17.243  78.999  -7.248  1.00  0.00    -0.321 NA
ATOM     23  H   UNL     1      17.978  79.228  -7.955  1.00  0.00     0.119 HD
ATOM     24  H   UNL     1      17.765  78.658  -6.407  1.00  0.00     0.119 HD
ENDBRANCH  13  22
ENDBRANCH   7   8
ENDBRANCH   3   7
BRANCH   4  25
ATOM     25  C   UNL     1      13.503  81.050  -5.485  1.00  0.00     0.191 C 
BRANCH  25  26
ATOM     26  O   UNL     1      13.906  82.311  -5.950  1.00  0.00    -0.394 OA
ATOM     27  H   UNL     1      14.090  82.865  -5.148  1.00  0.00     0.210 HD
ENDBRANCH  25  26
ENDBRANCH   4  25
BRANCH   5  28
ATOM     28  O   UNL     1      15.746  78.595  -2.052  1.00  0.00    -0.385 OA
ATOM     29  H   UNL     1      15.742  77.685  -1.653  1.00  0.00     0.211 HD
ENDBRANCH   5  28
ENDBRANCH   1   2
BRANCH   1  30
ATOM     30  C   UNL     1      11.338  79.727  -1.383  1.00  0.00     0.182 C 
ATOM     31  C   UNL     1      11.865  80.636  -0.236  1.00  0.00     0.163 C 
ATOM     32  C   UNL     1      10.173  78.875  -0.809  1.00  0.00     0.170 C 
ATOM     33  C   UNL     1      10.745  81.605   0.214  1.00  0.00     0.084 C 
ATOM     34  C   UNL     1       9.009  79.836  -0.455  1.00  0.00     0.084 C 
ATOM     35  C   UNL     1       9.480  80.828   0.636  1.00  0.00     0.043 C 
BRANCH  31  36
ATOM     36  O   UNL     1      12.974  81.386  -0.654  1.00  0.00    -0.389 OA
ATOM     37  H   UNL     1      12.647  82.301  -0.857  1.00  0.00     0.211 HD
ENDBRANCH  31  36
BRANCH  32  38
ATOM     38  O   UNL     1       9.757  77.878  -1.746  1.00  0.00    -0.343 OA
BRANCH  38  39
ATOM     39  C   UNL     1       9.968  76.563  -1.222  1.00  0.00     0.270 C 
ATOM     40  O   UNL     1       8.973  76.225  -0.266  1.00  0.00    -0.342 OA
ATOM     41  C   UNL     1      10.060  75.488  -2.334  1.00  0.00     0.139 C 
ATOM     42  C   UNL     1       7.685  76.106  -0.852  1.00  0.00     0.178 C 
ATOM     43  C   UNL     1       8.690  75.269  -2.999  1.00  0.00     0.167 C 
ATOM     44  C   UNL     1       7.650  74.978  -1.908  1.00  0.00     0.176 C 
BRANCH  41  45
ATOM     45  N   UNL     1      11.068  75.856  -3.323  1.00  0.00    -0.321 NA
ATOM     46  H   UNL     1      11.066  75.144  -4.088  1.00  0.00     0.119 HD
ATOM     47  H   UNL     1      12.010  75.774  -2.874  1.00  0.00     0.119 HD
ENDBRANCH  41  45
BRANCH  42  48
ATOM     48  C   UNL     1       6.656  75.870   0.265  1.00  0.00     0.191 C 
BRANCH  48  49
ATOM     49  O   UNL     1       6.284  74.518   0.334  1.00  0.00    -0.394 OA
ATOM     50  H   UNL     1       6.923  74.076   0.954  1.00  0.00     0.210 HD
ENDBRANCH  48  49
ENDBRANCH  42  48
BRANCH  43  51
ATOM     51  O   UNL     1       8.743  74.175  -3.880  1.00  0.00    -0.388 OA
ATOM     52  H   UNL     1       8.405  74.490  -4.759  1.00  0.00     0.211 HD
ENDBRANCH  43  51
BRANCH  44  53
ATOM     53  O   UNL     1       6.368  74.842  -2.475  1.00  0.00    -0.388 OA
ATOM     54  H   UNL     1       5.702  74.938  -1.745  1.00  0.00     0.211 HD
ENDBRANCH  44  53
ENDBRANCH  38  39
ENDBRANCH  32  38
BRANCH  33  55
ATOM     55  N   UNL     1      11.209  82.426   1.337  1.00  0.00    -0.325 NA
ATOM     56  H   UNL     1      11.627  83.305   0.953  1.00  0.00     0.119 HD
ATOM     57  H   UNL     1      11.998  81.927   1.811  1.00  0.00     0.119 HD
ENDBRANCH  33  55
BRANCH  34  58
ATOM     58  N   UNL     1       7.844  79.081   0.015  1.00  0.00    -0.325 NA
ATOM     59  H   UNL     1       8.152  78.294   0.632  1.00  0.00     0.119 HD
ATOM     60  H   UNL     1       7.298  79.708   0.649  1.00  0.00     0.119 HD
ENDBRANCH  34  58
ENDBRANCH   1  30
TORSDOF 22
ENDMDL
MODEL 2
REMARK VINA RESULT:    -8.154      1.645      2.431
REMARK INTER + INTRA:         -16.377
REMARK INTER:                 -13.953
REMARK INTRA:                  -2.424
REMARK UNBOUND:                -0.834
REMARK SMILES NC[C@@H]1O[C@H](O[C@H]2[C@@H](O)[C@H](O[C@@H]3[C@@H](O)[C@H](N)C[C@H](N)[C@H]3O[C@H]3O[C@H](CO)[C@@H](O)[C@H](O)[C@H]3N)O[C@@H]2CO)[C@H](N)[C@@H](O)[C@@H]1O
REMARK SMILES IDX 11 1 10 2 7 3 34 4 8 5 33 6 6 7 5 8 3 9 4 10 41 11 39 12
REMARK SMILES IDX 37 13 2 14 1 15 42 18 40 20 38 22 35 25 36 26 9 28 12 30
REMARK SMILES IDX 13 31 20 32 15 33 18 34 17 35 14 36 21 38 22 39 23 40 31 41
REMARK SMILES IDX 24 42 29 43 27 44 32 45 25 48 26 49 30 51 28 53 16 55 19 58
REMARK H PARENT 1 16 1 17 42 19 40 21 38 23 38 24 36 27 9 29 14 37 32 46 32 47
REMARK H PARENT 26 50 30 52 28 54 16 56 16 57 19 59 19 60
REMARK Flexibility Score: inf
ROOT
ATOM      1  O   UNL     1      11.951  77.824  -0.783  1.00  0.00    -0.341 OA
ENDROOT
BRANCH   1   2
ATOM      2  C   UNL     1      12.961  77.789  -1.796  1.00  0.00     0.282 C 
ATOM      3  C   UNL     1      13.587  79.433  -3.432  1.00  0.00     0.186 C 
ATOM      4  C   UNL     1      14.693  79.175  -2.395  1.00  0.00     0.179 C 
ATOM      5  C   UNL     1      12.509  78.398  -3.135  1.00  0.00     0.202 C 
ATOM      6  O   UNL     1      14.154  78.402  -1.349  1.00  0.00    -0.341 OA
BRANCH   3   7
ATOM      7  O   UNL     1      14.014  79.537  -4.790  1.00  0.00    -0.342 OA
BRANCH   7   8
ATOM      8  C   UNL     1      15.368  79.922  -4.993  1.00  0.00     0.270 C 
ATOM      9  C   UNL     1      17.205  79.545  -6.384  1.00  0.00     0.166 C 
ATOM     10  O   UNL     1      15.823  79.296  -6.183  1.00  0.00    -0.344 OA
ATOM     11  C   UNL     1      17.450  81.047  -6.660  1.00  0.00     0.175 C 
ATOM     12  C   UNL     1      16.902  81.882  -5.484  1.00  0.00     0.167 C 
ATOM     13  C   UNL     1      15.449  81.463  -5.144  1.00  0.00     0.139 C 
BRANCH   9  14
ATOM     14  C   UNL     1      17.738  78.632  -7.502  1.00  0.00     0.112 C 
BRANCH  14  15
ATOM     15  N   UNL     1      16.757  77.617  -7.884  1.00  0.00    -0.328 NA
ATOM     16  H   UNL     1      17.222  76.682  -7.823  1.00  0.00     0.118 HD
ATOM     17  H   UNL     1      16.522  77.750  -8.894  1.00  0.00     0.118 HD
ENDBRANCH  14  15
ENDBRANCH   9  14
BRANCH  11  18
ATOM     18  O   UNL     1      16.817  81.434  -7.853  1.00  0.00    -0.388 OA
ATOM     19  H   UNL     1      17.365  81.075  -8.598  1.00  0.00     0.211 HD
ENDBRANCH  11  18
BRANCH  12  20
ATOM     20  O   UNL     1      17.730  81.696  -4.363  1.00  0.00    -0.388 OA
ATOM     21  H   UNL     1      18.476  82.347  -4.445  1.00  0.00     0.211 HD
ENDBRANCH  12  20
BRANCH  13  22
ATOM     22  N   UNL     1      14.526  81.928  -6.186  1.00  0.00    -0.321 NA
ATOM     23  H   UNL     1      14.707  81.383  -7.060  1.00  0.00     0.119 HD
ATOM     24  H   UNL     1      13.551  81.677  -5.901  1.00  0.00     0.119 HD
ENDBRANCH  13  22
ENDBRANCH   7   8
ENDBRANCH   3   7
BRANCH   4  25
ATOM     25  C   UNL     1      15.253  80.480  -1.811  1.00  0.00     0.191 C 
BRANCH  25  26
ATOM     26  O   UNL     1      15.292  80.423  -0.409  1.00  0.00    -0.394 OA
ATOM     27  H   UNL     1      14.357  80.297  -0.104  1.00  0.00     0.210 HD
ENDBRANCH  25  26
ENDBRANCH   4  25
BRANCH   5  28
ATOM     28  O   UNL     1      12.419  77.401  -4.120  1.00  0.00    -0.385 OA
ATOM     29  H   UNL     1      12.632  77.835  -4.987  1.00  0.00     0.211 HD
ENDBRANCH   5  28
ENDBRANCH   1   2
BRANCH   1  30
ATOM     30  C   UNL     1      11.102  78.964  -0.871  1.00  0.00     0.182 C 
ATOM     31  C   UNL     1      11.366  79.959   0.296  1.00  0.00     0.163 C 
ATOM     32  C   UNL     1       9.614  78.525  -0.785  1.00  0.00     0.170 C 
ATOM     33  C   UNL     1      10.488  81.220   0.113  1.00  0.00     0.084 C 
ATOM     34  C   UNL     1       8.733  79.769  -1.072  1.00  0.00     0.084 C 
ATOM     35  C   UNL     1       8.995  80.842   0.012  1.00  0.00     0.043 C 
BRANCH  31  36
ATOM     36  O   UNL     1      12.714  80.346   0.334  1.00  0.00    -0.389 OA
ATOM     37  H   UNL     1      13.037  80.185   1.259  1.00  0.00     0.211 HD
ENDBRANCH  31  36
BRANCH  32  38
ATOM     38  O   UNL     1       9.337  77.468  -1.707  1.00  0.00    -0.343 OA
BRANCH  38  39
ATOM     39  C   UNL     1       9.478  76.191  -1.078  1.00  0.00     0.270 C 
ATOM     40  O   UNL     1       8.432  75.958  -0.144  1.00  0.00    -0.342 OA
ATOM     41  C   UNL     1       9.579  75.031  -2.101  1.00  0.00     0.139 C 
ATOM     42  C   UNL     1       7.166  75.837  -0.778  1.00  0.00     0.178 C 
ATOM     43  C   UNL     1       8.231  74.808  -2.809  1.00  0.00     0.167 C 
ATOM     44  C   UNL     1       7.135  74.634  -1.748  1.00  0.00     0.176 C 
BRANCH  41  45
ATOM     45  N   UNL     1      10.641  75.291  -3.069  1.00  0.00    -0.321 NA
ATOM     46  H   UNL     1      10.286  75.070  -4.027  1.00  0.00     0.119 HD
ATOM     47  H   UNL     1      11.412  74.604  -2.896  1.00  0.00     0.119 HD
ENDBRANCH  41  45
BRANCH  42  48
ATOM     48  C   UNL     1       6.083  75.721   0.306  1.00  0.00     0.191 C 
BRANCH  48  49
ATOM     49  O   UNL     1       5.862  74.380   0.659  1.00  0.00    -0.394 OA
ATOM     50  H   UNL     1       6.096  74.293   1.620  1.00  0.00     0.210 HD
ENDBRANCH  48  49
ENDBRANCH  42  48
BRANCH  43  51
ATOM     51  O   UNL     1       8.282  73.650  -3.604  1.00  0.00    -0.388 OA
ATOM     52  H   UNL     1       7.737  72.956  -3.147  1.00  0.00     0.211 HD
ENDBRANCH  43  51
BRANCH  44  53
ATOM     53  O   UNL     1       5.875  74.498  -2.360  1.00  0.00    -0.388 OA
ATOM     54  H   UNL     1       5.681  73.528  -2.440  1.00  0.00     0.211 HD
ENDBRANCH  44  53
ENDBRANCH  38  39
ENDBRANCH  32  38
BRANCH  33  55
ATOM     55  N   UNL     1      10.683  82.138   1.238  1.00  0.00    -0.325 NA
ATOM     56  H   UNL     1      11.384  82.862   0.957  1.00  0.00     0.119 HD
ATOM     57  H   UNL     1      11.128  81.611   2.026  1.00  0.00     0.119 HD
ENDBRANCH  33  55
BRANCH  34  58
ATOM     58  N   UNL     1       7.314  79.400  -1.088  1.00  0.00    -0.325 NA
ATOM     59  H   UNL     1       6.765  80.114  -1.621  1.00  0.00     0.119 HD
ATOM     60  H   UNL     1       7.223  78.527  -1.656  1.00  0.00     0.119 HD
ENDBRANCH  34  58
ENDBRANCH   1  30
TORSDOF 22
ENDMDL
MODEL 3
REMARK VINA RESULT:    -8.104      1.892      2.876
REMARK INTER + INTRA:         -16.282
REMARK INTER:                 -14.135
REMARK INTRA:                  -2.147
REMARK UNBOUND:                -0.834
REMARK SMILES NC[C@@H]1O[C@H](O[C@H]2[C@@H](O)[C@H](O[C@@H]3[C@@H](O)[C@H](N)C[C@H](N)[C@H]3O[C@H]3O[C@H](CO)[C@@H](O)[C@H](O)[C@H]3N)O[C@@H]2CO)[C@H](N)[C@@H](O)[C@@H]1O
REMARK SMILES IDX 11 1 10 2 7 3 34 4 8 5 33 6 6 7 5 8 3 9 4 10 41 11 39 12
REMARK SMILES IDX 37 13 2 14 1 15 42 18 40 20 38 22 35 25 36 26 9 28 12 30
REMARK SMILES IDX 13 31 20 32 15 33 18 34 17 35 14 36 21 38 22 39 23 40 31 41
REMARK SMILES IDX 24 42 29 43 27 44 32 45 25 48 26 49 30 51 28 53 16 55 19 58
REMARK H PARENT 1 16 1 17 42 19 40 21 38 23 38 24 36 27 9 29 14 37 32 46 32 47
REMARK H PARENT 26 50 30 52 28 54 16 56 16 57 19 59 19 60
REMARK Flexibility Score: inf
ROOT
ATOM      1  O   UNL     1      12.064  77.883  -0.648  1.00  0.00    -0.341 OA
ENDROOT
BRANCH   1   2
ATOM      2  C   UNL     1      13.057  77.824  -1.675  1.00  0.00     0.282 C 
ATOM      3  C   UNL     1      13.675  79.439  -3.343  1.00  0.00     0.186 C 
ATOM      4  C   UNL     1      14.794  79.184  -2.320  1.00  0.00     0.179 C 
ATOM      5  C   UNL     1      12.591  78.420  -3.016  1.00  0.00     0.202 C 
ATOM      6  O   UNL     1      14.263  78.430  -1.256  1.00  0.00    -0.341 OA
BRANCH   3   7
ATOM      7  O   UNL     1      14.082  79.521  -4.709  1.00  0.00    -0.342 OA
BRANCH   7   8
ATOM      8  C   UNL     1      15.427  79.919  -4.939  1.00  0.00     0.270 C 
ATOM      9  C   UNL     1      17.241  79.560  -6.363  1.00  0.00     0.166 C 
ATOM     10  O   UNL     1      15.866  79.296  -6.136  1.00  0.00    -0.344 OA
ATOM     11  C   UNL     1      17.465  81.064  -6.648  1.00  0.00     0.175 C 
ATOM     12  C   UNL     1      16.931  81.895  -5.462  1.00  0.00     0.167 C 
ATOM     13  C   UNL     1      15.489  81.461  -5.094  1.00  0.00     0.139 C 
BRANCH   9  14
ATOM     14  C   UNL     1      17.762  78.650  -7.490  1.00  0.00     0.112 C 
BRANCH  14  15
ATOM     15  N   UNL     1      16.767  77.653  -7.884  1.00  0.00    -0.328 NA
ATOM     16  H   UNL     1      16.315  77.290  -7.014  1.00  0.00     0.118 HD
ATOM     17  H   UNL     1      17.268  76.837  -8.304  1.00  0.00     0.118 HD
ENDBRANCH  14  15
ENDBRANCH   9  14
BRANCH  11  18
ATOM     18  O   UNL     1      16.805  81.441  -7.829  1.00  0.00    -0.388 OA
ATOM     19  H   UNL     1      17.395  81.182  -8.583  1.00  0.00     0.211 HD
ENDBRANCH  11  18
BRANCH  12  20
ATOM     20  O   UNL     1      17.782  81.720  -4.357  1.00  0.00    -0.388 OA
ATOM     21  H   UNL     1      18.184  82.607  -4.161  1.00  0.00     0.211 HD
ENDBRANCH  12  20
BRANCH  13  22
ATOM     22  N   UNL     1      14.542  81.914  -6.119  1.00  0.00    -0.321 NA
ATOM     23  H   UNL     1      13.624  82.116  -5.659  1.00  0.00     0.119 HD
ATOM     24  H   UNL     1      14.873  82.835  -6.491  1.00  0.00     0.119 HD
ENDBRANCH  13  22
ENDBRANCH   7   8
ENDBRANCH   3   7
BRANCH   4  25
ATOM     25  C   UNL     1      15.377  80.491  -1.762  1.00  0.00     0.191 C 
BRANCH  25  26
ATOM     26  O   UNL     1      15.322  80.503  -0.360  1.00  0.00    -0.394 OA
ATOM     27  H   UNL     1      15.431  81.448  -0.079  1.00  0.00     0.210 HD
ENDBRANCH  25  26
ENDBRANCH   4  25
BRANCH   5  28
ATOM     28  O   UNL     1      12.476  77.411  -3.986  1.00  0.00    -0.385 OA
ATOM     29  H   UNL     1      11.513  77.348  -4.221  1.00  0.00     0.211 HD
ENDBRANCH   5  28
ENDBRANCH   1   2
BRANCH   1  30
ATOM     30  C   UNL     1      11.155  78.970  -0.802  1.00  0.00     0.182 C 
ATOM     31  C   UNL     1      11.376  80.052   0.294  1.00  0.00     0.163 C 
ATOM     32  C   UNL     1       9.693  78.461  -0.672  1.00  0.00     0.170 C 
ATOM     33  C   UNL     1      10.431  81.251   0.037  1.00  0.00     0.084 C 
ATOM     34  C   UNL     1       8.746  79.635  -1.031  1.00  0.00     0.084 C 
ATOM     35  C   UNL     1       8.959  80.790  -0.023  1.00  0.00     0.043 C 
BRANCH  31  36
ATOM     36  O   UNL     1      12.701  80.509   0.292  1.00  0.00    -0.389 OA
ATOM     37  H   UNL     1      13.150  80.101  -0.493  1.00  0.00     0.211 HD
ENDBRANCH  31  36
BRANCH  32  38
ATOM     38  O   UNL     1       9.465  77.332  -1.519  1.00  0.00    -0.343 OA
BRANCH  38  39
ATOM     39  C   UNL     1       8.586  76.392  -0.893  1.00  0.00     0.270 C 
ATOM     40  O   UNL     1       7.500  76.056  -1.746  1.00  0.00    -0.342 OA
ATOM     41  C   UNL     1       9.325  75.120  -0.406  1.00  0.00     0.139 C 
ATOM     42  C   UNL     1       7.925  75.342  -2.898  1.00  0.00     0.178 C 
ATOM     43  C   UNL     1       9.788  74.265  -1.598  1.00  0.00     0.167 C 
ATOM     44  C   UNL     1       8.586  73.999  -2.515  1.00  0.00     0.176 C 
BRANCH  41  45
ATOM     45  N   UNL     1      10.452  75.476   0.451  1.00  0.00    -0.321 NA
ATOM     46  H   UNL     1      11.030  74.622   0.620  1.00  0.00     0.119 HD
ATOM     47  H   UNL     1      10.075  75.743   1.390  1.00  0.00     0.119 HD
ENDBRANCH  41  45
BRANCH  42  48
ATOM     48  C   UNL     1       6.715  75.137  -3.823  1.00  0.00     0.191 C 
BRANCH  48  49
ATOM     49  O   UNL     1       6.638  76.154  -4.788  1.00  0.00    -0.394 OA
ATOM     50  H   UNL     1       5.983  75.852  -5.472  1.00  0.00     0.210 HD
ENDBRANCH  48  49
ENDBRANCH  42  48
BRANCH  43  51
ATOM     51  O   UNL     1      10.299  73.035  -1.150  1.00  0.00    -0.388 OA
ATOM     52  H   UNL     1       9.877  72.324  -1.699  1.00  0.00     0.211 HD
ENDBRANCH  43  51
BRANCH  44  53
ATOM     53  O   UNL     1       8.987  73.278  -3.655  1.00  0.00    -0.388 OA
ATOM     54  H   UNL     1       8.293  72.593  -3.841  1.00  0.00     0.211 HD
ENDBRANCH  44  53
ENDBRANCH  38  39
ENDBRANCH  32  38
BRANCH  33  55
ATOM     55  N   UNL     1      10.586  82.251   1.098  1.00  0.00    -0.325 NA
ATOM     56  H   UNL     1      11.058  81.797   1.914  1.00  0.00     0.119 HD
ATOM     57  H   UNL     1       9.635  82.522   1.442  1.00  0.00     0.119 HD
ENDBRANCH  33  55
BRANCH  34  58
ATOM     58  N   UNL     1       7.348  79.193  -1.008  1.00  0.00    -0.325 NA
ATOM     59  H   UNL     1       7.291  78.174  -1.238  1.00  0.00     0.119 HD
ATOM     60  H   UNL     1       7.016  79.255  -0.019  1.00  0.00     0.119 HD
ENDBRANCH  34  58
ENDBRANCH   1  30
TORSDOF 22
ENDMDL
MODEL 4
REMARK VINA RESULT:    -7.700      2.306      3.854
REMARK INTER + INTRA:         -15.511
REMARK INTER:                 -14.538
REMARK INTRA:                  -0.973
REMARK UNBOUND:                -0.834
REMARK SMILES NC[C@@H]1O[C@H](O[C@H]2[C@@H](O)[C@H](O[C@@H]3[C@@H](O)[C@H](N)C[C@H](N)[C@H]3O[C@H]3O[C@H](CO)[C@@H](O)[C@H](O)[C@H]3N)O[C@@H]2CO)[C@H](N)[C@@H](O)[C@@H]1O
REMARK SMILES IDX 11 1 10 2 7 3 34 4 8 5 33 6 6 7 5 8 3 9 4 10 41 11 39 12
REMARK SMILES IDX 37 13 2 14 1 15 42 18 40 20 38 22 35 25 36 26 9 28 12 30
REMARK SMILES IDX 13 31 20 32 15 33 18 34 17 35 14 36 21 38 22 39 23 40 31 41
REMARK SMILES IDX 24 42 29 43 27 44 32 45 25 48 26 49 30 51 28 53 16 55 19 58
REMARK H PARENT 1 16 1 17 42 19 40 21 38 23 38 24 36 27 9 29 14 37 32 46 32 47
REMARK H PARENT 26 50 30 52 28 54 16 56 16 57 19 59 19 60
REMARK Flexibility Score: inf
ROOT
ATOM      1  O   UNL     1      11.935  77.345  -1.666  1.00  0.00    -0.341 OA
ENDROOT
BRANCH   1   2
ATOM      2  C   UNL     1      13.032  77.919  -2.383  1.00  0.00     0.282 C 
ATOM      3  C   UNL     1      13.286  80.096  -3.367  1.00  0.00     0.186 C 
ATOM      4  C   UNL     1      14.247  79.859  -2.189  1.00  0.00     0.179 C 
ATOM      5  C   UNL     1      12.601  78.755  -3.601  1.00  0.00     0.202 C 
ATOM      6  O   UNL     1      13.861  78.679  -1.526  1.00  0.00    -0.341 OA
BRANCH   3   7
ATOM      7  O   UNL     1      13.847  80.734  -4.514  1.00  0.00    -0.342 OA
BRANCH   7   8
ATOM      8  C   UNL     1      15.205  80.426  -4.802  1.00  0.00     0.270 C 
ATOM      9  C   UNL     1      16.543  79.063  -6.144  1.00  0.00     0.166 C 
ATOM     10  O   UNL     1      15.221  79.503  -5.880  1.00  0.00    -0.344 OA
ATOM     11  C   UNL     1      17.409  80.233  -6.669  1.00  0.00     0.175 C 
ATOM     12  C   UNL     1      17.402  81.379  -5.636  1.00  0.00     0.167 C 
ATOM     13  C   UNL     1      15.953  81.722  -5.206  1.00  0.00     0.139 C 
BRANCH   9  14
ATOM     14  C   UNL     1      16.506  77.863  -7.106  1.00  0.00     0.112 C 
BRANCH  14  15
ATOM     15  N   UNL     1      17.652  77.862  -8.015  1.00  0.00    -0.328 NA
ATOM     16  H   UNL     1      17.656  78.774  -8.526  1.00  0.00     0.118 HD
ATOM     17  H   UNL     1      17.493  77.130  -8.744  1.00  0.00     0.118 HD
ENDBRANCH  14  15
ENDBRANCH   9  14
BRANCH  11  18
ATOM     18  O   UNL     1      16.910  80.696  -7.897  1.00  0.00    -0.388 OA
ATOM     19  H   UNL     1      16.177  81.332  -7.689  1.00  0.00     0.211 HD
ENDBRANCH  11  18
BRANCH  12  20
ATOM     20  O   UNL     1      18.158  80.993  -4.515  1.00  0.00    -0.388 OA
ATOM     21  H   UNL     1      18.953  80.505  -4.858  1.00  0.00     0.211 HD
ENDBRANCH  12  20
BRANCH  13  22
ATOM     22  N   UNL     1      15.246  82.408  -6.293  1.00  0.00    -0.321 NA
ATOM     23  H   UNL     1      15.919  82.575  -7.076  1.00  0.00     0.119 HD
ATOM     24  H   UNL     1      14.526  81.756  -6.683  1.00  0.00     0.119 HD
ENDBRANCH  13  22
ENDBRANCH   7   8
ENDBRANCH   3   7
BRANCH   4  25
ATOM     25  C   UNL     1      14.230  81.022  -1.186  1.00  0.00     0.191 C 
BRANCH  25  26
ATOM     26  O   UNL     1      14.958  80.696  -0.032  1.00  0.00    -0.394 OA
ATOM     27  H   UNL     1      15.888  80.509  -0.326  1.00  0.00     0.210 HD
ENDBRANCH  25  26
ENDBRANCH   4  25
BRANCH   5  28
ATOM     28  O   UNL     1      13.008  78.132  -4.791  1.00  0.00    -0.385 OA
ATOM     29  H   UNL     1      13.516  78.809  -5.310  1.00  0.00     0.211 HD
ENDBRANCH   5  28
ENDBRANCH   1   2
BRANCH   1  30
ATOM     30  C   UNL     1      10.676  77.916  -2.010  1.00  0.00     0.182 C 
ATOM     31  C   UNL     1      10.207  78.941  -0.938  1.00  0.00     0.163 C 
ATOM     32  C   UNL     1       9.596  76.803  -2.099  1.00  0.00     0.170 C 
ATOM     33  C   UNL     1       8.883  79.601  -1.393  1.00  0.00     0.084 C 
ATOM     34  C   UNL     1       8.297  77.443  -2.654  1.00  0.00     0.084 C 
ATOM     35  C   UNL     1       7.804  78.533  -1.673  1.00  0.00     0.043 C 
BRANCH  31  36
ATOM     36  O   UNL     1      11.169  79.943  -0.742  1.00  0.00    -0.389 OA
ATOM     37  H   UNL     1      11.481  80.228  -1.641  1.00  0.00     0.211 HD
ENDBRANCH  31  36
BRANCH  32  38
ATOM     38  O   UNL     1      10.038  75.723  -2.925  1.00  0.00    -0.343 OA
BRANCH  38  39
ATOM     39  C   UNL     1       9.072  74.668  -2.948  1.00  0.00     0.270 C 
ATOM     40  O   UNL     1       9.109  73.962  -4.181  1.00  0.00    -0.342 OA
ATOM     41  C   UNL     1       9.220  73.699  -1.748  1.00  0.00     0.139 C 
ATOM     42  C   UNL     1      10.327  73.252  -4.354  1.00  0.00     0.178 C 
ATOM     43  C   UNL     1      10.503  72.859  -1.877  1.00  0.00     0.167 C 
ATOM     44  C   UNL     1      10.516  72.182  -3.255  1.00  0.00     0.176 C 
BRANCH  41  45
ATOM     45  N   UNL     1       9.203  74.435  -0.487  1.00  0.00    -0.321 NA
ATOM     46  H   UNL     1       8.240  74.391  -0.084  1.00  0.00     0.119 HD
ATOM     47  H   UNL     1       9.366  75.447  -0.700  1.00  0.00     0.119 HD
ENDBRANCH  41  45
BRANCH  42  48
ATOM     48  C   UNL     1      10.338  72.631  -5.760  1.00  0.00     0.191 C 
BRANCH  48  49
ATOM     49  O   UNL     1       9.877  71.305  -5.731  1.00  0.00    -0.394 OA
ATOM     50  H   UNL     1      10.317  70.865  -4.957  1.00  0.00     0.210 HD
ENDBRANCH  48  49
ENDBRANCH  42  48
BRANCH  43  51
ATOM     51  O   UNL     1      10.541  71.867  -0.883  1.00  0.00    -0.388 OA
ATOM     52  H   UNL     1      10.242  71.019  -1.303  1.00  0.00     0.211 HD
ENDBRANCH  43  51
BRANCH  44  53
ATOM     53  O   UNL     1      11.710  71.461  -3.437  1.00  0.00    -0.388 OA
ATOM     54  H   UNL     1      11.564  70.812  -4.175  1.00  0.00     0.211 HD
ENDBRANCH  44  53
ENDBRANCH  38  39
ENDBRANCH  32  38
BRANCH  33  55
ATOM     55  N   UNL     1       8.399  80.524  -0.363  1.00  0.00    -0.325 NA
ATOM     56  H   UNL     1       7.428  80.242  -0.095  1.00  0.00     0.119 HD
ATOM     57  H   UNL     1       8.306  81.477  -0.786  1.00  0.00     0.119 HD
ENDBRANCH  33  55
BRANCH  34  58
ATOM     58  N   UNL     1       7.260  76.422  -2.841  1.00  0.00    -0.325 NA
ATOM     59  H   UNL     1       7.618  75.489  -2.533  1.00  0.00     0.119 HD
ATOM     60  H   UNL     1       6.486  76.636  -2.172  1.00  0.00     0.119 HD
ENDBRANCH  34  58
ENDBRANCH   1  30
TORSDOF 22
ENDMDL
MODEL 5
REMARK VINA RESULT:    -7.695      1.495      2.313
REMARK INTER + INTRA:         -15.502
REMARK INTER:                 -12.866
REMARK INTRA:                  -2.636
REMARK UNBOUND:                -0.834
REMARK SMILES NC[C@@H]1O[C@H](O[C@H]2[C@@H](O)[C@H](O[C@@H]3[C@@H](O)[C@H](N)C[C@H](N)[C@H]3O[C@H]3O[C@H](CO)[C@@H](O)[C@H](O)[C@H]3N)O[C@@H]2CO)[C@H](N)[C@@H](O)[C@@H]1O
REMARK SMILES IDX 11 1 10 2 7 3 34 4 8 5 33 6 6 7 5 8 3 9 4 10 41 11 39 12
REMARK SMILES IDX 37 13 2 14 1 15 42 18 40 20 38 22 35 25 36 26 9 28 12 30
REMARK SMILES IDX 13 31 20 32 15 33 18 34 17 35 14 36 21 38 22 39 23 40 31 41
REMARK SMILES IDX 24 42 29 43 27 44 32 45 25 48 26 49 30 51 28 53 16 55 19 58
REMARK H PARENT 1 16 1 17 42 19 40 21 38 23 38 24 36 27 9 29 14 37 32 46 32 47
REMARK H PARENT 26 50 30 52 28 54 16 56 16 57 19 59 19 60
REMARK Flexibility Score: inf
ROOT
ATOM      1  O   UNL     1      11.542  77.756  -0.384  1.00  0.00    -0.341 OA
ENDROOT
BRANCH   1   2
ATOM      2  C   UNL     1      12.726  77.478  -1.136  1.00  0.00     0.282 C 
ATOM      3  C   UNL     1      14.026  78.891  -2.580  1.00  0.00     0.186 C 
ATOM      4  C   UNL     1      14.792  78.467  -1.316  1.00  0.00     0.179 C 
ATOM      5  C   UNL     1      12.723  78.103  -2.543  1.00  0.00     0.202 C 
ATOM      6  O   UNL     1      13.885  77.863  -0.425  1.00  0.00    -0.341 OA
BRANCH   3   7
ATOM      7  O   UNL     1      14.762  78.849  -3.803  1.00  0.00    -0.342 OA
BRANCH   7   8
ATOM      8  C   UNL     1      15.163  80.104  -4.336  1.00  0.00     0.270 C 
ATOM      9  C   UNL     1      17.047  81.305  -5.014  1.00  0.00     0.166 C 
ATOM     10  O   UNL     1      16.559  80.043  -4.587  1.00  0.00    -0.344 OA
ATOM     11  C   UNL     1      16.457  81.675  -6.395  1.00  0.00     0.175 C 
ATOM     12  C   UNL     1      14.917  81.678  -6.311  1.00  0.00     0.167 C 
ATOM     13  C   UNL     1      14.401  80.369  -5.660  1.00  0.00     0.139 C 
BRANCH   9  14
ATOM     14  C   UNL     1      18.586  81.295  -4.999  1.00  0.00     0.112 C 
BRANCH  14  15
ATOM     15  N   UNL     1      19.142  82.259  -5.949  1.00  0.00    -0.328 NA
ATOM     16  H   UNL     1      18.399  82.962  -6.165  1.00  0.00     0.118 HD
ATOM     17  H   UNL     1      19.332  81.762  -6.849  1.00  0.00     0.118 HD
ENDBRANCH  14  15
ENDBRANCH   9  14
BRANCH  11  18
ATOM     18  O   UNL     1      16.879  80.755  -7.369  1.00  0.00    -0.388 OA
ATOM     19  H   UNL     1      16.523  81.073  -8.238  1.00  0.00     0.211 HD
ENDBRANCH  11  18
BRANCH  12  20
ATOM     20  O   UNL     1      14.499  82.787  -5.555  1.00  0.00    -0.388 OA
ATOM     21  H   UNL     1      14.952  82.722  -4.673  1.00  0.00     0.211 HD
ENDBRANCH  12  20
BRANCH  13  22
ATOM     22  N   UNL     1      14.564  79.240  -6.584  1.00  0.00    -0.321 NA
ATOM     23  H   UNL     1      13.646  79.053  -7.047  1.00  0.00     0.119 HD
ATOM     24  H   UNL     1      15.208  79.534  -7.355  1.00  0.00     0.119 HD
ENDBRANCH  13  22
ENDBRANCH   7   8
ENDBRANCH   3   7
BRANCH   4  25
ATOM     25  C   UNL     1      15.457  79.661  -0.615  1.00  0.00     0.191 C 
BRANCH  25  26
ATOM     26  O   UNL     1      15.090  79.713   0.738  1.00  0.00    -0.394 OA
ATOM     27  H   UNL     1      14.451  80.466   0.830  1.00  0.00     0.210 HD
ENDBRANCH  25  26
ENDBRANCH   4  25
BRANCH   5  28
ATOM     28  O   UNL     1      12.659  77.100  -3.524  1.00  0.00    -0.385 OA
ATOM     29  H   UNL     1      12.269  76.298  -3.088  1.00  0.00     0.211 HD
ENDBRANCH   5  28
ENDBRANCH   1   2
BRANCH   1  30
ATOM     30  C   UNL     1      10.900  78.969  -0.770  1.00  0.00     0.182 C 
ATOM     31  C   UNL     1      11.070  80.068   0.318  1.00  0.00     0.163 C 
ATOM     32  C   UNL     1       9.377  78.726  -0.958  1.00  0.00     0.170 C 
ATOM     33  C   UNL     1      10.437  81.391  -0.177  1.00  0.00     0.084 C 
ATOM     34  C   UNL     1       8.759  80.018  -1.553  1.00  0.00     0.084 C 
ATOM     35  C   UNL     1       8.954  81.185  -0.556  1.00  0.00     0.043 C 
BRANCH  31  36
ATOM     36  O   UNL     1      12.424  80.292   0.603  1.00  0.00    -0.389 OA
ATOM     37  H   UNL     1      12.851  80.608  -0.236  1.00  0.00     0.211 HD
ENDBRANCH  31  36
BRANCH  32  38
ATOM     38  O   UNL     1       9.138  77.598  -1.804  1.00  0.00    -0.343 OA
BRANCH  38  39
ATOM     39  C   UNL     1       9.337  76.373  -1.091  1.00  0.00     0.270 C 
ATOM     40  O   UNL     1       8.320  76.173  -0.119  1.00  0.00    -0.342 OA
ATOM     41  C   UNL     1       9.455  75.149  -2.034  1.00  0.00     0.139 C 
ATOM     42  C   UNL     1       7.046  75.966  -0.712  1.00  0.00     0.178 C 
ATOM     43  C   UNL     1       8.101  74.833  -2.692  1.00  0.00     0.167 C 
ATOM     44  C   UNL     1       7.035  74.698  -1.595  1.00  0.00     0.176 C 
BRANCH  41  45
ATOM     45  N   UNL     1      10.486  75.375  -3.043  1.00  0.00    -0.321 NA
ATOM     46  H   UNL     1      11.227  74.645  -2.936  1.00  0.00     0.119 HD
ATOM     47  H   UNL     1      10.960  76.282  -2.825  1.00  0.00     0.119 HD
ENDBRANCH  41  45
BRANCH  42  48
ATOM     48  C   UNL     1       5.991  75.891   0.403  1.00  0.00     0.191 C 
BRANCH  48  49
ATOM     49  O   UNL     1       5.717  74.558   0.752  1.00  0.00    -0.394 OA
ATOM     50  H   UNL     1       4.966  74.260   0.175  1.00  0.00     0.210 HD
ENDBRANCH  48  49
ENDBRANCH  42  48
BRANCH  43  51
ATOM     51  O   UNL     1       8.175  73.624  -3.405  1.00  0.00    -0.388 OA
ATOM     52  H   UNL     1       7.401  73.603  -4.028  1.00  0.00     0.211 HD
ENDBRANCH  43  51
BRANCH  44  53
ATOM     53  O   UNL     1       5.768  74.478  -2.166  1.00  0.00    -0.388 OA
ATOM     54  H   UNL     1       5.770  73.571  -2.570  1.00  0.00     0.211 HD
ENDBRANCH  44  53
ENDBRANCH  38  39
ENDBRANCH  32  38
BRANCH  33  55
ATOM     55  N   UNL     1      10.535  82.418   0.863  1.00  0.00    -0.325 NA
ATOM     56  H   UNL     1      11.185  83.166   0.528  1.00  0.00     0.119 HD
ATOM     57  H   UNL     1      11.001  82.000   1.702  1.00  0.00     0.119 HD
ENDBRANCH  33  55
BRANCH  34  58
ATOM     58  N   UNL     1       7.333  79.823  -1.834  1.00  0.00    -0.325 NA
ATOM     59  H   UNL     1       6.770  80.561  -1.353  1.00  0.00     0.119 HD
ATOM     60  H   UNL     1       7.187  80.008  -2.853  1.00  0.00     0.119 HD
ENDBRANCH  34  58
ENDBRANCH   1  30
TORSDOF 22
ENDMDL
MODEL 6
REMARK VINA RESULT:    -7.234      1.376      1.892
REMARK INTER + INTRA:         -14.624
REMARK INTER:                 -13.221
REMARK INTRA:                  -1.402
REMARK UNBOUND:                -0.834
REMARK SMILES NC[C@@H]1O[C@H](O[C@H]2[C@@H](O)[C@H](O[C@@H]3[C@@H](O)[C@H](N)C[C@H](N)[C@H]3O[C@H]3O[C@H](CO)[C@@H](O)[C@H](O)[C@H]3N)O[C@@H]2CO)[C@H](N)[C@@H](O)[C@@H]1O
REMARK SMILES IDX 11 1 10 2 7 3 34 4 8 5 33 6 6 7 5 8 3 9 4 10 41 11 39 12
REMARK SMILES IDX 37 13 2 14 1 15 42 18 40 20 38 22 35 25 36 26 9 28 12 30
REMARK SMILES IDX 13 31 20 32 15 33 18 34 17 35 14 36 21 38 22 39 23 40 31 41
REMARK SMILES IDX 24 42 29 43 27 44 32 45 25 48 26 49 30 51 28 53 16 55 19 58
REMARK H PARENT 1 16 1 17 42 19 40 21 38 23 38 24 36 27 9 29 14 37 32 46 32 47
REMARK H PARENT 26 50 30 52 28 54 16 56 16 57 19 59 19 60
REMARK Flexibility Score: inf
ROOT
ATOM      1  O   UNL     1      12.006  79.004  -1.939  1.00  0.00    -0.341 OA
ENDROOT
BRANCH   1   2
ATOM      2  C   UNL     1      12.856  79.734  -2.828  1.00  0.00     0.282 C 
ATOM      3  C   UNL     1      14.992  79.160  -3.766  1.00  0.00     0.186 C 
ATOM      4  C   UNL     1      13.884  79.260  -4.828  1.00  0.00     0.179 C 
ATOM      5  C   UNL     1      14.350  79.636  -2.469  1.00  0.00     0.202 C 
ATOM      6  O   UNL     1      12.642  79.348  -4.171  1.00  0.00    -0.341 OA
BRANCH   3   7
ATOM      7  O   UNL     1      16.245  79.751  -4.111  1.00  0.00    -0.342 OA
BRANCH   7   8
ATOM      8  C   UNL     1      16.590  79.727  -5.491  1.00  0.00     0.270 C 
ATOM      9  C   UNL     1      16.988  81.124  -7.318  1.00  0.00     0.166 C 
ATOM     10  O   UNL     1      16.755  81.070  -5.920  1.00  0.00    -0.344 OA
ATOM     11  C   UNL     1      18.347  80.473  -7.667  1.00  0.00     0.175 C 
ATOM     12  C   UNL     1      18.363  79.016  -7.160  1.00  0.00     0.167 C 
ATOM     13  C   UNL     1      17.917  78.947  -5.677  1.00  0.00     0.139 C 
BRANCH   9  14
ATOM     14  C   UNL     1      16.874  82.579  -7.805  1.00  0.00     0.112 C 
BRANCH  14  15
ATOM     15  N   UNL     1      18.073  83.003  -8.529  1.00  0.00    -0.328 NA
ATOM     16  H   UNL     1      18.791  82.251  -8.427  1.00  0.00     0.118 HD
ATOM     17  H   UNL     1      18.470  83.841  -8.045  1.00  0.00     0.118 HD
ENDBRANCH  14  15
ENDBRANCH   9  14
BRANCH  11  18
ATOM     18  O   UNL     1      19.399  81.194  -7.079  1.00  0.00    -0.388 OA
ATOM     19  H   UNL     1      19.591  81.962  -7.677  1.00  0.00     0.211 HD
ENDBRANCH  11  18
BRANCH  12  20
ATOM     20  O   UNL     1      17.504  78.241  -7.957  1.00  0.00    -0.388 OA
ATOM     21  H   UNL     1      16.577  78.435  -7.655  1.00  0.00     0.211 HD
ENDBRANCH  12  20
BRANCH  13  22
ATOM     22  N   UNL     1      18.962  79.492  -4.802  1.00  0.00    -0.321 NA
ATOM     23  H   UNL     1      19.750  78.806  -4.758  1.00  0.00     0.119 HD
ATOM     24  H   UNL     1      19.363  80.345  -5.258  1.00  0.00     0.119 HD
ENDBRANCH  13  22
ENDBRANCH   7   8
ENDBRANCH   3   7
BRANCH   4  25
ATOM     25  C   UNL     1      13.867  78.042  -5.763  1.00  0.00     0.191 C 
BRANCH  25  26
ATOM     26  O   UNL     1      14.239  76.879  -5.073  1.00  0.00    -0.394 OA
ATOM     27  H   UNL     1      15.214  76.949  -4.904  1.00  0.00     0.210 HD
ENDBRANCH  25  26
ENDBRANCH   4  25
BRANCH   5  28
ATOM     28  O   UNL     1      14.833  80.883  -2.043  1.00  0.00    -0.385 OA
ATOM     29  H   UNL     1      15.678  81.047  -2.537  1.00  0.00     0.211 HD
ENDBRANCH   5  28
ENDBRANCH   1   2
BRANCH   1  30
ATOM     30  C   UNL     1      10.975  79.802  -1.362  1.00  0.00     0.182 C 
ATOM     31  C   UNL     1      11.535  80.725  -0.241  1.00  0.00     0.163 C 
ATOM     32  C   UNL     1       9.894  78.889  -0.720  1.00  0.00     0.170 C 
ATOM     33  C   UNL     1      10.404  81.634   0.297  1.00  0.00     0.084 C 
ATOM     34  C   UNL     1       8.713  79.790  -0.275  1.00  0.00     0.084 C 
ATOM     35  C   UNL     1       9.209  80.793   0.793  1.00  0.00     0.043 C 
BRANCH  31  36
ATOM     36  O   UNL     1      12.576  81.532  -0.724  1.00  0.00    -0.389 OA
ATOM     37  H   UNL     1      12.882  81.131  -1.579  1.00  0.00     0.211 HD
ENDBRANCH  31  36
BRANCH  32  38
ATOM     38  O   UNL     1       9.463  77.882  -1.639  1.00  0.00    -0.343 OA
BRANCH  38  39
ATOM     39  C   UNL     1       9.707  76.573  -1.116  1.00  0.00     0.270 C 
ATOM     40  O   UNL     1       8.657  76.159  -0.252  1.00  0.00    -0.342 OA
ATOM     41  C   UNL     1       9.958  75.524  -2.229  1.00  0.00     0.139 C 
ATOM     42  C   UNL     1       7.432  75.976  -0.949  1.00  0.00     0.178 C 
ATOM     43  C   UNL     1       8.665  75.237  -3.012  1.00  0.00     0.167 C 
ATOM     44  C   UNL     1       7.555  74.867  -2.018  1.00  0.00     0.176 C 
BRANCH  41  45
ATOM     45  N   UNL     1      11.023  75.969  -3.123  1.00  0.00    -0.321 NA
ATOM     46  H   UNL     1      10.748  75.753  -4.108  1.00  0.00     0.119 HD
ATOM     47  H   UNL     1      11.869  75.381  -2.938  1.00  0.00     0.119 HD
ENDBRANCH  41  45
BRANCH  42  48
ATOM     48  C   UNL     1       6.329  75.660   0.073  1.00  0.00     0.191 C 
BRANCH  48  49
ATOM     49  O   UNL     1       6.275  74.285   0.353  1.00  0.00    -0.394 OA
ATOM     50  H   UNL     1       7.210  73.988   0.510  1.00  0.00     0.210 HD
ENDBRANCH  48  49
ENDBRANCH  42  48
BRANCH  43  51
ATOM     51  O   UNL     1       8.858  74.165  -3.899  1.00  0.00    -0.388 OA
ATOM     52  H   UNL     1       8.783  74.528  -4.820  1.00  0.00     0.211 HD
ENDBRANCH  43  51
BRANCH  44  53
ATOM     53  O   UNL     1       6.337  74.665  -2.694  1.00  0.00    -0.388 OA
ATOM     54  H   UNL     1       6.137  73.693  -2.677  1.00  0.00     0.211 HD
ENDBRANCH  44  53
ENDBRANCH  38  39
ENDBRANCH  32  38
BRANCH  33  55
ATOM     55  N   UNL     1      10.904  82.466   1.395  1.00  0.00    -0.325 NA
ATOM     56  H   UNL     1      10.112  82.659   2.051  1.00  0.00     0.119 HD
ATOM     57  H   UNL     1      11.179  83.399   1.008  1.00  0.00     0.119 HD
ENDBRANCH  33  55
BRANCH  34  58
ATOM     58  N   UNL     1       7.619  78.974   0.263  1.00  0.00    -0.325 NA
ATOM     59  H   UNL     1       8.007  78.179   0.821  1.00  0.00     0.119 HD
ATOM     60  H   UNL     1       7.109  79.558   0.964  1.00  0.00     0.119 HD
ENDBRANCH  34  58
ENDBRANCH   1  30
TORSDOF 22
ENDMDL
MODEL 7
REMARK VINA RESULT:    -6.965      2.161      5.033
REMARK INTER + INTRA:         -14.111
REMARK INTER:                 -12.756
REMARK INTRA:                  -1.355
REMARK UNBOUND:                -0.834
REMARK SMILES NC[C@@H]1O[C@H](O[C@H]2[C@@H](O)[C@H](O[C@@H]3[C@@H](O)[C@H](N)C[C@H](N)[C@H]3O[C@H]3O[C@H](CO)[C@@H](O)[C@H](O)[C@H]3N)O[C@@H]2CO)[C@H](N)[C@@H](O)[C@@H]1O
REMARK SMILES IDX 11 1 10 2 7 3 34 4 8 5 33 6 6 7 5 8 3 9 4 10 41 11 39 12
REMARK SMILES IDX 37 13 2 14 1 15 42 18 40 20 38 22 35 25 36 26 9 28 12 30
REMARK SMILES IDX 13 31 20 32 15 33 18 34 17 35 14 36 21 38 22 39 23 40 31 41
REMARK SMILES IDX 24 42 29 43 27 44 32 45 25 48 26 49 30 51 28 53 16 55 19 58
REMARK H PARENT 1 16 1 17 42 19 40 21 38 23 38 24 36 27 9 29 14 37 32 46 32 47
REMARK H PARENT 26 50 30 52 28 54 16 56 16 57 19 59 19 60
REMARK Flexibility Score: inf
ROOT
ATOM      1  O   UNL     1       9.858  77.455  -2.486  1.00  0.00    -0.341 OA
ENDROOT
BRANCH   1   2
ATOM      2  C   UNL     1      11.257  77.173  -2.391  1.00  0.00     0.282 C 
ATOM      3  C   UNL     1      13.161  78.612  -2.670  1.00  0.00     0.186 C 
ATOM      4  C   UNL     1      13.013  78.095  -1.229  1.00  0.00     0.179 C 
ATOM      5  C   UNL     1      12.100  77.871  -3.474  1.00  0.00     0.202 C 
ATOM      6  O   UNL     1      11.753  77.478  -1.103  1.00  0.00    -0.341 OA
BRANCH   3   7
ATOM      7  O   UNL     1      14.485  78.606  -3.204  1.00  0.00    -0.342 OA
BRANCH   7   8
ATOM      8  C   UNL     1      14.867  79.759  -3.943  1.00  0.00     0.270 C 
ATOM      9  C   UNL     1      16.731  80.849  -4.831  1.00  0.00     0.166 C 
ATOM     10  O   UNL     1      16.261  79.671  -4.195  1.00  0.00    -0.344 OA
ATOM     11  C   UNL     1      16.125  80.979  -6.248  1.00  0.00     0.175 C 
ATOM     12  C   UNL     1      14.585  80.980  -6.149  1.00  0.00     0.167 C 
ATOM     13  C   UNL     1      14.090  79.793  -5.285  1.00  0.00     0.139 C 
BRANCH   9  14
ATOM     14  C   UNL     1      18.270  80.857  -4.831  1.00  0.00     0.112 C 
BRANCH  14  15
ATOM     15  N   UNL     1      18.818  79.501  -4.845  1.00  0.00    -0.328 NA
ATOM     16  H   UNL     1      19.859  79.576  -4.895  1.00  0.00     0.118 HD
ATOM     17  H   UNL     1      18.525  79.036  -5.735  1.00  0.00     0.118 HD
ENDBRANCH  14  15
ENDBRANCH   9  14
BRANCH  11  18
ATOM     18  O   UNL     1      16.549  79.914  -7.060  1.00  0.00    -0.388 OA
ATOM     19  H   UNL     1      15.737  79.399  -7.305  1.00  0.00     0.211 HD
ENDBRANCH  11  18
BRANCH  12  20
ATOM     20  O   UNL     1      14.161  82.196  -5.584  1.00  0.00    -0.388 OA
ATOM     21  H   UNL     1      14.942  82.578  -5.103  1.00  0.00     0.211 HD
ENDBRANCH  12  20
BRANCH  13  22
ATOM     22  N   UNL     1      14.258  78.528  -6.010  1.00  0.00    -0.321 NA
ATOM     23  H   UNL     1      13.496  78.448  -6.722  1.00  0.00     0.119 HD
ATOM     24  H   UNL     1      15.147  78.578  -6.560  1.00  0.00     0.119 HD
ENDBRANCH  13  22
ENDBRANCH   7   8
ENDBRANCH   3   7
BRANCH   4  25
ATOM     25  C   UNL     1      13.119  79.226  -0.195  1.00  0.00     0.191 C 
BRANCH  25  26
ATOM     26  O   UNL     1      14.006  80.220  -0.633  1.00  0.00    -0.394 OA
ATOM     27  H   UNL     1      13.663  80.543  -1.506  1.00  0.00     0.210 HD
ENDBRANCH  25  26
ENDBRANCH   4  25
BRANCH   5  28
ATOM     28  O   UNL     1      12.642  76.924  -4.357  1.00  0.00    -0.385 OA
ATOM     29  H   UNL     1      13.597  76.813  -4.107  1.00  0.00     0.211 HD
ENDBRANCH   5  28
ENDBRANCH   1   2
BRANCH   1  30
ATOM     30  C   UNL     1       9.055  76.608  -1.669  1.00  0.00     0.182 C 
ATOM     31  C   UNL     1       8.065  75.768  -2.526  1.00  0.00     0.163 C 
ATOM     32  C   UNL     1       8.212  77.464  -0.684  1.00  0.00     0.170 C 
ATOM     33  C   UNL     1       7.276  74.800  -1.612  1.00  0.00     0.084 C 
ATOM     34  C   UNL     1       7.502  76.498   0.300  1.00  0.00     0.084 C 
ATOM     35  C   UNL     1       6.548  75.572  -0.490  1.00  0.00     0.043 C 
BRANCH  31  36
ATOM     36  O   UNL     1       8.746  75.020  -3.498  1.00  0.00    -0.389 OA
ATOM     37  H   UNL     1       9.226  74.292  -3.022  1.00  0.00     0.211 HD
ENDBRANCH  31  36
BRANCH  32  38
ATOM     38  O   UNL     1       9.034  78.404   0.012  1.00  0.00    -0.343 OA
BRANCH  38  39
ATOM     39  C   UNL     1       8.430  79.701   0.025  1.00  0.00     0.270 C 
ATOM     40  O   UNL     1       9.118  80.580   0.905  1.00  0.00    -0.342 OA
ATOM     41  C   UNL     1       8.309  80.316  -1.392  1.00  0.00     0.139 C 
ATOM     42  C   UNL     1      10.432  80.871   0.453  1.00  0.00     0.178 C 
ATOM     43  C   UNL     1       9.694  80.696  -1.944  1.00  0.00     0.167 C 
ATOM     44  C   UNL     1      10.410  81.585  -0.917  1.00  0.00     0.176 C 
BRANCH  41  45
ATOM     45  N   UNL     1       7.622  79.396  -2.294  1.00  0.00    -0.321 NA
ATOM     46  H   UNL     1       8.320  78.725  -2.688  1.00  0.00     0.119 HD
ATOM     47  H   UNL     1       7.275  79.945  -3.115  1.00  0.00     0.119 HD
ENDBRANCH  41  45
BRANCH  42  48
ATOM     48  C   UNL     1      11.145  81.714   1.522  1.00  0.00     0.191 C 
BRANCH  48  49
ATOM     49  O   UNL     1      11.659  80.903   2.547  1.00  0.00    -0.394 OA
ATOM     50  H   UNL     1      11.529  81.399   3.397  1.00  0.00     0.210 HD
ENDBRANCH  48  49
ENDBRANCH  42  48
BRANCH  43  51
ATOM     51  O   UNL     1       9.562  81.408  -3.148  1.00  0.00    -0.388 OA
ATOM     52  H   UNL     1       9.332  82.345  -2.912  1.00  0.00     0.211 HD
ENDBRANCH  43  51
BRANCH  44  53
ATOM     53  O   UNL     1      11.710  81.896  -1.358  1.00  0.00    -0.388 OA
ATOM     54  H   UNL     1      12.098  81.076  -1.761  1.00  0.00     0.211 HD
ENDBRANCH  44  53
ENDBRANCH  38  39
ENDBRANCH  32  38
BRANCH  33  55
ATOM     55  N   UNL     1       6.297  74.047  -2.399  1.00  0.00    -0.325 NA
ATOM     56  H   UNL     1       5.338  74.355  -2.117  1.00  0.00     0.119 HD
ATOM     57  H   UNL     1       6.355  73.037  -2.127  1.00  0.00     0.119 HD
ENDBRANCH  33  55
BRANCH  34  58
ATOM     58  N   UNL     1       6.755  77.253   1.312  1.00  0.00    -0.325 NA
ATOM     59  H   UNL     1       5.845  76.778   1.512  1.00  0.00     0.119 HD
ATOM     60  H   UNL     1       7.286  77.185   2.209  1.00  0.00     0.119 HD
ENDBRANCH  34  58
ENDBRANCH   1  30
TORSDOF 22
ENDMDL
MODEL 8
REMARK VINA RESULT:    -6.946      1.909      2.677
REMARK INTER + INTRA:         -14.074
REMARK INTER:                 -15.002
REMARK INTRA:                   0.928
REMARK UNBOUND:                -0.834
REMARK SMILES NC[C@@H]1O[C@H](O[C@H]2[C@@H](O)[C@H](O[C@@H]3[C@@H](O)[C@H](N)C[C@H](N)[C@H]3O[C@H]3O[C@H](CO)[C@@H](O)[C@H](O)[C@H]3N)O[C@@H]2CO)[C@H](N)[C@@H](O)[C@@H]1O
REMARK SMILES IDX 11 1 10 2 7 3 34 4 8 5 33 6 6 7 5 8 3 9 4 10 41 11 39 12
REMARK SMILES IDX 37 13 2 14 1 15 42 18 40 20 38 22 35 25 36 26 9 28 12 30
REMARK SMILES IDX 13 31 20 32 15 33 18 34 17 35 14 36 21 38 22 39 23 40 31 41
REMARK SMILES IDX 24 42 29 43 27 44 32 45 25 48 26 49 30 51 28 53 16 55 19 58
REMARK H PARENT 1 16 1 17 42 19 40 21 38 23 38 24 36 27 9 29 14 37 32 46 32 47
REMARK H PARENT 26 50 30 52 28 54 16 56 16 57 19 59 19 60
REMARK Flexibility Score: inf
ROOT
ATOM      1  O   UNL     1      12.670  79.691  -2.394  1.00  0.00    -0.341 OA
ENDROOT
BRANCH   1   2
ATOM      2  C   UNL     1      13.932  80.254  -2.763  1.00  0.00     0.282 C 
ATOM      3  C   UNL     1      15.249  79.964  -4.751  1.00  0.00     0.186 C 
ATOM      4  C   UNL     1      14.714  81.398  -4.596  1.00  0.00     0.179 C 
ATOM      5  C   UNL     1      14.873  79.253  -3.457  1.00  0.00     0.202 C 
ATOM      6  O   UNL     1      13.763  81.410  -3.558  1.00  0.00    -0.341 OA
BRANCH   3   7
ATOM      7  O   UNL     1      16.608  79.845  -5.171  1.00  0.00    -0.342 OA
BRANCH   7   8
ATOM      8  C   UNL     1      17.143  80.954  -5.883  1.00  0.00     0.270 C 
ATOM      9  C   UNL     1      19.086  82.223  -6.134  1.00  0.00     0.166 C 
ATOM     10  O   UNL     1      18.517  81.065  -5.547  1.00  0.00    -0.344 OA
ATOM     11  C   UNL     1      19.111  82.093  -7.675  1.00  0.00     0.175 C 
ATOM     12  C   UNL     1      17.677  81.857  -8.193  1.00  0.00     0.167 C 
ATOM     13  C   UNL     1      16.992  80.710  -7.407  1.00  0.00     0.139 C 
BRANCH   9  14
ATOM     14  C   UNL     1      20.477  82.480  -5.529  1.00  0.00     0.112 C 
BRANCH  14  15
ATOM     15  N   UNL     1      20.513  82.162  -4.102  1.00  0.00    -0.328 NA
ATOM     16  H   UNL     1      19.904  82.851  -3.605  1.00  0.00     0.118 HD
ATOM     17  H   UNL     1      21.483  82.337  -3.750  1.00  0.00     0.118 HD
ENDBRANCH  14  15
ENDBRANCH   9  14
BRANCH  11  18
ATOM     18  O   UNL     1      19.938  81.025  -8.062  1.00  0.00    -0.388 OA
ATOM     19  H   UNL     1      20.543  81.371  -8.767  1.00  0.00     0.211 HD
ENDBRANCH  11  18
BRANCH  12  20
ATOM     20  O   UNL     1      16.936  83.044  -8.055  1.00  0.00    -0.388 OA
ATOM     21  H   UNL     1      17.233  83.654  -8.781  1.00  0.00     0.211 HD
ENDBRANCH  12  20
BRANCH  13  22
ATOM     22  N   UNL     1      17.572  79.415  -7.782  1.00  0.00    -0.321 NA
ATOM     23  H   UNL     1      16.884  78.662  -7.551  1.00  0.00     0.119 HD
ATOM     24  H   UNL     1      17.674  79.388  -8.823  1.00  0.00     0.119 HD
ENDBRANCH  13  22
ENDBRANCH   7   8
ENDBRANCH   3   7
BRANCH   4  25
ATOM     25  C   UNL     1      14.053  81.911  -5.883  1.00  0.00     0.191 C 
BRANCH  25  26
ATOM     26  O   UNL     1      14.615  83.133  -6.280  1.00  0.00    -0.394 OA
ATOM     27  H   UNL     1      15.456  83.241  -5.763  1.00  0.00     0.210 HD
ENDBRANCH  25  26
ENDBRANCH   4  25
BRANCH   5  28
ATOM     28  O   UNL     1      15.981  78.976  -2.640  1.00  0.00    -0.385 OA
ATOM     29  H   UNL     1      16.449  79.839  -2.491  1.00  0.00     0.211 HD
ENDBRANCH   5  28
ENDBRANCH   1   2
BRANCH   1  30
ATOM     30  C   UNL     1      12.654  79.155  -1.074  1.00  0.00     0.182 C 
ATOM     31  C   UNL     1      14.022  79.364  -0.363  1.00  0.00     0.163 C 
ATOM     32  C   UNL     1      12.381  77.626  -1.125  1.00  0.00     0.170 C 
ATOM     33  C   UNL     1      13.935  78.849   1.094  1.00  0.00     0.084 C 
ATOM     34  C   UNL     1      12.190  77.127   0.331  1.00  0.00     0.084 C 
ATOM     35  C   UNL     1      13.492  77.370   1.130  1.00  0.00     0.043 C 
BRANCH  31  36
ATOM     36  O   UNL     1      14.380  80.720  -0.344  1.00  0.00    -0.389 OA
ATOM     37  H   UNL     1      15.355  80.762  -0.162  1.00  0.00     0.211 HD
ENDBRANCH  31  36
BRANCH  32  38
ATOM     38  O   UNL     1      11.235  77.337  -1.929  1.00  0.00    -0.343 OA
BRANCH  38  39
ATOM     39  C   UNL     1      10.123  76.952  -1.115  1.00  0.00     0.270 C 
ATOM     40  O   UNL     1       9.640  78.050  -0.352  1.00  0.00    -0.342 OA
ATOM     41  C   UNL     1       8.982  76.301  -1.936  1.00  0.00     0.139 C 
ATOM     42  C   UNL     1       9.072  79.062  -1.170  1.00  0.00     0.178 C 
ATOM     43  C   UNL     1       8.284  77.343  -2.827  1.00  0.00     0.167 C 
ATOM     44  C   UNL     1       7.851  78.531  -1.956  1.00  0.00     0.176 C 
BRANCH  41  45
ATOM     45  N   UNL     1       9.492  75.189  -2.733  1.00  0.00    -0.321 NA
ATOM     46  H   UNL     1       9.512  75.477  -3.738  1.00  0.00     0.119 HD
ATOM     47  H   UNL     1       8.797  74.408  -2.684  1.00  0.00     0.119 HD
ENDBRANCH  41  45
BRANCH  42  48
ATOM     48  C   UNL     1       8.699  80.260  -0.282  1.00  0.00     0.191 C 
BRANCH  48  49
ATOM     49  O   UNL     1       9.797  80.685   0.483  1.00  0.00    -0.394 OA
ATOM     50  H   UNL     1      10.588  80.670  -0.118  1.00  0.00     0.210 HD
ENDBRANCH  48  49
ENDBRANCH  42  48
BRANCH  43  51
ATOM     51  O   UNL     1       7.146  76.785  -3.433  1.00  0.00    -0.388 OA
ATOM     52  H   UNL     1       6.813  77.445  -4.097  1.00  0.00     0.211 HD
ENDBRANCH  43  51
BRANCH  44  53
ATOM     53  O   UNL     1       7.271  79.538  -2.750  1.00  0.00    -0.388 OA
ATOM     54  H   UNL     1       6.416  79.805  -2.324  1.00  0.00     0.211 HD
ENDBRANCH  44  53
ENDBRANCH  38  39
ENDBRANCH  32  38
BRANCH  33  55
ATOM     55  N   UNL     1      15.235  78.984   1.756  1.00  0.00    -0.325 NA
ATOM     56  H   UNL     1      15.785  78.110   1.588  1.00  0.00     0.119 HD
ATOM     57  H   UNL     1      15.081  79.020   2.791  1.00  0.00     0.119 HD
ENDBRANCH  33  55
BRANCH  34  58
ATOM     58  N   UNL     1      11.844  75.703   0.344  1.00  0.00    -0.325 NA
ATOM     59  H   UNL     1      11.730  75.352  -0.635  1.00  0.00     0.119 HD
ATOM     60  H   UNL     1      12.673  75.182   0.711  1.00  0.00     0.119 HD
ENDBRANCH  34  58
ENDBRANCH   1  30
TORSDOF 22
ENDMDL
MODEL 9
REMARK VINA RESULT:    -6.931      2.643      8.497
REMARK INTER + INTRA:         -14.045
REMARK INTER:                 -12.206
REMARK INTRA:                  -1.839
REMARK UNBOUND:                -0.834
REMARK SMILES NC[C@@H]1O[C@H](O[C@H]2[C@@H](O)[C@H](O[C@@H]3[C@@H](O)[C@H](N)C[C@H](N)[C@H]3O[C@H]3O[C@H](CO)[C@@H](O)[C@H](O)[C@H]3N)O[C@@H]2CO)[C@H](N)[C@@H](O)[C@@H]1O
REMARK SMILES IDX 11 1 10 2 7 3 34 4 8 5 33 6 6 7 5 8 3 9 4 10 41 11 39 12
REMARK SMILES IDX 37 13 2 14 1 15 42 18 40 20 38 22 35 25 36 26 9 28 12 30
REMARK SMILES IDX 13 31 20 32 15 33 18 34 17 35 14 36 21 38 22 39 23 40 31 41
REMARK SMILES IDX 24 42 29 43 27 44 32 45 25 48 26 49 30 51 28 53 16 55 19 58
REMARK H PARENT 1 16 1 17 42 19 40 21 38 23 38 24 36 27 9 29 14 37 32 46 32 47
REMARK H PARENT 26 50 30 52 28 54 16 56 16 57 19 59 19 60
REMARK Flexibility Score: inf
ROOT
ATOM      1  O   UNL     1      10.380  79.055  -2.336  1.00  0.00    -0.341 OA
ENDROOT
BRANCH   1   2
ATOM      2  C   UNL     1       9.461  78.044  -1.912  1.00  0.00     0.282 C 
ATOM      3  C   UNL     1       9.534  75.658  -2.177  1.00  0.00     0.186 C 
ATOM      4  C   UNL     1       9.647  76.097  -0.707  1.00  0.00     0.179 C 
ATOM      5  C   UNL     1       9.243  76.934  -2.956  1.00  0.00     0.202 C 
ATOM      6  O   UNL     1       9.847  77.490  -0.671  1.00  0.00    -0.341 OA
BRANCH   3   7
ATOM      7  O   UNL     1       8.677  74.545  -2.434  1.00  0.00    -0.342 OA
BRANCH   7   8
ATOM      8  C   UNL     1       9.220  73.511  -3.246  1.00  0.00     0.270 C 
ATOM      9  C   UNL     1      11.064  72.986  -4.578  1.00  0.00     0.166 C 
ATOM     10  O   UNL     1      10.510  73.923  -3.668  1.00  0.00    -0.344 OA
ATOM     11  C   UNL     1      11.340  71.639  -3.868  1.00  0.00     0.175 C 
ATOM     12  C   UNL     1      10.029  71.107  -3.252  1.00  0.00     0.167 C 
ATOM     13  C   UNL     1       9.330  72.207  -2.414  1.00  0.00     0.139 C 
BRANCH   9  14
ATOM     14  C   UNL     1      12.317  73.585  -5.239  1.00  0.00     0.112 C 
BRANCH  14  15
ATOM     15  N   UNL     1      13.408  72.614  -5.312  1.00  0.00    -0.328 NA
ATOM     16  H   UNL     1      13.300  72.077  -6.202  1.00  0.00     0.118 HD
ATOM     17  H   UNL     1      13.279  71.916  -4.544  1.00  0.00     0.118 HD
ENDBRANCH  14  15
ENDBRANCH   9  14
BRANCH  11  18
ATOM     18  O   UNL     1      12.305  71.808  -2.861  1.00  0.00    -0.388 OA
ATOM     19  H   UNL     1      12.273  72.761  -2.589  1.00  0.00     0.211 HD
ENDBRANCH  11  18
BRANCH  12  20
ATOM     20  O   UNL     1       9.178  70.674  -4.284  1.00  0.00    -0.388 OA
ATOM     21  H   UNL     1       9.066  71.441  -4.905  1.00  0.00     0.211 HD
ENDBRANCH  12  20
BRANCH  13  22
ATOM     22  N   UNL     1      10.069  72.450  -1.169  1.00  0.00    -0.321 NA
ATOM     23  H   UNL     1       9.910  71.642  -0.524  1.00  0.00     0.119 HD
ATOM     24  H   UNL     1      11.093  72.434  -1.385  1.00  0.00     0.119 HD
ENDBRANCH  13  22
ENDBRANCH   7   8
ENDBRANCH   3   7
BRANCH   4  25
ATOM     25  C   UNL     1      10.814  75.407   0.014  1.00  0.00     0.191 C 
BRANCH  25  26
ATOM     26  O   UNL     1      11.868  76.308   0.231  1.00  0.00    -0.394 OA
ATOM     27  H   UNL     1      12.707  75.781   0.177  1.00  0.00     0.210 HD
ENDBRANCH  25  26
ENDBRANCH   4  25
BRANCH   5  28
ATOM     28  O   UNL     1       7.933  76.985  -3.458  1.00  0.00    -0.385 OA
ATOM     29  H   UNL     1       7.985  77.410  -4.353  1.00  0.00     0.211 HD
ENDBRANCH   5  28
ENDBRANCH   1   2
BRANCH   1  30
ATOM     30  C   UNL     1      11.217  79.532  -1.286  1.00  0.00     0.182 C 
ATOM     31  C   UNL     1      10.580  80.757  -0.568  1.00  0.00     0.163 C 
ATOM     32  C   UNL     1      12.586  79.987  -1.864  1.00  0.00     0.170 C 
ATOM     33  C   UNL     1      11.477  81.188   0.618  1.00  0.00     0.084 C 
ATOM     34  C   UNL     1      13.520  80.320  -0.671  1.00  0.00     0.084 C 
ATOM     35  C   UNL     1      12.914  81.488   0.143  1.00  0.00     0.043 C 
BRANCH  31  36
ATOM     36  O   UNL     1       9.302  80.449  -0.082  1.00  0.00    -0.389 OA
ATOM     37  H   UNL     1       9.407  80.181   0.868  1.00  0.00     0.211 HD
ENDBRANCH  31  36
BRANCH  32  38
ATOM     38  O   UNL     1      13.151  78.975  -2.700  1.00  0.00    -0.343 OA
BRANCH  38  39
ATOM     39  C   UNL     1      12.733  79.141  -4.058  1.00  0.00     0.270 C 
ATOM     40  O   UNL     1      12.992  80.461  -4.519  1.00  0.00    -0.342 OA
ATOM     41  C   UNL     1      13.360  78.089  -5.007  1.00  0.00     0.139 C 
ATOM     42  C   UNL     1      14.382  80.736  -4.602  1.00  0.00     0.178 C 
ATOM     43  C   UNL     1      14.868  78.339  -5.182  1.00  0.00     0.167 C 
ATOM     44  C   UNL     1      15.083  79.797  -5.610  1.00  0.00     0.176 C 
BRANCH  41  45
ATOM     45  N   UNL     1      13.108  76.737  -4.514  1.00  0.00    -0.321 NA
ATOM     46  H   UNL     1      13.744  76.073  -5.011  1.00  0.00     0.119 HD
ATOM     47  H   UNL     1      12.141  76.461  -4.802  1.00  0.00     0.119 HD
ENDBRANCH  41  45
BRANCH  42  48
ATOM     48  C   UNL     1      14.570  82.214  -4.977  1.00  0.00     0.191 C 
BRANCH  48  49
ATOM     49  O   UNL     1      14.950  82.351  -6.322  1.00  0.00    -0.394 OA
ATOM     50  H   UNL     1      14.838  83.310  -6.555  1.00  0.00     0.210 HD
ENDBRANCH  48  49
ENDBRANCH  42  48
BRANCH  43  51
ATOM     51  O   UNL     1      15.392  77.492  -6.174  1.00  0.00    -0.388 OA
ATOM     52  H   UNL     1      16.370  77.659  -6.216  1.00  0.00     0.211 HD
ENDBRANCH  43  51
BRANCH  44  53
ATOM     53  O   UNL     1      16.457  80.083  -5.713  1.00  0.00    -0.388 OA
ATOM     54  H   UNL     1      16.550  80.992  -6.100  1.00  0.00     0.211 HD
ENDBRANCH  44  53
ENDBRANCH  38  39
ENDBRANCH  32  38
BRANCH  33  55
ATOM     55  N   UNL     1      10.919  82.379   1.266  1.00  0.00    -0.325 NA
ATOM     56  H   UNL     1      10.513  82.998   0.526  1.00  0.00     0.119 HD
ATOM     57  H   UNL     1      11.704  82.927   1.688  1.00  0.00     0.119 HD
ENDBRANCH  33  55
BRANCH  34  58
ATOM     58  N   UNL     1      14.859  80.675  -1.151  1.00  0.00    -0.325 NA
ATOM     59  H   UNL     1      14.961  81.716  -1.188  1.00  0.00     0.119 HD
ATOM     60  H   UNL     1      15.544  80.373  -0.421  1.00  0.00     0.119 HD
ENDBRANCH  34  58
ENDBRANCH   1  30
TORSDOF 22
ENDMDL
MODEL 10
REMARK VINA RESULT:    -6.690      4.116      5.964
REMARK INTER + INTRA:         -13.586
REMARK INTER:                 -13.434
REMARK INTRA:                  -0.152
REMARK UNBOUND:                -0.834
REMARK SMILES NC[C@@H]1O[C@H](O[C@H]2[C@@H](O)[C@H](O[C@@H]3[C@@H](O)[C@H](N)C[C@H](N)[C@H]3O[C@H]3O[C@H](CO)[C@@H](O)[C@H](O)[C@H]3N)O[C@@H]2CO)[C@H](N)[C@@H](O)[C@@H]1O
REMARK SMILES IDX 11 1 10 2 7 3 34 4 8 5 33 6 6 7 5 8 3 9 4 10 41 11 39 12
REMARK SMILES IDX 37 13 2 14 1 15 42 18 40 20 38 22 35 25 36 26 9 28 12 30
REMARK SMILES IDX 13 31 20 32 15 33 18 34 17 35 14 36 21 38 22 39 23 40 31 41
REMARK SMILES IDX 24 42 29 43 27 44 32 45 25 48 26 49 30 51 28 53 16 55 19 58
REMARK H PARENT 1 16 1 17 42 19 40 21 38 23 38 24 36 27 9 29 14 37 32 46 32 47
REMARK H PARENT 26 50 30 52 28 54 16 56 16 57 19 59 19 60
REMARK Flexibility Score: inf
ROOT
ATOM      1  O   UNL     1       7.884  77.289  -2.210  1.00  0.00    -0.341 OA
ENDROOT
BRANCH   1   2
ATOM      2  C   UNL     1       9.065  77.863  -1.643  1.00  0.00     0.282 C 
ATOM      3  C   UNL     1      10.954  78.906  -2.699  1.00  0.00     0.186 C 
ATOM      4  C   UNL     1      10.132  79.888  -1.847  1.00  0.00     0.179 C 
ATOM      5  C   UNL     1      10.347  77.535  -2.431  1.00  0.00     0.202 C 
ATOM      6  O   UNL     1       8.927  79.260  -1.480  1.00  0.00    -0.341 OA
BRANCH   3   7
ATOM      7  O   UNL     1      12.373  79.009  -2.579  1.00  0.00    -0.342 OA
BRANCH   7   8
ATOM      8  C   UNL     1      12.878  79.209  -1.264  1.00  0.00     0.270 C 
ATOM      9  C   UNL     1      13.824  78.072   0.542  1.00  0.00     0.166 C 
ATOM     10  O   UNL     1      13.407  77.973  -0.810  1.00  0.00    -0.344 OA
ATOM     11  C   UNL     1      15.026  79.038   0.669  1.00  0.00     0.175 C 
ATOM     12  C   UNL     1      14.634  80.421   0.107  1.00  0.00     0.167 C 
ATOM     13  C   UNL     1      13.997  80.281  -1.299  1.00  0.00     0.139 C 
BRANCH   9  14
ATOM     14  C   UNL     1      14.119  76.668   1.096  1.00  0.00     0.112 C 
BRANCH  14  15
ATOM     15  N   UNL     1      13.762  76.558   2.511  1.00  0.00    -0.328 NA
ATOM     16  H   UNL     1      12.751  76.300   2.567  1.00  0.00     0.118 HD
ATOM     17  H   UNL     1      13.836  77.507   2.943  1.00  0.00     0.118 HD
ENDBRANCH  14  15
ENDBRANCH   9  14
BRANCH  11  18
ATOM     18  O   UNL     1      16.133  78.535  -0.034  1.00  0.00    -0.388 OA
ATOM     19  H   UNL     1      16.944  78.863   0.434  1.00  0.00     0.211 HD
ENDBRANCH  11  18
BRANCH  12  20
ATOM     20  O   UNL     1      13.727  81.035   0.987  1.00  0.00    -0.388 OA
ATOM     21  H   UNL     1      13.425  81.875   0.550  1.00  0.00     0.211 HD
ENDBRANCH  12  20
BRANCH  13  22
ATOM     22  N   UNL     1      15.019  79.927  -2.291  1.00  0.00    -0.321 NA
ATOM     23  H   UNL     1      14.763  80.366  -3.205  1.00  0.00     0.119 HD
ATOM     24  H   UNL     1      15.921  80.379  -2.011  1.00  0.00     0.119 HD
ENDBRANCH  13  22
ENDBRANCH   7   8
ENDBRANCH   3   7
BRANCH   4  25
ATOM     25  C   UNL     1       9.808  81.182  -2.608  1.00  0.00     0.191 C 
BRANCH  25  26
ATOM     26  O   UNL     1       8.470  81.191  -3.030  1.00  0.00    -0.394 OA
ATOM     27  H   UNL     1       8.483  81.281  -4.018  1.00  0.00     0.210 HD
ENDBRANCH  25  26
ENDBRANCH   4  25
BRANCH   5  28
ATOM     28  O   UNL     1      11.185  76.702  -1.673  1.00  0.00    -0.385 OA
ATOM     29  H   UNL     1      11.320  77.150  -0.797  1.00  0.00     0.211 HD
ENDBRANCH   5  28
ENDBRANCH   1   2
BRANCH   1  30
ATOM     30  C   UNL     1       6.908  76.928  -1.236  1.00  0.00     0.182 C 
ATOM     31  C   UNL     1       6.928  77.906  -0.026  1.00  0.00     0.163 C 
ATOM     32  C   UNL     1       7.205  75.503  -0.692  1.00  0.00     0.170 C 
ATOM     33  C   UNL     1       5.798  77.531   0.963  1.00  0.00     0.084 C 
ATOM     34  C   UNL     1       6.021  75.085   0.218  1.00  0.00     0.084 C 
ATOM     35  C   UNL     1       5.926  76.061   1.415  1.00  0.00     0.043 C 
BRANCH  31  36
ATOM     36  O   UNL     1       6.743  79.231  -0.445  1.00  0.00    -0.389 OA
ATOM     37  H   UNL     1       6.973  79.267  -1.411  1.00  0.00     0.211 HD
ENDBRANCH  31  36
BRANCH  32  38
ATOM     38  O   UNL     1       7.392  74.574  -1.762  1.00  0.00    -0.343 OA
BRANCH  38  39
ATOM     39  C   UNL     1       8.572  74.884  -2.509  1.00  0.00     0.270 C 
ATOM     40  O   UNL     1       9.689  74.142  -2.038  1.00  0.00    -0.342 OA
ATOM     41  C   UNL     1       8.379  74.690  -4.034  1.00  0.00     0.139 C 
ATOM     42  C   UNL     1       9.546  72.749  -2.276  1.00  0.00     0.178 C 
ATOM     43  C   UNL     1       8.253  73.197  -4.385  1.00  0.00     0.167 C 
ATOM     44  C   UNL     1       9.450  72.444  -3.788  1.00  0.00     0.176 C 
BRANCH  41  45
ATOM     45  N   UNL     1       7.217  75.437  -4.505  1.00  0.00    -0.321 NA
ATOM     46  H   UNL     1       7.449  76.456  -4.507  1.00  0.00     0.119 HD
ATOM     47  H   UNL     1       6.454  75.331  -3.796  1.00  0.00     0.119 HD
ENDBRANCH  41  45
BRANCH  42  48
ATOM     48  C   UNL     1      10.726  72.014  -1.622  1.00  0.00     0.191 C 
BRANCH  48  49
ATOM     49  O   UNL     1      10.445  70.648  -1.458  1.00  0.00    -0.394 OA
ATOM     50  H   UNL     1      10.195  70.298  -2.353  1.00  0.00     0.210 HD
ENDBRANCH  48  49
ENDBRANCH  42  48
BRANCH  43  51
ATOM     51  O   UNL     1       8.254  73.021  -5.779  1.00  0.00    -0.388 OA
ATOM     52  H   UNL     1       9.189  73.144  -6.090  1.00  0.00     0.211 HD
ENDBRANCH  43  51
BRANCH  44  53
ATOM     53  O   UNL     1       9.332  71.062  -4.029  1.00  0.00    -0.388 OA
ATOM     54  H   UNL     1       8.367  70.831  -4.002  1.00  0.00     0.211 HD
ENDBRANCH  44  53
ENDBRANCH  38  39
ENDBRANCH  32  38
BRANCH  33  55
ATOM     55  N   UNL     1       5.844  78.408   2.137  1.00  0.00    -0.325 NA
ATOM     56  H   UNL     1       6.840  78.496   2.445  1.00  0.00     0.119 HD
ATOM     57  H   UNL     1       5.349  77.932   2.927  1.00  0.00     0.119 HD
ENDBRANCH  33  55
BRANCH  34  58
ATOM     58  N   UNL     1       6.201  73.711   0.697  1.00  0.00    -0.325 NA
ATOM     59  H   UNL     1       5.271  73.246   0.810  1.00  0.00     0.119 HD
ATOM     60  H   UNL     1       6.669  73.171  -0.067  1.00  0.00     0.119 HD
ENDBRANCH  34  58
ENDBRANCH   1  30
TORSDOF 22
ENDMDL
MODEL 11
REMARK VINA RESULT:    -6.628      2.626      4.736
REMARK INTER + INTRA:         -13.468
REMARK INTER:                 -14.342
REMARK INTRA:                   0.874
REMARK UNBOUND:                -0.834
REMARK SMILES NC[C@@H]1O[C@H](O[C@H]2[C@@H](O)[C@H](O[C@@H]3[C@@H](O)[C@H](N)C[C@H](N)[C@H]3O[C@H]3O[C@H](CO)[C@@H](O)[C@H](O)[C@H]3N)O[C@@H]2CO)[C@H](N)[C@@H](O)[C@@H]1O
REMARK SMILES IDX 11 1 10 2 7 3 34 4 8 5 33 6 6 7 5 8 3 9 4 10 41 11 39 12
REMARK SMILES IDX 37 13 2 14 1 15 42 18 40 20 38 22 35 25 36 26 9 28 12 30
REMARK SMILES IDX 13 31 20 32 15 33 18 34 17 35 14 36 21 38 22 39 23 40 31 41
REMARK SMILES IDX 24 42 29 43 27 44 32 45 25 48 26 49 30 51 28 53 16 55 19 58
REMARK H PARENT 1 16 1 17 42 19 40 21 38 23 38 24 36 27 9 29 14 37 32 46 32 47
REMARK H PARENT 26 50 30 52 28 54 16 56 16 57 19 59 19 60
REMARK Flexibility Score: inf
ROOT
ATOM      1  O   UNL     1       8.068  77.682  -2.164  1.00  0.00    -0.341 OA
ENDROOT
BRANCH   1   2
ATOM      2  C   UNL     1       9.359  77.855  -1.574  1.00  0.00     0.282 C 
ATOM      3  C   UNL     1      11.121  79.401  -2.099  1.00  0.00     0.186 C 
ATOM      4  C   UNL     1      10.511  79.645  -0.709  1.00  0.00     0.179 C 
ATOM      5  C   UNL     1      10.476  78.116  -2.601  1.00  0.00     0.202 C 
ATOM      6  O   UNL     1       9.340  78.872  -0.592  1.00  0.00    -0.341 OA
BRANCH   3   7
ATOM      7  O   UNL     1      12.545  79.473  -2.179  1.00  0.00    -0.342 OA
BRANCH   7   8
ATOM      8  C   UNL     1      13.101  79.441  -3.488  1.00  0.00     0.270 C 
ATOM      9  C   UNL     1      14.058  80.808  -5.120  1.00  0.00     0.166 C 
ATOM     10  O   UNL     1      13.592  80.739  -3.782  1.00  0.00    -0.344 OA
ATOM     11  C   UNL     1      15.304  79.910  -5.307  1.00  0.00     0.175 C 
ATOM     12  C   UNL     1      14.953  78.459  -4.916  1.00  0.00     0.167 C 
ATOM     13  C   UNL     1      14.264  78.416  -3.529  1.00  0.00     0.139 C 
BRANCH   9  14
ATOM     14  C   UNL     1      14.311  82.276  -5.505  1.00  0.00     0.112 C 
BRANCH  14  15
ATOM     15  N   UNL     1      15.407  82.403  -6.465  1.00  0.00    -0.328 NA
ATOM     16  H   UNL     1      15.013  82.254  -7.422  1.00  0.00     0.118 HD
ATOM     17  H   UNL     1      16.075  81.613  -6.309  1.00  0.00     0.118 HD
ENDBRANCH  14  15
ENDBRANCH   9  14
BRANCH  11  18
ATOM     18  O   UNL     1      16.364  80.374  -4.511  1.00  0.00    -0.388 OA
ATOM     19  H   UNL     1      16.167  81.322  -4.295  1.00  0.00     0.211 HD
ENDBRANCH  11  18
BRANCH  12  20
ATOM     20  O   UNL     1      14.103  77.912  -5.893  1.00  0.00    -0.388 OA
ATOM     21  H   UNL     1      14.668  77.703  -6.683  1.00  0.00     0.211 HD
ENDBRANCH  12  20
BRANCH  13  22
ATOM     22  N   UNL     1      15.236  78.696  -2.466  1.00  0.00    -0.321 NA
ATOM     23  H   UNL     1      16.109  79.070  -2.903  1.00  0.00     0.119 HD
ATOM     24  H   UNL     1      14.866  79.477  -1.876  1.00  0.00     0.119 HD
ENDBRANCH  13  22
ENDBRANCH   7   8
ENDBRANCH   3   7
BRANCH   4  25
ATOM     25  C   UNL     1      10.155  81.123  -0.485  1.00  0.00     0.191 C 
BRANCH  25  26
ATOM     26  O   UNL     1      11.314  81.896  -0.322  1.00  0.00    -0.394 OA
ATOM     27  H   UNL     1      11.021  82.780   0.017  1.00  0.00     0.210 HD
ENDBRANCH  25  26
ENDBRANCH   4  25
BRANCH   5  28
ATOM     28  O   UNL     1      11.367  77.032  -2.639  1.00  0.00    -0.385 OA
ATOM     29  H   UNL     1      10.868  76.263  -3.022  1.00  0.00     0.211 HD
ENDBRANCH   5  28
ENDBRANCH   1   2
BRANCH   1  30
ATOM     30  C   UNL     1       7.047  77.390  -1.214  1.00  0.00     0.182 C 
ATOM     31  C   UNL     1       7.105  78.365  -0.003  1.00  0.00     0.163 C 
ATOM     32  C   UNL     1       7.231  75.948  -0.665  1.00  0.00     0.170 C 
ATOM     33  C   UNL     1       5.929  78.070   0.958  1.00  0.00     0.084 C 
ATOM     34  C   UNL     1       6.000  75.613   0.217  1.00  0.00     0.084 C 
ATOM     35  C   UNL     1       5.944  76.595   1.412  1.00  0.00     0.043 C 
BRANCH  31  36
ATOM     36  O   UNL     1       7.023  79.700  -0.425  1.00  0.00    -0.389 OA
ATOM     37  H   UNL     1       6.092  80.001  -0.259  1.00  0.00     0.211 HD
ENDBRANCH  31  36
BRANCH  32  38
ATOM     38  O   UNL     1       7.378  75.007  -1.731  1.00  0.00    -0.343 OA
BRANCH  38  39
ATOM     39  C   UNL     1       8.527  75.313  -2.528  1.00  0.00     0.270 C 
ATOM     40  O   UNL     1       9.655  74.552  -2.118  1.00  0.00    -0.342 OA
ATOM     41  C   UNL     1       8.262  75.141  -4.045  1.00  0.00     0.139 C 
ATOM     42  C   UNL     1       9.484  73.164  -2.366  1.00  0.00     0.178 C 
ATOM     43  C   UNL     1       8.101  73.654  -4.407  1.00  0.00     0.167 C 
ATOM     44  C   UNL     1       9.315  72.879  -3.876  1.00  0.00     0.176 C 
BRANCH  41  45
ATOM     45  N   UNL     1       7.088  75.908  -4.451  1.00  0.00    -0.321 NA
ATOM     46  H   UNL     1       6.465  76.037  -3.622  1.00  0.00     0.119 HD
ATOM     47  H   UNL     1       6.535  75.325  -5.123  1.00  0.00     0.119 HD
ENDBRANCH  41  45
BRANCH  42  48
ATOM     48  C   UNL     1      10.684  72.408  -1.776  1.00  0.00     0.191 C 
BRANCH  48  49
ATOM     49  O   UNL     1      10.351  71.074  -1.489  1.00  0.00    -0.394 OA
ATOM     50  H   UNL     1      11.099  70.513  -1.825  1.00  0.00     0.210 HD
ENDBRANCH  48  49
ENDBRANCH  42  48
BRANCH  43  51
ATOM     51  O   UNL     1       8.035  73.495  -5.802  1.00  0.00    -0.388 OA
ATOM     52  H   UNL     1       7.744  72.562  -5.977  1.00  0.00     0.211 HD
ENDBRANCH  43  51
BRANCH  44  53
ATOM     53  O   UNL     1       9.168  71.503  -4.128  1.00  0.00    -0.388 OA
ATOM     54  H   UNL     1       8.403  71.175  -3.588  1.00  0.00     0.211 HD
ENDBRANCH  44  53
ENDBRANCH  38  39
ENDBRANCH  32  38
BRANCH  33  55
ATOM     55  N   UNL     1       6.008  78.942   2.134  1.00  0.00    -0.325 NA
ATOM     56  H   UNL     1       6.274  79.902   1.816  1.00  0.00     0.119 HD
ATOM     57  H   UNL     1       6.800  78.618   2.737  1.00  0.00     0.119 HD
ENDBRANCH  33  55
BRANCH  34  58
ATOM     58  N   UNL     1       6.073  74.230   0.698  1.00  0.00    -0.325 NA
ATOM     59  H   UNL     1       7.072  73.929   0.771  1.00  0.00     0.119 HD
ATOM     60  H   UNL     1       5.728  74.223   1.685  1.00  0.00     0.119 HD
ENDBRANCH  34  58
ENDBRANCH   1  30
TORSDOF 22
ENDMDL
MODEL 12
REMARK VINA RESULT:    -6.581      1.824      2.764
REMARK INTER + INTRA:         -13.379
REMARK INTER:                 -16.400
REMARK INTRA:                   3.020
REMARK UNBOUND:                -0.834
REMARK SMILES NC[C@@H]1O[C@H](O[C@H]2[C@@H](O)[C@H](O[C@@H]3[C@@H](O)[C@H](N)C[C@H](N)[C@H]3O[C@H]3O[C@H](CO)[C@@H](O)[C@H](O)[C@H]3N)O[C@@H]2CO)[C@H](N)[C@@H](O)[C@@H]1O
REMARK SMILES IDX 11 1 10 2 7 3 34 4 8 5 33 6 6 7 5 8 3 9 4 10 41 11 39 12
REMARK SMILES IDX 37 13 2 14 1 15 42 18 40 20 38 22 35 25 36 26 9 28 12 30
REMARK SMILES IDX 13 31 20 32 15 33 18 34 17 35 14 36 21 38 22 39 23 40 31 41
REMARK SMILES IDX 24 42 29 43 27 44 32 45 25 48 26 49 30 51 28 53 16 55 19 58
REMARK H PARENT 1 16 1 17 42 19 40 21 38 23 38 24 36 27 9 29 14 37 32 46 32 47
REMARK H PARENT 26 50 30 52 28 54 16 56 16 57 19 59 19 60
REMARK Flexibility Score: inf
ROOT
ATOM      1  O   UNL     1      12.026  77.788  -2.613  1.00  0.00    -0.341 OA
ENDROOT
BRANCH   1   2
ATOM      2  C   UNL     1      12.979  78.852  -2.531  1.00  0.00     0.282 C 
ATOM      3  C   UNL     1      14.843  79.390  -3.948  1.00  0.00     0.186 C 
ATOM      4  C   UNL     1      13.735  80.457  -3.991  1.00  0.00     0.179 C 
ATOM      5  C   UNL     1      14.418  78.415  -2.858  1.00  0.00     0.202 C 
ATOM      6  O   UNL     1      12.596  79.945  -3.341  1.00  0.00    -0.341 OA
BRANCH   3   7
ATOM      7  O   UNL     1      16.181  79.881  -3.878  1.00  0.00    -0.342 OA
BRANCH   7   8
ATOM      8  C   UNL     1      16.587  80.747  -4.931  1.00  0.00     0.270 C 
ATOM      9  C   UNL     1      18.433  81.917  -5.751  1.00  0.00     0.166 C 
ATOM     10  O   UNL     1      17.982  80.967  -4.799  1.00  0.00    -0.344 OA
ATOM     11  C   UNL     1      18.299  81.352  -7.185  1.00  0.00     0.175 C 
ATOM     12  C   UNL     1      16.831  80.959  -7.447  1.00  0.00     0.167 C 
ATOM     13  C   UNL     1      16.286  80.076  -6.295  1.00  0.00     0.139 C 
BRANCH   9  14
ATOM     14  C   UNL     1      19.867  82.354  -5.407  1.00  0.00     0.112 C 
BRANCH  14  15
ATOM     15  N   UNL     1      20.619  82.733  -6.603  1.00  0.00    -0.328 NA
ATOM     16  H   UNL     1      20.463  81.996  -7.328  1.00  0.00     0.118 HD
ATOM     17  H   UNL     1      21.639  82.694  -6.377  1.00  0.00     0.118 HD
ENDBRANCH  14  15
ENDBRANCH   9  14
BRANCH  11  18
ATOM     18  O   UNL     1      19.128  80.229  -7.346  1.00  0.00    -0.388 OA
ATOM     19  H   UNL     1      19.898  80.350  -6.732  1.00  0.00     0.211 HD
ENDBRANCH  11  18
BRANCH  12  20
ATOM     20  O   UNL     1      16.056  82.125  -7.566  1.00  0.00    -0.388 OA
ATOM     21  H   UNL     1      15.719  82.154  -8.501  1.00  0.00     0.211 HD
ENDBRANCH  12  20
BRANCH  13  22
ATOM     22  N   UNL     1      16.880  78.735  -6.353  1.00  0.00    -0.321 NA
ATOM     23  H   UNL     1      16.210  78.054  -5.930  1.00  0.00     0.119 HD
ATOM     24  H   UNL     1      16.963  78.454  -7.358  1.00  0.00     0.119 HD
ENDBRANCH  13  22
ENDBRANCH   7   8
ENDBRANCH   3   7
BRANCH   4  25
ATOM     25  C   UNL     1      13.357  80.840  -5.429  1.00  0.00     0.191 C 
BRANCH  25  26
ATOM     26  O   UNL     1      13.870  82.103  -5.760  1.00  0.00    -0.394 OA
ATOM     27  H   UNL     1      14.185  82.045  -6.699  1.00  0.00     0.210 HD
ENDBRANCH  25  26
ENDBRANCH   4  25
BRANCH   5  28
ATOM     28  O   UNL     1      15.224  78.489  -1.710  1.00  0.00    -0.385 OA
ATOM     29  H   UNL     1      14.620  78.697  -0.949  1.00  0.00     0.211 HD
ENDBRANCH   5  28
ENDBRANCH   1   2
BRANCH   1  30
ATOM     30  C   UNL     1      10.689  78.207  -2.352  1.00  0.00     0.182 C 
ATOM     31  C   UNL     1      10.639  79.260  -1.208  1.00  0.00     0.163 C 
ATOM     32  C   UNL     1       9.830  76.990  -1.907  1.00  0.00     0.170 C 
ATOM     33  C   UNL     1       9.184  79.751  -1.017  1.00  0.00     0.084 C 
ATOM     34  C   UNL     1       8.354  77.457  -1.817  1.00  0.00     0.084 C 
ATOM     35  C   UNL     1       8.233  78.566  -0.744  1.00  0.00     0.043 C 
BRANCH  31  36
ATOM     36  O   UNL     1      11.456  80.362  -1.500  1.00  0.00    -0.389 OA
ATOM     37  H   UNL     1      12.118  80.063  -2.176  1.00  0.00     0.211 HD
ENDBRANCH  31  36
BRANCH  32  38
ATOM     38  O   UNL     1       9.975  75.899  -2.820  1.00  0.00    -0.343 OA
BRANCH  38  39
ATOM     39  C   UNL     1       8.962  74.912  -2.602  1.00  0.00     0.270 C 
ATOM     40  O   UNL     1       8.606  74.264  -3.815  1.00  0.00    -0.342 OA
ATOM     41  C   UNL     1       9.360  73.881  -1.516  1.00  0.00     0.139 C 
ATOM     42  C   UNL     1       9.672  73.483  -4.338  1.00  0.00     0.178 C 
ATOM     43  C   UNL     1      10.491  72.966  -2.018  1.00  0.00     0.167 C 
ATOM     44  C   UNL     1      10.073  72.353  -3.362  1.00  0.00     0.176 C 
BRANCH  41  45
ATOM     45  N   UNL     1       9.746  74.558  -0.281  1.00  0.00    -0.321 NA
ATOM     46  H   UNL     1      10.723  74.915  -0.383  1.00  0.00     0.119 HD
ATOM     47  H   UNL     1       9.792  73.842   0.481  1.00  0.00     0.119 HD
ENDBRANCH  41  45
BRANCH  42  48
ATOM     48  C   UNL     1       9.249  72.928  -5.707  1.00  0.00     0.191 C 
BRANCH  48  49
ATOM     49  O   UNL     1       9.041  71.541  -5.649  1.00  0.00    -0.394 OA
ATOM     50  H   UNL     1       8.779  71.329  -4.715  1.00  0.00     0.210 HD
ENDBRANCH  48  49
ENDBRANCH  42  48
BRANCH  43  51
ATOM     51  O   UNL     1      10.724  71.928  -1.099  1.00  0.00    -0.388 OA
ATOM     52  H   UNL     1      10.629  71.072  -1.593  1.00  0.00     0.211 HD
ENDBRANCH  43  51
BRANCH  44  53
ATOM     53  O   UNL     1      11.113  71.564  -3.888  1.00  0.00    -0.388 OA
ATOM     54  H   UNL     1      11.270  71.852  -4.824  1.00  0.00     0.211 HD
ENDBRANCH  44  53
ENDBRANCH  38  39
ENDBRANCH  32  38
BRANCH  33  55
ATOM     55  N   UNL     1       9.114  80.698   0.099  1.00  0.00    -0.325 NA
ATOM     56  H   UNL     1       8.174  81.158   0.084  1.00  0.00     0.119 HD
ATOM     57  H   UNL     1       9.802  81.468  -0.072  1.00  0.00     0.119 HD
ENDBRANCH  33  55
BRANCH  34  58
ATOM     58  N   UNL     1       7.478  76.330  -1.482  1.00  0.00    -0.325 NA
ATOM     59  H   UNL     1       7.916  75.746  -0.733  1.00  0.00     0.119 HD
ATOM     60  H   UNL     1       6.619  76.722  -1.035  1.00  0.00     0.119 HD
ENDBRANCH  34  58
ENDBRANCH   1  30
TORSDOF 22
ENDMDL
MODEL 13
REMARK VINA RESULT:    -6.527      2.063      4.369
REMARK INTER + INTRA:         -13.275
REMARK INTER:                 -10.380
REMARK INTRA:                  -2.895
REMARK UNBOUND:                -0.834
REMARK SMILES NC[C@@H]1O[C@H](O[C@H]2[C@@H](O)[C@H](O[C@@H]3[C@@H](O)[C@H](N)C[C@H](N)[C@H]3O[C@H]3O[C@H](CO)[C@@H](O)[C@H](O)[C@H]3N)O[C@@H]2CO)[C@H](N)[C@@H](O)[C@@H]1O
REMARK SMILES IDX 11 1 10 2 7 3 34 4 8 5 33 6 6 7 5 8 3 9 4 10 41 11 39 12
REMARK SMILES IDX 37 13 2 14 1 15 42 18 40 20 38 22 35 25 36 26 9 28 12 30
REMARK SMILES IDX 13 31 20 32 15 33 18 34 17 35 14 36 21 38 22 39 23 40 31 41
REMARK SMILES IDX 24 42 29 43 27 44 32 45 25 48 26 49 30 51 28 53 16 55 19 58
REMARK H PARENT 1 16 1 17 42 19 40 21 38 23 38 24 36 27 9 29 14 37 32 46 32 47
REMARK H PARENT 26 50 30 52 28 54 16 56 16 57 19 59 19 60
REMARK Flexibility Score: inf
ROOT
ATOM      1  O   UNL     1      11.813  77.073  -3.739  1.00  0.00    -0.341 OA
ENDROOT
BRANCH   1   2
ATOM      2  C   UNL     1      13.233  77.232  -3.688  1.00  0.00     0.282 C 
ATOM      3  C   UNL     1      14.668  78.805  -4.801  1.00  0.00     0.186 C 
ATOM      4  C   UNL     1      14.645  78.998  -3.275  1.00  0.00     0.179 C 
ATOM      5  C   UNL     1      13.868  77.535  -5.058  1.00  0.00     0.202 C 
ATOM      6  O   UNL     1      13.604  78.214  -2.741  1.00  0.00    -0.341 OA
BRANCH   3   7
ATOM      7  O   UNL     1      15.950  78.887  -5.423  1.00  0.00    -0.342 OA
BRANCH   7   8
ATOM      8  C   UNL     1      16.377  80.188  -5.809  1.00  0.00     0.270 C 
ATOM      9  C   UNL     1      18.095  81.736  -5.495  1.00  0.00     0.166 C 
ATOM     10  O   UNL     1      17.659  80.410  -5.244  1.00  0.00    -0.344 OA
ATOM     11  C   UNL     1      18.336  81.950  -7.008  1.00  0.00     0.175 C 
ATOM     12  C   UNL     1      17.039  81.638  -7.783  1.00  0.00     0.167 C 
ATOM     13  C   UNL     1      16.462  80.264  -7.356  1.00  0.00     0.139 C 
BRANCH   9  14
ATOM     14  C   UNL     1      19.336  82.043  -4.638  1.00  0.00     0.112 C 
BRANCH  14  15
ATOM     15  N   UNL     1      20.382  81.037  -4.820  1.00  0.00    -0.328 NA
ATOM     16  H   UNL     1      20.617  80.644  -3.880  1.00  0.00     0.118 HD
ATOM     17  H   UNL     1      21.249  81.519  -5.150  1.00  0.00     0.118 HD
ENDBRANCH  14  15
ENDBRANCH   9  14
BRANCH  11  18
ATOM     18  O   UNL     1      19.373  81.117  -7.460  1.00  0.00    -0.388 OA
ATOM     19  H   UNL     1      19.466  80.388  -6.794  1.00  0.00     0.211 HD
ENDBRANCH  11  18
BRANCH  12  20
ATOM     20  O   UNL     1      16.098  82.652  -7.534  1.00  0.00    -0.388 OA
ATOM     21  H   UNL     1      15.440  82.283  -6.887  1.00  0.00     0.211 HD
ENDBRANCH  12  20
BRANCH  13  22
ATOM     22  N   UNL     1      17.294  79.175  -7.880  1.00  0.00    -0.321 NA
ATOM     23  H   UNL     1      16.851  78.263  -7.623  1.00  0.00     0.119 HD
ATOM     24  H   UNL     1      17.265  79.211  -8.926  1.00  0.00     0.119 HD
ENDBRANCH  13  22
ENDBRANCH   7   8
ENDBRANCH   3   7
BRANCH   4  25
ATOM     25  C   UNL     1      14.416  80.464  -2.881  1.00  0.00     0.191 C 
BRANCH  25  26
ATOM     26  O   UNL     1      13.671  80.551  -1.695  1.00  0.00    -0.394 OA
ATOM     27  H   UNL     1      13.973  79.806  -1.114  1.00  0.00     0.210 HD
ENDBRANCH  25  26
ENDBRANCH   4  25
BRANCH   5  28
ATOM     28  O   UNL     1      14.666  76.458  -5.475  1.00  0.00    -0.385 OA
ATOM     29  H   UNL     1      15.599  76.795  -5.523  1.00  0.00     0.211 HD
ENDBRANCH   5  28
ENDBRANCH   1   2
BRANCH   1  30
ATOM     30  C   UNL     1      11.355  75.885  -3.099  1.00  0.00     0.182 C 
ATOM     31  C   UNL     1      11.198  74.718  -4.117  1.00  0.00     0.163 C 
ATOM     32  C   UNL     1       9.964  76.133  -2.453  1.00  0.00     0.170 C 
ATOM     33  C   UNL     1      10.786  73.428  -3.369  1.00  0.00     0.084 C 
ATOM     34  C   UNL     1       9.596  74.879  -1.617  1.00  0.00     0.084 C 
ATOM     35  C   UNL     1       9.494  73.652  -2.554  1.00  0.00     0.043 C 
BRANCH  31  36
ATOM     36  O   UNL     1      12.399  74.482  -4.802  1.00  0.00    -0.389 OA
ATOM     37  H   UNL     1      12.160  74.080  -5.678  1.00  0.00     0.211 HD
ENDBRANCH  31  36
BRANCH  32  38
ATOM     38  O   UNL     1       9.977  77.311  -1.644  1.00  0.00    -0.343 OA
BRANCH  38  39
ATOM     39  C   UNL     1       9.145  78.329  -2.209  1.00  0.00     0.270 C 
ATOM     40  O   UNL     1       7.839  78.295  -1.651  1.00  0.00    -0.342 OA
ATOM     41  C   UNL     1       9.767  79.743  -2.084  1.00  0.00     0.139 C 
ATOM     42  C   UNL     1       7.836  78.642  -0.274  1.00  0.00     0.178 C 
ATOM     43  C   UNL     1       9.768  80.213  -0.619  1.00  0.00     0.167 C 
ATOM     44  C   UNL     1       8.345  80.085  -0.056  1.00  0.00     0.176 C 
BRANCH  41  45
ATOM     45  N   UNL     1      11.117  79.762  -2.639  1.00  0.00    -0.321 NA
ATOM     46  H   UNL     1      11.053  79.874  -3.676  1.00  0.00     0.119 HD
ATOM     47  H   UNL     1      11.543  78.818  -2.490  1.00  0.00     0.119 HD
ENDBRANCH  41  45
BRANCH  42  48
ATOM     48  C   UNL     1       6.414  78.452   0.278  1.00  0.00     0.191 C 
BRANCH  48  49
ATOM     49  O   UNL     1       6.398  78.542   1.679  1.00  0.00    -0.394 OA
ATOM     50  H   UNL     1       6.396  79.510   1.904  1.00  0.00     0.210 HD
ENDBRANCH  48  49
ENDBRANCH  42  48
BRANCH  43  51
ATOM     51  O   UNL     1      10.170  81.557  -0.537  1.00  0.00    -0.388 OA
ATOM     52  H   UNL     1      11.128  81.561  -0.277  1.00  0.00     0.211 HD
ENDBRANCH  43  51
BRANCH  44  53
ATOM     53  O   UNL     1       8.321  80.440   1.306  1.00  0.00    -0.388 OA
ATOM     54  H   UNL     1       8.201  81.424   1.361  1.00  0.00     0.211 HD
ENDBRANCH  44  53
ENDBRANCH  38  39
ENDBRANCH  32  38
BRANCH  33  55
ATOM     55  N   UNL     1      10.576  72.336  -4.324  1.00  0.00    -0.325 NA
ATOM     56  H   UNL     1       9.744  72.569  -4.915  1.00  0.00     0.119 HD
ATOM     57  H   UNL     1      10.308  71.475  -3.793  1.00  0.00     0.119 HD
ENDBRANCH  33  55
BRANCH  34  58
ATOM     58  N   UNL     1       8.328  75.086  -0.911  1.00  0.00    -0.325 NA
ATOM     59  H   UNL     1       8.282  76.061  -0.535  1.00  0.00     0.119 HD
ATOM     60  H   UNL     1       7.563  75.047  -1.623  1.00  0.00     0.119 HD
ENDBRANCH  34  58
ENDBRANCH   1  30
TORSDOF 22
ENDMDL
MODEL 14
REMARK VINA RESULT:    -6.515      2.737      5.129
REMARK INTER + INTRA:         -13.252
REMARK INTER:                 -11.394
REMARK INTRA:                  -1.858
REMARK UNBOUND:                -0.834
REMARK SMILES NC[C@@H]1O[C@H](O[C@H]2[C@@H](O)[C@H](O[C@@H]3[C@@H](O)[C@H](N)C[C@H](N)[C@H]3O[C@H]3O[C@H](CO)[C@@H](O)[C@H](O)[C@H]3N)O[C@@H]2CO)[C@H](N)[C@@H](O)[C@@H]1O
REMARK SMILES IDX 11 1 10 2 7 3 34 4 8 5 33 6 6 7 5 8 3 9 4 10 41 11 39 12
REMARK SMILES IDX 37 13 2 14 1 15 42 18 40 20 38 22 35 25 36 26 9 28 12 30
REMARK SMILES IDX 13 31 20 32 15 33 18 34 17 35 14 36 21 38 22 39 23 40 31 41
REMARK SMILES IDX 24 42 29 43 27 44 32 45 25 48 26 49 30 51 28 53 16 55 19 58
REMARK H PARENT 1 16 1 17 42 19 40 21 38 23 38 24 36 27 9 29 14 37 32 46 32 47
REMARK H PARENT 26 50 30 52 28 54 16 56 16 57 19 59 19 60
REMARK Flexibility Score: inf
ROOT
ATOM      1  O   UNL     1      10.213  76.027  -0.654  1.00  0.00    -0.341 OA
ENDROOT
BRANCH   1   2
ATOM      2  C   UNL     1      10.760  77.346  -0.560  1.00  0.00     0.282 C 
ATOM      3  C   UNL     1      11.460  78.872  -2.278  1.00  0.00     0.186 C 
ATOM      4  C   UNL     1      10.239  79.380  -1.493  1.00  0.00     0.179 C 
ATOM      5  C   UNL     1      11.906  77.608  -1.553  1.00  0.00     0.202 C 
ATOM      6  O   UNL     1       9.753  78.328  -0.693  1.00  0.00    -0.341 OA
BRANCH   3   7
ATOM      7  O   UNL     1      12.473  79.839  -2.555  1.00  0.00    -0.342 OA
BRANCH   7   8
ATOM      8  C   UNL     1      13.047  79.789  -3.855  1.00  0.00     0.270 C 
ATOM      9  C   UNL     1      14.186  81.094  -5.421  1.00  0.00     0.166 C 
ATOM     10  O   UNL     1      13.689  81.032  -4.094  1.00  0.00    -0.344 OA
ATOM     11  C   UNL     1      15.325  80.066  -5.621  1.00  0.00     0.175 C 
ATOM     12  C   UNL     1      14.803  78.652  -5.289  1.00  0.00     0.167 C 
ATOM     13  C   UNL     1      14.086  78.640  -3.915  1.00  0.00     0.139 C 
BRANCH   9  14
ATOM     14  C   UNL     1      14.613  82.536  -5.747  1.00  0.00     0.112 C 
BRANCH  14  15
ATOM     15  N   UNL     1      15.548  82.582  -6.871  1.00  0.00    -0.328 NA
ATOM     16  H   UNL     1      16.193  83.390  -6.717  1.00  0.00     0.118 HD
ATOM     17  H   UNL     1      15.009  82.812  -7.737  1.00  0.00     0.118 HD
ENDBRANCH  14  15
ENDBRANCH   9  14
BRANCH  11  18
ATOM     18  O   UNL     1      16.415  80.377  -4.792  1.00  0.00    -0.388 OA
ATOM     19  H   UNL     1      16.434  79.694  -4.073  1.00  0.00     0.211 HD
ENDBRANCH  11  18
BRANCH  12  20
ATOM     20  O   UNL     1      13.916  78.240  -6.299  1.00  0.00    -0.388 OA
ATOM     21  H   UNL     1      13.603  77.329  -6.054  1.00  0.00     0.211 HD
ENDBRANCH  12  20
BRANCH  13  22
ATOM     22  N   UNL     1      15.063  78.769  -2.828  1.00  0.00    -0.321 NA
ATOM     23  H   UNL     1      15.300  77.813  -2.477  1.00  0.00     0.119 HD
ATOM     24  H   UNL     1      15.954  79.146  -3.227  1.00  0.00     0.119 HD
ENDBRANCH  13  22
ENDBRANCH   7   8
ENDBRANCH   3   7
BRANCH   4  25
ATOM     25  C   UNL     1       9.113  79.860  -2.421  1.00  0.00     0.191 C 
BRANCH  25  26
ATOM     26  O   UNL     1       7.885  79.290  -2.052  1.00  0.00    -0.394 OA
ATOM     27  H   UNL     1       7.624  78.677  -2.787  1.00  0.00     0.210 HD
ENDBRANCH  25  26
ENDBRANCH   4  25
BRANCH   5  28
ATOM     28  O   UNL     1      13.121  77.769  -0.867  1.00  0.00    -0.385 OA
ATOM     29  H   UNL     1      12.911  78.247  -0.022  1.00  0.00     0.211 HD
ENDBRANCH   5  28
ENDBRANCH   1   2
BRANCH   1  30
ATOM     30  C   UNL     1       8.935  75.991  -1.284  1.00  0.00     0.182 C 
ATOM     31  C   UNL     1       7.813  75.635  -0.266  1.00  0.00     0.163 C 
ATOM     32  C   UNL     1       8.922  74.905  -2.395  1.00  0.00     0.170 C 
ATOM     33  C   UNL     1       6.436  75.692  -0.970  1.00  0.00     0.084 C 
ATOM     34  C   UNL     1       7.584  75.031  -3.169  1.00  0.00     0.084 C 
ATOM     35  C   UNL     1       6.406  74.762  -2.201  1.00  0.00     0.043 C 
BRANCH  31  36
ATOM     36  O   UNL     1       7.808  76.529   0.814  1.00  0.00    -0.389 OA
ATOM     37  H   UNL     1       7.811  77.446   0.434  1.00  0.00     0.211 HD
ENDBRANCH  31  36
BRANCH  32  38
ATOM     38  O   UNL     1      10.044  75.052  -3.269  1.00  0.00    -0.343 OA
BRANCH  38  39
ATOM     39  C   UNL     1      11.092  74.146  -2.913  1.00  0.00     0.270 C 
ATOM     40  O   UNL     1      10.590  73.045  -2.167  1.00  0.00    -0.342 OA
ATOM     41  C   UNL     1      11.904  73.662  -4.141  1.00  0.00     0.139 C 
ATOM     42  C   UNL     1       9.736  72.218  -2.944  1.00  0.00     0.178 C 
ATOM     43  C   UNL     1      11.059  72.725  -5.021  1.00  0.00     0.167 C 
ATOM     44  C   UNL     1      10.489  71.601  -4.144  1.00  0.00     0.176 C 
BRANCH  41  45
ATOM     45  N   UNL     1      12.396  74.800  -4.913  1.00  0.00    -0.321 NA
ATOM     46  H   UNL     1      13.290  75.134  -4.488  1.00  0.00     0.119 HD
ATOM     47  H   UNL     1      11.721  75.591  -4.791  1.00  0.00     0.119 HD
ENDBRANCH  41  45
BRANCH  42  48
ATOM     48  C   UNL     1       9.138  71.136  -2.031  1.00  0.00     0.191 C 
BRANCH  48  49
ATOM     49  O   UNL     1      10.013  70.047  -1.895  1.00  0.00    -0.394 OA
ATOM     50  H   UNL     1       9.672  69.329  -2.491  1.00  0.00     0.210 HD
ENDBRANCH  48  49
ENDBRANCH  42  48
BRANCH  43  51
ATOM     51  O   UNL     1      11.852  72.156  -6.032  1.00  0.00    -0.388 OA
ATOM     52  H   UNL     1      11.236  71.714  -6.674  1.00  0.00     0.211 HD
ENDBRANCH  43  51
BRANCH  44  53
ATOM     53  O   UNL     1       9.652  70.761  -4.902  1.00  0.00    -0.388 OA
ATOM     54  H   UNL     1       9.609  69.882  -4.444  1.00  0.00     0.211 HD
ENDBRANCH  44  53
ENDBRANCH  38  39
ENDBRANCH  32  38
BRANCH  33  55
ATOM     55  N   UNL     1       5.376  75.299  -0.037  1.00  0.00    -0.325 NA
ATOM     56  H   UNL     1       4.525  75.045  -0.591  1.00  0.00     0.119 HD
ATOM     57  H   UNL     1       5.100  76.137   0.527  1.00  0.00     0.119 HD
ENDBRANCH  33  55
BRANCH  34  58
ATOM     58  N   UNL     1       7.547  74.085  -4.289  1.00  0.00    -0.325 NA
ATOM     59  H   UNL     1       7.712  73.112  -3.941  1.00  0.00     0.119 HD
ATOM     60  H   UNL     1       6.567  74.067  -4.652  1.00  0.00     0.119 HD
ENDBRANCH  34  58
ENDBRANCH   1  30
TORSDOF 22
ENDMDL
MODEL 15
REMARK VINA RESULT:    -6.424      2.348      3.893
REMARK INTER + INTRA:         -13.079
REMARK INTER:                 -12.077
REMARK INTRA:                  -1.003
REMARK UNBOUND:                -0.834
REMARK SMILES NC[C@@H]1O[C@H](O[C@H]2[C@@H](O)[C@H](O[C@@H]3[C@@H](O)[C@H](N)C[C@H](N)[C@H]3O[C@H]3O[C@H](CO)[C@@H](O)[C@H](O)[C@H]3N)O[C@@H]2CO)[C@H](N)[C@@H](O)[C@@H]1O
REMARK SMILES IDX 11 1 10 2 7 3 34 4 8 5 33 6 6 7 5 8 3 9 4 10 41 11 39 12
REMARK SMILES IDX 37 13 2 14 1 15 42 18 40 20 38 22 35 25 36 26 9 28 12 30
REMARK SMILES IDX 13 31 20 32 15 33 18 34 17 35 14 36 21 38 22 39 23 40 31 41
REMARK SMILES IDX 24 42 29 43 27 44 32 45 25 48 26 49 30 51 28 53 16 55 19 58
REMARK H PARENT 1 16 1 17 42 19 40 21 38 23 38 24 36 27 9 29 14 37 32 46 32 47
REMARK H PARENT 26 50 30 52 28 54 16 56 16 57 19 59 19 60
REMARK Flexibility Score: inf
ROOT
ATOM      1  O   UNL     1      11.083  77.743  -0.404  1.00  0.00    -0.341 OA
ENDROOT
BRANCH   1   2
ATOM      2  C   UNL     1      12.361  77.391  -0.940  1.00  0.00     0.282 C 
ATOM      3  C   UNL     1      14.007  78.737  -2.060  1.00  0.00     0.186 C 
ATOM      4  C   UNL     1      14.493  78.214  -0.698  1.00  0.00     0.179 C 
ATOM      5  C   UNL     1      12.664  78.057  -2.295  1.00  0.00     0.202 C 
ATOM      6  O   UNL     1      13.395  77.659  -0.014  1.00  0.00    -0.341 OA
BRANCH   3   7
ATOM      7  O   UNL     1      14.951  78.671  -3.129  1.00  0.00    -0.342 OA
BRANCH   7   8
ATOM      8  C   UNL     1      15.096  79.850  -3.910  1.00  0.00     0.270 C 
ATOM      9  C   UNL     1      16.706  81.227  -4.891  1.00  0.00     0.166 C 
ATOM     10  O   UNL     1      16.475  80.005  -4.210  1.00  0.00    -0.344 OA
ATOM     11  C   UNL     1      16.042  81.203  -6.289  1.00  0.00     0.175 C 
ATOM     12  C   UNL     1      14.531  80.932  -6.134  1.00  0.00     0.167 C 
ATOM     13  C   UNL     1      14.285  79.703  -5.223  1.00  0.00     0.139 C 
BRANCH   9  14
ATOM     14  C   UNL     1      18.217  81.510  -4.947  1.00  0.00     0.112 C 
BRANCH  14  15
ATOM     15  N   UNL     1      18.998  80.274  -4.993  1.00  0.00    -0.328 NA
ATOM     16  H   UNL     1      18.588  79.663  -5.735  1.00  0.00     0.118 HD
ATOM     17  H   UNL     1      18.854  79.761  -4.093  1.00  0.00     0.118 HD
ENDBRANCH  14  15
ENDBRANCH   9  14
BRANCH  11  18
ATOM     18  O   UNL     1      16.625  80.206  -7.088  1.00  0.00    -0.388 OA
ATOM     19  H   UNL     1      16.806  79.432  -6.496  1.00  0.00     0.211 HD
ENDBRANCH  11  18
BRANCH  12  20
ATOM     20  O   UNL     1      13.913  82.069  -5.584  1.00  0.00    -0.388 OA
ATOM     21  H   UNL     1      14.630  82.606  -5.153  1.00  0.00     0.211 HD
ENDBRANCH  12  20
BRANCH  13  22
ATOM     22  N   UNL     1      14.654  78.466  -5.922  1.00  0.00    -0.321 NA
ATOM     23  H   UNL     1      15.298  77.916  -5.308  1.00  0.00     0.119 HD
ATOM     24  H   UNL     1      13.797  77.875  -6.023  1.00  0.00     0.119 HD
ENDBRANCH  13  22
ENDBRANCH   7   8
ENDBRANCH   3   7
BRANCH   4  25
ATOM     25  C   UNL     1      15.105  79.328   0.165  1.00  0.00     0.191 C 
BRANCH  25  26
ATOM     26  O   UNL     1      15.409  80.453  -0.616  1.00  0.00    -0.394 OA
ATOM     27  H   UNL     1      14.629  81.064  -0.551  1.00  0.00     0.210 HD
ENDBRANCH  25  26
ENDBRANCH   4  25
BRANCH   5  28
ATOM     28  O   UNL     1      12.708  77.092  -3.314  1.00  0.00    -0.385 OA
ATOM     29  H   UNL     1      11.849  77.158  -3.808  1.00  0.00     0.211 HD
ENDBRANCH   5  28
ENDBRANCH   1   2
BRANCH   1  30
ATOM     30  C   UNL     1      10.136  78.119  -1.401  1.00  0.00     0.182 C 
ATOM     31  C   UNL     1       9.238  79.292  -0.915  1.00  0.00     0.163 C 
ATOM     32  C   UNL     1       9.205  76.919  -1.728  1.00  0.00     0.170 C 
ATOM     33  C   UNL     1       8.287  79.726  -2.056  1.00  0.00     0.084 C 
ATOM     34  C   UNL     1       8.323  77.316  -2.940  1.00  0.00     0.084 C 
ATOM     35  C   UNL     1       7.447  78.533  -2.558  1.00  0.00     0.043 C 
BRANCH  31  36
ATOM     36  O   UNL     1      10.013  80.394  -0.526  1.00  0.00    -0.389 OA
ATOM     37  H   UNL     1      10.829  80.391  -1.091  1.00  0.00     0.211 HD
ENDBRANCH  31  36
BRANCH  32  38
ATOM     38  O   UNL     1       9.965  75.739  -2.002  1.00  0.00    -0.343 OA
BRANCH  38  39
ATOM     39  C   UNL     1       9.289  74.904  -2.947  1.00  0.00     0.270 C 
ATOM     40  O   UNL     1      10.125  74.600  -4.055  1.00  0.00    -0.342 OA
ATOM     41  C   UNL     1       8.728  73.611  -2.303  1.00  0.00     0.139 C 
ATOM     42  C   UNL     1      11.233  73.792  -3.685  1.00  0.00     0.178 C 
ATOM     43  C   UNL     1       9.867  72.658  -1.904  1.00  0.00     0.167 C 
ATOM     44  C   UNL     1      10.771  72.427  -3.124  1.00  0.00     0.176 C 
BRANCH  41  45
ATOM     45  N   UNL     1       7.889  73.933  -1.152  1.00  0.00    -0.321 NA
ATOM     46  H   UNL     1       8.495  74.007  -0.303  1.00  0.00     0.119 HD
ATOM     47  H   UNL     1       7.260  73.116  -0.970  1.00  0.00     0.119 HD
ENDBRANCH  41  45
BRANCH  42  48
ATOM     48  C   UNL     1      12.148  73.622  -4.908  1.00  0.00     0.191 C 
BRANCH  48  49
ATOM     49  O   UNL     1      11.818  72.466  -5.632  1.00  0.00    -0.394 OA
ATOM     50  H   UNL     1      11.668  71.744  -4.967  1.00  0.00     0.210 HD
ENDBRANCH  48  49
ENDBRANCH  42  48
BRANCH  43  51
ATOM     51  O   UNL     1       9.347  71.422  -1.484  1.00  0.00    -0.388 OA
ATOM     52  H   UNL     1       8.590  71.616  -0.871  1.00  0.00     0.211 HD
ENDBRANCH  43  51
BRANCH  44  53
ATOM     53  O   UNL     1      11.867  71.615  -2.778  1.00  0.00    -0.388 OA
ATOM     54  H   UNL     1      11.660  71.180  -1.910  1.00  0.00     0.211 HD
ENDBRANCH  44  53
ENDBRANCH  38  39
ENDBRANCH  32  38
BRANCH  33  55
ATOM     55  N   UNL     1       7.393  80.790  -1.591  1.00  0.00    -0.325 NA
ATOM     56  H   UNL     1       6.802  80.411  -0.816  1.00  0.00     0.119 HD
ATOM     57  H   UNL     1       6.725  81.025  -2.362  1.00  0.00     0.119 HD
ENDBRANCH  33  55
BRANCH  34  58
ATOM     58  N   UNL     1       7.478  76.191  -3.352  1.00  0.00    -0.325 NA
ATOM     59  H   UNL     1       6.521  76.533  -3.599  1.00  0.00     0.119 HD
ATOM     60  H   UNL     1       7.862  75.823  -4.252  1.00  0.00     0.119 HD
ENDBRANCH  34  58
ENDBRANCH   1  30
TORSDOF 22
ENDMDL
