MODEL 1
REMARK VINA RESULT:    -6.617      0.000      0.000
REMARK INTER + INTRA:          -9.031
REMARK INTER:                  -8.745
REMARK INTRA:                  -0.287
REMARK UNBOUND:                -0.287
REMARK SMILES CC(C)NCC(O)c1ccc(O)c(O)c1
REMARK SMILES IDX 5 1 4 2 2 4 1 5 3 6 6 7 7 8 8 10 15 11 9 12 13 13 10 14
REMARK SMILES IDX 11 15 14 16 12 18
REMARK H PARENT 4 3 7 9 14 17 12 19
REMARK Flexibility Score: inf
ROOT
ATOM      1  C   UNL     1      17.619  32.590   8.317  1.00  0.00     0.117 C 
ENDROOT
BRANCH   1   2
ATOM      2  N   UNL     1      17.716  32.614   9.784  1.00  0.00    -0.312 NA
ATOM      3  H   UNL     1      17.857  31.623  10.092  1.00  0.00     0.123 HD
BRANCH   2   4
ATOM      4  C   UNL     1      16.485  33.147  10.402  1.00  0.00     0.047 C 
ATOM      5  C   UNL     1      16.509  34.681  10.382  1.00  0.00     0.024 C 
ATOM      6  C   UNL     1      16.360  32.660  11.853  1.00  0.00     0.024 C 
ENDBRANCH   2   4
ENDBRANCH   1   2
BRANCH   1   7
ATOM      7  C   UNL     1      18.155  31.251   7.772  1.00  0.00     0.158 C 
BRANCH   7   8
ATOM      8  O   UNL     1      19.081  31.450   6.730  1.00  0.00    -0.387 OA
ATOM      9  H   UNL     1      19.422  30.563   6.444  1.00  0.00     0.211 HD
ENDBRANCH   7   8
BRANCH   7  10
ATOM     10  C   UNL     1      17.025  30.347   7.321  1.00  0.00    -0.014 A 
ATOM     11  C   UNL     1      15.689  30.635   7.655  1.00  0.00     0.056 A 
ATOM     12  C   UNL     1      17.305  29.190   6.574  1.00  0.00     0.010 A 
ATOM     13  C   UNL     1      14.652  29.791   7.244  1.00  0.00     0.157 A 
ATOM     14  C   UNL     1      16.271  28.345   6.161  1.00  0.00     0.050 A 
ATOM     15  C   UNL     1      14.943  28.640   6.492  1.00  0.00     0.157 A 
BRANCH  13  16
ATOM     16  O   UNL     1      13.339  30.110   7.593  1.00  0.00    -0.504 OA
ATOM     17  H   UNL     1      12.585  30.098   6.917  1.00  0.00     0.293 HD
ENDBRANCH  13  16
BRANCH  15  18
ATOM     18  O   UNL     1      13.913  27.796   6.079  1.00  0.00    -0.504 OA
ATOM     19  H   UNL     1      12.942  28.005   6.281  1.00  0.00     0.293 HD
ENDBRANCH  15  18
ENDBRANCH   7  10
ENDBRANCH   1   7
TORSDOF 7
ENDMDL
MODEL 2
REMARK VINA RESULT:    -6.616      2.614      5.186
REMARK INTER + INTRA:          -9.030
REMARK INTER:                  -8.656
REMARK INTRA:                  -0.374
REMARK UNBOUND:                -0.287
REMARK SMILES CC(C)NCC(O)c1ccc(O)c(O)c1
REMARK SMILES IDX 5 1 4 2 2 4 1 5 3 6 6 7 7 8 8 10 15 11 9 12 13 13 10 14
REMARK SMILES IDX 11 15 14 16 12 18
REMARK H PARENT 4 3 7 9 14 17 12 19
REMARK Flexibility Score: inf
ROOT
ATOM      1  C   UNL     1      16.479  30.428   6.496  1.00  0.00     0.117 C 
ENDROOT
BRANCH   1   2
ATOM      2  N   UNL     1      16.436  29.367   7.513  1.00  0.00    -0.312 NA
ATOM      3  H   UNL     1      17.146  28.650   7.230  1.00  0.00     0.123 HD
BRANCH   2   4
ATOM      4  C   UNL     1      15.104  28.733   7.583  1.00  0.00     0.047 C 
ATOM      5  C   UNL     1      14.659  28.292   6.182  1.00  0.00     0.024 C 
ATOM      6  C   UNL     1      14.072  29.714   8.159  1.00  0.00     0.024 C 
ENDBRANCH   2   4
ENDBRANCH   1   2
BRANCH   1   7
ATOM      7  C   UNL     1      17.650  31.389   6.781  1.00  0.00     0.158 C 
BRANCH   7   8
ATOM      8  O   UNL     1      18.834  30.689   7.078  1.00  0.00    -0.387 OA
ATOM      9  H   UNL     1      19.604  31.278   6.867  1.00  0.00     0.211 HD
ENDBRANCH   7   8
BRANCH   7  10
ATOM     10  C   UNL     1      17.307  32.361   7.894  1.00  0.00    -0.014 A 
ATOM     11  C   UNL     1      16.437  33.444   7.668  1.00  0.00     0.056 A 
ATOM     12  C   UNL     1      17.876  32.200   9.168  1.00  0.00     0.010 A 
ATOM     13  C   UNL     1      16.134  34.343   8.696  1.00  0.00     0.157 A 
ATOM     14  C   UNL     1      17.574  33.095  10.198  1.00  0.00     0.050 A 
ATOM     15  C   UNL     1      16.703  34.168   9.969  1.00  0.00     0.157 A 
BRANCH  13  16
ATOM     16  O   UNL     1      15.265  35.402   8.435  1.00  0.00    -0.504 OA
ATOM     17  H   UNL     1      15.572  36.368   8.460  1.00  0.00     0.293 HD
ENDBRANCH  13  16
BRANCH  15  18
ATOM     18  O   UNL     1      16.403  35.059  10.997  1.00  0.00    -0.504 OA
ATOM     19  H   UNL     1      16.770  34.932  11.934  1.00  0.00     0.293 HD
ENDBRANCH  15  18
ENDBRANCH   7  10
ENDBRANCH   1   7
TORSDOF 7
ENDMDL
MODEL 3
REMARK VINA RESULT:    -6.592      1.257      2.110
REMARK INTER + INTRA:          -8.998
REMARK INTER:                  -8.611
REMARK INTRA:                  -0.387
REMARK UNBOUND:                -0.287
REMARK SMILES CC(C)NCC(O)c1ccc(O)c(O)c1
REMARK SMILES IDX 5 1 4 2 2 4 1 5 3 6 6 7 7 8 8 10 15 11 9 12 13 13 10 14
REMARK SMILES IDX 11 15 14 16 12 18
REMARK H PARENT 4 3 7 9 14 17 12 19
REMARK Flexibility Score: inf
ROOT
ATOM      1  C   UNL     1      16.817  33.442   8.301  1.00  0.00     0.117 C 
ENDROOT
BRANCH   1   2
ATOM      2  N   UNL     1      16.487  33.935   9.646  1.00  0.00    -0.312 NA
ATOM      3  H   UNL     1      16.844  34.919   9.702  1.00  0.00     0.123 HD
BRANCH   2   4
ATOM      4  C   UNL     1      17.129  33.122  10.698  1.00  0.00     0.047 C 
ATOM      5  C   UNL     1      16.099  32.745  11.771  1.00  0.00     0.024 C 
ATOM      6  C   UNL     1      18.281  33.900  11.350  1.00  0.00     0.024 C 
ENDBRANCH   2   4
ENDBRANCH   1   2
BRANCH   1   7
ATOM      7  C   UNL     1      17.466  32.047   8.392  1.00  0.00     0.158 C 
BRANCH   7   8
ATOM      8  O   UNL     1      18.757  32.039   7.830  1.00  0.00    -0.387 OA
ATOM      9  H   UNL     1      19.236  31.236   8.164  1.00  0.00     0.211 HD
ENDBRANCH   7   8
BRANCH   7  10
ATOM     10  C   UNL     1      16.593  30.989   7.746  1.00  0.00    -0.014 A 
ATOM     11  C   UNL     1      17.162  29.874   7.102  1.00  0.00     0.056 A 
ATOM     12  C   UNL     1      15.195  31.121   7.767  1.00  0.00     0.010 A 
ATOM     13  C   UNL     1      16.351  28.906   6.499  1.00  0.00     0.157 A 
ATOM     14  C   UNL     1      14.382  30.156   7.167  1.00  0.00     0.050 A 
ATOM     15  C   UNL     1      14.953  29.046   6.532  1.00  0.00     0.157 A 
BRANCH  13  16
ATOM     16  O   UNL     1      16.951  27.814   5.873  1.00  0.00    -0.504 OA
ATOM     17  H   UNL     1      17.648  27.927   5.146  1.00  0.00     0.293 HD
ENDBRANCH  13  16
BRANCH  15  18
ATOM     18  O   UNL     1      14.140  28.085   5.934  1.00  0.00    -0.504 OA
ATOM     19  H   UNL     1      13.157  28.002   6.167  1.00  0.00     0.293 HD
ENDBRANCH  15  18
ENDBRANCH   7  10
ENDBRANCH   1   7
TORSDOF 7
ENDMDL
MODEL 4
REMARK VINA RESULT:    -6.175      2.600      5.845
REMARK INTER + INTRA:          -8.447
REMARK INTER:                  -8.120
REMARK INTRA:                  -0.327
REMARK UNBOUND:                -0.287
REMARK SMILES CC(C)NCC(O)c1ccc(O)c(O)c1
REMARK SMILES IDX 5 1 4 2 2 4 1 5 3 6 6 7 7 8 8 10 15 11 9 12 13 13 10 14
REMARK SMILES IDX 11 15 14 16 12 18
REMARK H PARENT 4 3 7 9 14 17 12 19
REMARK Flexibility Score: inf
ROOT
ATOM      1  C   UNL     1      16.313  31.009   7.236  1.00  0.00     0.117 C 
ENDROOT
BRANCH   1   2
ATOM      2  N   UNL     1      16.509  29.763   7.991  1.00  0.00    -0.312 NA
ATOM      3  H   UNL     1      17.539  29.677   8.166  1.00  0.00     0.123 HD
BRANCH   2   4
ATOM      4  C   UNL     1      16.042  28.586   7.232  1.00  0.00     0.047 C 
ATOM      5  C   UNL     1      17.117  28.148   6.229  1.00  0.00     0.024 C 
ATOM      6  C   UNL     1      14.746  28.915   6.476  1.00  0.00     0.024 C 
ENDBRANCH   2   4
ENDBRANCH   1   2
BRANCH   1   7
ATOM      7  C   UNL     1      17.559  31.907   7.360  1.00  0.00     0.158 C 
BRANCH   7   8
ATOM      8  O   UNL     1      18.740  31.198   7.070  1.00  0.00    -0.387 OA
ATOM      9  H   UNL     1      18.654  30.285   7.449  1.00  0.00     0.211 HD
ENDBRANCH   7   8
BRANCH   7  10
ATOM     10  C   UNL     1      17.643  32.549   8.732  1.00  0.00    -0.014 A 
ATOM     11  C   UNL     1      18.572  32.098   9.688  1.00  0.00     0.056 A 
ATOM     12  C   UNL     1      16.772  33.599   9.071  1.00  0.00     0.010 A 
ATOM     13  C   UNL     1      18.636  32.689  10.955  1.00  0.00     0.157 A 
ATOM     14  C   UNL     1      16.835  34.191  10.335  1.00  0.00     0.050 A 
ATOM     15  C   UNL     1      17.765  33.741  11.281  1.00  0.00     0.157 A 
BRANCH  13  16
ATOM     16  O   UNL     1      19.572  32.216  11.875  1.00  0.00    -0.504 OA
ATOM     17  H   UNL     1      20.191  32.838  12.381  1.00  0.00     0.293 HD
ENDBRANCH  13  16
BRANCH  15  18
ATOM     18  O   UNL     1      17.826  34.334  12.541  1.00  0.00    -0.504 OA
ATOM     19  H   UNL     1      18.052  35.315  12.656  1.00  0.00     0.293 HD
ENDBRANCH  15  18
ENDBRANCH   7  10
ENDBRANCH   1   7
TORSDOF 7
ENDMDL
MODEL 5
REMARK VINA RESULT:    -6.168      1.702      3.249
REMARK INTER + INTRA:          -8.438
REMARK INTER:                  -8.169
REMARK INTRA:                  -0.269
REMARK UNBOUND:                -0.287
REMARK SMILES CC(C)NCC(O)c1ccc(O)c(O)c1
REMARK SMILES IDX 5 1 4 2 2 4 1 5 3 6 6 7 7 8 8 10 15 11 9 12 13 13 10 14
REMARK SMILES IDX 11 15 14 16 12 18
REMARK H PARENT 4 3 7 9 14 17 12 19
REMARK Flexibility Score: inf
ROOT
ATOM      1  C   UNL     1      16.094  32.801   9.062  1.00  0.00     0.117 C 
ENDROOT
BRANCH   1   2
ATOM      2  N   UNL     1      16.363  32.377  10.444  1.00  0.00    -0.312 NA
ATOM      3  H   UNL     1      15.459  32.010  10.827  1.00  0.00     0.123 HD
BRANCH   2   4
ATOM      4  C   UNL     1      16.825  33.504  11.280  1.00  0.00     0.047 C 
ATOM      5  C   UNL     1      16.066  33.512  12.614  1.00  0.00     0.024 C 
ATOM      6  C   UNL     1      16.594  34.838  10.557  1.00  0.00     0.024 C 
ENDBRANCH   2   4
ENDBRANCH   1   2
BRANCH   1   7
ATOM      7  C   UNL     1      15.531  31.621   8.245  1.00  0.00     0.158 C 
BRANCH   7   8
ATOM      8  O   UNL     1      14.860  30.696   9.066  1.00  0.00    -0.387 OA
ATOM      9  H   UNL     1      15.333  30.653   9.937  1.00  0.00     0.211 HD
ENDBRANCH   7   8
BRANCH   7  10
ATOM     10  C   UNL     1      16.620  30.936   7.443  1.00  0.00    -0.014 A 
ATOM     11  C   UNL     1      16.493  29.590   7.051  1.00  0.00     0.056 A 
ATOM     12  C   UNL     1      17.787  31.638   7.097  1.00  0.00     0.010 A 
ATOM     13  C   UNL     1      17.507  28.961   6.320  1.00  0.00     0.157 A 
ATOM     14  C   UNL     1      18.800  31.013   6.366  1.00  0.00     0.050 A 
ATOM     15  C   UNL     1      18.666  29.674   5.974  1.00  0.00     0.157 A 
BRANCH  13  16
ATOM     16  O   UNL     1      17.344  27.627   5.947  1.00  0.00    -0.504 OA
ATOM     17  H   UNL     1      16.475  27.128   6.097  1.00  0.00     0.293 HD
ENDBRANCH  13  16
BRANCH  15  18
ATOM     18  O   UNL     1      19.679  29.053   5.245  1.00  0.00    -0.504 OA
ATOM     19  H   UNL     1      20.644  29.073   5.553  1.00  0.00     0.293 HD
ENDBRANCH  15  18
ENDBRANCH   7  10
ENDBRANCH   1   7
TORSDOF 7
ENDMDL
MODEL 6
REMARK VINA RESULT:    -6.157      2.897      6.282
REMARK INTER + INTRA:          -8.424
REMARK INTER:                  -8.200
REMARK INTRA:                  -0.223
REMARK UNBOUND:                -0.287
REMARK SMILES CC(C)NCC(O)c1ccc(O)c(O)c1
REMARK SMILES IDX 5 1 4 2 2 4 1 5 3 6 6 7 7 8 8 10 15 11 9 12 13 13 10 14
REMARK SMILES IDX 11 15 14 16 12 18
REMARK H PARENT 4 3 7 9 14 17 12 19
REMARK Flexibility Score: inf
ROOT
ATOM      1  C   UNL     1      17.204  31.435   7.672  1.00  0.00     0.117 C 
ENDROOT
BRANCH   1   2
ATOM      2  N   UNL     1      16.891  30.021   7.923  1.00  0.00    -0.312 NA
ATOM      3  H   UNL     1      17.808  29.526   8.042  1.00  0.00     0.123 HD
BRANCH   2   4
ATOM      4  C   UNL     1      16.154  29.417   6.794  1.00  0.00     0.047 C 
ATOM      5  C   UNL     1      14.728  29.059   7.231  1.00  0.00     0.024 C 
ATOM      6  C   UNL     1      16.869  28.149   6.304  1.00  0.00     0.024 C 
ENDBRANCH   2   4
ENDBRANCH   1   2
BRANCH   1   7
ATOM      7  C   UNL     1      16.324  32.338   8.559  1.00  0.00     0.158 C 
BRANCH   7   8
ATOM      8  O   UNL     1      15.792  33.419   7.830  1.00  0.00    -0.387 OA
ATOM      9  H   UNL     1      16.505  34.101   7.721  1.00  0.00     0.211 HD
ENDBRANCH   7   8
BRANCH   7  10
ATOM     10  C   UNL     1      17.087  32.833   9.772  1.00  0.00    -0.014 A 
ATOM     11  C   UNL     1      18.401  32.399  10.028  1.00  0.00     0.056 A 
ATOM     12  C   UNL     1      16.477  33.723  10.672  1.00  0.00     0.010 A 
ATOM     13  C   UNL     1      19.095  32.851  11.156  1.00  0.00     0.157 A 
ATOM     14  C   UNL     1      17.168  34.178  11.798  1.00  0.00     0.050 A 
ATOM     15  C   UNL     1      18.477  33.746  12.045  1.00  0.00     0.157 A 
BRANCH  13  16
ATOM     16  O   UNL     1      20.396  32.400  11.376  1.00  0.00    -0.504 OA
ATOM     17  H   UNL     1      20.822  32.413  12.295  1.00  0.00     0.293 HD
ENDBRANCH  13  16
BRANCH  15  18
ATOM     18  O   UNL     1      19.165  34.201  13.169  1.00  0.00    -0.504 OA
ATOM     19  H   UNL     1      18.746  34.181  14.092  1.00  0.00     0.293 HD
ENDBRANCH  15  18
ENDBRANCH   7  10
ENDBRANCH   1   7
TORSDOF 7
ENDMDL
MODEL 7
REMARK VINA RESULT:    -6.060      1.951      3.280
REMARK INTER + INTRA:          -8.295
REMARK INTER:                  -7.614
REMARK INTRA:                  -0.681
REMARK UNBOUND:                -0.287
REMARK SMILES CC(C)NCC(O)c1ccc(O)c(O)c1
REMARK SMILES IDX 5 1 4 2 2 4 1 5 3 6 6 7 7 8 8 10 15 11 9 12 13 13 10 14
REMARK SMILES IDX 11 15 14 16 12 18
REMARK H PARENT 4 3 7 9 14 17 12 19
REMARK Flexibility Score: inf
ROOT
ATOM      1  C   UNL     1      16.196  34.310   9.850  1.00  0.00     0.117 C 
ENDROOT
BRANCH   1   2
ATOM      2  N   UNL     1      17.568  34.318  10.379  1.00  0.00    -0.312 NA
ATOM      3  H   UNL     1      18.202  34.099   9.573  1.00  0.00     0.123 HD
BRANCH   2   4
ATOM      4  C   UNL     1      17.751  33.301  11.434  1.00  0.00     0.047 C 
ATOM      5  C   UNL     1      18.757  32.239  10.970  1.00  0.00     0.024 C 
ATOM      6  C   UNL     1      16.413  32.623  11.763  1.00  0.00     0.024 C 
ENDBRANCH   2   4
ENDBRANCH   1   2
BRANCH   1   7
ATOM      7  C   UNL     1      16.218  34.133   8.318  1.00  0.00     0.158 C 
BRANCH   7   8
ATOM      8  O   UNL     1      15.038  34.616   7.724  1.00  0.00    -0.387 OA
ATOM      9  H   UNL     1      15.265  34.972   6.826  1.00  0.00     0.211 HD
ENDBRANCH   7   8
BRANCH   7  10
ATOM     10  C   UNL     1      16.460  32.686   7.934  1.00  0.00    -0.014 A 
ATOM     11  C   UNL     1      17.713  32.264   7.451  1.00  0.00     0.056 A 
ATOM     12  C   UNL     1      15.420  31.747   8.039  1.00  0.00     0.010 A 
ATOM     13  C   UNL     1      17.926  30.930   7.088  1.00  0.00     0.157 A 
ATOM     14  C   UNL     1      15.630  30.413   7.679  1.00  0.00     0.050 A 
ATOM     15  C   UNL     1      16.881  29.998   7.203  1.00  0.00     0.157 A 
BRANCH  13  16
ATOM     16  O   UNL     1      19.182  30.549   6.616  1.00  0.00    -0.504 OA
ATOM     17  H   UNL     1      19.495  30.774   5.679  1.00  0.00     0.293 HD
ENDBRANCH  13  16
BRANCH  15  18
ATOM     18  O   UNL     1      17.087  28.667   6.844  1.00  0.00    -0.504 OA
ATOM     19  H   UNL     1      17.800  28.101   7.292  1.00  0.00     0.293 HD
ENDBRANCH  15  18
ENDBRANCH   7  10
ENDBRANCH   1   7
TORSDOF 7
ENDMDL
MODEL 8
REMARK VINA RESULT:    -6.035      1.942      2.495
REMARK INTER + INTRA:          -8.262
REMARK INTER:                  -7.759
REMARK INTRA:                  -0.503
REMARK UNBOUND:                -0.287
REMARK SMILES CC(C)NCC(O)c1ccc(O)c(O)c1
REMARK SMILES IDX 5 1 4 2 2 4 1 5 3 6 6 7 7 8 8 10 15 11 9 12 13 13 10 14
REMARK SMILES IDX 11 15 14 16 12 18
REMARK H PARENT 4 3 7 9 14 17 12 19
REMARK Flexibility Score: inf
ROOT
ATOM      1  C   UNL     1      16.383  33.789   9.883  1.00  0.00     0.117 C 
ENDROOT
BRANCH   1   2
ATOM      2  N   UNL     1      17.638  34.289  10.465  1.00  0.00    -0.312 NA
ATOM      3  H   UNL     1      18.336  34.329   9.685  1.00  0.00     0.123 HD
BRANCH   2   4
ATOM      4  C   UNL     1      18.142  33.393  11.525  1.00  0.00     0.047 C 
ATOM      5  C   UNL     1      19.052  32.319  10.915  1.00  0.00     0.024 C 
ATOM      6  C   UNL     1      16.973  32.713  12.253  1.00  0.00     0.024 C 
ENDBRANCH   2   4
ENDBRANCH   1   2
BRANCH   1   7
ATOM      7  C   UNL     1      16.481  33.774   8.344  1.00  0.00     0.158 C 
BRANCH   7   8
ATOM      8  O   UNL     1      15.436  34.506   7.751  1.00  0.00    -0.387 OA
ATOM      9  H   UNL     1      15.364  34.231   6.801  1.00  0.00     0.211 HD
ENDBRANCH   7   8
BRANCH   7  10
ATOM     10  C   UNL     1      16.515  32.356   7.807  1.00  0.00    -0.014 A 
ATOM     11  C   UNL     1      15.335  31.600   7.684  1.00  0.00     0.056 A 
ATOM     12  C   UNL     1      17.740  31.772   7.441  1.00  0.00     0.010 A 
ATOM     13  C   UNL     1      15.375  30.288   7.198  1.00  0.00     0.157 A 
ATOM     14  C   UNL     1      17.783  30.463   6.954  1.00  0.00     0.050 A 
ATOM     15  C   UNL     1      16.604  29.716   6.829  1.00  0.00     0.157 A 
BRANCH  13  16
ATOM     16  O   UNL     1      14.185  29.570   7.088  1.00  0.00    -0.504 OA
ATOM     17  H   UNL     1      13.449  29.639   7.781  1.00  0.00     0.293 HD
ENDBRANCH  13  16
BRANCH  15  18
ATOM     18  O   UNL     1      16.650  28.411   6.343  1.00  0.00    -0.504 OA
ATOM     19  H   UNL     1      16.342  28.183   5.404  1.00  0.00     0.293 HD
ENDBRANCH  15  18
ENDBRANCH   7  10
ENDBRANCH   1   7
TORSDOF 7
ENDMDL
MODEL 9
REMARK VINA RESULT:    -5.978     10.804     12.484
REMARK INTER + INTRA:          -8.187
REMARK INTER:                  -7.505
REMARK INTRA:                  -0.681
REMARK UNBOUND:                -0.287
REMARK SMILES CC(C)NCC(O)c1ccc(O)c(O)c1
REMARK SMILES IDX 5 1 4 2 2 4 1 5 3 6 6 7 7 8 8 10 15 11 9 12 13 13 10 14
REMARK SMILES IDX 11 15 14 16 12 18
REMARK H PARENT 4 3 7 9 14 17 12 19
REMARK Flexibility Score: inf
ROOT
ATOM      1  C   UNL     1       6.630  24.097   9.601  1.00  0.00     0.117 C 
ENDROOT
BRANCH   1   2
ATOM      2  N   UNL     1       6.868  24.073  11.051  1.00  0.00    -0.312 NA
ATOM      3  H   UNL     1       7.569  23.315  11.229  1.00  0.00     0.123 HD
BRANCH   2   4
ATOM      4  C   UNL     1       5.630  23.778  11.802  1.00  0.00     0.047 C 
ATOM      5  C   UNL     1       4.704  22.892  10.957  1.00  0.00     0.024 C 
ATOM      6  C   UNL     1       4.898  25.079  12.162  1.00  0.00     0.024 C 
ENDBRANCH   2   4
ENDBRANCH   1   2
BRANCH   1   7
ATOM      7  C   UNL     1       7.188  25.400   8.993  1.00  0.00     0.158 C 
BRANCH   7   8
ATOM      8  O   UNL     1       8.320  25.855   9.695  1.00  0.00    -0.387 OA
ATOM      9  H   UNL     1       8.942  26.272   9.043  1.00  0.00     0.211 HD
ENDBRANCH   7   8
BRANCH   7  10
ATOM     10  C   UNL     1       6.124  26.480   8.932  1.00  0.00    -0.014 A 
ATOM     11  C   UNL     1       6.412  27.802   9.318  1.00  0.00     0.056 A 
ATOM     12  C   UNL     1       4.824  26.164   8.504  1.00  0.00     0.010 A 
ATOM     13  C   UNL     1       5.423  28.791   9.269  1.00  0.00     0.157 A 
ATOM     14  C   UNL     1       3.835  27.149   8.452  1.00  0.00     0.050 A 
ATOM     15  C   UNL     1       4.128  28.465   8.833  1.00  0.00     0.157 A 
BRANCH  13  16
ATOM     16  O   UNL     1       5.746  30.092   9.657  1.00  0.00    -0.504 OA
ATOM     17  H   UNL     1       5.108  30.867   9.524  1.00  0.00     0.293 HD
ENDBRANCH  13  16
BRANCH  15  18
ATOM     18  O   UNL     1       3.140  29.446   8.781  1.00  0.00    -0.504 OA
ATOM     19  H   UNL     1       2.882  29.894   7.909  1.00  0.00     0.293 HD
ENDBRANCH  15  18
ENDBRANCH   7  10
ENDBRANCH   1   7
TORSDOF 7
ENDMDL
MODEL 10
REMARK VINA RESULT:    -5.965      2.968      5.784
REMARK INTER + INTRA:          -8.170
REMARK INTER:                  -7.903
REMARK INTRA:                  -0.268
REMARK UNBOUND:                -0.287
REMARK SMILES CC(C)NCC(O)c1ccc(O)c(O)c1
REMARK SMILES IDX 5 1 4 2 2 4 1 5 3 6 6 7 7 8 8 10 15 11 9 12 13 13 10 14
REMARK SMILES IDX 11 15 14 16 12 18
REMARK H PARENT 4 3 7 9 14 17 12 19
REMARK Flexibility Score: inf
ROOT
ATOM      1  C   UNL     1      16.267  31.529   7.958  1.00  0.00     0.117 C 
ENDROOT
BRANCH   1   2
ATOM      2  N   UNL     1      16.567  30.091   8.023  1.00  0.00    -0.312 NA
ATOM      3  H   UNL     1      17.611  30.000   7.995  1.00  0.00     0.123 HD
BRANCH   2   4
ATOM      4  C   UNL     1      15.983  29.360   6.881  1.00  0.00     0.047 C 
ATOM      5  C   UNL     1      14.639  28.741   7.287  1.00  0.00     0.024 C 
ATOM      6  C   UNL     1      16.933  28.249   6.412  1.00  0.00     0.024 C 
ENDBRANCH   2   4
ENDBRANCH   1   2
BRANCH   1   7
ATOM      7  C   UNL     1      17.500  32.348   8.392  1.00  0.00     0.158 C 
BRANCH   7   8
ATOM      8  O   UNL     1      18.696  31.764   7.937  1.00  0.00    -0.387 OA
ATOM      9  H   UNL     1      18.946  31.038   8.566  1.00  0.00     0.211 HD
ENDBRANCH   7   8
BRANCH   7  10
ATOM     10  C   UNL     1      17.534  32.540   9.896  1.00  0.00    -0.014 A 
ATOM     11  C   UNL     1      16.382  32.934  10.602  1.00  0.00     0.056 A 
ATOM     12  C   UNL     1      18.732  32.342  10.603  1.00  0.00     0.010 A 
ATOM     13  C   UNL     1      16.424  33.119  11.989  1.00  0.00     0.157 A 
ATOM     14  C   UNL     1      18.776  32.525  11.988  1.00  0.00     0.050 A 
ATOM     15  C   UNL     1      17.626  32.912  12.686  1.00  0.00     0.157 A 
BRANCH  13  16
ATOM     16  O   UNL     1      15.262  33.508  12.655  1.00  0.00    -0.504 OA
ATOM     17  H   UNL     1      15.047  34.480  12.840  1.00  0.00     0.293 HD
ENDBRANCH  13  16
BRANCH  15  18
ATOM     18  O   UNL     1      17.672  33.094  14.068  1.00  0.00    -0.504 OA
ATOM     19  H   UNL     1      16.899  32.825  14.665  1.00  0.00     0.293 HD
ENDBRANCH  15  18
ENDBRANCH   7  10
ENDBRANCH   1   7
TORSDOF 7
ENDMDL
MODEL 11
REMARK VINA RESULT:    -5.933      4.323      7.435
REMARK INTER + INTRA:          -8.128
REMARK INTER:                  -7.868
REMARK INTRA:                  -0.260
REMARK UNBOUND:                -0.287
REMARK SMILES CC(C)NCC(O)c1ccc(O)c(O)c1
REMARK SMILES IDX 5 1 4 2 2 4 1 5 3 6 6 7 7 8 8 10 15 11 9 12 13 13 10 14
REMARK SMILES IDX 11 15 14 16 12 18
REMARK H PARENT 4 3 7 9 14 17 12 19
REMARK Flexibility Score: inf
ROOT
ATOM      1  C   UNL     1      16.792  33.748  11.066  1.00  0.00     0.117 C 
ENDROOT
BRANCH   1   2
ATOM      2  N   UNL     1      16.924  32.395  10.507  1.00  0.00    -0.312 NA
ATOM      3  H   UNL     1      17.931  32.125  10.609  1.00  0.00     0.123 HD
BRANCH   2   4
ATOM      4  C   UNL     1      16.549  32.356   9.079  1.00  0.00     0.047 C 
ATOM      5  C   UNL     1      17.638  31.637   8.272  1.00  0.00     0.024 C 
ATOM      6  C   UNL     1      16.369  33.780   8.533  1.00  0.00     0.024 C 
ENDBRANCH   2   4
ENDBRANCH   1   2
BRANCH   1   7
ATOM      7  C   UNL     1      17.441  33.811  12.463  1.00  0.00     0.158 C 
BRANCH   7   8
ATOM      8  O   UNL     1      18.206  32.660  12.731  1.00  0.00    -0.387 OA
ATOM      9  H   UNL     1      19.143  32.941  12.893  1.00  0.00     0.211 HD
ENDBRANCH   7   8
BRANCH   7  10
ATOM     10  C   UNL     1      16.402  34.029  13.546  1.00  0.00    -0.014 A 
ATOM     11  C   UNL     1      15.046  33.722  13.321  1.00  0.00     0.056 A 
ATOM     12  C   UNL     1      16.782  34.561  14.789  1.00  0.00     0.010 A 
ATOM     13  C   UNL     1      14.091  33.935  14.321  1.00  0.00     0.157 A 
ATOM     14  C   UNL     1      15.830  34.774  15.790  1.00  0.00     0.050 A 
ATOM     15  C   UNL     1      14.483  34.463  15.563  1.00  0.00     0.157 A 
BRANCH  13  16
ATOM     16  O   UNL     1      12.758  33.618  14.062  1.00  0.00    -0.504 OA
ATOM     17  H   UNL     1      12.496  32.859  13.443  1.00  0.00     0.293 HD
ENDBRANCH  13  16
BRANCH  15  18
ATOM     18  O   UNL     1      13.536  34.676  16.563  1.00  0.00    -0.504 OA
ATOM     19  H   UNL     1      12.569  34.395  16.446  1.00  0.00     0.293 HD
ENDBRANCH  15  18
ENDBRANCH   7  10
ENDBRANCH   1   7
TORSDOF 7
ENDMDL
MODEL 12
REMARK VINA RESULT:    -5.912      3.492      6.524
REMARK INTER + INTRA:          -8.099
REMARK INTER:                  -7.788
REMARK INTRA:                  -0.311
REMARK UNBOUND:                -0.287
REMARK SMILES CC(C)NCC(O)c1ccc(O)c(O)c1
REMARK SMILES IDX 5 1 4 2 2 4 1 5 3 6 6 7 7 8 8 10 15 11 9 12 13 13 10 14
REMARK SMILES IDX 11 15 14 16 12 18
REMARK H PARENT 4 3 7 9 14 17 12 19
REMARK Flexibility Score: inf
ROOT
ATOM      1  C   UNL     1      16.507  32.694   8.860  1.00  0.00     0.117 C 
ENDROOT
BRANCH   1   2
ATOM      2  N   UNL     1      15.766  31.425   8.919  1.00  0.00    -0.312 NA
ATOM      3  H   UNL     1      16.448  30.693   9.232  1.00  0.00     0.123 HD
BRANCH   2   4
ATOM      4  C   UNL     1      15.220  31.051   7.599  1.00  0.00     0.047 C 
ATOM      5  C   UNL     1      14.240  29.880   7.750  1.00  0.00     0.024 C 
ATOM      6  C   UNL     1      16.352  30.645   6.645  1.00  0.00     0.024 C 
ENDBRANCH   2   4
ENDBRANCH   1   2
BRANCH   1   7
ATOM      7  C   UNL     1      17.838  32.567   9.629  1.00  0.00     0.158 C 
BRANCH   7   8
ATOM      8  O   UNL     1      18.383  31.275   9.512  1.00  0.00    -0.387 OA
ATOM      9  H   UNL     1      19.372  31.353   9.520  1.00  0.00     0.211 HD
ENDBRANCH   7   8
BRANCH   7  10
ATOM     10  C   UNL     1      17.672  32.949  11.087  1.00  0.00    -0.014 A 
ATOM     11  C   UNL     1      18.512  32.409  12.078  1.00  0.00     0.056 A 
ATOM     12  C   UNL     1      16.655  33.841  11.469  1.00  0.00     0.010 A 
ATOM     13  C   UNL     1      18.347  32.758  13.423  1.00  0.00     0.157 A 
ATOM     14  C   UNL     1      16.488  34.193  12.811  1.00  0.00     0.050 A 
ATOM     15  C   UNL     1      17.331  33.656  13.793  1.00  0.00     0.157 A 
BRANCH  13  16
ATOM     16  O   UNL     1      19.201  32.204  14.376  1.00  0.00    -0.504 OA
ATOM     17  H   UNL     1      20.142  32.548  14.520  1.00  0.00     0.293 HD
ENDBRANCH  13  16
BRANCH  15  18
ATOM     18  O   UNL     1      17.162  34.008  15.131  1.00  0.00    -0.504 OA
ATOM     19  H   UNL     1      16.241  34.084  15.547  1.00  0.00     0.293 HD
ENDBRANCH  15  18
ENDBRANCH   7  10
ENDBRANCH   1   7
TORSDOF 7
ENDMDL
MODEL 13
REMARK VINA RESULT:    -5.875      3.923      6.927
REMARK INTER + INTRA:          -8.051
REMARK INTER:                  -7.800
REMARK INTRA:                  -0.251
REMARK UNBOUND:                -0.287
REMARK SMILES CC(C)NCC(O)c1ccc(O)c(O)c1
REMARK SMILES IDX 5 1 4 2 2 4 1 5 3 6 6 7 7 8 8 10 15 11 9 12 13 13 10 14
REMARK SMILES IDX 11 15 14 16 12 18
REMARK H PARENT 4 3 7 9 14 17 12 19
REMARK Flexibility Score: inf
ROOT
ATOM      1  C   UNL     1      17.425  32.401   9.529  1.00  0.00     0.117 C 
ENDROOT
BRANCH   1   2
ATOM      2  N   UNL     1      18.060  31.220   8.926  1.00  0.00    -0.312 NA
ATOM      3  H   UNL     1      19.069  31.464   8.779  1.00  0.00     0.123 HD
BRANCH   2   4
ATOM      4  C   UNL     1      17.448  30.875   7.627  1.00  0.00     0.047 C 
ATOM      5  C   UNL     1      18.539  30.703   6.562  1.00  0.00     0.024 C 
ATOM      6  C   UNL     1      16.475  31.978   7.183  1.00  0.00     0.024 C 
ENDBRANCH   2   4
ENDBRANCH   1   2
BRANCH   1   7
ATOM      7  C   UNL     1      18.425  33.129  10.450  1.00  0.00     0.158 C 
BRANCH   7   8
ATOM      8  O   UNL     1      19.587  32.363  10.661  1.00  0.00    -0.387 OA
ATOM      9  H   UNL     1      19.580  31.605  10.021  1.00  0.00     0.211 HD
ENDBRANCH   7   8
BRANCH   7  10
ATOM     10  C   UNL     1      17.784  33.507  11.771  1.00  0.00    -0.014 A 
ATOM     11  C   UNL     1      18.571  33.849  12.887  1.00  0.00     0.056 A 
ATOM     12  C   UNL     1      16.385  33.501  11.902  1.00  0.00     0.010 A 
ATOM     13  C   UNL     1      17.973  34.187  14.106  1.00  0.00     0.157 A 
ATOM     14  C   UNL     1      15.785  33.839  13.118  1.00  0.00     0.050 A 
ATOM     15  C   UNL     1      16.573  34.183  14.223  1.00  0.00     0.157 A 
BRANCH  13  16
ATOM     16  O   UNL     1      18.786  34.522  15.189  1.00  0.00    -0.504 OA
ATOM     17  H   UNL     1      19.759  34.244  15.238  1.00  0.00     0.293 HD
ENDBRANCH  13  16
BRANCH  15  18
ATOM     18  O   UNL     1      15.972  34.520  15.435  1.00  0.00    -0.504 OA
ATOM     19  H   UNL     1      16.223  35.366  15.935  1.00  0.00     0.293 HD
ENDBRANCH  15  18
ENDBRANCH   7  10
ENDBRANCH   1   7
TORSDOF 7
ENDMDL
MODEL 14
REMARK VINA RESULT:    -5.838      5.791      8.845
REMARK INTER + INTRA:          -8.001
REMARK INTER:                  -7.733
REMARK INTRA:                  -0.269
REMARK UNBOUND:                -0.287
REMARK SMILES CC(C)NCC(O)c1ccc(O)c(O)c1
REMARK SMILES IDX 5 1 4 2 2 4 1 5 3 6 6 7 7 8 8 10 15 11 9 12 13 13 10 14
REMARK SMILES IDX 11 15 14 16 12 18
REMARK H PARENT 4 3 7 9 14 17 12 19
REMARK Flexibility Score: inf
ROOT
ATOM      1  C   UNL     1      15.848  33.532  12.336  1.00  0.00     0.117 C 
ENDROOT
BRANCH   1   2
ATOM      2  N   UNL     1      16.331  32.376  11.567  1.00  0.00    -0.312 NA
ATOM      3  H   UNL     1      17.090  31.931  12.137  1.00  0.00     0.123 HD
BRANCH   2   4
ATOM      4  C   UNL     1      16.880  32.783  10.257  1.00  0.00     0.047 C 
ATOM      5  C   UNL     1      18.398  32.561  10.233  1.00  0.00     0.024 C 
ATOM      6  C   UNL     1      16.579  34.264   9.987  1.00  0.00     0.024 C 
ENDBRANCH   2   4
ENDBRANCH   1   2
BRANCH   1   7
ATOM      7  C   UNL     1      16.842  33.872  13.464  1.00  0.00     0.158 C 
BRANCH   7   8
ATOM      8  O   UNL     1      17.686  32.784  13.756  1.00  0.00    -0.387 OA
ATOM      9  H   UNL     1      17.208  31.947  13.517  1.00  0.00     0.211 HD
ENDBRANCH   7   8
BRANCH   7  10
ATOM     10  C   UNL     1      16.121  34.341  14.713  1.00  0.00    -0.014 A 
ATOM     11  C   UNL     1      16.832  34.881  15.801  1.00  0.00     0.056 A 
ATOM     12  C   UNL     1      14.724  34.223  14.805  1.00  0.00     0.010 A 
ATOM     13  C   UNL     1      16.161  35.302  16.954  1.00  0.00     0.157 A 
ATOM     14  C   UNL     1      14.051  34.644  15.954  1.00  0.00     0.050 A 
ATOM     15  C   UNL     1      14.763  35.185  17.032  1.00  0.00     0.157 A 
BRANCH  13  16
ATOM     16  O   UNL     1      16.900  35.834  18.011  1.00  0.00    -0.504 OA
ATOM     17  H   UNL     1      17.327  36.751  17.961  1.00  0.00     0.293 HD
ENDBRANCH  13  16
BRANCH  15  18
ATOM     18  O   UNL     1      14.089  35.604  18.178  1.00  0.00    -0.504 OA
ATOM     19  H   UNL     1      13.272  36.201  18.125  1.00  0.00     0.293 HD
ENDBRANCH  15  18
ENDBRANCH   7  10
ENDBRANCH   1   7
TORSDOF 7
ENDMDL
MODEL 15
REMARK VINA RESULT:    -5.834      6.462      9.499
REMARK INTER + INTRA:          -7.996
REMARK INTER:                  -7.583
REMARK INTRA:                  -0.413
REMARK UNBOUND:                -0.287
REMARK SMILES CC(C)NCC(O)c1ccc(O)c(O)c1
REMARK SMILES IDX 5 1 4 2 2 4 1 5 3 6 6 7 7 8 8 10 15 11 9 12 13 13 10 14
REMARK SMILES IDX 11 15 14 16 12 18
REMARK H PARENT 4 3 7 9 14 17 12 19
REMARK Flexibility Score: inf
ROOT
ATOM      1  C   UNL     1      17.930  33.734  13.952  1.00  0.00     0.117 C 
ENDROOT
BRANCH   1   2
ATOM      2  N   UNL     1      17.967  34.033  12.513  1.00  0.00    -0.312 NA
ATOM      3  H   UNL     1      18.580  34.875  12.396  1.00  0.00     0.123 HD
BRANCH   2   4
ATOM      4  C   UNL     1      16.620  34.332  11.984  1.00  0.00     0.047 C 
ATOM      5  C   UNL     1      15.694  33.129  12.199  1.00  0.00     0.024 C 
ATOM      6  C   UNL     1      16.693  34.656  10.485  1.00  0.00     0.024 C 
ENDBRANCH   2   4
ENDBRANCH   1   2
BRANCH   1   7
ATOM      7  C   UNL     1      18.189  35.016  14.768  1.00  0.00     0.158 C 
BRANCH   7   8
ATOM      8  O   UNL     1      19.471  35.011  15.348  1.00  0.00    -0.387 OA
ATOM      9  H   UNL     1      19.959  35.814  15.030  1.00  0.00     0.211 HD
ENDBRANCH   7   8
BRANCH   7  10
ATOM     10  C   UNL     1      17.122  35.222  15.825  1.00  0.00    -0.014 A 
ATOM     11  C   UNL     1      15.800  34.788  15.615  1.00  0.00     0.056 A 
ATOM     12  C   UNL     1      17.441  35.872  17.029  1.00  0.00     0.010 A 
ATOM     13  C   UNL     1      14.818  34.991  16.591  1.00  0.00     0.157 A 
ATOM     14  C   UNL     1      16.463  36.075  18.007  1.00  0.00     0.050 A 
ATOM     15  C   UNL     1      15.150  35.636  17.794  1.00  0.00     0.157 A 
BRANCH  13  16
ATOM     16  O   UNL     1      13.519  34.545  16.348  1.00  0.00    -0.504 OA
ATOM     17  H   UNL     1      13.319  33.586  16.089  1.00  0.00     0.293 HD
ENDBRANCH  13  16
BRANCH  15  18
ATOM     18  O   UNL     1      14.176  35.840  18.770  1.00  0.00    -0.504 OA
ATOM     19  H   UNL     1      13.222  35.522  18.643  1.00  0.00     0.293 HD
ENDBRANCH  15  18
ENDBRANCH   7  10
ENDBRANCH   1   7
TORSDOF 7
ENDMDL
