MODEL 1
REMARK VINA RESULT:    -0.129      0.000      0.000
REMARK INTER + INTRA:           0.197
REMARK INTER:                  -0.271
REMARK INTRA:                   0.469
REMARK UNBOUND:                 0.469
REMARK SMILES CC(=O)O[C@@]12CO[C@@H]1C[C@H](O)[C@@]1(C)C(=O)[C@H](O)C3=C(C)[C@@H](OC(=O)[C@H](O)[C@@H](NC(=O)OC(C)(C)C)c4ccccc4)C[C@@](O)([C@@H](OC(=O)c4ccccc4)[C@H]21)C3(C)C
REMARK SMILES IDX 23 1 24 2 22 3 21 4 42 5 19 6 43 7 18 8 20 9 56 10 57 11
REMARK SMILES IDX 58 12 44 13 45 15 46 16 47 17 48 18 49 19 50 20 54 21 51 22
REMARK SMILES IDX 53 23 52 24 55 25 5 26 12 27 6 28 8 29 10 30 13 31 7 32 9 33
REMARK SMILES IDX 4 34 2 35 1 36 3 37 14 38 15 39 11 41 16 43 17 45 25 47
REMARK SMILES IDX 26 48 27 50 28 51 29 52 30 54 31 55 32 56 33 57 34 58 35 59
REMARK SMILES IDX 36 60 37 61 41 62 38 63 40 64 39 65
REMARK H PARENT 44 14 11 42 17 46 26 49 28 53
REMARK Flexibility Score: 90.00
ROOT
ATOM      1  C   UNL     1      11.032  74.341  -2.366  1.00  0.00     0.338 C 
ATOM      2  O   UNL     1      11.490  74.125  -3.525  1.00  0.00    -0.249 OA
ENDROOT
BRANCH   1   3
ATOM      3  O   UNL     1      11.099  75.619  -1.799  1.00  0.00    -0.456 OA
BRANCH   3   4
ATOM      4  C   UNL     1      12.323  76.252  -1.402  1.00  0.00     0.205 C 
ATOM      5  C   UNL     1      12.745  77.230  -2.535  1.00  0.00     0.090 C 
ATOM      6  C   UNL     1      12.169  76.933  -0.050  1.00  0.00    -0.030 C 
ATOM      7  C   UNL     1      13.579  78.499  -2.115  1.00  0.00     0.115 C 
ATOM      8  C   UNL     1      12.909  78.044   0.249  1.00  0.00    -0.023 C 
ATOM      9  C   UNL     1      11.176  76.351   0.938  1.00  0.00     0.043 C 
ATOM     10  C   UNL     1      14.136  78.355  -0.642  1.00  0.00     0.022 C 
ATOM     11  C   UNL     1      15.155  77.165  -0.501  1.00  0.00     0.019 C 
ATOM     12  C   UNL     1      14.994  79.599  -0.224  1.00  0.00     0.019 C 
BRANCH   7  13
ATOM     13  O   UNL     1      14.674  78.629  -2.999  1.00  0.00    -0.385 OA
ATOM     14  H   UNL     1      14.462  79.285  -3.710  1.00  0.00     0.211 HD
ENDBRANCH   7  13
BRANCH   7  15
ATOM     15  C   UNL     1      12.704  79.817  -2.332  1.00  0.00     0.218 C 
BRANCH  15  16
ATOM     16  O   UNL     1      12.590  80.065  -3.745  1.00  0.00    -0.455 OA
BRANCH  16  17
ATOM     17  C   UNL     1      13.577  80.736  -4.497  1.00  0.00     0.338 C 
ATOM     18  O   UNL     1      13.609  81.999  -4.527  1.00  0.00    -0.246 OA
BRANCH  17  19
ATOM     19  C   UNL     1      14.550  79.980  -5.303  1.00  0.00     0.060 A 
ATOM     20  C   UNL     1      14.223  78.720  -5.830  1.00  0.00     0.015 A 
ATOM     21  C   UNL     1      15.831  80.513  -5.539  1.00  0.00     0.015 A 
ATOM     22  C   UNL     1      15.150  78.022  -6.612  1.00  0.00     0.001 A 
ATOM     23  C   UNL     1      16.757  79.811  -6.316  1.00  0.00     0.001 A 
ATOM     24  C   UNL     1      16.415  78.565  -6.853  1.00  0.00     0.000 A 
ENDBRANCH  17  19
ENDBRANCH  16  17
ENDBRANCH  15  16
BRANCH  15  25
ATOM     25  C   UNL     1      11.285  79.936  -1.598  1.00  0.00     0.098 C 
ATOM     26  C   UNL     1      10.021  80.099  -2.560  1.00  0.00     0.169 C 
ATOM     27  C   UNL     1      11.278  80.912  -0.330  1.00  0.00     0.066 C 
ATOM     28  C   UNL     1      10.034  81.209  -3.620  1.00  0.00     0.212 C 
ATOM     29  C   UNL     1       8.807  80.900  -2.053  1.00  0.00     0.168 C 
ATOM     30  C   UNL     1       9.841  80.892   0.271  1.00  0.00     0.131 C 
ATOM     31  C   UNL     1      11.673  82.371  -0.741  1.00  0.00     0.023 C 
ATOM     32  O   UNL     1       8.939  81.882  -3.053  1.00  0.00    -0.370 OA
ATOM     33  C   UNL     1       8.820  81.539  -0.661  1.00  0.00     0.069 C 
BRANCH  26  34
ATOM     34  O   UNL     1       9.502  78.826  -2.996  1.00  0.00    -0.454 OA
BRANCH  34  35
ATOM     35  C   UNL     1       8.677  77.936  -2.295  1.00  0.00     0.303 C 
ATOM     36  C   UNL     1       7.737  77.066  -3.053  1.00  0.00     0.139 C 
ATOM     37  O   UNL     1       8.728  77.838  -1.045  1.00  0.00    -0.253 OA
ENDBRANCH  34  35
ENDBRANCH  26  34
BRANCH  27  38
ATOM     38  C   UNL     1      12.230  80.469   0.808  1.00  0.00     0.174 CG0
ATOM     39  O   UNL     1      12.785  81.334   1.480  1.00  0.00    -0.296 OA
ATOM     40  G   UNL     1      12.355  79.029   1.286  1.00  0.00     0.000 G0
ENDBRANCH  27  38
BRANCH  30  41
ATOM     41  O   UNL     1       9.782  81.475   1.553  1.00  0.00    -0.392 OA
ATOM     42  H   UNL     1       9.212  80.905   2.132  1.00  0.00     0.210 HD
ENDBRANCH  30  41
ENDBRANCH  15  25
ENDBRANCH   7  15
BRANCH   8  43
ATOM     43  C   UNL     1      12.374  79.017   1.303  1.00  0.00     0.208 CG0
ATOM     44  G   UNL     1      12.237  80.450   0.804  1.00  0.00     0.000 G0
BRANCH  43  45
ATOM     45  O   UNL     1      13.110  78.911   2.498  1.00  0.00    -0.381 OA
ATOM     46  H   UNL     1      13.676  79.715   2.588  1.00  0.00     0.212 HD
ENDBRANCH  43  45
ENDBRANCH   8  43
ENDBRANCH   3   4
ENDBRANCH   1   3
BRANCH   1  47
ATOM     47  C   UNL     1      10.389  73.217  -1.602  1.00  0.00     0.251 C 
BRANCH  47  48
ATOM     48  O   UNL     1      11.255  72.114  -1.567  1.00  0.00    -0.379 OA
ATOM     49  H   UNL     1      11.017  71.581  -0.764  1.00  0.00     0.211 HD
ENDBRANCH  47  48
BRANCH  47  50
ATOM     50  C   UNL     1       9.011  72.820  -2.207  1.00  0.00     0.156 C 
BRANCH  50  51
ATOM     51  N   UNL     1       8.022  73.894  -2.029  1.00  0.00    -0.311 N 
ATOM     52  C   UNL     1       7.826  74.634  -0.816  1.00  0.00     0.408 C 
ATOM     53  H   UNL     1       7.396  74.115  -2.834  1.00  0.00     0.167 HD
ATOM     54  O   UNL     1       8.627  74.497   0.147  1.00  0.00    -0.225 OA
BRANCH  52  55
ATOM     55  O   UNL     1       6.731  75.507  -0.731  1.00  0.00    -0.444 OA
BRANCH  55  56
ATOM     56  C   UNL     1       5.709  75.496   0.278  1.00  0.00     0.106 C 
ATOM     57  C   UNL     1       4.315  75.573  -0.374  1.00  0.00     0.056 C 
ATOM     58  C   UNL     1       5.829  74.241   1.164  1.00  0.00     0.056 C 
ATOM     59  C   UNL     1       5.922  76.740   1.157  1.00  0.00     0.056 C 
ENDBRANCH  55  56
ENDBRANCH  52  55
ENDBRANCH  50  51
BRANCH  50  60
ATOM     60  C   UNL     1       9.049  72.346  -3.664  1.00  0.00    -0.022 A 
ATOM     61  C   UNL     1       8.586  73.159  -4.722  1.00  0.00     0.006 A 
ATOM     62  C   UNL     1       9.684  71.127  -3.994  1.00  0.00     0.006 A 
ATOM     63  C   UNL     1       8.687  72.731  -6.051  1.00  0.00     0.000 A 
ATOM     64  C   UNL     1       9.784  70.706  -5.323  1.00  0.00     0.000 A 
ATOM     65  C   UNL     1       9.276  71.501  -6.348  1.00  0.00     0.000 A 
ENDBRANCH  50  60
ENDBRANCH  47  50
ENDBRANCH   1  47
TORSDOF 17
ENDMDL
MODEL 2
REMARK VINA RESULT:    -0.049      1.792      2.756
REMARK INTER + INTRA:           0.365
REMARK INTER:                  -2.101
REMARK INTRA:                   2.466
REMARK UNBOUND:                 0.469
REMARK SMILES CC(=O)O[C@@]12CO[C@@H]1C[C@H](O)[C@@]1(C)C(=O)[C@H](O)C3=C(C)[C@@H](OC(=O)[C@H](O)[C@@H](NC(=O)OC(C)(C)C)c4ccccc4)C[C@@](O)([C@@H](OC(=O)c4ccccc4)[C@H]21)C3(C)C
REMARK SMILES IDX 23 1 24 2 22 3 21 4 42 5 19 6 43 7 18 8 20 9 56 10 57 11
REMARK SMILES IDX 58 12 44 13 45 15 46 16 47 17 48 18 49 19 50 20 54 21 51 22
REMARK SMILES IDX 53 23 52 24 55 25 5 26 12 27 6 28 8 29 10 30 13 31 7 32 9 33
REMARK SMILES IDX 4 34 2 35 1 36 3 37 14 38 15 39 11 41 16 43 17 45 25 47
REMARK SMILES IDX 26 48 27 50 28 51 29 52 30 54 31 55 32 56 33 57 34 58 35 59
REMARK SMILES IDX 36 60 37 61 41 62 38 63 40 64 39 65
REMARK H PARENT 44 14 11 42 17 46 26 49 28 53
REMARK Flexibility Score: 90.00
ROOT
ATOM      1  C   UNL     1       7.890  77.051  -2.880  1.00  0.00     0.338 C 
ATOM      2  O   UNL     1       6.712  77.375  -2.555  1.00  0.00    -0.249 OA
ENDROOT
BRANCH   1   3
ATOM      3  O   UNL     1       8.987  77.785  -2.413  1.00  0.00    -0.456 OA
BRANCH   3   4
ATOM      4  C   UNL     1      10.352  77.392  -2.610  1.00  0.00     0.205 C 
ATOM      5  C   UNL     1      11.095  78.571  -3.300  1.00  0.00     0.090 C 
ATOM      6  C   UNL     1      10.991  76.969  -1.295  1.00  0.00    -0.030 C 
ATOM      7  C   UNL     1      12.637  78.715  -3.011  1.00  0.00     0.115 C 
ATOM      8  C   UNL     1      12.334  77.138  -1.096  1.00  0.00    -0.023 C 
ATOM      9  C   UNL     1      10.099  76.370  -0.223  1.00  0.00     0.043 C 
ATOM     10  C   UNL     1      13.218  77.408  -2.338  1.00  0.00     0.022 C 
ATOM     11  C   UNL     1      13.123  76.155  -3.285  1.00  0.00     0.019 C 
ATOM     12  C   UNL     1      14.759  77.528  -2.074  1.00  0.00     0.019 C 
BRANCH   7  13
ATOM     13  O   UNL     1      13.306  78.925  -4.238  1.00  0.00    -0.385 OA
ATOM     14  H   UNL     1      13.932  78.179  -4.417  1.00  0.00     0.211 HD
ENDBRANCH   7  13
BRANCH   7  15
ATOM     15  C   UNL     1      12.904  80.037  -2.154  1.00  0.00     0.218 C 
BRANCH  15  16
ATOM     16  O   UNL     1      12.733  81.181  -3.010  1.00  0.00    -0.455 OA
BRANCH  16  17
ATOM     17  C   UNL     1      13.131  81.204  -4.363  1.00  0.00     0.338 C 
ATOM     18  O   UNL     1      12.265  81.211  -5.284  1.00  0.00    -0.246 OA
BRANCH  17  19
ATOM     19  C   UNL     1      14.557  81.165  -4.726  1.00  0.00     0.060 A 
ATOM     20  C   UNL     1      15.033  81.856  -5.852  1.00  0.00     0.015 A 
ATOM     21  C   UNL     1      15.459  80.415  -3.947  1.00  0.00     0.015 A 
ATOM     22  C   UNL     1      16.395  81.827  -6.172  1.00  0.00     0.001 A 
ATOM     23  C   UNL     1      16.818  80.384  -4.272  1.00  0.00     0.001 A 
ATOM     24  C   UNL     1      17.285  81.091  -5.385  1.00  0.00     0.000 A 
ENDBRANCH  17  19
ENDBRANCH  16  17
ENDBRANCH  15  16
BRANCH  15  25
ATOM     25  C   UNL     1      12.140  80.225  -0.759  1.00  0.00     0.098 C 
ATOM     26  C   UNL     1      11.187  81.503  -0.661  1.00  0.00     0.169 C 
ATOM     27  C   UNL     1      13.053  79.983   0.532  1.00  0.00     0.066 C 
ATOM     28  C   UNL     1      11.761  82.883  -1.009  1.00  0.00     0.212 C 
ATOM     29  C   UNL     1      10.993  82.174   0.712  1.00  0.00     0.168 C 
ATOM     30  C   UNL     1      12.154  80.183   1.789  1.00  0.00     0.131 C 
ATOM     31  C   UNL     1      14.258  80.983   0.564  1.00  0.00     0.023 C 
ATOM     32  O   UNL     1      11.573  83.385   0.290  1.00  0.00    -0.370 OA
ATOM     33  C   UNL     1      11.711  81.634   1.953  1.00  0.00     0.069 C 
BRANCH  26  34
ATOM     34  O   UNL     1       9.862  81.234  -1.161  1.00  0.00    -0.454 OA
BRANCH  34  35
ATOM     35  C   UNL     1       8.857  80.446  -0.584  1.00  0.00     0.303 C 
ATOM     36  C   UNL     1       7.489  80.469  -1.169  1.00  0.00     0.139 C 
ATOM     37  O   UNL     1       9.089  79.703   0.401  1.00  0.00    -0.253 OA
ENDBRANCH  34  35
ENDBRANCH  26  34
BRANCH  27  38
ATOM     38  C   UNL     1      13.628  78.549   0.634  1.00  0.00     0.174 CG0
ATOM     39  O   UNL     1      14.726  78.392   1.159  1.00  0.00    -0.296 OA
ATOM     40  G   UNL     1      12.822  77.296   0.317  1.00  0.00     0.000 G0
ENDBRANCH  27  38
BRANCH  30  41
ATOM     41  O   UNL     1      12.761  79.712   2.970  1.00  0.00    -0.392 OA
ATOM     42  H   UNL     1      12.060  79.313   3.547  1.00  0.00     0.210 HD
ENDBRANCH  30  41
ENDBRANCH  15  25
ENDBRANCH   7  15
BRANCH   8  43
ATOM     43  C   UNL     1      12.852  77.254   0.339  1.00  0.00     0.208 CG0
ATOM     44  G   UNL     1      13.638  78.530   0.608  1.00  0.00     0.000 G0
BRANCH  43  45
ATOM     45  O   UNL     1      13.539  76.085   0.717  1.00  0.00    -0.381 OA
ATOM     46  H   UNL     1      13.865  76.200   1.641  1.00  0.00     0.212 HD
ENDBRANCH  43  45
ENDBRANCH   8  43
ENDBRANCH   3   4
ENDBRANCH   1   3
BRANCH   1  47
ATOM     47  C   UNL     1       8.113  75.852  -3.761  1.00  0.00     0.251 C 
BRANCH  47  48
ATOM     48  O   UNL     1       6.885  75.399  -4.262  1.00  0.00    -0.379 OA
ATOM     49  H   UNL     1       6.951  74.412  -4.350  1.00  0.00     0.211 HD
ENDBRANCH  47  48
BRANCH  47  50
ATOM     50  C   UNL     1       8.857  74.712  -3.006  1.00  0.00     0.156 C 
BRANCH  50  51
ATOM     51  N   UNL     1       8.233  74.443  -1.701  1.00  0.00    -0.311 N 
ATOM     52  C   UNL     1       6.833  74.211  -1.495  1.00  0.00     0.408 C 
ATOM     53  H   UNL     1       8.849  74.451  -0.858  1.00  0.00     0.167 HD
ATOM     54  O   UNL     1       6.061  74.071  -2.481  1.00  0.00    -0.225 OA
BRANCH  52  55
ATOM     55  O   UNL     1       6.349  74.143  -0.179  1.00  0.00    -0.444 OA
BRANCH  55  56
ATOM     56  C   UNL     1       5.596  75.157   0.504  1.00  0.00     0.106 C 
ATOM     57  C   UNL     1       6.477  76.397   0.757  1.00  0.00     0.056 C 
ATOM     58  C   UNL     1       4.336  75.536  -0.297  1.00  0.00     0.056 C 
ATOM     59  C   UNL     1       5.160  74.567   1.856  1.00  0.00     0.056 C 
ENDBRANCH  55  56
ENDBRANCH  52  55
ENDBRANCH  50  51
BRANCH  50  60
ATOM     60  C   UNL     1       9.046  73.416  -3.801  1.00  0.00    -0.022 A 
ATOM     61  C   UNL     1       8.796  73.353  -5.190  1.00  0.00     0.006 A 
ATOM     62  C   UNL     1       9.616  72.282  -3.178  1.00  0.00     0.006 A 
ATOM     63  C   UNL     1       9.035  72.175  -5.908  1.00  0.00     0.000 A 
ATOM     64  C   UNL     1       9.853  71.109  -3.901  1.00  0.00     0.000 A 
ATOM     65  C   UNL     1       9.553  71.053  -5.260  1.00  0.00     0.000 A 
ENDBRANCH  50  60
ENDBRANCH  47  50
ENDBRANCH   1  47
TORSDOF 17
ENDMDL
MODEL 3
REMARK VINA RESULT:     0.148      1.773      4.282
REMARK INTER + INTRA:           0.781
REMARK INTER:                  -1.732
REMARK INTRA:                   2.514
REMARK UNBOUND:                 0.469
REMARK SMILES CC(=O)O[C@@]12CO[C@@H]1C[C@H](O)[C@@]1(C)C(=O)[C@H](O)C3=C(C)[C@@H](OC(=O)[C@H](O)[C@@H](NC(=O)OC(C)(C)C)c4ccccc4)C[C@@](O)([C@@H](OC(=O)c4ccccc4)[C@H]21)C3(C)C
REMARK SMILES IDX 23 1 24 2 22 3 21 4 42 5 19 6 43 7 18 8 20 9 56 10 57 11
REMARK SMILES IDX 58 12 44 13 45 15 46 16 47 17 48 18 49 19 50 20 54 21 51 22
REMARK SMILES IDX 53 23 52 24 55 25 5 26 12 27 6 28 8 29 10 30 13 31 7 32 9 33
REMARK SMILES IDX 4 34 2 35 1 36 3 37 14 38 15 39 11 41 16 43 17 45 25 47
REMARK SMILES IDX 26 48 27 50 28 51 29 52 30 54 31 55 32 56 33 57 34 58 35 59
REMARK SMILES IDX 36 60 37 61 41 62 38 63 40 64 39 65
REMARK H PARENT 44 14 11 42 17 46 26 49 28 53
REMARK Flexibility Score: 90.00
ROOT
ATOM      1  C   UNL     1       7.706  77.235  -2.861  1.00  0.00     0.338 C 
ATOM      2  O   UNL     1       6.707  77.983  -3.061  1.00  0.00    -0.249 OA
ENDROOT
BRANCH   1   3
ATOM      3  O   UNL     1       8.822  77.708  -2.159  1.00  0.00    -0.456 OA
BRANCH   3   4
ATOM      4  C   UNL     1      10.172  77.322  -2.452  1.00  0.00     0.205 C 
ATOM      5  C   UNL     1      10.863  78.511  -3.177  1.00  0.00     0.090 C 
ATOM      6  C   UNL     1      10.899  76.886  -1.188  1.00  0.00    -0.030 C 
ATOM      7  C   UNL     1      12.421  78.658  -2.991  1.00  0.00     0.115 C 
ATOM      8  C   UNL     1      12.252  77.057  -1.079  1.00  0.00    -0.023 C 
ATOM      9  C   UNL     1      10.083  76.272  -0.066  1.00  0.00     0.043 C 
ATOM     10  C   UNL     1      13.049  77.344  -2.375  1.00  0.00     0.022 C 
ATOM     11  C   UNL     1      12.894  76.102  -3.327  1.00  0.00     0.019 C 
ATOM     12  C   UNL     1      14.604  77.467  -2.213  1.00  0.00     0.019 C 
BRANCH   7  13
ATOM     13  O   UNL     1      13.005  78.884  -4.258  1.00  0.00    -0.385 OA
ATOM     14  H   UNL     1      13.516  79.732  -4.251  1.00  0.00     0.211 HD
ENDBRANCH   7  13
BRANCH   7  15
ATOM     15  C   UNL     1      12.742  79.971  -2.139  1.00  0.00     0.218 C 
BRANCH  15  16
ATOM     16  O   UNL     1      12.527  81.123  -2.974  1.00  0.00    -0.455 OA
BRANCH  16  17
ATOM     17  C   UNL     1      12.921  81.186  -4.326  1.00  0.00     0.338 C 
ATOM     18  O   UNL     1      12.053  81.193  -5.245  1.00  0.00    -0.246 OA
BRANCH  17  19
ATOM     19  C   UNL     1      14.347  81.188  -4.693  1.00  0.00     0.060 A 
ATOM     20  C   UNL     1      15.286  80.471  -3.934  1.00  0.00     0.015 A 
ATOM     21  C   UNL     1      14.784  81.928  -5.808  1.00  0.00     0.015 A 
ATOM     22  C   UNL     1      16.635  80.464  -4.307  1.00  0.00     0.001 A 
ATOM     23  C   UNL     1      16.133  81.924  -6.174  1.00  0.00     0.001 A 
ATOM     24  C   UNL     1      17.058  81.191  -5.423  1.00  0.00     0.000 A 
ENDBRANCH  17  19
ENDBRANCH  16  17
ENDBRANCH  15  16
BRANCH  15  25
ATOM     25  C   UNL     1      12.060  80.148  -0.701  1.00  0.00     0.098 C 
ATOM     26  C   UNL     1      11.107  81.420  -0.542  1.00  0.00     0.169 C 
ATOM     27  C   UNL     1      13.048  79.907   0.533  1.00  0.00     0.066 C 
ATOM     28  C   UNL     1      11.651  82.805  -0.917  1.00  0.00     0.212 C 
ATOM     29  C   UNL     1      10.990  82.085   0.843  1.00  0.00     0.168 C 
ATOM     30  C   UNL     1      12.223  80.096   1.842  1.00  0.00     0.131 C 
ATOM     31  C   UNL     1      14.247  80.914   0.499  1.00  0.00     0.023 C 
ATOM     32  O   UNL     1      11.536  83.301   0.392  1.00  0.00    -0.370 OA
ATOM     33  C   UNL     1      11.782  81.544   2.037  1.00  0.00     0.069 C 
BRANCH  26  34
ATOM     34  O   UNL     1       9.756  81.144  -0.965  1.00  0.00    -0.454 OA
BRANCH  34  35
ATOM     35  C   UNL     1       8.759  80.433  -0.284  1.00  0.00     0.303 C 
ATOM     36  C   UNL     1       7.383  80.388  -0.851  1.00  0.00     0.139 C 
ATOM     37  O   UNL     1       9.003  79.814   0.780  1.00  0.00    -0.253 OA
ENDBRANCH  34  35
ENDBRANCH  26  34
BRANCH  27  38
ATOM     38  C   UNL     1      13.637  78.476   0.595  1.00  0.00     0.174 CG0
ATOM     39  O   UNL     1      14.758  78.322   1.071  1.00  0.00    -0.296 OA
ATOM     40  G   UNL     1      12.826  77.221   0.301  1.00  0.00     0.000 G0
ENDBRANCH  27  38
BRANCH  30  41
ATOM     41  O   UNL     1      12.901  79.625   2.983  1.00  0.00    -0.392 OA
ATOM     42  H   UNL     1      13.855  79.488   2.748  1.00  0.00     0.210 HD
ENDBRANCH  30  41
ENDBRANCH  15  25
ENDBRANCH   7  15
BRANCH   8  43
ATOM     43  C   UNL     1      12.865  77.160   0.320  1.00  0.00     0.208 CG0
ATOM     44  G   UNL     1      13.635  78.451   0.561  1.00  0.00     0.000 G0
BRANCH  43  45
ATOM     45  O   UNL     1      13.608  76.003   0.623  1.00  0.00    -0.381 OA
ATOM     46  H   UNL     1      12.978  75.284   0.869  1.00  0.00     0.212 HD
ENDBRANCH  43  45
ENDBRANCH   8  43
ENDBRANCH   3   4
ENDBRANCH   1   3
BRANCH   1  47
ATOM     47  C   UNL     1       7.686  75.818  -3.362  1.00  0.00     0.251 C 
BRANCH  47  48
ATOM     48  O   UNL     1       6.803  75.714  -4.447  1.00  0.00    -0.379 OA
ATOM     49  H   UNL     1       6.061  75.117  -4.164  1.00  0.00     0.211 HD
ENDBRANCH  47  48
BRANCH  47  50
ATOM     50  C   UNL     1       7.301  74.813  -2.237  1.00  0.00     0.156 C 
BRANCH  50  51
ATOM     51  N   UNL     1       8.462  74.010  -1.821  1.00  0.00    -0.311 N 
ATOM     52  C   UNL     1       9.613  73.751  -2.635  1.00  0.00     0.408 C 
ATOM     53  H   UNL     1       8.433  73.571  -0.874  1.00  0.00     0.167 HD
ATOM     54  O   UNL     1       9.759  74.348  -3.735  1.00  0.00    -0.225 OA
BRANCH  52  55
ATOM     55  O   UNL     1      10.565  72.826  -2.179  1.00  0.00    -0.444 OA
BRANCH  55  56
ATOM     56  C   UNL     1      10.942  71.602  -2.830  1.00  0.00     0.106 C 
ATOM     57  C   UNL     1      12.170  71.835  -3.733  1.00  0.00     0.056 C 
ATOM     58  C   UNL     1      11.227  70.497  -1.796  1.00  0.00     0.056 C 
ATOM     59  C   UNL     1       9.753  71.164  -3.703  1.00  0.00     0.056 C 
ENDBRANCH  55  56
ENDBRANCH  52  55
ENDBRANCH  50  51
BRANCH  50  60
ATOM     60  C   UNL     1       6.596  75.428  -1.024  1.00  0.00    -0.022 A 
ATOM     61  C   UNL     1       5.467  74.818  -0.432  1.00  0.00     0.006 A 
ATOM     62  C   UNL     1       7.153  76.556  -0.380  1.00  0.00     0.006 A 
ATOM     63  C   UNL     1       4.877  75.365   0.713  1.00  0.00     0.000 A 
ATOM     64  C   UNL     1       6.560  77.096   0.764  1.00  0.00     0.000 A 
ATOM     65  C   UNL     1       5.417  76.508   1.303  1.00  0.00     0.000 A 
ENDBRANCH  50  60
ENDBRANCH  47  50
ENDBRANCH   1  47
TORSDOF 17
ENDMDL
MODEL 4
REMARK VINA RESULT:     0.692      1.190      3.551
REMARK INTER + INTRA:           1.929
REMARK INTER:                  -4.874
REMARK INTRA:                   6.804
REMARK UNBOUND:                 0.469
REMARK SMILES CC(=O)O[C@@]12CO[C@@H]1C[C@H](O)[C@@]1(C)C(=O)[C@H](O)C3=C(C)[C@@H](OC(=O)[C@H](O)[C@@H](NC(=O)OC(C)(C)C)c4ccccc4)C[C@@](O)([C@@H](OC(=O)c4ccccc4)[C@H]21)C3(C)C
REMARK SMILES IDX 23 1 24 2 22 3 21 4 42 5 19 6 43 7 18 8 20 9 56 10 57 11
REMARK SMILES IDX 58 12 44 13 45 15 46 16 47 17 48 18 49 19 50 20 54 21 51 22
REMARK SMILES IDX 53 23 52 24 55 25 5 26 12 27 6 28 8 29 10 30 13 31 7 32 9 33
REMARK SMILES IDX 4 34 2 35 1 36 3 37 14 38 15 39 11 41 16 43 17 45 25 47
REMARK SMILES IDX 26 48 27 50 28 51 29 52 30 54 31 55 32 56 33 57 34 58 35 59
REMARK SMILES IDX 36 60 37 61 41 62 38 63 40 64 39 65
REMARK H PARENT 44 14 11 42 17 46 26 49 28 53
REMARK Flexibility Score: 90.00
ROOT
ATOM      1  C   UNL     1      10.672  75.906  -0.881  1.00  0.00     0.338 C 
ATOM      2  O   UNL     1      10.230  77.014  -0.461  1.00  0.00    -0.249 OA
ENDROOT
BRANCH   1   3
ATOM      3  O   UNL     1      11.994  75.789  -1.330  1.00  0.00    -0.456 OA
BRANCH   3   4
ATOM      4  C   UNL     1      13.057  76.656  -0.913  1.00  0.00     0.205 C 
ATOM      5  C   UNL     1      13.276  77.716  -2.030  1.00  0.00     0.090 C 
ATOM      6  C   UNL     1      12.757  77.271   0.446  1.00  0.00    -0.030 C 
ATOM      7  C   UNL     1      13.827  79.124  -1.585  1.00  0.00     0.115 C 
ATOM      8  C   UNL     1      13.249  78.507   0.767  1.00  0.00    -0.023 C 
ATOM      9  C   UNL     1      11.898  76.482   1.417  1.00  0.00     0.043 C 
ATOM     10  C   UNL     1      14.391  79.077  -0.109  1.00  0.00     0.022 C 
ATOM     11  C   UNL     1      15.633  78.121   0.028  1.00  0.00     0.019 C 
ATOM     12  C   UNL     1      14.970  80.465   0.334  1.00  0.00     0.019 C 
BRANCH   7  13
ATOM     13  O   UNL     1      14.878  79.490  -2.456  1.00  0.00    -0.385 OA
ATOM     14  H   UNL     1      15.753  79.338  -2.019  1.00  0.00     0.211 HD
ENDBRANCH   7  13
BRANCH   7  15
ATOM     15  C   UNL     1      12.699  80.236  -1.794  1.00  0.00     0.218 C 
BRANCH  15  16
ATOM     16  O   UNL     1      12.540  80.467  -3.206  1.00  0.00    -0.455 OA
BRANCH  16  17
ATOM     17  C   UNL     1      13.096  79.632  -4.197  1.00  0.00     0.338 C 
ATOM     18  O   UNL     1      12.721  78.430  -4.304  1.00  0.00    -0.246 OA
BRANCH  17  19
ATOM     19  C   UNL     1      14.161  80.128  -5.084  1.00  0.00     0.060 A 
ATOM     20  C   UNL     1      14.333  81.505  -5.303  1.00  0.00     0.015 A 
ATOM     21  C   UNL     1      15.011  79.216  -5.738  1.00  0.00     0.015 A 
ATOM     22  C   UNL     1      15.364  81.963  -6.132  1.00  0.00     0.001 A 
ATOM     23  C   UNL     1      16.036  79.677  -6.571  1.00  0.00     0.001 A 
ATOM     24  C   UNL     1      16.211  81.050  -6.766  1.00  0.00     0.000 A 
ENDBRANCH  17  19
ENDBRANCH  16  17
ENDBRANCH  15  16
BRANCH  15  25
ATOM     25  C   UNL     1      11.285  80.054  -1.064  1.00  0.00     0.098 C 
ATOM     26  C   UNL     1      10.014  79.981  -2.028  1.00  0.00     0.169 C 
ATOM     27  C   UNL     1      11.084  80.981   0.224  1.00  0.00     0.066 C 
ATOM     28  C   UNL     1       9.806  81.094  -3.065  1.00  0.00     0.212 C 
ATOM     29  C   UNL     1       8.665  80.514  -1.511  1.00  0.00     0.168 C 
ATOM     30  C   UNL     1       9.679  80.663   0.818  1.00  0.00     0.131 C 
ATOM     31  C   UNL     1      11.179  82.498  -0.155  1.00  0.00     0.023 C 
ATOM     32  O   UNL     1       8.598  81.523  -2.489  1.00  0.00    -0.370 OA
ATOM     33  C   UNL     1       8.550  81.112  -0.105  1.00  0.00     0.069 C 
BRANCH  26  34
ATOM     34  O   UNL     1       9.760  78.640  -2.492  1.00  0.00    -0.454 OA
BRANCH  34  35
ATOM     35  C   UNL     1       8.536  77.963  -2.569  1.00  0.00     0.303 C 
ATOM     36  C   UNL     1       7.432  78.351  -1.648  1.00  0.00     0.139 C 
ATOM     37  O   UNL     1       8.339  77.054  -3.411  1.00  0.00    -0.253 OA
ENDBRANCH  34  35
ENDBRANCH  26  34
BRANCH  27  38
ATOM     38  C   UNL     1      12.105  80.714   1.357  1.00  0.00     0.174 CG0
ATOM     39  O   UNL     1      12.461  81.654   2.061  1.00  0.00    -0.296 OA
ATOM     40  G   UNL     1      12.531  79.317   1.790  1.00  0.00     0.000 G0
ENDBRANCH  27  38
BRANCH  30  41
ATOM     41  O   UNL     1       9.505  81.194   2.112  1.00  0.00    -0.392 OA
ATOM     42  H   UNL     1      10.317  81.711   2.351  1.00  0.00     0.210 HD
ENDBRANCH  30  41
ENDBRANCH  15  25
ENDBRANCH   7  15
BRANCH   8  43
ATOM     43  C   UNL     1      12.516  79.332   1.827  1.00  0.00     0.208 CG0
ATOM     44  G   UNL     1      12.145  80.736   1.366  1.00  0.00     0.000 G0
BRANCH  43  45
ATOM     45  O   UNL     1      13.220  79.314   3.046  1.00  0.00    -0.381 OA
ATOM     46  H   UNL     1      12.895  80.060   3.605  1.00  0.00     0.212 HD
ENDBRANCH  43  45
ENDBRANCH   8  43
ENDBRANCH   3   4
ENDBRANCH   1   3
BRANCH   1  47
ATOM     47  C   UNL     1       9.776  74.699  -0.876  1.00  0.00     0.251 C 
BRANCH  47  48
ATOM     48  O   UNL     1      10.514  73.562  -1.234  1.00  0.00    -0.379 OA
ATOM     49  H   UNL     1      10.860  73.715  -2.152  1.00  0.00     0.211 HD
ENDBRANCH  47  48
BRANCH  47  50
ATOM     50  C   UNL     1       8.552  74.885  -1.821  1.00  0.00     0.156 C 
BRANCH  50  51
ATOM     51  N   UNL     1       8.491  73.814  -2.828  1.00  0.00    -0.311 N 
ATOM     52  C   UNL     1       9.408  73.662  -3.919  1.00  0.00     0.408 C 
ATOM     53  H   UNL     1       7.704  73.131  -2.761  1.00  0.00     0.167 HD
ATOM     54  O   UNL     1      10.442  74.380  -3.984  1.00  0.00    -0.225 OA
BRANCH  52  55
ATOM     55  O   UNL     1       9.128  72.702  -4.904  1.00  0.00    -0.444 OA
BRANCH  55  56
ATOM     56  C   UNL     1       9.829  71.465  -5.111  1.00  0.00     0.106 C 
ATOM     57  C   UNL     1       9.045  70.566  -6.088  1.00  0.00     0.056 C 
ATOM     58  C   UNL     1      11.255  71.725  -5.632  1.00  0.00     0.056 C 
ATOM     59  C   UNL     1       9.923  70.761  -3.747  1.00  0.00     0.056 C 
ENDBRANCH  55  56
ENDBRANCH  52  55
ENDBRANCH  50  51
BRANCH  50  60
ATOM     60  C   UNL     1       7.202  75.054  -1.117  1.00  0.00    -0.022 A 
ATOM     61  C   UNL     1       5.999  74.590  -1.696  1.00  0.00     0.006 A 
ATOM     62  C   UNL     1       7.152  75.557   0.202  1.00  0.00     0.006 A 
ATOM     63  C   UNL     1       4.785  74.699  -1.007  1.00  0.00     0.000 A 
ATOM     64  C   UNL     1       5.936  75.663   0.885  1.00  0.00     0.000 A 
ATOM     65  C   UNL     1       4.754  75.245   0.277  1.00  0.00     0.000 A 
ENDBRANCH  50  60
ENDBRANCH  47  50
ENDBRANCH   1  47
TORSDOF 17
ENDMDL
MODEL 5
REMARK VINA RESULT:     1.699      2.785      8.811
REMARK INTER + INTRA:           4.054
REMARK INTER:                   3.230
REMARK INTRA:                   0.824
REMARK UNBOUND:                 0.469
REMARK SMILES CC(=O)O[C@@]12CO[C@@H]1C[C@H](O)[C@@]1(C)C(=O)[C@H](O)C3=C(C)[C@@H](OC(=O)[C@H](O)[C@@H](NC(=O)OC(C)(C)C)c4ccccc4)C[C@@](O)([C@@H](OC(=O)c4ccccc4)[C@H]21)C3(C)C
REMARK SMILES IDX 23 1 24 2 22 3 21 4 42 5 19 6 43 7 18 8 20 9 56 10 57 11
REMARK SMILES IDX 58 12 44 13 45 15 46 16 47 17 48 18 49 19 50 20 54 21 51 22
REMARK SMILES IDX 53 23 52 24 55 25 5 26 12 27 6 28 8 29 10 30 13 31 7 32 9 33
REMARK SMILES IDX 4 34 2 35 1 36 3 37 14 38 15 39 11 41 16 43 17 45 25 47
REMARK SMILES IDX 26 48 27 50 28 51 29 52 30 54 31 55 32 56 33 57 34 58 35 59
REMARK SMILES IDX 36 60 37 61 41 62 38 63 40 64 39 65
REMARK H PARENT 44 14 11 42 17 46 26 49 28 53
REMARK Flexibility Score: 90.00
ROOT
ATOM      1  C   UNL     1      14.742  80.932  -3.965  1.00  0.00     0.338 C 
ATOM      2  O   UNL     1      15.940  81.168  -3.637  1.00  0.00    -0.249 OA
ENDROOT
BRANCH   1   3
ATOM      3  O   UNL     1      13.930  80.118  -3.165  1.00  0.00    -0.456 OA
BRANCH   3   4
ATOM      4  C   UNL     1      13.639  80.390  -1.787  1.00  0.00     0.205 C 
ATOM      5  C   UNL     1      12.100  80.567  -1.649  1.00  0.00     0.090 C 
ATOM      6  C   UNL     1      14.200  79.298  -0.887  1.00  0.00    -0.030 C 
ATOM      7  C   UNL     1      11.455  80.182  -0.264  1.00  0.00     0.115 C 
ATOM      8  C   UNL     1      13.583  78.997   0.296  1.00  0.00    -0.023 C 
ATOM      9  C   UNL     1      15.444  78.560  -1.345  1.00  0.00     0.043 C 
ATOM     10  C   UNL     1      12.559  80.015   0.855  1.00  0.00     0.022 C 
ATOM     11  C   UNL     1      13.322  81.359   1.150  1.00  0.00     0.019 C 
ATOM     12  C   UNL     1      11.926  79.662   2.245  1.00  0.00     0.019 C 
BRANCH   7  13
ATOM     13  O   UNL     1      10.574  81.218   0.124  1.00  0.00    -0.385 OA
ATOM     14  H   UNL     1       9.692  80.841   0.368  1.00  0.00     0.211 HD
ENDBRANCH   7  13
BRANCH   7  15
ATOM     15  C   UNL     1      10.533  78.889  -0.438  1.00  0.00     0.218 C 
BRANCH  15  16
ATOM     16  O   UNL     1       9.334  79.272  -1.136  1.00  0.00    -0.455 OA
BRANCH  16  17
ATOM     17  C   UNL     1       8.150  79.672  -0.483  1.00  0.00     0.338 C 
ATOM     18  O   UNL     1       7.846  80.896  -0.404  1.00  0.00    -0.246 OA
BRANCH  17  19
ATOM     19  C   UNL     1       7.278  78.678   0.164  1.00  0.00     0.060 A 
ATOM     20  C   UNL     1       7.218  77.357  -0.308  1.00  0.00     0.015 A 
ATOM     21  C   UNL     1       6.479  79.054   1.261  1.00  0.00     0.015 A 
ATOM     22  C   UNL     1       6.401  76.417   0.331  1.00  0.00     0.001 A 
ATOM     23  C   UNL     1       5.660  78.114   1.894  1.00  0.00     0.001 A 
ATOM     24  C   UNL     1       5.622  76.796   1.428  1.00  0.00     0.000 A 
ENDBRANCH  17  19
ENDBRANCH  16  17
ENDBRANCH  15  16
BRANCH  15  25
ATOM     25  C   UNL     1      11.174  77.557  -1.054  1.00  0.00     0.098 C 
ATOM     26  C   UNL     1      10.522  77.044  -2.419  1.00  0.00     0.169 C 
ATOM     27  C   UNL     1      11.453  76.403   0.017  1.00  0.00     0.066 C 
ATOM     28  C   UNL     1       9.002  76.842  -2.484  1.00  0.00     0.212 C 
ATOM     29  C   UNL     1      10.514  75.532  -2.710  1.00  0.00     0.168 C 
ATOM     30  C   UNL     1      12.092  75.200  -0.741  1.00  0.00     0.131 C 
ATOM     31  C   UNL     1      10.127  75.956   0.721  1.00  0.00     0.023 C 
ATOM     32  O   UNL     1       9.109  75.459  -2.710  1.00  0.00    -0.370 OA
ATOM     33  C   UNL     1      11.107  74.541  -1.703  1.00  0.00     0.069 C 
BRANCH  26  34
ATOM     34  O   UNL     1      11.119  77.667  -3.574  1.00  0.00    -0.454 OA
BRANCH  34  35
ATOM     35  C   UNL     1      12.383  77.435  -4.132  1.00  0.00     0.303 C 
ATOM     36  C   UNL     1      12.769  76.047  -4.508  1.00  0.00     0.139 C 
ATOM     37  O   UNL     1      13.189  78.373  -4.346  1.00  0.00    -0.253 OA
ENDBRANCH  34  35
ENDBRANCH  26  34
BRANCH  27  38
ATOM     38  C   UNL     1      12.461  76.802   1.123  1.00  0.00     0.174 CG0
ATOM     39  O   UNL     1      12.345  76.296   2.235  1.00  0.00    -0.296 OA
ATOM     40  G   UNL     1      13.719  77.619   0.857  1.00  0.00     0.000 G0
ENDBRANCH  27  38
BRANCH  30  41
ATOM     41  O   UNL     1      12.651  74.244   0.130  1.00  0.00    -0.392 OA
ATOM     42  H   UNL     1      11.920  73.668   0.475  1.00  0.00     0.210 HD
ENDBRANCH  30  41
ENDBRANCH  15  25
ENDBRANCH   7  15
BRANCH   8  43
ATOM     43  C   UNL     1      13.780  77.599   0.888  1.00  0.00     0.208 CG0
ATOM     44  G   UNL     1      12.479  76.846   1.133  1.00  0.00     0.000 G0
BRANCH  43  45
ATOM     45  O   UNL     1      14.615  77.652   2.020  1.00  0.00    -0.381 OA
ATOM     46  H   UNL     1      15.553  77.672   1.714  1.00  0.00     0.212 HD
ENDBRANCH  43  45
ENDBRANCH   8  43
ENDBRANCH   3   4
ENDBRANCH   1   3
BRANCH   1  47
ATOM     47  C   UNL     1      14.179  81.550  -5.214  1.00  0.00     0.251 C 
BRANCH  47  48
ATOM     48  O   UNL     1      12.860  81.112  -5.405  1.00  0.00    -0.379 OA
ATOM     49  H   UNL     1      12.308  81.917  -5.587  1.00  0.00     0.211 HD
ENDBRANCH  47  48
BRANCH  47  50
ATOM     50  C   UNL     1      15.054  81.230  -6.461  1.00  0.00     0.156 C 
BRANCH  50  51
ATOM     51  N   UNL     1      16.247  82.090  -6.509  1.00  0.00    -0.311 N 
ATOM     52  C   UNL     1      17.001  82.380  -7.693  1.00  0.00     0.408 C 
ATOM     53  H   UNL     1      16.589  82.494  -5.609  1.00  0.00     0.167 HD
ATOM     54  O   UNL     1      16.572  82.020  -8.823  1.00  0.00    -0.225 OA
BRANCH  52  55
ATOM     55  O   UNL     1      18.216  83.069  -7.565  1.00  0.00    -0.444 OA
BRANCH  55  56
ATOM     56  C   UNL     1      19.490  82.494  -7.233  1.00  0.00     0.106 C 
ATOM     57  C   UNL     1      20.631  83.398  -7.741  1.00  0.00     0.056 C 
ATOM     58  C   UNL     1      19.609  82.265  -5.715  1.00  0.00     0.056 C 
ATOM     59  C   UNL     1      19.575  81.133  -7.944  1.00  0.00     0.056 C 
ENDBRANCH  55  56
ENDBRANCH  52  55
ENDBRANCH  50  51
BRANCH  50  60
ATOM     60  C   UNL     1      15.433  79.756  -6.633  1.00  0.00    -0.022 A 
ATOM     61  C   UNL     1      14.454  78.739  -6.705  1.00  0.00     0.006 A 
ATOM     62  C   UNL     1      16.780  79.396  -6.867  1.00  0.00     0.006 A 
ATOM     63  C   UNL     1      14.821  77.407  -6.924  1.00  0.00     0.000 A 
ATOM     64  C   UNL     1      17.139  78.063  -7.086  1.00  0.00     0.000 A 
ATOM     65  C   UNL     1      16.163  77.069  -7.104  1.00  0.00     0.000 A 
ENDBRANCH  50  60
ENDBRANCH  47  50
ENDBRANCH   1  47
TORSDOF 17
ENDMDL
MODEL 6
REMARK VINA RESULT:     1.950      2.284      7.923
REMARK INTER + INTRA:           4.584
REMARK INTER:                   1.868
REMARK INTRA:                   2.716
REMARK UNBOUND:                 0.469
REMARK SMILES CC(=O)O[C@@]12CO[C@@H]1C[C@H](O)[C@@]1(C)C(=O)[C@H](O)C3=C(C)[C@@H](OC(=O)[C@H](O)[C@@H](NC(=O)OC(C)(C)C)c4ccccc4)C[C@@](O)([C@@H](OC(=O)c4ccccc4)[C@H]21)C3(C)C
REMARK SMILES IDX 23 1 24 2 22 3 21 4 42 5 19 6 43 7 18 8 20 9 56 10 57 11
REMARK SMILES IDX 58 12 44 13 45 15 46 16 47 17 48 18 49 19 50 20 54 21 51 22
REMARK SMILES IDX 53 23 52 24 55 25 5 26 12 27 6 28 8 29 10 30 13 31 7 32 9 33
REMARK SMILES IDX 4 34 2 35 1 36 3 37 14 38 15 39 11 41 16 43 17 45 25 47
REMARK SMILES IDX 26 48 27 50 28 51 29 52 30 54 31 55 32 56 33 57 34 58 35 59
REMARK SMILES IDX 36 60 37 61 41 62 38 63 40 64 39 65
REMARK H PARENT 44 14 11 42 17 46 26 49 28 53
REMARK Flexibility Score: 90.00
ROOT
ATOM      1  C   UNL     1      13.439  77.974   1.067  1.00  0.00     0.338 C 
ATOM      2  O   UNL     1      13.876  77.801   2.241  1.00  0.00    -0.249 OA
ENDROOT
BRANCH   1   3
ATOM      3  O   UNL     1      12.062  77.982   0.812  1.00  0.00    -0.456 OA
BRANCH   3   4
ATOM      4  C   UNL     1      11.454  78.712  -0.261  1.00  0.00     0.205 C 
ATOM      5  C   UNL     1      11.010  77.689  -1.345  1.00  0.00     0.090 C 
ATOM      6  C   UNL     1      10.311  79.578   0.249  1.00  0.00    -0.030 C 
ATOM      7  C   UNL     1       9.766  78.076  -2.231  1.00  0.00     0.115 C 
ATOM      8  C   UNL     1       9.248  79.864  -0.563  1.00  0.00    -0.023 C 
ATOM      9  C   UNL     1      10.385  80.099   1.672  1.00  0.00     0.043 C 
ATOM     10  C   UNL     1       9.412  79.610  -2.082  1.00  0.00     0.022 C 
ATOM     11  C   UNL     1      10.563  80.544  -2.609  1.00  0.00     0.019 C 
ATOM     12  C   UNL     1       8.194  80.013  -2.983  1.00  0.00     0.019 C 
BRANCH   7  13
ATOM     13  O   UNL     1      10.081  77.817  -3.585  1.00  0.00    -0.385 OA
ATOM     14  H   UNL     1       9.656  76.973  -3.878  1.00  0.00     0.211 HD
ENDBRANCH   7  13
BRANCH   7  15
ATOM     15  C   UNL     1       8.539  77.110  -1.893  1.00  0.00     0.218 C 
BRANCH  15  16
ATOM     16  O   UNL     1       8.823  75.804  -2.427  1.00  0.00    -0.455 OA
BRANCH  16  17
ATOM     17  C   UNL     1       8.008  75.162  -3.382  1.00  0.00     0.338 C 
ATOM     18  O   UNL     1       6.852  75.605  -3.636  1.00  0.00    -0.246 OA
BRANCH  17  19
ATOM     19  C   UNL     1       8.465  73.936  -4.056  1.00  0.00     0.060 A 
ATOM     20  C   UNL     1       8.195  73.718  -5.416  1.00  0.00     0.015 A 
ATOM     21  C   UNL     1       9.171  72.957  -3.329  1.00  0.00     0.015 A 
ATOM     22  C   UNL     1       8.656  72.558  -6.049  1.00  0.00     0.001 A 
ATOM     23  C   UNL     1       9.624  71.796  -3.963  1.00  0.00     0.001 A 
ATOM     24  C   UNL     1       9.366  71.598  -5.323  1.00  0.00     0.000 A 
ENDBRANCH  17  19
ENDBRANCH  16  17
ENDBRANCH  15  16
BRANCH  15  25
ATOM     25  C   UNL     1       8.011  77.027  -0.383  1.00  0.00     0.098 C 
ATOM     26  C   UNL     1       8.063  75.579   0.288  1.00  0.00     0.169 C 
ATOM     27  C   UNL     1       6.655  77.830  -0.113  1.00  0.00     0.066 C 
ATOM     28  C   UNL     1       7.411  74.399  -0.445  1.00  0.00     0.212 C 
ATOM     29  C   UNL     1       7.005  75.219   1.348  1.00  0.00     0.168 C 
ATOM     30  C   UNL     1       6.300  77.663   1.395  1.00  0.00     0.131 C 
ATOM     31  C   UNL     1       5.490  77.283  -1.006  1.00  0.00     0.023 C 
ATOM     32  O   UNL     1       6.463  74.180   0.569  1.00  0.00    -0.370 OA
ATOM     33  C   UNL     1       5.919  76.226   1.739  1.00  0.00     0.069 C 
BRANCH  26  34
ATOM     34  O   UNL     1       9.342  75.306   0.896  1.00  0.00    -0.454 OA
BRANCH  34  35
ATOM     35  C   UNL     1      10.501  74.799   0.293  1.00  0.00     0.303 C 
ATOM     36  C   UNL     1      10.374  73.774  -0.779  1.00  0.00     0.139 C 
ATOM     37  O   UNL     1      11.643  75.205   0.619  1.00  0.00    -0.253 OA
ENDBRANCH  34  35
ENDBRANCH  26  34
BRANCH  27  38
ATOM     38  C   UNL     1       6.766  79.354  -0.366  1.00  0.00     0.174 CG0
ATOM     39  O   UNL     1       5.790  79.949  -0.813  1.00  0.00    -0.296 OA
ATOM     40  G   UNL     1       7.941  80.200   0.107  1.00  0.00     0.000 G0
ENDBRANCH  27  38
BRANCH  30  41
ATOM     41  O   UNL     1       5.298  78.559   1.819  1.00  0.00    -0.392 OA
ATOM     42  H   UNL     1       5.703  79.210   2.448  1.00  0.00     0.210 HD
ENDBRANCH  30  41
ENDBRANCH  15  25
ENDBRANCH   7  15
BRANCH   8  43
ATOM     43  C   UNL     1       7.907  80.217   0.084  1.00  0.00     0.208 CG0
ATOM     44  G   UNL     1       6.748  79.350  -0.388  1.00  0.00     0.000 G0
BRANCH  43  45
ATOM     45  O   UNL     1       7.651  81.597  -0.023  1.00  0.00    -0.381 OA
ATOM     46  H   UNL     1       8.051  82.050   0.757  1.00  0.00     0.212 HD
ENDBRANCH  43  45
ENDBRANCH   8  43
ENDBRANCH   3   4
ENDBRANCH   1   3
BRANCH   1  47
ATOM     47  C   UNL     1      14.409  78.195  -0.060  1.00  0.00     0.251 C 
BRANCH  47  48
ATOM     48  O   UNL     1      15.538  77.385   0.123  1.00  0.00    -0.379 OA
ATOM     49  H   UNL     1      15.404  76.568  -0.426  1.00  0.00     0.211 HD
ENDBRANCH  47  48
BRANCH  47  50
ATOM     50  C   UNL     1      14.816  79.692  -0.187  1.00  0.00     0.156 C 
BRANCH  50  51
ATOM     51  N   UNL     1      15.376  79.981  -1.516  1.00  0.00    -0.311 N 
ATOM     52  C   UNL     1      14.897  79.422  -2.746  1.00  0.00     0.408 C 
ATOM     53  H   UNL     1      16.204  80.615  -1.565  1.00  0.00     0.167 HD
ATOM     54  O   UNL     1      13.832  78.748  -2.764  1.00  0.00    -0.225 OA
BRANCH  52  55
ATOM     55  O   UNL     1      15.634  79.645  -3.919  1.00  0.00    -0.444 OA
BRANCH  55  56
ATOM     56  C   UNL     1      15.101  79.974  -5.211  1.00  0.00     0.106 C 
ATOM     57  C   UNL     1      14.675  78.692  -5.954  1.00  0.00     0.056 C 
ATOM     58  C   UNL     1      13.916  80.949  -5.081  1.00  0.00     0.056 C 
ATOM     59  C   UNL     1      16.222  80.665  -6.005  1.00  0.00     0.056 C 
ENDBRANCH  55  56
ENDBRANCH  52  55
ENDBRANCH  50  51
BRANCH  50  60
ATOM     60  C   UNL     1      13.721  80.701   0.178  1.00  0.00    -0.022 A 
ATOM     61  C   UNL     1      13.368  80.962   1.520  1.00  0.00     0.006 A 
ATOM     62  C   UNL     1      13.135  81.501  -0.829  1.00  0.00     0.006 A 
ATOM     63  C   UNL     1      12.408  81.932   1.832  1.00  0.00     0.000 A 
ATOM     64  C   UNL     1      12.179  82.469  -0.511  1.00  0.00     0.000 A 
ATOM     65  C   UNL     1      11.808  82.677   0.816  1.00  0.00     0.000 A 
ENDBRANCH  50  60
ENDBRANCH  47  50
ENDBRANCH   1  47
TORSDOF 17
ENDMDL
