MODEL 1
REMARK VINA RESULT:    -8.339      0.000      0.000
REMARK INTER + INTRA:         -11.493
REMARK INTER:                 -10.777
REMARK INTRA:                  -0.716
REMARK UNBOUND:                -0.716
REMARK SMILES CN(C)c1ccc(O)c2c1C[C@H]1C[C@H]3[C@H](N(C)C)C(O)=C(C(N)=O)C(=O)[C@@]3(O)C(O)=C1C2=O
REMARK SMILES IDX 12 1 11 2 10 3 9 4 7 5 6 6 5 7 4 8 32 9 33 10 31 11 29 12
REMARK SMILES IDX 27 13 25 14 26 15 21 16 19 17 15 18 14 19 13 20 30 21 2 23
REMARK SMILES IDX 1 24 3 25 28 26 16 28 17 29 18 30 8 31 20 33 22 35 23 36
REMARK SMILES IDX 24 37
REMARK H PARENT 30 22 28 27 8 32 20 34 23 38 23 39
REMARK Flexibility Score: inf
ROOT
ATOM      1  C   UNL     1      11.242  11.960  14.750  1.00  0.00     0.032 C 
ATOM      2  C   UNL     1      11.913  13.082  13.941  1.00  0.00     0.047 C 
ATOM      3  C   UNL     1      10.892  13.949  13.236  1.00  0.00    -0.009 A 
ATOM      4  C   UNL     1       9.603  14.138  13.801  1.00  0.00     0.069 A 
ATOM      5  C   UNL     1       8.637  14.885  13.070  1.00  0.00     0.127 A 
ATOM      6  C   UNL     1       9.010  15.534  11.890  1.00  0.00     0.049 A 
ATOM      7  C   UNL     1      10.298  15.407  11.383  1.00  0.00     0.030 A 
ATOM      8  C   UNL     1      11.241  14.615  12.039  1.00  0.00     0.040 A 
ATOM      9  C   UNL     1       9.331  13.570  15.157  1.00  0.00     0.196 C 
ATOM     10  O   UNL     1       8.307  13.928  15.795  1.00  0.00    -0.289 OA
ATOM     11  C   UNL     1      10.272  12.569  15.743  1.00  0.00     0.045 C 
ATOM     12  C   UNL     1      10.201  12.142  17.037  1.00  0.00     0.140 C 
ATOM     13  C   UNL     1      10.983  10.932  17.560  1.00  0.00     0.190 C 
ATOM     14  C   UNL     1      12.027  11.409  18.558  1.00  0.00     0.211 C 
ATOM     15  O   UNL     1      11.679  12.204  19.474  1.00  0.00    -0.290 OA
ATOM     16  C   UNL     1      13.425  10.902  18.540  1.00  0.00     0.125 C 
ATOM     17  C   UNL     1      13.757   9.859  17.744  1.00  0.00     0.126 C 
ATOM     18  C   UNL     1      12.692   9.097  16.976  1.00  0.00     0.130 C 
ATOM     19  C   UNL     1      11.656  10.119  16.414  1.00  0.00     0.062 C 
ATOM     20  C   UNL     1      12.311  11.078  15.407  1.00  0.00     0.018 C 
ENDROOT
BRANCH  12  21
ATOM     21  O   UNL     1       9.418  12.806  17.987  1.00  0.00    -0.508 OA
ATOM     22  H   UNL     1       9.244  13.801  17.974  1.00  0.00     0.293 HD
ENDBRANCH  12  21
BRANCH   8  23
ATOM     23  N   UNL     1      12.558  14.497  11.482  1.00  0.00    -0.377 N 
ATOM     24  C   UNL     1      12.819  13.493  10.454  1.00  0.00     0.143 C 
ATOM     25  C   UNL     1      13.533  15.559  11.733  1.00  0.00     0.143 C 
ENDBRANCH   8  23
BRANCH  13  26
ATOM     26  O   UNL     1      10.094  10.095  18.261  1.00  0.00    -0.374 OA
ATOM     27  H   UNL     1       9.860   9.332  17.670  1.00  0.00     0.212 HD
ENDBRANCH  13  26
BRANCH  18  28
ATOM     28  N   UNL     1      12.047   8.051  17.830  1.00  0.00    -0.299 NA
ATOM     29  C   UNL     1      13.000   7.467  18.796  1.00  0.00     0.105 C 
ATOM     30  C   UNL     1      11.492   6.954  17.009  1.00  0.00     0.105 C 
ENDBRANCH  18  28
BRANCH   5  31
ATOM     31  O   UNL     1       7.296  14.983  13.447  1.00  0.00    -0.507 OA
ATOM     32  H   UNL     1       6.758  14.215  13.821  1.00  0.00     0.293 HD
ENDBRANCH   5  31
BRANCH  17  33
ATOM     33  O   UNL     1      15.082   9.436  17.589  1.00  0.00    -0.510 OA
ATOM     34  H   UNL     1      15.877  10.060  17.606  1.00  0.00     0.293 HD
ENDBRANCH  17  33
BRANCH  16  35
ATOM     35  C   UNL     1      14.430  11.567  19.400  1.00  0.00     0.255 C 
ATOM     36  N   UNL     1      14.284  11.566  20.820  1.00  0.00    -0.365 N 
ATOM     37  O   UNL     1      15.439  12.118  18.881  1.00  0.00    -0.269 OA
ATOM     38  H   UNL     1      15.015  12.003  21.425  1.00  0.00     0.159 HD
ATOM     39  H   UNL     1      13.434  11.159  21.272  1.00  0.00     0.159 HD
ENDBRANCH  16  35
TORSDOF 7
ENDMDL
MODEL 2
REMARK VINA RESULT:    -8.262      4.241      6.422
REMARK INTER + INTRA:         -11.393
REMARK INTER:                 -11.009
REMARK INTRA:                  -0.384
REMARK UNBOUND:                -0.716
REMARK SMILES CN(C)c1ccc(O)c2c1C[C@H]1C[C@H]3[C@H](N(C)C)C(O)=C(C(N)=O)C(=O)[C@@]3(O)C(O)=C1C2=O
REMARK SMILES IDX 12 1 11 2 10 3 9 4 7 5 6 6 5 7 4 8 32 9 33 10 31 11 29 12
REMARK SMILES IDX 27 13 25 14 26 15 21 16 19 17 15 18 14 19 13 20 30 21 2 23
REMARK SMILES IDX 1 24 3 25 28 26 16 28 17 29 18 30 8 31 20 33 22 35 23 36
REMARK SMILES IDX 24 37
REMARK H PARENT 30 22 28 27 8 32 20 34 23 38 23 39
REMARK Flexibility Score: inf
ROOT
ATOM      1  C   UNL     1      15.685  12.066  17.619  1.00  0.00     0.032 C 
ATOM      2  C   UNL     1      16.867  12.436  18.530  1.00  0.00     0.047 C 
ATOM      3  C   UNL     1      17.544  13.711  18.076  1.00  0.00    -0.009 A 
ATOM      4  C   UNL     1      16.794  14.723  17.419  1.00  0.00     0.069 A 
ATOM      5  C   UNL     1      17.476  15.871  16.926  1.00  0.00     0.127 A 
ATOM      6  C   UNL     1      18.831  16.051  17.217  1.00  0.00     0.049 A 
ATOM      7  C   UNL     1      19.541  15.091  17.928  1.00  0.00     0.030 A 
ATOM      8  C   UNL     1      18.914  13.919  18.354  1.00  0.00     0.040 A 
ATOM      9  C   UNL     1      15.313  14.551  17.307  1.00  0.00     0.196 C 
ATOM     10  O   UNL     1      14.590  15.525  16.970  1.00  0.00    -0.289 OA
ATOM     11  C   UNL     1      14.700  13.217  17.584  1.00  0.00     0.045 C 
ATOM     12  C   UNL     1      13.354  13.018  17.684  1.00  0.00     0.140 C 
ATOM     13  C   UNL     1      12.716  11.625  17.699  1.00  0.00     0.190 C 
ATOM     14  C   UNL     1      12.101  11.374  19.068  1.00  0.00     0.211 C 
ATOM     15  O   UNL     1      11.361  12.260  19.577  1.00  0.00    -0.290 OA
ATOM     16  C   UNL     1      12.276  10.084  19.786  1.00  0.00     0.125 C 
ATOM     17  C   UNL     1      12.837   9.027  19.154  1.00  0.00     0.126 C 
ATOM     18  C   UNL     1      13.158   9.089  17.671  1.00  0.00     0.130 C 
ATOM     19  C   UNL     1      13.734  10.501  17.344  1.00  0.00     0.062 C 
ATOM     20  C   UNL     1      15.060  10.745  18.084  1.00  0.00     0.018 C 
ENDROOT
BRANCH  12  21
ATOM     21  O   UNL     1      12.460  14.088  17.806  1.00  0.00    -0.508 OA
ATOM     22  H   UNL     1      12.212  14.514  18.688  1.00  0.00     0.293 HD
ENDBRANCH  12  21
BRANCH   8  23
ATOM     23  N   UNL     1      19.679  12.944  19.076  1.00  0.00    -0.377 N 
ATOM     24  C   UNL     1      20.481  11.968  18.341  1.00  0.00     0.143 C 
ATOM     25  C   UNL     1      19.877  13.120  20.515  1.00  0.00     0.143 C 
ENDBRANCH   8  23
BRANCH  13  26
ATOM     26  O   UNL     1      11.663  11.606  16.765  1.00  0.00    -0.374 OA
ATOM     27  H   UNL     1      11.924  12.178  15.995  1.00  0.00     0.212 HD
ENDBRANCH  13  26
BRANCH  18  28
ATOM     28  N   UNL     1      11.958   8.763  16.839  1.00  0.00    -0.299 NA
ATOM     29  C   UNL     1      11.422   7.421  17.149  1.00  0.00     0.105 C 
ATOM     30  C   UNL     1      12.274   8.810  15.396  1.00  0.00     0.105 C 
ENDBRANCH  18  28
BRANCH   5  31
ATOM     31  O   UNL     1      16.872  16.835  16.118  1.00  0.00    -0.507 OA
ATOM     32  H   UNL     1      16.018  17.318  16.358  1.00  0.00     0.293 HD
ENDBRANCH   5  31
BRANCH  17  33
ATOM     33  O   UNL     1      13.148   7.839  19.825  1.00  0.00    -0.510 OA
ATOM     34  H   UNL     1      13.987   7.302  19.657  1.00  0.00     0.293 HD
ENDBRANCH  17  33
BRANCH  16  35
ATOM     35  C   UNL     1      11.832   9.993  21.196  1.00  0.00     0.255 C 
ATOM     36  N   UNL     1      12.784  10.029  22.259  1.00  0.00    -0.365 N 
ATOM     37  O   UNL     1      10.604   9.912  21.467  1.00  0.00    -0.269 OA
ATOM     38  H   UNL     1      12.465  10.003  23.253  1.00  0.00     0.159 HD
ATOM     39  H   UNL     1      13.810  10.047  22.061  1.00  0.00     0.159 HD
ENDBRANCH  16  35
TORSDOF 7
ENDMDL
MODEL 3
REMARK VINA RESULT:    -7.937      4.744      7.308
REMARK INTER + INTRA:         -10.973
REMARK INTER:                 -10.215
REMARK INTRA:                  -0.758
REMARK UNBOUND:                -0.716
REMARK SMILES CN(C)c1ccc(O)c2c1C[C@H]1C[C@H]3[C@H](N(C)C)C(O)=C(C(N)=O)C(=O)[C@@]3(O)C(O)=C1C2=O
REMARK SMILES IDX 12 1 11 2 10 3 9 4 7 5 6 6 5 7 4 8 32 9 33 10 31 11 29 12
REMARK SMILES IDX 27 13 25 14 26 15 21 16 19 17 15 18 14 19 13 20 30 21 2 23
REMARK SMILES IDX 1 24 3 25 28 26 16 28 17 29 18 30 8 31 20 33 22 35 23 36
REMARK SMILES IDX 24 37
REMARK H PARENT 30 22 28 27 8 32 20 34 23 38 23 39
REMARK Flexibility Score: inf
ROOT
ATOM      1  C   UNL     1      13.526  12.684  19.795  1.00  0.00     0.032 C 
ATOM      2  C   UNL     1      14.905  12.975  19.181  1.00  0.00     0.047 C 
ATOM      3  C   UNL     1      15.815  13.685  20.160  1.00  0.00    -0.009 A 
ATOM      4  C   UNL     1      15.681  13.454  21.555  1.00  0.00     0.069 A 
ATOM      5  C   UNL     1      16.491  14.203  22.454  1.00  0.00     0.127 A 
ATOM      6  C   UNL     1      17.493  15.038  21.954  1.00  0.00     0.049 A 
ATOM      7  C   UNL     1      17.670  15.199  20.585  1.00  0.00     0.030 A 
ATOM      8  C   UNL     1      16.836  14.537  19.682  1.00  0.00     0.040 A 
ATOM      9  C   UNL     1      14.715  12.408  22.014  1.00  0.00     0.196 C 
ATOM     10  O   UNL     1      14.752  11.997  23.203  1.00  0.00    -0.289 OA
ATOM     11  C   UNL     1      13.704  11.866  21.058  1.00  0.00     0.045 C 
ATOM     12  C   UNL     1      12.914  10.788  21.337  1.00  0.00     0.140 C 
ATOM     13  C   UNL     1      11.704  10.398  20.481  1.00  0.00     0.190 C 
ATOM     14  C   UNL     1      11.988   9.071  19.794  1.00  0.00     0.211 C 
ATOM     15  O   UNL     1      12.436   8.111  20.480  1.00  0.00    -0.290 OA
ATOM     16  C   UNL     1      11.673   8.843  18.359  1.00  0.00     0.125 C 
ATOM     17  C   UNL     1      10.953   9.758  17.670  1.00  0.00     0.126 C 
ATOM     18  C   UNL     1      10.328  10.949  18.376  1.00  0.00     0.130 C 
ATOM     19  C   UNL     1      11.342  11.490  19.431  1.00  0.00     0.062 C 
ATOM     20  C   UNL     1      12.622  12.010  18.756  1.00  0.00     0.018 C 
ENDROOT
BRANCH  12  21
ATOM     21  O   UNL     1      13.178   9.945  22.422  1.00  0.00    -0.508 OA
ATOM     22  H   UNL     1      13.860   9.200  22.401  1.00  0.00     0.293 HD
ENDBRANCH  12  21
BRANCH   8  23
ATOM     23  N   UNL     1      17.039  14.734  18.275  1.00  0.00    -0.377 N 
ATOM     24  C   UNL     1      16.466  15.909  17.622  1.00  0.00     0.143 C 
ATOM     25  C   UNL     1      18.044  13.927  17.583  1.00  0.00     0.143 C 
ENDBRANCH   8  23
BRANCH  13  26
ATOM     26  O   UNL     1      10.602  10.194  21.334  1.00  0.00    -0.374 OA
ATOM     27  H   UNL     1       9.845  10.741  20.995  1.00  0.00     0.212 HD
ENDBRANCH  13  26
BRANCH  18  28
ATOM     28  N   UNL     1       9.013  10.590  18.990  1.00  0.00    -0.299 NA
ATOM     29  C   UNL     1       8.109   9.943  18.016  1.00  0.00     0.105 C 
ATOM     30  C   UNL     1       8.327  11.784  19.531  1.00  0.00     0.105 C 
ENDBRANCH  18  28
BRANCH   5  31
ATOM     31  O   UNL     1      16.319  14.185  23.840  1.00  0.00    -0.507 OA
ATOM     32  H   UNL     1      17.052  13.961  24.496  1.00  0.00     0.293 HD
ENDBRANCH   5  31
BRANCH  17  33
ATOM     33  O   UNL     1      10.749   9.657  16.288  1.00  0.00    -0.510 OA
ATOM     34  H   UNL     1      11.499   9.637  15.611  1.00  0.00     0.293 HD
ENDBRANCH  17  33
BRANCH  16  35
ATOM     35  C   UNL     1      12.172   7.608  17.712  1.00  0.00     0.255 C 
ATOM     36  N   UNL     1      13.540   7.221  17.848  1.00  0.00    -0.365 N 
ATOM     37  O   UNL     1      11.382   6.874  17.059  1.00  0.00    -0.269 OA
ATOM     38  H   UNL     1      13.879   6.329  17.422  1.00  0.00     0.159 HD
ATOM     39  H   UNL     1      14.225   7.836  18.343  1.00  0.00     0.159 HD
ENDBRANCH  16  35
TORSDOF 7
ENDMDL
MODEL 4
REMARK VINA RESULT:    -7.844      2.529      4.247
REMARK INTER + INTRA:         -10.853
REMARK INTER:                 -10.139
REMARK INTRA:                  -0.713
REMARK UNBOUND:                -0.716
REMARK SMILES CN(C)c1ccc(O)c2c1C[C@H]1C[C@H]3[C@H](N(C)C)C(O)=C(C(N)=O)C(=O)[C@@]3(O)C(O)=C1C2=O
REMARK SMILES IDX 12 1 11 2 10 3 9 4 7 5 6 6 5 7 4 8 32 9 33 10 31 11 29 12
REMARK SMILES IDX 27 13 25 14 26 15 21 16 19 17 15 18 14 19 13 20 30 21 2 23
REMARK SMILES IDX 1 24 3 25 28 26 16 28 17 29 18 30 8 31 20 33 22 35 23 36
REMARK SMILES IDX 24 37
REMARK H PARENT 30 22 28 27 8 32 20 34 23 38 23 39
REMARK Flexibility Score: inf
ROOT
ATOM      1  C   UNL     1      11.904  13.269  15.983  1.00  0.00     0.032 C 
ATOM      2  C   UNL     1      12.377  13.139  14.526  1.00  0.00     0.047 C 
ATOM      3  C   UNL     1      13.178  14.346  14.088  1.00  0.00    -0.009 A 
ATOM      4  C   UNL     1      13.948  15.074  15.034  1.00  0.00     0.069 A 
ATOM      5  C   UNL     1      14.618  16.255  14.609  1.00  0.00     0.127 A 
ATOM      6  C   UNL     1      14.627  16.598  13.255  1.00  0.00     0.049 A 
ATOM      7  C   UNL     1      13.934  15.836  12.321  1.00  0.00     0.030 A 
ATOM      8  C   UNL     1      13.203  14.717  12.725  1.00  0.00     0.040 A 
ATOM      9  C   UNL     1      14.046  14.544  16.429  1.00  0.00     0.196 C 
ATOM     10  O   UNL     1      14.911  15.006  17.218  1.00  0.00    -0.289 OA
ATOM     11  C   UNL     1      13.106  13.476  16.883  1.00  0.00     0.045 C 
ATOM     12  C   UNL     1      13.243  12.811  18.067  1.00  0.00     0.140 C 
ATOM     13  C   UNL     1      12.145  11.917  18.653  1.00  0.00     0.190 C 
ATOM     14  C   UNL     1      12.623  10.473  18.645  1.00  0.00     0.211 C 
ATOM     15  O   UNL     1      13.770  10.206  19.097  1.00  0.00    -0.290 OA
ATOM     16  C   UNL     1      11.749   9.356  18.198  1.00  0.00     0.125 C 
ATOM     17  C   UNL     1      10.435   9.577  17.961  1.00  0.00     0.126 C 
ATOM     18  C   UNL     1       9.801  10.918  18.285  1.00  0.00     0.130 C 
ATOM     19  C   UNL     1      10.797  12.050  17.885  1.00  0.00     0.062 C 
ATOM     20  C   UNL     1      11.057  12.051  16.369  1.00  0.00     0.018 C 
ENDROOT
BRANCH  12  21
ATOM     21  O   UNL     1      14.420  12.886  18.819  1.00  0.00    -0.508 OA
ATOM     22  H   UNL     1      14.786  13.746  19.205  1.00  0.00     0.293 HD
ENDBRANCH  12  21
BRANCH   8  23
ATOM     23  N   UNL     1      12.491  13.959  11.737  1.00  0.00    -0.377 N 
ATOM     24  C   UNL     1      11.153  14.382  11.330  1.00  0.00     0.143 C 
ATOM     25  C   UNL     1      13.215  12.962  10.949  1.00  0.00     0.143 C 
ENDBRANCH   8  23
BRANCH  13  26
ATOM     26  O   UNL     1      11.947  12.278  20.000  1.00  0.00    -0.374 OA
ATOM     27  H   UNL     1      10.977  12.208  20.197  1.00  0.00     0.212 HD
ENDBRANCH  13  26
BRANCH  18  28
ATOM     28  N   UNL     1       9.404  10.999  19.725  1.00  0.00    -0.299 NA
ATOM     29  C   UNL     1       8.803   9.736  20.202  1.00  0.00     0.105 C 
ATOM     30  C   UNL     1       8.430  12.088  19.955  1.00  0.00     0.105 C 
ENDBRANCH  18  28
BRANCH   5  31
ATOM     31  O   UNL     1      15.252  17.136  15.487  1.00  0.00    -0.507 OA
ATOM     32  H   UNL     1      16.250  17.288  15.510  1.00  0.00     0.293 HD
ENDBRANCH   5  31
BRANCH  17  33
ATOM     33  O   UNL     1       9.604   8.595  17.409  1.00  0.00    -0.510 OA
ATOM     34  H   UNL     1       9.254   8.624  16.461  1.00  0.00     0.293 HD
ENDBRANCH  17  33
BRANCH  16  35
ATOM     35  C   UNL     1      12.351   8.016  18.016  1.00  0.00     0.255 C 
ATOM     36  N   UNL     1      13.673   7.880  17.491  1.00  0.00    -0.365 N 
ATOM     37  O   UNL     1      11.708   6.984  18.350  1.00  0.00    -0.269 OA
ATOM     38  H   UNL     1      14.108   6.935  17.400  1.00  0.00     0.159 HD
ATOM     39  H   UNL     1      14.208   8.715  17.163  1.00  0.00     0.159 HD
ENDBRANCH  16  35
TORSDOF 7
ENDMDL
MODEL 5
REMARK VINA RESULT:    -7.562      2.640      7.967
REMARK INTER + INTRA:         -10.489
REMARK INTER:                  -9.771
REMARK INTRA:                  -0.718
REMARK UNBOUND:                -0.716
REMARK SMILES CN(C)c1ccc(O)c2c1C[C@H]1C[C@H]3[C@H](N(C)C)C(O)=C(C(N)=O)C(=O)[C@@]3(O)C(O)=C1C2=O
REMARK SMILES IDX 12 1 11 2 10 3 9 4 7 5 6 6 5 7 4 8 32 9 33 10 31 11 29 12
REMARK SMILES IDX 27 13 25 14 26 15 21 16 19 17 15 18 14 19 13 20 30 21 2 23
REMARK SMILES IDX 1 24 3 25 28 26 16 28 17 29 18 30 8 31 20 33 22 35 23 36
REMARK SMILES IDX 24 37
REMARK H PARENT 30 22 28 27 8 32 20 34 23 38 23 39
REMARK Flexibility Score: inf
ROOT
ATOM      1  C   UNL     1      12.843  12.943  14.311  1.00  0.00     0.032 C 
ATOM      2  C   UNL     1      12.456  11.781  15.241  1.00  0.00     0.047 C 
ATOM      3  C   UNL     1      13.381  11.688  16.434  1.00  0.00    -0.009 A 
ATOM      4  C   UNL     1      13.991  12.860  16.958  1.00  0.00     0.069 A 
ATOM      5  C   UNL     1      14.924  12.728  18.024  1.00  0.00     0.127 A 
ATOM      6  C   UNL     1      15.117  11.483  18.628  1.00  0.00     0.049 A 
ATOM      7  C   UNL     1      14.457  10.353  18.159  1.00  0.00     0.030 A 
ATOM      8  C   UNL     1      13.597  10.442  17.063  1.00  0.00     0.040 A 
ATOM      9  C   UNL     1      13.596  14.184  16.386  1.00  0.00     0.196 C 
ATOM     10  O   UNL     1      13.910  15.246  16.983  1.00  0.00    -0.289 OA
ATOM     11  C   UNL     1      12.840  14.237  15.099  1.00  0.00     0.045 C 
ATOM     12  C   UNL     1      12.285  15.381  14.604  1.00  0.00     0.140 C 
ATOM     13  C   UNL     1      11.748  15.497  13.174  1.00  0.00     0.190 C 
ATOM     14  C   UNL     1      10.238  15.671  13.221  1.00  0.00     0.211 C 
ATOM     15  O   UNL     1       9.746  16.531  14.002  1.00  0.00    -0.290 OA
ATOM     16  C   UNL     1       9.328  14.920  12.315  1.00  0.00     0.125 C 
ATOM     17  C   UNL     1       9.838  14.194  11.294  1.00  0.00     0.126 C 
ATOM     18  C   UNL     1      11.319  14.251  10.962  1.00  0.00     0.130 C 
ATOM     19  C   UNL     1      12.128  14.268  12.296  1.00  0.00     0.062 C 
ATOM     20  C   UNL     1      11.913  12.970  13.092  1.00  0.00     0.018 C 
ENDROOT
BRANCH  12  21
ATOM     21  O   UNL     1      12.145  16.530  15.391  1.00  0.00    -0.508 OA
ATOM     22  H   UNL     1      11.254  16.941  15.632  1.00  0.00     0.293 HD
ENDBRANCH  12  21
BRANCH   8  23
ATOM     23  N   UNL     1      12.940   9.254  16.598  1.00  0.00    -0.377 N 
ATOM     24  C   UNL     1      13.652   8.337  15.710  1.00  0.00     0.143 C 
ATOM     25  C   UNL     1      11.695   8.833  17.240  1.00  0.00     0.143 C 
ENDBRANCH   8  23
BRANCH  13  26
ATOM     26  O   UNL     1      12.279  16.663  12.590  1.00  0.00    -0.374 OA
ATOM     27  H   UNL     1      11.525  17.195  12.223  1.00  0.00     0.212 HD
ENDBRANCH  13  26
BRANCH  18  28
ATOM     28  N   UNL     1      11.638  15.426  10.093  1.00  0.00    -0.299 NA
ATOM     29  C   UNL     1      10.669  15.571   8.986  1.00  0.00     0.105 C 
ATOM     30  C   UNL     1      12.991  15.312   9.509  1.00  0.00     0.105 C 
ENDBRANCH  18  28
BRANCH   5  31
ATOM     31  O   UNL     1      15.708  13.784  18.494  1.00  0.00    -0.507 OA
ATOM     32  H   UNL     1      15.591  14.745  18.206  1.00  0.00     0.293 HD
ENDBRANCH   5  31
BRANCH  17  33
ATOM     33  O   UNL     1       9.038  13.363  10.501  1.00  0.00    -0.510 OA
ATOM     34  H   UNL     1       9.292  13.059   9.571  1.00  0.00     0.293 HD
ENDBRANCH  17  33
BRANCH  16  35
ATOM     35  C   UNL     1       7.870  14.982  12.566  1.00  0.00     0.255 C 
ATOM     36  N   UNL     1       7.366  15.025  13.901  1.00  0.00    -0.365 N 
ATOM     37  O   UNL     1       7.065  15.026  11.598  1.00  0.00    -0.269 OA
ATOM     38  H   UNL     1       6.339  15.107  14.073  1.00  0.00     0.159 HD
ATOM     39  H   UNL     1       8.008  14.942  14.721  1.00  0.00     0.159 HD
ENDBRANCH  16  35
TORSDOF 7
ENDMDL
MODEL 6
REMARK VINA RESULT:    -7.493      4.072      7.104
REMARK INTER + INTRA:         -10.400
REMARK INTER:                  -9.943
REMARK INTRA:                  -0.457
REMARK UNBOUND:                -0.716
REMARK SMILES CN(C)c1ccc(O)c2c1C[C@H]1C[C@H]3[C@H](N(C)C)C(O)=C(C(N)=O)C(=O)[C@@]3(O)C(O)=C1C2=O
REMARK SMILES IDX 12 1 11 2 10 3 9 4 7 5 6 6 5 7 4 8 32 9 33 10 31 11 29 12
REMARK SMILES IDX 27 13 25 14 26 15 21 16 19 17 15 18 14 19 13 20 30 21 2 23
REMARK SMILES IDX 1 24 3 25 28 26 16 28 17 29 18 30 8 31 20 33 22 35 23 36
REMARK SMILES IDX 24 37
REMARK H PARENT 30 22 28 27 8 32 20 34 23 38 23 39
REMARK Flexibility Score: inf
ROOT
ATOM      1  C   UNL     1      14.713  11.649  18.333  1.00  0.00     0.032 C 
ATOM      2  C   UNL     1      13.470  11.659  17.427  1.00  0.00     0.047 C 
ATOM      3  C   UNL     1      12.309  10.926  18.063  1.00  0.00    -0.009 A 
ATOM      4  C   UNL     1      12.171  10.898  19.476  1.00  0.00     0.069 A 
ATOM      5  C   UNL     1      11.119  10.127  20.046  1.00  0.00     0.127 A 
ATOM      6  C   UNL     1      10.164   9.535  19.216  1.00  0.00     0.049 A 
ATOM      7  C   UNL     1      10.263   9.633  17.833  1.00  0.00     0.030 A 
ATOM      8  C   UNL     1      11.330  10.316  17.247  1.00  0.00     0.040 A 
ATOM      9  C   UNL     1      13.119  11.709  20.300  1.00  0.00     0.196 C 
ATOM     10  O   UNL     1      12.877  11.915  21.518  1.00  0.00    -0.289 OA
ATOM     11  C   UNL     1      14.359  12.260  19.674  1.00  0.00     0.045 C 
ATOM     12  C   UNL     1      15.177  13.156  20.297  1.00  0.00     0.140 C 
ATOM     13  C   UNL     1      16.573  13.514  19.775  1.00  0.00     0.190 C 
ATOM     14  C   UNL     1      16.575  14.964  19.316  1.00  0.00     0.211 C 
ATOM     15  O   UNL     1      16.093  15.847  20.077  1.00  0.00    -0.290 OA
ATOM     16  C   UNL     1      17.204  15.384  18.036  1.00  0.00     0.125 C 
ATOM     17  C   UNL     1      17.957  14.508  17.331  1.00  0.00     0.126 C 
ATOM     18  C   UNL     1      18.296  13.140  17.899  1.00  0.00     0.130 C 
ATOM     19  C   UNL     1      17.034  12.575  18.621  1.00  0.00     0.062 C 
ATOM     20  C   UNL     1      15.878  12.357  17.631  1.00  0.00     0.018 C 
ENDROOT
BRANCH  12  21
ATOM     21  O   UNL     1      14.779  13.832  21.456  1.00  0.00    -0.508 OA
ATOM     22  H   UNL     1      15.406  14.376  22.032  1.00  0.00     0.293 HD
ENDBRANCH  12  21
BRANCH   8  23
ATOM     23  N   UNL     1      11.407  10.388  15.816  1.00  0.00    -0.377 N 
ATOM     24  C   UNL     1      10.928  11.585  15.129  1.00  0.00     0.143 C 
ATOM     25  C   UNL     1      12.218   9.405  15.098  1.00  0.00     0.143 C 
ENDBRANCH   8  23
BRANCH  13  26
ATOM     26  O   UNL     1      17.487  13.418  20.842  1.00  0.00    -0.374 OA
ATOM     27  H   UNL     1      17.690  14.337  21.157  1.00  0.00     0.212 HD
ENDBRANCH  13  26
BRANCH  18  28
ATOM     28  N   UNL     1      19.483  13.206  18.806  1.00  0.00    -0.299 NA
ATOM     29  C   UNL     1      20.309  14.404  18.545  1.00  0.00     0.105 C 
ATOM     30  C   UNL     1      20.343  12.013  18.655  1.00  0.00     0.105 C 
ENDBRANCH  18  28
BRANCH   5  31
ATOM     31  O   UNL     1      10.998   9.888  21.416  1.00  0.00    -0.507 OA
ATOM     32  H   UNL     1      11.731  10.065  22.087  1.00  0.00     0.293 HD
ENDBRANCH   5  31
BRANCH  17  33
ATOM     33  O   UNL     1      18.454  14.811  16.058  1.00  0.00    -0.510 OA
ATOM     34  H   UNL     1      18.006  15.454  15.419  1.00  0.00     0.293 HD
ENDBRANCH  17  33
BRANCH  16  35
ATOM     35  C   UNL     1      16.980  16.767  17.558  1.00  0.00     0.255 C 
ATOM     36  N   UNL     1      15.657  17.298  17.470  1.00  0.00    -0.365 N 
ATOM     37  O   UNL     1      17.961  17.496  17.249  1.00  0.00    -0.269 OA
ATOM     38  H   UNL     1      15.505  18.287  17.169  1.00  0.00     0.159 HD
ATOM     39  H   UNL     1      14.824  16.700  17.674  1.00  0.00     0.159 HD
ENDBRANCH  16  35
TORSDOF 7
ENDMDL
MODEL 7
REMARK VINA RESULT:    -7.171      3.677      7.497
REMARK INTER + INTRA:          -9.983
REMARK INTER:                  -9.701
REMARK INTRA:                  -0.282
REMARK UNBOUND:                -0.716
REMARK SMILES CN(C)c1ccc(O)c2c1C[C@H]1C[C@H]3[C@H](N(C)C)C(O)=C(C(N)=O)C(=O)[C@@]3(O)C(O)=C1C2=O
REMARK SMILES IDX 12 1 11 2 10 3 9 4 7 5 6 6 5 7 4 8 32 9 33 10 31 11 29 12
REMARK SMILES IDX 27 13 25 14 26 15 21 16 19 17 15 18 14 19 13 20 30 21 2 23
REMARK SMILES IDX 1 24 3 25 28 26 16 28 17 29 18 30 8 31 20 33 22 35 23 36
REMARK SMILES IDX 24 37
REMARK H PARENT 30 22 28 27 8 32 20 34 23 38 23 39
REMARK Flexibility Score: inf
ROOT
ATOM      1  C   UNL     1      15.933  13.005  18.588  1.00  0.00     0.032 C 
ATOM      2  C   UNL     1      17.308  12.802  19.246  1.00  0.00     0.047 C 
ATOM      3  C   UNL     1      17.728  14.015  20.047  1.00  0.00    -0.009 A 
ATOM      4  C   UNL     1      16.749  14.839  20.662  1.00  0.00     0.069 A 
ATOM      5  C   UNL     1      17.171  16.021  21.334  1.00  0.00     0.127 A 
ATOM      6  C   UNL     1      18.535  16.274  21.500  1.00  0.00     0.049 A 
ATOM      7  C   UNL     1      19.490  15.420  20.961  1.00  0.00     0.030 A 
ATOM      8  C   UNL     1      19.101  14.297  20.229  1.00  0.00     0.040 A 
ATOM      9  C   UNL     1      15.318  14.408  20.605  1.00  0.00     0.196 C 
ATOM     10  O   UNL     1      14.464  14.961  21.345  1.00  0.00    -0.289 OA
ATOM     11  C   UNL     1      14.909  13.327  19.657  1.00  0.00     0.045 C 
ATOM     12  C   UNL     1      13.673  12.749  19.670  1.00  0.00     0.140 C 
ATOM     13  C   UNL     1      13.164  11.844  18.544  1.00  0.00     0.190 C 
ATOM     14  C   UNL     1      13.011  10.427  19.075  1.00  0.00     0.211 C 
ATOM     15  O   UNL     1      12.403  10.245  20.165  1.00  0.00    -0.290 OA
ATOM     16  C   UNL     1      13.481   9.242  18.308  1.00  0.00     0.125 C 
ATOM     17  C   UNL     1      13.894   9.384  17.028  1.00  0.00     0.126 C 
ATOM     18  C   UNL     1      13.745  10.712  16.305  1.00  0.00     0.130 C 
ATOM     19  C   UNL     1      14.100  11.862  17.299  1.00  0.00     0.062 C 
ATOM     20  C   UNL     1      15.568  11.776  17.747  1.00  0.00     0.018 C 
ENDROOT
BRANCH  12  21
ATOM     21  O   UNL     1      12.789  12.930  20.740  1.00  0.00    -0.508 OA
ATOM     22  H   UNL     1      12.978  13.531  21.530  1.00  0.00     0.293 HD
ENDBRANCH  12  21
BRANCH   8  23
ATOM     23  N   UNL     1      20.113  13.443  19.677  1.00  0.00    -0.377 N 
ATOM     24  C   UNL     1      20.876  12.566  20.561  1.00  0.00     0.143 C 
ATOM     25  C   UNL     1      20.165  13.248  18.228  1.00  0.00     0.143 C 
ENDBRANCH   8  23
BRANCH  13  26
ATOM     26  O   UNL     1      11.881  12.282  18.164  1.00  0.00    -0.374 OA
ATOM     27  H   UNL     1      11.989  12.983  17.469  1.00  0.00     0.212 HD
ENDBRANCH  13  26
BRANCH  18  28
ATOM     28  N   UNL     1      12.374  10.869  15.728  1.00  0.00    -0.299 NA
ATOM     29  C   UNL     1      11.890   9.614  15.115  1.00  0.00     0.105 C 
ATOM     30  C   UNL     1      12.342  11.927  14.696  1.00  0.00     0.105 C 
ENDBRANCH  18  28
BRANCH   5  31
ATOM     31  O   UNL     1      16.287  16.987  21.818  1.00  0.00    -0.507 OA
ATOM     32  H   UNL     1      15.970  17.032  22.775  1.00  0.00     0.293 HD
ENDBRANCH   5  31
BRANCH  17  33
ATOM     33  O   UNL     1      14.472   8.330  16.312  1.00  0.00    -0.510 OA
ATOM     34  H   UNL     1      15.241   8.445  15.666  1.00  0.00     0.293 HD
ENDBRANCH  17  33
BRANCH  16  35
ATOM     35  C   UNL     1      13.493   7.923  18.981  1.00  0.00     0.255 C 
ATOM     36  N   UNL     1      14.378   7.674  20.073  1.00  0.00    -0.365 N 
ATOM     37  O   UNL     1      12.698   7.018  18.609  1.00  0.00    -0.269 OA
ATOM     38  H   UNL     1      14.356   6.755  20.570  1.00  0.00     0.159 HD
ATOM     39  H   UNL     1      15.079   8.390  20.370  1.00  0.00     0.159 HD
ENDBRANCH  16  35
TORSDOF 7
ENDMDL
MODEL 8
REMARK VINA RESULT:    -7.081      3.209      4.520
REMARK INTER + INTRA:          -9.867
REMARK INTER:                  -9.575
REMARK INTRA:                  -0.292
REMARK UNBOUND:                -0.716
REMARK SMILES CN(C)c1ccc(O)c2c1C[C@H]1C[C@H]3[C@H](N(C)C)C(O)=C(C(N)=O)C(=O)[C@@]3(O)C(O)=C1C2=O
REMARK SMILES IDX 12 1 11 2 10 3 9 4 7 5 6 6 5 7 4 8 32 9 33 10 31 11 29 12
REMARK SMILES IDX 27 13 25 14 26 15 21 16 19 17 15 18 14 19 13 20 30 21 2 23
REMARK SMILES IDX 1 24 3 25 28 26 16 28 17 29 18 30 8 31 20 33 22 35 23 36
REMARK SMILES IDX 24 37
REMARK H PARENT 30 22 28 27 8 32 20 34 23 38 23 39
REMARK Flexibility Score: inf
ROOT
ATOM      1  C   UNL     1      13.216  12.466  17.188  1.00  0.00     0.032 C 
ATOM      2  C   UNL     1      12.912  13.972  17.258  1.00  0.00     0.047 C 
ATOM      3  C   UNL     1      13.259  14.673  15.963  1.00  0.00    -0.009 A 
ATOM      4  C   UNL     1      13.172  13.977  14.728  1.00  0.00     0.069 A 
ATOM      5  C   UNL     1      13.590  14.636  13.539  1.00  0.00     0.127 A 
ATOM      6  C   UNL     1      13.939  15.988  13.581  1.00  0.00     0.049 A 
ATOM      7  C   UNL     1      13.947  16.685  14.784  1.00  0.00     0.030 A 
ATOM      8  C   UNL     1      13.619  16.040  15.977  1.00  0.00     0.040 A 
ATOM      9  C   UNL     1      12.612  12.590  14.732  1.00  0.00     0.196 C 
ATOM     10  O   UNL     1      12.280  12.043  13.648  1.00  0.00    -0.289 OA
ATOM     11  C   UNL     1      12.459  11.857  16.025  1.00  0.00     0.045 C 
ATOM     12  C   UNL     1      11.792  10.672  16.139  1.00  0.00     0.140 C 
ATOM     13  C   UNL     1      11.863   9.793  17.392  1.00  0.00     0.190 C 
ATOM     14  C   UNL     1      10.497   9.771  18.061  1.00  0.00     0.211 C 
ATOM     15  O   UNL     1       9.475   9.543  17.357  1.00  0.00    -0.290 OA
ATOM     16  C   UNL     1      10.337   9.923  19.532  1.00  0.00     0.125 C 
ATOM     17  C   UNL     1      11.424   9.902  20.337  1.00  0.00     0.126 C 
ATOM     18  C   UNL     1      12.799   9.576  19.780  1.00  0.00     0.130 C 
ATOM     19  C   UNL     1      12.954  10.275  18.394  1.00  0.00     0.062 C 
ATOM     20  C   UNL     1      12.897  11.805  18.534  1.00  0.00     0.018 C 
ENDROOT
BRANCH  12  21
ATOM     21  O   UNL     1      10.970  10.191  15.114  1.00  0.00    -0.508 OA
ATOM     22  H   UNL     1      11.212   9.409  14.521  1.00  0.00     0.293 HD
ENDBRANCH  12  21
BRANCH   8  23
ATOM     23  N   UNL     1      13.648  16.786  17.202  1.00  0.00    -0.377 N 
ATOM     24  C   UNL     1      14.921  16.998  17.886  1.00  0.00     0.143 C 
ATOM     25  C   UNL     1      12.470  17.562  17.589  1.00  0.00     0.143 C 
ENDBRANCH   8  23
BRANCH  13  26
ATOM     26  O   UNL     1      12.150   8.473  16.995  1.00  0.00    -0.374 OA
ATOM     27  H   UNL     1      12.544   8.504  16.084  1.00  0.00     0.212 HD
ENDBRANCH  13  26
BRANCH  18  28
ATOM     28  N   UNL     1      13.015   8.098  19.695  1.00  0.00    -0.299 NA
ATOM     29  C   UNL     1      13.230   7.495  21.027  1.00  0.00     0.105 C 
ATOM     30  C   UNL     1      14.184   7.773  18.849  1.00  0.00     0.105 C 
ENDBRANCH  18  28
BRANCH   5  31
ATOM     31  O   UNL     1      13.711  13.992  12.306  1.00  0.00    -0.507 OA
ATOM     32  H   UNL     1      13.196  14.256  11.479  1.00  0.00     0.293 HD
ENDBRANCH   5  31
BRANCH  17  33
ATOM     33  O   UNL     1      11.340  10.179  21.707  1.00  0.00    -0.510 OA
ATOM     34  H   UNL     1      10.597   9.840  22.303  1.00  0.00     0.293 HD
ENDBRANCH  17  33
BRANCH  16  35
ATOM     35  C   UNL     1       8.974  10.105  20.080  1.00  0.00     0.255 C 
ATOM     36  N   UNL     1       8.132  11.152  19.597  1.00  0.00    -0.365 N 
ATOM     37  O   UNL     1       8.538   9.316  20.961  1.00  0.00    -0.269 OA
ATOM     38  H   UNL     1       7.157  11.253  19.959  1.00  0.00     0.159 HD
ATOM     39  H   UNL     1       8.486  11.848  18.902  1.00  0.00     0.159 HD
ENDBRANCH  16  35
TORSDOF 7
ENDMDL
MODEL 9
REMARK VINA RESULT:    -7.015      3.467      7.557
REMARK INTER + INTRA:          -9.782
REMARK INTER:                  -9.214
REMARK INTRA:                  -0.568
REMARK UNBOUND:                -0.716
REMARK SMILES CN(C)c1ccc(O)c2c1C[C@H]1C[C@H]3[C@H](N(C)C)C(O)=C(C(N)=O)C(=O)[C@@]3(O)C(O)=C1C2=O
REMARK SMILES IDX 12 1 11 2 10 3 9 4 7 5 6 6 5 7 4 8 32 9 33 10 31 11 29 12
REMARK SMILES IDX 27 13 25 14 26 15 21 16 19 17 15 18 14 19 13 20 30 21 2 23
REMARK SMILES IDX 1 24 3 25 28 26 16 28 17 29 18 30 8 31 20 33 22 35 23 36
REMARK SMILES IDX 24 37
REMARK H PARENT 30 22 28 27 8 32 20 34 23 38 23 39
REMARK Flexibility Score: inf
ROOT
ATOM      1  C   UNL     1       9.744  13.802  14.939  1.00  0.00     0.032 C 
ATOM      2  C   UNL     1       9.861  14.285  16.394  1.00  0.00     0.047 C 
ATOM      3  C   UNL     1       9.503  13.191  17.376  1.00  0.00    -0.009 A 
ATOM      4  C   UNL     1       9.739  11.829  17.047  1.00  0.00     0.069 A 
ATOM      5  C   UNL     1       9.310  10.820  17.954  1.00  0.00     0.127 A 
ATOM      6  C   UNL     1       8.799  11.182  19.203  1.00  0.00     0.049 A 
ATOM      7  C   UNL     1       8.643  12.519  19.550  1.00  0.00     0.030 A 
ATOM      8  C   UNL     1       8.982  13.528  18.646  1.00  0.00     0.040 A 
ATOM      9  C   UNL     1      10.460  11.520  15.773  1.00  0.00     0.196 C 
ATOM     10  O   UNL     1      10.912  10.364  15.571  1.00  0.00    -0.289 OA
ATOM     11  C   UNL     1      10.629  12.588  14.742  1.00  0.00     0.045 C 
ATOM     12  C   UNL     1      11.426  12.447  13.643  1.00  0.00     0.140 C 
ATOM     13  C   UNL     1      11.394  13.419  12.459  1.00  0.00     0.190 C 
ATOM     14  C   UNL     1      12.715  14.171  12.397  1.00  0.00     0.211 C 
ATOM     15  O   UNL     1      13.793  13.520  12.470  1.00  0.00    -0.290 OA
ATOM     16  C   UNL     1      12.776  15.639  12.168  1.00  0.00     0.125 C 
ATOM     17  C   UNL     1      11.658  16.318  11.823  1.00  0.00     0.126 C 
ATOM     18  C   UNL     1      10.364  15.583  11.519  1.00  0.00     0.130 C 
ATOM     19  C   UNL     1      10.202  14.417  12.543  1.00  0.00     0.062 C 
ATOM     20  C   UNL     1      10.067  14.952  13.979  1.00  0.00     0.018 C 
ENDROOT
BRANCH  12  21
ATOM     21  O   UNL     1      12.354  11.404  13.537  1.00  0.00    -0.508 OA
ATOM     22  H   UNL     1      12.934  11.089  14.303  1.00  0.00     0.293 HD
ENDBRANCH  12  21
BRANCH   8  23
ATOM     23  N   UNL     1       8.798  14.897  19.032  1.00  0.00    -0.377 N 
ATOM     24  C   UNL     1       9.946  15.677  19.490  1.00  0.00     0.143 C 
ATOM     25  C   UNL     1       7.545  15.569  18.691  1.00  0.00     0.143 C 
ENDBRANCH   8  23
BRANCH  13  26
ATOM     26  O   UNL     1      11.289  12.672  11.271  1.00  0.00    -0.374 OA
ATOM     27  H   UNL     1      11.785  11.821  11.397  1.00  0.00     0.212 HD
ENDBRANCH  13  26
BRANCH  18  28
ATOM     28  N   UNL     1      10.331  15.100  10.104  1.00  0.00    -0.299 NA
ATOM     29  C   UNL     1      10.757  16.150   9.155  1.00  0.00     0.105 C 
ATOM     30  C   UNL     1       8.975  14.655   9.719  1.00  0.00     0.105 C 
ENDBRANCH  18  28
BRANCH   5  31
ATOM     31  O   UNL     1       9.332   9.457  17.653  1.00  0.00    -0.507 OA
ATOM     32  H   UNL     1       8.787   9.033  16.916  1.00  0.00     0.293 HD
ENDBRANCH   5  31
BRANCH  17  33
ATOM     33  O   UNL     1      11.635  17.715  11.732  1.00  0.00    -0.510 OA
ATOM     34  H   UNL     1      12.461  18.294  11.789  1.00  0.00     0.293 HD
ENDBRANCH  17  33
BRANCH  16  35
ATOM     35  C   UNL     1      14.077  16.327  12.334  1.00  0.00     0.255 C 
ATOM     36  N   UNL     1      14.946  15.984  13.414  1.00  0.00    -0.365 N 
ATOM     37  O   UNL     1      14.438  17.204  11.503  1.00  0.00    -0.269 OA
ATOM     38  H   UNL     1      15.879  16.445  13.506  1.00  0.00     0.159 HD
ATOM     39  H   UNL     1      14.650  15.296  14.143  1.00  0.00     0.159 HD
ENDBRANCH  16  35
TORSDOF 7
ENDMDL
MODEL 10
REMARK VINA RESULT:    -7.007      2.563      4.538
REMARK INTER + INTRA:          -9.772
REMARK INTER:                  -9.035
REMARK INTRA:                  -0.737
REMARK UNBOUND:                -0.716
REMARK SMILES CN(C)c1ccc(O)c2c1C[C@H]1C[C@H]3[C@H](N(C)C)C(O)=C(C(N)=O)C(=O)[C@@]3(O)C(O)=C1C2=O
REMARK SMILES IDX 12 1 11 2 10 3 9 4 7 5 6 6 5 7 4 8 32 9 33 10 31 11 29 12
REMARK SMILES IDX 27 13 25 14 26 15 21 16 19 17 15 18 14 19 13 20 30 21 2 23
REMARK SMILES IDX 1 24 3 25 28 26 16 28 17 29 18 30 8 31 20 33 22 35 23 36
REMARK SMILES IDX 24 37
REMARK H PARENT 30 22 28 27 8 32 20 34 23 38 23 39
REMARK Flexibility Score: inf
ROOT
ATOM      1  C   UNL     1      10.360  14.079  15.902  1.00  0.00     0.032 C 
ATOM      2  C   UNL     1       8.870  14.458  15.855  1.00  0.00     0.047 C 
ATOM      3  C   UNL     1       8.523  15.204  14.585  1.00  0.00    -0.009 A 
ATOM      4  C   UNL     1       9.240  14.946  13.387  1.00  0.00     0.069 A 
ATOM      5  C   UNL     1       8.950  15.728  12.233  1.00  0.00     0.127 A 
ATOM      6  C   UNL     1       7.880  16.626  12.255  1.00  0.00     0.049 A 
ATOM      7  C   UNL     1       7.132  16.816  13.411  1.00  0.00     0.030 A 
ATOM      8  C   UNL     1       7.448  16.120  14.579  1.00  0.00     0.040 A 
ATOM      9  C   UNL     1      10.246  13.840  13.383  1.00  0.00     0.196 C 
ATOM     10  O   UNL     1      10.709  13.414  12.293  1.00  0.00    -0.289 OA
ATOM     11  C   UNL     1      10.705  13.254  14.679  1.00  0.00     0.045 C 
ATOM     12  C   UNL     1      11.473  12.129  14.761  1.00  0.00     0.140 C 
ATOM     13  C   UNL     1      12.163  11.683  16.054  1.00  0.00     0.190 C 
ATOM     14  C   UNL     1      11.531  10.384  16.532  1.00  0.00     0.211 C 
ATOM     15  O   UNL     1      11.373   9.442  15.708  1.00  0.00    -0.290 OA
ATOM     16  C   UNL     1      11.172  10.160  17.958  1.00  0.00     0.125 C 
ATOM     17  C   UNL     1      11.571  11.042  18.903  1.00  0.00     0.126 C 
ATOM     18  C   UNL     1      12.510  12.185  18.555  1.00  0.00     0.130 C 
ATOM     19  C   UNL     1      12.092  12.767  17.170  1.00  0.00     0.062 C 
ATOM     20  C   UNL     1      10.678  13.370  17.223  1.00  0.00     0.018 C 
ENDROOT
BRANCH  12  21
ATOM     21  O   UNL     1      11.662  11.287  13.659  1.00  0.00    -0.508 OA
ATOM     22  H   UNL     1      11.981  11.608  12.755  1.00  0.00     0.293 HD
ENDBRANCH  12  21
BRANCH   8  23
ATOM     23  N   UNL     1       6.662  16.349  15.758  1.00  0.00    -0.377 N 
ATOM     24  C   UNL     1       7.082  17.368  16.717  1.00  0.00     0.143 C 
ATOM     25  C   UNL     1       5.318  15.777  15.838  1.00  0.00     0.143 C 
ENDBRANCH   8  23
BRANCH  13  26
ATOM     26  O   UNL     1      13.513  11.403  15.767  1.00  0.00    -0.374 OA
ATOM     27  H   UNL     1      13.539  10.727  15.040  1.00  0.00     0.212 HD
ENDBRANCH  13  26
BRANCH  18  28
ATOM     28  N   UNL     1      13.938  11.742  18.574  1.00  0.00    -0.299 NA
ATOM     29  C   UNL     1      14.242  10.916  19.761  1.00  0.00     0.105 C 
ATOM     30  C   UNL     1      14.860  12.898  18.568  1.00  0.00     0.105 C 
ENDBRANCH  18  28
BRANCH   5  31
ATOM     31  O   UNL     1       9.708  15.680  11.062  1.00  0.00    -0.507 OA
ATOM     32  H   UNL     1      10.040  16.497  10.571  1.00  0.00     0.293 HD
ENDBRANCH   5  31
BRANCH  17  33
ATOM     33  O   UNL     1      11.144  10.949  20.233  1.00  0.00    -0.510 OA
ATOM     34  H   UNL     1      10.776  10.104  20.646  1.00  0.00     0.293 HD
ENDBRANCH  17  33
BRANCH  16  35
ATOM     35  C   UNL     1      10.371   8.965  18.306  1.00  0.00     0.255 C 
ATOM     36  N   UNL     1      10.907   7.654  18.126  1.00  0.00    -0.365 N 
ATOM     37  O   UNL     1       9.215   9.100  18.791  1.00  0.00    -0.269 OA
ATOM     38  H   UNL     1      10.353   6.815  18.408  1.00  0.00     0.159 HD
ATOM     39  H   UNL     1      11.843   7.514  17.682  1.00  0.00     0.159 HD
ENDBRANCH  16  35
TORSDOF 7
ENDMDL
MODEL 11
REMARK VINA RESULT:    -6.911      2.580      7.426
REMARK INTER + INTRA:          -9.647
REMARK INTER:                  -9.149
REMARK INTRA:                  -0.498
REMARK UNBOUND:                -0.716
REMARK SMILES CN(C)c1ccc(O)c2c1C[C@H]1C[C@H]3[C@H](N(C)C)C(O)=C(C(N)=O)C(=O)[C@@]3(O)C(O)=C1C2=O
REMARK SMILES IDX 12 1 11 2 10 3 9 4 7 5 6 6 5 7 4 8 32 9 33 10 31 11 29 12
REMARK SMILES IDX 27 13 25 14 26 15 21 16 19 17 15 18 14 19 13 20 30 21 2 23
REMARK SMILES IDX 1 24 3 25 28 26 16 28 17 29 18 30 8 31 20 33 22 35 23 36
REMARK SMILES IDX 24 37
REMARK H PARENT 30 22 28 27 8 32 20 34 23 38 23 39
REMARK Flexibility Score: inf
ROOT
ATOM      1  C   UNL     1      11.797  12.742  16.069  1.00  0.00     0.032 C 
ATOM      2  C   UNL     1      11.677  11.211  16.150  1.00  0.00     0.047 C 
ATOM      3  C   UNL     1      10.936  10.774  17.395  1.00  0.00    -0.009 A 
ATOM      4  C   UNL     1       9.933  11.607  17.958  1.00  0.00     0.069 A 
ATOM      5  C   UNL     1       9.317  11.209  19.178  1.00  0.00     0.127 A 
ATOM      6  C   UNL     1       9.600   9.953  19.721  1.00  0.00     0.049 A 
ATOM      7  C   UNL     1      10.527   9.109  19.120  1.00  0.00     0.030 A 
ATOM      8  C   UNL     1      11.204   9.510  17.967  1.00  0.00     0.040 A 
ATOM      9  C   UNL     1       9.546  12.851  17.224  1.00  0.00     0.196 C 
ATOM     10  O   UNL     1       8.500  13.472  17.547  1.00  0.00    -0.289 OA
ATOM     11  C   UNL     1      10.412  13.355  16.116  1.00  0.00     0.045 C 
ATOM     12  C   UNL     1      10.043  14.368  15.279  1.00  0.00     0.140 C 
ATOM     13  C   UNL     1      11.022  15.061  14.326  1.00  0.00     0.190 C 
ATOM     14  C   UNL     1      10.635  14.736  12.892  1.00  0.00     0.211 C 
ATOM     15  O   UNL     1       9.430  14.865  12.539  1.00  0.00    -0.290 OA
ATOM     16  C   UNL     1      11.645  14.353  11.870  1.00  0.00     0.125 C 
ATOM     17  C   UNL     1      12.965  14.463  12.148  1.00  0.00     0.126 C 
ATOM     18  C   UNL     1      13.437  15.114  13.436  1.00  0.00     0.130 C 
ATOM     19  C   UNL     1      12.501  14.656  14.597  1.00  0.00     0.062 C 
ATOM     20  C   UNL     1      12.595  13.138  14.821  1.00  0.00     0.018 C 
ENDROOT
BRANCH  12  21
ATOM     21  O   UNL     1       8.722  14.826  15.219  1.00  0.00    -0.508 OA
ATOM     22  H   UNL     1       7.931  14.307  15.574  1.00  0.00     0.293 HD
ENDBRANCH  12  21
BRANCH   8  23
ATOM     23  N   UNL     1      12.162   8.618  17.379  1.00  0.00    -0.377 N 
ATOM     24  C   UNL     1      13.546   8.638  17.846  1.00  0.00     0.143 C 
ATOM     25  C   UNL     1      11.687   7.518  16.540  1.00  0.00     0.143 C 
ENDBRANCH   8  23
BRANCH  13  26
ATOM     26  O   UNL     1      10.887  16.454  14.484  1.00  0.00    -0.374 OA
ATOM     27  H   UNL     1      10.882  16.654  15.457  1.00  0.00     0.212 HD
ENDBRANCH  13  26
BRANCH  18  28
ATOM     28  N   UNL     1      13.489  16.604  13.307  1.00  0.00    -0.299 NA
ATOM     29  C   UNL     1      14.066  17.023  12.012  1.00  0.00     0.105 C 
ATOM     30  C   UNL     1      14.295  17.210  14.388  1.00  0.00     0.105 C 
ENDBRANCH  18  28
BRANCH   5  31
ATOM     31  O   UNL     1       8.453  12.030  19.906  1.00  0.00    -0.507 OA
ATOM     32  H   UNL     1       7.681  11.687  20.457  1.00  0.00     0.293 HD
ENDBRANCH   5  31
BRANCH  17  33
ATOM     33  O   UNL     1      13.950  13.987  11.275  1.00  0.00    -0.510 OA
ATOM     34  H   UNL     1      14.163  13.007  11.149  1.00  0.00     0.293 HD
ENDBRANCH  17  33
BRANCH  16  35
ATOM     35  C   UNL     1      11.171  13.846  10.562  1.00  0.00     0.255 C 
ATOM     36  N   UNL     1      11.497  14.538   9.356  1.00  0.00    -0.365 N 
ATOM     37  O   UNL     1      10.498  12.782  10.504  1.00  0.00    -0.269 OA
ATOM     38  H   UNL     1      11.193  14.156   8.432  1.00  0.00     0.159 HD
ATOM     39  H   UNL     1      12.012  15.446   9.380  1.00  0.00     0.159 HD
ENDBRANCH  16  35
TORSDOF 7
ENDMDL
MODEL 12
REMARK VINA RESULT:    -6.865      4.612      7.615
REMARK INTER + INTRA:          -9.588
REMARK INTER:                  -8.836
REMARK INTRA:                  -0.753
REMARK UNBOUND:                -0.716
REMARK SMILES CN(C)c1ccc(O)c2c1C[C@H]1C[C@H]3[C@H](N(C)C)C(O)=C(C(N)=O)C(=O)[C@@]3(O)C(O)=C1C2=O
REMARK SMILES IDX 12 1 11 2 10 3 9 4 7 5 6 6 5 7 4 8 32 9 33 10 31 11 29 12
REMARK SMILES IDX 27 13 25 14 26 15 21 16 19 17 15 18 14 19 13 20 30 21 2 23
REMARK SMILES IDX 1 24 3 25 28 26 16 28 17 29 18 30 8 31 20 33 22 35 23 36
REMARK SMILES IDX 24 37
REMARK H PARENT 30 22 28 27 8 32 20 34 23 38 23 39
REMARK Flexibility Score: inf
ROOT
ATOM      1  C   UNL     1      17.062  12.827  17.830  1.00  0.00     0.032 C 
ATOM      2  C   UNL     1      18.435  12.805  18.522  1.00  0.00     0.047 C 
ATOM      3  C   UNL     1      19.346  13.890  17.991  1.00  0.00    -0.009 A 
ATOM      4  C   UNL     1      18.799  15.110  17.512  1.00  0.00     0.069 A 
ATOM      5  C   UNL     1      19.674  16.074  16.937  1.00  0.00     0.127 A 
ATOM      6  C   UNL     1      21.055  15.872  16.982  1.00  0.00     0.049 A 
ATOM      7  C   UNL     1      21.588  14.707  17.524  1.00  0.00     0.030 A 
ATOM      8  C   UNL     1      20.747  13.711  18.022  1.00  0.00     0.040 A 
ATOM      9  C   UNL     1      17.329  15.340  17.665  1.00  0.00     0.196 C 
ATOM     10  O   UNL     1      16.851  16.491  17.494  1.00  0.00    -0.289 OA
ATOM     11  C   UNL     1      16.433  14.195  18.009  1.00  0.00     0.045 C 
ATOM     12  C   UNL     1      15.120  14.347  18.346  1.00  0.00     0.140 C 
ATOM     13  C   UNL     1      14.141  13.172  18.435  1.00  0.00     0.190 C 
ATOM     14  C   UNL     1      13.719  12.985  19.885  1.00  0.00     0.211 C 
ATOM     15  O   UNL     1      13.342  13.992  20.546  1.00  0.00    -0.290 OA
ATOM     16  C   UNL     1      13.655  11.643  20.521  1.00  0.00     0.125 C 
ATOM     17  C   UNL     1      13.795  10.528  19.766  1.00  0.00     0.126 C 
ATOM     18  C   UNL     1      13.869  10.618  18.252  1.00  0.00     0.130 C 
ATOM     19  C   UNL     1      14.743  11.852  17.869  1.00  0.00     0.062 C 
ATOM     20  C   UNL     1      16.190  11.683  18.362  1.00  0.00     0.018 C 
ENDROOT
BRANCH  12  21
ATOM     21  O   UNL     1      14.583  15.600  18.660  1.00  0.00    -0.508 OA
ATOM     22  H   UNL     1      15.072  16.473  18.516  1.00  0.00     0.293 HD
ENDBRANCH  12  21
BRANCH   8  23
ATOM     23  N   UNL     1      21.329  12.517  18.564  1.00  0.00    -0.377 N 
ATOM     24  C   UNL     1      21.807  11.473  17.660  1.00  0.00     0.143 C 
ATOM     25  C   UNL     1      21.700  12.487  19.979  1.00  0.00     0.143 C 
ENDBRANCH   8  23
BRANCH  13  26
ATOM     26  O   UNL     1      12.981  13.501  17.707  1.00  0.00    -0.374 OA
ATOM     27  H   UNL     1      12.278  12.836  17.931  1.00  0.00     0.212 HD
ENDBRANCH  13  26
BRANCH  18  28
ATOM     28  N   UNL     1      12.504  10.682  17.643  1.00  0.00    -0.299 NA
ATOM     29  C   UNL     1      11.592   9.679  18.231  1.00  0.00     0.105 C 
ATOM     30  C   UNL     1      12.555  10.457  16.183  1.00  0.00     0.105 C 
ENDBRANCH  18  28
BRANCH   5  31
ATOM     31  O   UNL     1      19.227  17.222  16.280  1.00  0.00    -0.507 OA
ATOM     32  H   UNL     1      18.396  17.734  16.541  1.00  0.00     0.293 HD
ENDBRANCH   5  31
BRANCH  17  33
ATOM     33  O   UNL     1      13.881   9.252  20.335  1.00  0.00    -0.510 OA
ATOM     34  H   UNL     1      14.379   8.481  19.912  1.00  0.00     0.293 HD
ENDBRANCH  17  33
BRANCH  16  35
ATOM     35  C   UNL     1      13.445  11.563  21.984  1.00  0.00     0.255 C 
ATOM     36  N   UNL     1      14.155  12.432  22.867  1.00  0.00    -0.365 N 
ATOM     37  O   UNL     1      12.615  10.741  22.459  1.00  0.00    -0.269 OA
ATOM     38  H   UNL     1      13.975  12.399  23.896  1.00  0.00     0.159 HD
ATOM     39  H   UNL     1      14.882  13.088  22.504  1.00  0.00     0.159 HD
ENDBRANCH  16  35
TORSDOF 7
ENDMDL
MODEL 13
REMARK VINA RESULT:    -6.861      3.545      4.951
REMARK INTER + INTRA:          -9.583
REMARK INTER:                  -8.867
REMARK INTRA:                  -0.716
REMARK UNBOUND:                -0.716
REMARK SMILES CN(C)c1ccc(O)c2c1C[C@H]1C[C@H]3[C@H](N(C)C)C(O)=C(C(N)=O)C(=O)[C@@]3(O)C(O)=C1C2=O
REMARK SMILES IDX 12 1 11 2 10 3 9 4 7 5 6 6 5 7 4 8 32 9 33 10 31 11 29 12
REMARK SMILES IDX 27 13 25 14 26 15 21 16 19 17 15 18 14 19 13 20 30 21 2 23
REMARK SMILES IDX 1 24 3 25 28 26 16 28 17 29 18 30 8 31 20 33 22 35 23 36
REMARK SMILES IDX 24 37
REMARK H PARENT 30 22 28 27 8 32 20 34 23 38 23 39
REMARK Flexibility Score: inf
ROOT
ATOM      1  C   UNL     1      13.786  13.279  16.534  1.00  0.00     0.032 C 
ATOM      2  C   UNL     1      14.232  14.639  17.096  1.00  0.00     0.047 C 
ATOM      3  C   UNL     1      14.797  15.533  16.014  1.00  0.00    -0.009 A 
ATOM      4  C   UNL     1      14.324  15.424  14.679  1.00  0.00     0.069 A 
ATOM      5  C   UNL     1      14.938  16.216  13.668  1.00  0.00     0.127 A 
ATOM      6  C   UNL     1      15.884  17.181  14.022  1.00  0.00     0.049 A 
ATOM      7  C   UNL     1      16.285  17.335  15.344  1.00  0.00     0.030 A 
ATOM      8  C   UNL     1      15.757  16.516  16.343  1.00  0.00     0.040 A 
ATOM      9  C   UNL     1      13.179  14.503  14.402  1.00  0.00     0.196 C 
ATOM     10  O   UNL     1      12.570  14.569  13.303  1.00  0.00    -0.289 OA
ATOM     11  C   UNL     1      12.770  13.501  15.432  1.00  0.00     0.045 C 
ATOM     12  C   UNL     1      11.631  12.755  15.340  1.00  0.00     0.140 C 
ATOM     13  C   UNL     1      11.348  11.550  16.243  1.00  0.00     0.190 C 
ATOM     14  C   UNL     1      10.172  11.874  17.150  1.00  0.00     0.211 C 
ATOM     15  O   UNL     1       9.126  12.365  16.643  1.00  0.00    -0.290 OA
ATOM     16  C   UNL     1      10.183  11.551  18.602  1.00  0.00     0.125 C 
ATOM     17  C   UNL     1      11.174  10.789  19.119  1.00  0.00     0.126 C 
ATOM     18  C   UNL     1      12.201  10.130  18.214  1.00  0.00     0.130 C 
ATOM     19  C   UNL     1      12.590  11.136  17.087  1.00  0.00     0.062 C 
ATOM     20  C   UNL     1      13.268  12.388  17.669  1.00  0.00     0.018 C 
ENDROOT
BRANCH  12  21
ATOM     21  O   UNL     1      10.625  13.062  14.418  1.00  0.00    -0.508 OA
ATOM     22  H   UNL     1       9.643  13.113  14.654  1.00  0.00     0.293 HD
ENDBRANCH  12  21
BRANCH   8  23
ATOM     23  N   UNL     1      16.201  16.695  17.696  1.00  0.00    -0.377 N 
ATOM     24  C   UNL     1      17.442  16.062  18.137  1.00  0.00     0.143 C 
ATOM     25  C   UNL     1      15.573  17.729  18.518  1.00  0.00     0.143 C 
ENDBRANCH   8  23
BRANCH  13  26
ATOM     26  O   UNL     1      10.958  10.466  15.433  1.00  0.00    -0.374 OA
ATOM     27  H   UNL     1      10.085  10.691  15.017  1.00  0.00     0.212 HD
ENDBRANCH  13  26
BRANCH  18  28
ATOM     28  N   UNL     1      11.691   8.836  17.664  1.00  0.00    -0.299 NA
ATOM     29  C   UNL     1      11.251   7.918  18.737  1.00  0.00     0.105 C 
ATOM     30  C   UNL     1      12.726   8.146  16.865  1.00  0.00     0.105 C 
ENDBRANCH  18  28
BRANCH   5  31
ATOM     31  O   UNL     1      14.675  16.061  12.306  1.00  0.00    -0.507 OA
ATOM     32  H   UNL     1      13.749  15.945  11.920  1.00  0.00     0.293 HD
ENDBRANCH   5  31
BRANCH  17  33
ATOM     33  O   UNL     1      11.305  10.574  20.496  1.00  0.00    -0.510 OA
ATOM     34  H   UNL     1      12.190  10.578  20.983  1.00  0.00     0.293 HD
ENDBRANCH  17  33
BRANCH  16  35
ATOM     35  C   UNL     1       9.097  12.088  19.455  1.00  0.00     0.255 C 
ATOM     36  N   UNL     1       8.682  13.448  19.328  1.00  0.00    -0.365 N 
ATOM     37  O   UNL     1       8.513  11.336  20.281  1.00  0.00    -0.269 OA
ATOM     38  H   UNL     1       7.890  13.812  19.905  1.00  0.00     0.159 HD
ATOM     39  H   UNL     1       9.181  14.105  18.686  1.00  0.00     0.159 HD
ENDBRANCH  16  35
TORSDOF 7
ENDMDL
MODEL 14
REMARK VINA RESULT:    -6.847      4.317      7.249
REMARK INTER + INTRA:          -9.565
REMARK INTER:                  -8.825
REMARK INTRA:                  -0.740
REMARK UNBOUND:                -0.716
REMARK SMILES CN(C)c1ccc(O)c2c1C[C@H]1C[C@H]3[C@H](N(C)C)C(O)=C(C(N)=O)C(=O)[C@@]3(O)C(O)=C1C2=O
REMARK SMILES IDX 12 1 11 2 10 3 9 4 7 5 6 6 5 7 4 8 32 9 33 10 31 11 29 12
REMARK SMILES IDX 27 13 25 14 26 15 21 16 19 17 15 18 14 19 13 20 30 21 2 23
REMARK SMILES IDX 1 24 3 25 28 26 16 28 17 29 18 30 8 31 20 33 22 35 23 36
REMARK SMILES IDX 24 37
REMARK H PARENT 30 22 28 27 8 32 20 34 23 38 23 39
REMARK Flexibility Score: inf
ROOT
ATOM      1  C   UNL     1      15.153  12.879  18.263  1.00  0.00     0.032 C 
ATOM      2  C   UNL     1      14.799  11.559  17.559  1.00  0.00     0.047 C 
ATOM      3  C   UNL     1      13.474  11.649  16.835  1.00  0.00    -0.009 A 
ATOM      4  C   UNL     1      13.033  12.891  16.304  1.00  0.00     0.069 A 
ATOM      5  C   UNL     1      11.743  12.962  15.708  1.00  0.00     0.127 A 
ATOM      6  C   UNL     1      10.997  11.795  15.526  1.00  0.00     0.049 A 
ATOM      7  C   UNL     1      11.470  10.569  15.979  1.00  0.00     0.030 A 
ATOM      8  C   UNL     1      12.697  10.485  16.640  1.00  0.00     0.040 A 
ATOM      9  C   UNL     1      13.962  14.061  16.367  1.00  0.00     0.196 C 
ATOM     10  O   UNL     1      13.720  15.094  15.689  1.00  0.00    -0.289 OA
ATOM     11  C   UNL     1      15.169  14.001  17.245  1.00  0.00     0.045 C 
ATOM     12  C   UNL     1      16.159  14.940  17.222  1.00  0.00     0.140 C 
ATOM     13  C   UNL     1      17.250  15.028  18.294  1.00  0.00     0.190 C 
ATOM     14  C   UNL     1      18.591  14.680  17.668  1.00  0.00     0.211 C 
ATOM     15  O   UNL     1      18.922  15.232  16.583  1.00  0.00    -0.290 OA
ATOM     16  C   UNL     1      19.562  13.773  18.337  1.00  0.00     0.125 C 
ATOM     17  C   UNL     1      19.351  13.378  19.614  1.00  0.00     0.126 C 
ATOM     18  C   UNL     1      18.214  13.965  20.432  1.00  0.00     0.130 C 
ATOM     19  C   UNL     1      16.960  14.103  19.513  1.00  0.00     0.062 C 
ATOM     20  C   UNL     1      16.476  12.728  19.024  1.00  0.00     0.018 C 
ENDROOT
BRANCH  12  21
ATOM     21  O   UNL     1      16.255  15.881  16.190  1.00  0.00    -0.508 OA
ATOM     22  H   UNL     1      15.509  16.513  15.935  1.00  0.00     0.293 HD
ENDBRANCH  12  21
BRANCH   8  23
ATOM     23  N   UNL     1      13.150   9.206  17.104  1.00  0.00    -0.377 N 
ATOM     24  C   UNL     1      12.652   8.683  18.374  1.00  0.00     0.143 C 
ATOM     25  C   UNL     1      13.864   8.326  16.179  1.00  0.00     0.143 C 
ENDBRANCH   8  23
BRANCH  13  26
ATOM     26  O   UNL     1      17.335  16.362  18.736  1.00  0.00    -0.374 OA
ATOM     27  H   UNL     1      17.891  16.379  19.559  1.00  0.00     0.212 HD
ENDBRANCH  13  26
BRANCH  18  28
ATOM     28  N   UNL     1      18.605  15.268  21.053  1.00  0.00    -0.299 NA
ATOM     29  C   UNL     1      19.944  15.201  21.676  1.00  0.00     0.105 C 
ATOM     30  C   UNL     1      17.635  15.683  22.089  1.00  0.00     0.105 C 
ENDBRANCH  18  28
BRANCH   5  31
ATOM     31  O   UNL     1      11.143  14.160  15.315  1.00  0.00    -0.507 OA
ATOM     32  H   UNL     1      10.622  14.760  15.938  1.00  0.00     0.293 HD
ENDBRANCH   5  31
BRANCH  17  33
ATOM     33  O   UNL     1      20.159  12.421  20.239  1.00  0.00    -0.510 OA
ATOM     34  H   UNL     1      20.509  11.594  19.775  1.00  0.00     0.293 HD
ENDBRANCH  17  33
BRANCH  16  35
ATOM     35  C   UNL     1      20.745  13.314  17.573  1.00  0.00     0.255 C 
ATOM     36  N   UNL     1      21.606  14.258  16.936  1.00  0.00    -0.365 N 
ATOM     37  O   UNL     1      21.013  12.085  17.503  1.00  0.00    -0.269 OA
ATOM     38  H   UNL     1      22.461  13.933  16.430  1.00  0.00     0.159 HD
ATOM     39  H   UNL     1      21.380  15.278  16.938  1.00  0.00     0.159 HD
ENDBRANCH  16  35
TORSDOF 7
ENDMDL
MODEL 15
REMARK VINA RESULT:    -6.807      3.539      8.025
REMARK INTER + INTRA:          -9.513
REMARK INTER:                  -8.790
REMARK INTRA:                  -0.723
REMARK UNBOUND:                -0.716
REMARK SMILES CN(C)c1ccc(O)c2c1C[C@H]1C[C@H]3[C@H](N(C)C)C(O)=C(C(N)=O)C(=O)[C@@]3(O)C(O)=C1C2=O
REMARK SMILES IDX 12 1 11 2 10 3 9 4 7 5 6 6 5 7 4 8 32 9 33 10 31 11 29 12
REMARK SMILES IDX 27 13 25 14 26 15 21 16 19 17 15 18 14 19 13 20 30 21 2 23
REMARK SMILES IDX 1 24 3 25 28 26 16 28 17 29 18 30 8 31 20 33 22 35 23 36
REMARK SMILES IDX 24 37
REMARK H PARENT 30 22 28 27 8 32 20 34 23 38 23 39
REMARK Flexibility Score: inf
ROOT
ATOM      1  C   UNL     1      14.543  13.335  19.824  1.00  0.00     0.032 C 
ATOM      2  C   UNL     1      16.075  13.196  19.854  1.00  0.00     0.047 C 
ATOM      3  C   UNL     1      16.634  13.480  21.231  1.00  0.00    -0.009 A 
ATOM      4  C   UNL     1      15.860  13.197  22.389  1.00  0.00     0.069 A 
ATOM      5  C   UNL     1      16.379  13.557  23.664  1.00  0.00     0.127 A 
ATOM      6  C   UNL     1      17.683  14.046  23.770  1.00  0.00     0.049 A 
ATOM      7  C   UNL     1      18.463  14.247  22.638  1.00  0.00     0.030 A 
ATOM      8  C   UNL     1      17.949  13.977  21.368  1.00  0.00     0.040 A 
ATOM      9  C   UNL     1      14.548  12.501  22.215  1.00  0.00     0.196 C 
ATOM     10  O   UNL     1      13.961  12.007  23.212  1.00  0.00    -0.289 OA
ATOM     11  C   UNL     1      13.936  12.406  20.855  1.00  0.00     0.045 C 
ATOM     12  C   UNL     1      12.844  11.636  20.578  1.00  0.00     0.140 C 
ATOM     13  C   UNL     1      12.059  11.743  19.267  1.00  0.00     0.190 C 
ATOM     14  C   UNL     1      12.238  10.457  18.474  1.00  0.00     0.211 C 
ATOM     15  O   UNL     1      12.072   9.351  19.058  1.00  0.00    -0.290 OA
ATOM     16  C   UNL     1      12.517  10.463  17.013  1.00  0.00     0.125 C 
ATOM     17  C   UNL     1      12.437  11.619  16.314  1.00  0.00     0.126 C 
ATOM     18  C   UNL     1      11.920  12.889  16.966  1.00  0.00     0.130 C 
ATOM     19  C   UNL     1      12.491  12.973  18.415  1.00  0.00     0.062 C 
ATOM     20  C   UNL     1      14.024  13.088  18.402  1.00  0.00     0.018 C 
ENDROOT
BRANCH  12  21
ATOM     21  O   UNL     1      12.380  10.669  21.477  1.00  0.00    -0.508 OA
ATOM     22  H   UNL     1      11.885   9.833  21.197  1.00  0.00     0.293 HD
ENDBRANCH  12  21
BRANCH   8  23
ATOM     23  N   UNL     1      18.778  14.207  20.220  1.00  0.00    -0.377 N 
ATOM     24  C   UNL     1      18.833  15.541  19.626  1.00  0.00     0.143 C 
ATOM     25  C   UNL     1      19.766  13.196  19.843  1.00  0.00     0.143 C 
ENDBRANCH   8  23
BRANCH  13  26
ATOM     26  O   UNL     1      10.689  11.851  19.574  1.00  0.00    -0.374 OA
ATOM     27  H   UNL     1      10.218  11.083  19.156  1.00  0.00     0.212 HD
ENDBRANCH  13  26
BRANCH  18  28
ATOM     28  N   UNL     1      10.425  12.943  16.945  1.00  0.00    -0.299 NA
ATOM     29  C   UNL     1       9.889  12.798  15.574  1.00  0.00     0.105 C 
ATOM     30  C   UNL     1       9.924  14.217  17.502  1.00  0.00     0.105 C 
ENDBRANCH  18  28
BRANCH   5  31
ATOM     31  O   UNL     1      15.634  13.487  24.843  1.00  0.00    -0.507 OA
ATOM     32  H   UNL     1      16.038  13.516  25.768  1.00  0.00     0.293 HD
ENDBRANCH   5  31
BRANCH  17  33
ATOM     33  O   UNL     1      12.824  11.702  14.971  1.00  0.00    -0.510 OA
ATOM     34  H   UNL     1      12.340  11.233  14.218  1.00  0.00     0.293 HD
ENDBRANCH  17  33
BRANCH  16  35
ATOM     35  C   UNL     1      12.889   9.189  16.359  1.00  0.00     0.255 C 
ATOM     36  N   UNL     1      13.963   8.398  16.869  1.00  0.00    -0.365 N 
ATOM     37  O   UNL     1      12.239   8.779  15.359  1.00  0.00    -0.269 OA
ATOM     38  H   UNL     1      14.197   7.481  16.427  1.00  0.00     0.159 HD
ATOM     39  H   UNL     1      14.548   8.737  17.665  1.00  0.00     0.159 HD
ENDBRANCH  16  35
TORSDOF 7
ENDMDL
