MODEL 1
REMARK VINA RESULT:    -9.335      0.000      0.000
REMARK INTER + INTRA:         -13.959
REMARK INTER:                 -13.155
REMARK INTRA:                  -0.805
REMARK UNBOUND:                -0.805
REMARK SMILES CC(C)OC(=O)C(C)(C)Oc1ccc(C(=O)c2ccc(Cl)cc2)cc1
REMARK SMILES IDX 7 1 8 2 9 3 5 4 6 5 4 6 2 7 1 8 3 9 10 10 11 11 12 12 25 13
REMARK SMILES IDX 13 14 24 15 14 16 15 17 16 18 17 19 18 20 23 21 19 22 22 23
REMARK SMILES IDX 20 24 21 25
REMARK H PARENT
REMARK Flexibility Score: inf
ROOT
ATOM      1  C   UNL     1       8.178  75.094  -1.602  1.00  0.00     0.200 C 
ATOM      2  C   UNL     1       6.689  74.704  -1.592  1.00  0.00     0.069 C 
ATOM      3  C   UNL     1       8.605  75.596  -0.211  1.00  0.00     0.069 C 
ENDROOT
BRANCH   1   4
ATOM      4  C   UNL     1       8.997  73.876  -1.951  1.00  0.00     0.350 C 
ATOM      5  O   UNL     1       9.921  73.491  -1.181  1.00  0.00    -0.247 OA
BRANCH   4   6
ATOM      6  O   UNL     1       8.718  73.172  -3.129  1.00  0.00    -0.460 OA
BRANCH   6   7
ATOM      7  C   UNL     1       9.715  72.514  -3.912  1.00  0.00     0.170 C 
ATOM      8  C   UNL     1       9.879  71.085  -3.401  1.00  0.00     0.052 C 
ATOM      9  C   UNL     1       9.311  72.513  -5.389  1.00  0.00     0.052 C 
ENDBRANCH   6   7
ENDBRANCH   4   6
ENDBRANCH   1   4
BRANCH   1  10
ATOM     10  O   UNL     1       8.418  76.109  -2.590  1.00  0.00    -0.476 OA
BRANCH  10  11
ATOM     11  C   UNL     1       9.450  77.050  -2.517  1.00  0.00     0.121 A 
ATOM     12  C   UNL     1      10.748  76.704  -2.909  1.00  0.00     0.047 A 
ATOM     13  C   UNL     1       9.196  78.333  -2.019  1.00  0.00     0.047 A 
ATOM     14  C   UNL     1      11.782  77.641  -2.826  1.00  0.00     0.016 A 
ATOM     15  C   UNL     1      10.228  79.272  -1.933  1.00  0.00     0.016 A 
ATOM     16  C   UNL     1      11.535  78.933  -2.326  1.00  0.00     0.023 A 
BRANCH  16  17
ATOM     17  C   UNL     1      12.618  79.942  -2.249  1.00  0.00     0.193 C 
ATOM     18  O   UNL     1      12.736  80.627  -1.196  1.00  0.00    -0.289 OA
BRANCH  17  19
ATOM     19  C   UNL     1      13.566  80.177  -3.364  1.00  0.00     0.023 A 
ATOM     20  C   UNL     1      13.109  80.598  -4.627  1.00  0.00     0.014 A 
ATOM     21  C   UNL     1      14.939  79.936  -3.182  1.00  0.00     0.014 A 
ATOM     22  C   UNL     1      14.013  80.798  -5.675  1.00  0.00     0.021 A 
ATOM     23  C   UNL     1      15.839  80.137  -4.233  1.00  0.00     0.021 A 
ATOM     24  C   UNL     1      15.378  80.571  -5.479  1.00  0.00     0.041 A 
ATOM     25  Cl  UNL     1      16.509  80.822  -6.796  1.00  0.00    -0.084 Cl
ENDBRANCH  17  19
ENDBRANCH  16  17
ENDBRANCH  10  11
ENDBRANCH   1  10
TORSDOF 7
ENDMDL
MODEL 2
REMARK VINA RESULT:    -9.326      0.095      1.373
REMARK INTER + INTRA:         -13.946
REMARK INTER:                 -13.119
REMARK INTRA:                  -0.827
REMARK UNBOUND:                -0.805
REMARK SMILES CC(C)OC(=O)C(C)(C)Oc1ccc(C(=O)c2ccc(Cl)cc2)cc1
REMARK SMILES IDX 7 1 8 2 9 3 5 4 6 5 4 6 2 7 1 8 3 9 10 10 11 11 12 12 25 13
REMARK SMILES IDX 13 14 24 15 14 16 15 17 16 18 17 19 18 20 23 21 19 22 22 23
REMARK SMILES IDX 20 24 21 25
REMARK H PARENT
REMARK Flexibility Score: inf
ROOT
ATOM      1  C   UNL     1       8.102  75.097  -1.530  1.00  0.00     0.200 C 
ATOM      2  C   UNL     1       6.628  74.656  -1.559  1.00  0.00     0.069 C 
ATOM      3  C   UNL     1       8.480  75.592  -0.122  1.00  0.00     0.069 C 
ENDROOT
BRANCH   1   4
ATOM      4  C   UNL     1       8.969  73.913  -1.877  1.00  0.00     0.350 C 
ATOM      5  O   UNL     1       9.911  73.569  -1.109  1.00  0.00    -0.247 OA
BRANCH   4   6
ATOM      6  O   UNL     1       8.718  73.195  -3.053  1.00  0.00    -0.460 OA
BRANCH   6   7
ATOM      7  C   UNL     1       9.732  72.527  -3.804  1.00  0.00     0.170 C 
ATOM      8  C   UNL     1       9.840  71.085  -3.313  1.00  0.00     0.052 C 
ATOM      9  C   UNL     1       9.393  72.561  -5.297  1.00  0.00     0.052 C 
ENDBRANCH   6   7
ENDBRANCH   4   6
ENDBRANCH   1   4
BRANCH   1  10
ATOM     10  O   UNL     1       8.329  76.134  -2.498  1.00  0.00    -0.476 OA
BRANCH  10  11
ATOM     11  C   UNL     1       9.369  77.067  -2.422  1.00  0.00     0.121 A 
ATOM     12  C   UNL     1       9.131  78.345  -1.905  1.00  0.00     0.047 A 
ATOM     13  C   UNL     1      10.644  76.737  -2.894  1.00  0.00     0.047 A 
ATOM     14  C   UNL     1      10.167  79.281  -1.839  1.00  0.00     0.016 A 
ATOM     15  C   UNL     1      11.681  77.671  -2.831  1.00  0.00     0.016 A 
ATOM     16  C   UNL     1      11.452  78.958  -2.312  1.00  0.00     0.023 A 
BRANCH  16  17
ATOM     17  C   UNL     1      12.564  79.935  -2.232  1.00  0.00     0.193 C 
ATOM     18  O   UNL     1      12.696  80.620  -1.181  1.00  0.00    -0.289 OA
BRANCH  17  19
ATOM     19  C   UNL     1      13.526  80.136  -3.341  1.00  0.00     0.023 A 
ATOM     20  C   UNL     1      14.908  79.950  -3.146  1.00  0.00     0.014 A 
ATOM     21  C   UNL     1      13.068  80.562  -4.601  1.00  0.00     0.014 A 
ATOM     22  C   UNL     1      15.805  80.160  -4.197  1.00  0.00     0.021 A 
ATOM     23  C   UNL     1      13.969  80.771  -5.649  1.00  0.00     0.021 A 
ATOM     24  C   UNL     1      15.338  80.568  -5.449  1.00  0.00     0.041 A 
ATOM     25  Cl  UNL     1      16.467  80.832  -6.766  1.00  0.00    -0.084 Cl
ENDBRANCH  17  19
ENDBRANCH  16  17
ENDBRANCH  10  11
ENDBRANCH   1  10
TORSDOF 7
ENDMDL
MODEL 3
REMARK VINA RESULT:    -8.881      2.802      5.295
REMARK INTER + INTRA:         -13.321
REMARK INTER:                 -12.334
REMARK INTRA:                  -0.986
REMARK UNBOUND:                -0.805
REMARK SMILES CC(C)OC(=O)C(C)(C)Oc1ccc(C(=O)c2ccc(Cl)cc2)cc1
REMARK SMILES IDX 7 1 8 2 9 3 5 4 6 5 4 6 2 7 1 8 3 9 10 10 11 11 12 12 25 13
REMARK SMILES IDX 13 14 24 15 14 16 15 17 16 18 17 19 18 20 23 21 19 22 22 23
REMARK SMILES IDX 20 24 21 25
REMARK H PARENT
REMARK Flexibility Score: inf
ROOT
ATOM      1  C   UNL     1      11.736  79.957  -1.495  1.00  0.00     0.200 C 
ATOM      2  C   UNL     1      10.598  80.809  -0.905  1.00  0.00     0.069 C 
ATOM      3  C   UNL     1      13.100  80.501  -1.034  1.00  0.00     0.069 C 
ENDROOT
BRANCH   1   4
ATOM      4  C   UNL     1      11.586  78.539  -1.002  1.00  0.00     0.350 C 
ATOM      5  O   UNL     1      12.582  77.925  -0.527  1.00  0.00    -0.247 OA
BRANCH   4   6
ATOM      6  O   UNL     1      10.335  77.914  -1.067  1.00  0.00    -0.460 OA
BRANCH   6   7
ATOM      7  C   UNL     1       9.718  77.506  -2.288  1.00  0.00     0.170 C 
ATOM      8  C   UNL     1       9.851  75.991  -2.425  1.00  0.00     0.052 C 
ATOM      9  C   UNL     1       8.243  77.918  -2.299  1.00  0.00     0.052 C 
ENDBRANCH   6   7
ENDBRANCH   4   6
ENDBRANCH   1   4
BRANCH   1  10
ATOM     10  O   UNL     1      11.662  79.956  -2.930  1.00  0.00    -0.476 OA
BRANCH  10  11
ATOM     11  C   UNL     1      12.753  79.723  -3.773  1.00  0.00     0.121 A 
ATOM     12  C   UNL     1      13.359  80.788  -4.450  1.00  0.00     0.047 A 
ATOM     13  C   UNL     1      13.223  78.420  -3.971  1.00  0.00     0.047 A 
ATOM     14  C   UNL     1      14.442  80.556  -5.302  1.00  0.00     0.016 A 
ATOM     15  C   UNL     1      14.305  78.185  -4.823  1.00  0.00     0.016 A 
ATOM     16  C   UNL     1      14.920  79.249  -5.506  1.00  0.00     0.023 A 
BRANCH  16  17
ATOM     17  C   UNL     1      16.080  78.990  -6.393  1.00  0.00     0.193 C 
ATOM     18  O   UNL     1      16.187  77.858  -6.938  1.00  0.00    -0.289 OA
BRANCH  17  19
ATOM     19  C   UNL     1      17.119  80.012  -6.661  1.00  0.00     0.023 A 
ATOM     20  C   UNL     1      17.162  80.698  -7.890  1.00  0.00     0.014 A 
ATOM     21  C   UNL     1      18.108  80.279  -5.698  1.00  0.00     0.014 A 
ATOM     22  C   UNL     1      18.158  81.647  -8.136  1.00  0.00     0.021 A 
ATOM     23  C   UNL     1      19.103  81.229  -5.948  1.00  0.00     0.021 A 
ATOM     24  C   UNL     1      19.128  81.916  -7.166  1.00  0.00     0.041 A 
ATOM     25  Cl  UNL     1      20.377  83.108  -7.477  1.00  0.00    -0.084 Cl
ENDBRANCH  17  19
ENDBRANCH  16  17
ENDBRANCH  10  11
ENDBRANCH   1  10
TORSDOF 7
ENDMDL
MODEL 4
REMARK VINA RESULT:    -8.875      4.086      6.030
REMARK INTER + INTRA:         -13.312
REMARK INTER:                 -12.522
REMARK INTRA:                  -0.790
REMARK UNBOUND:                -0.805
REMARK SMILES CC(C)OC(=O)C(C)(C)Oc1ccc(C(=O)c2ccc(Cl)cc2)cc1
REMARK SMILES IDX 7 1 8 2 9 3 5 4 6 5 4 6 2 7 1 8 3 9 10 10 11 11 12 12 25 13
REMARK SMILES IDX 13 14 24 15 14 16 15 17 16 18 17 19 18 20 23 21 19 22 22 23
REMARK SMILES IDX 20 24 21 25
REMARK H PARENT
REMARK Flexibility Score: inf
ROOT
ATOM      1  C   UNL     1      11.878  79.674  -1.311  1.00  0.00     0.200 C 
ATOM      2  C   UNL     1      13.084  80.558  -0.944  1.00  0.00     0.069 C 
ATOM      3  C   UNL     1      12.077  78.250  -0.762  1.00  0.00     0.069 C 
ENDROOT
BRANCH   1   4
ATOM      4  C   UNL     1      10.637  80.265  -0.690  1.00  0.00     0.350 C 
ATOM      5  O   UNL     1      10.686  81.395  -0.127  1.00  0.00    -0.247 OA
BRANCH   4   6
ATOM      6  O   UNL     1       9.431  79.556  -0.749  1.00  0.00    -0.460 OA
BRANCH   6   7
ATOM      7  C   UNL     1       8.147  80.179  -0.739  1.00  0.00     0.170 C 
ATOM      8  C   UNL     1       7.712  80.437  -2.180  1.00  0.00     0.052 C 
ATOM      9  C   UNL     1       7.131  79.284  -0.024  1.00  0.00     0.052 C 
ENDBRANCH   6   7
ENDBRANCH   4   6
ENDBRANCH   1   4
BRANCH   1  10
ATOM     10  O   UNL     1      11.706  79.637  -2.737  1.00  0.00    -0.476 OA
BRANCH  10  11
ATOM     11  C   UNL     1      12.748  79.449  -3.651  1.00  0.00     0.121 A 
ATOM     12  C   UNL     1      13.259  78.167  -3.880  1.00  0.00     0.047 A 
ATOM     13  C   UNL     1      13.306  80.546  -4.316  1.00  0.00     0.047 A 
ATOM     14  C   UNL     1      14.308  77.978  -4.785  1.00  0.00     0.016 A 
ATOM     15  C   UNL     1      14.355  80.362  -5.220  1.00  0.00     0.016 A 
ATOM     16  C   UNL     1      14.875  79.077  -5.457  1.00  0.00     0.023 A 
BRANCH  16  17
ATOM     17  C   UNL     1      15.976  78.890  -6.433  1.00  0.00     0.193 C 
ATOM     18  O   UNL     1      15.995  77.842  -7.134  1.00  0.00    -0.289 OA
BRANCH  17  19
ATOM     19  C   UNL     1      17.055  79.890  -6.614  1.00  0.00     0.023 A 
ATOM     20  C   UNL     1      17.903  80.243  -5.548  1.00  0.00     0.014 A 
ATOM     21  C   UNL     1      17.214  80.536  -7.853  1.00  0.00     0.014 A 
ATOM     22  C   UNL     1      18.905  81.201  -5.729  1.00  0.00     0.021 A 
ATOM     23  C   UNL     1      18.217  81.494  -8.029  1.00  0.00     0.021 A 
ATOM     24  C   UNL     1      19.065  81.825  -6.969  1.00  0.00     0.041 A 
ATOM     25  Cl  UNL     1      20.323  83.028  -7.192  1.00  0.00    -0.084 Cl
ENDBRANCH  17  19
ENDBRANCH  16  17
ENDBRANCH  10  11
ENDBRANCH   1  10
TORSDOF 7
ENDMDL
MODEL 5
REMARK VINA RESULT:    -8.843      4.464      9.354
REMARK INTER + INTRA:         -13.267
REMARK INTER:                 -12.462
REMARK INTRA:                  -0.805
REMARK UNBOUND:                -0.805
REMARK SMILES CC(C)OC(=O)C(C)(C)Oc1ccc(C(=O)c2ccc(Cl)cc2)cc1
REMARK SMILES IDX 7 1 8 2 9 3 5 4 6 5 4 6 2 7 1 8 3 9 10 10 11 11 12 12 25 13
REMARK SMILES IDX 13 14 24 15 14 16 15 17 16 18 17 19 18 20 23 21 19 22 22 23
REMARK SMILES IDX 20 24 21 25
REMARK H PARENT
REMARK Flexibility Score: inf
ROOT
ATOM      1  C   UNL     1      17.223  79.752  -6.897  1.00  0.00     0.200 C 
ATOM      2  C   UNL     1      17.521  78.406  -7.581  1.00  0.00     0.069 C 
ATOM      3  C   UNL     1      17.752  79.742  -5.451  1.00  0.00     0.069 C 
ENDROOT
BRANCH   1   4
ATOM      4  C   UNL     1      17.921  80.849  -7.662  1.00  0.00     0.350 C 
ATOM      5  O   UNL     1      17.319  81.457  -8.591  1.00  0.00    -0.247 OA
BRANCH   4   6
ATOM      6  O   UNL     1      19.237  81.195  -7.327  1.00  0.00    -0.460 OA
BRANCH   6   7
ATOM      7  C   UNL     1      19.618  82.484  -6.848  1.00  0.00     0.170 C 
ATOM      8  C   UNL     1      20.219  82.333  -5.452  1.00  0.00     0.052 C 
ATOM      9  C   UNL     1      20.631  83.124  -7.801  1.00  0.00     0.052 C 
ENDBRANCH   6   7
ENDBRANCH   4   6
ENDBRANCH   1   4
BRANCH   1  10
ATOM     10  O   UNL     1      15.811  80.012  -6.906  1.00  0.00    -0.476 OA
BRANCH  10  11
ATOM     11  C   UNL     1      14.926  79.586  -5.910  1.00  0.00     0.121 A 
ATOM     12  C   UNL     1      14.696  78.220  -5.711  1.00  0.00     0.047 A 
ATOM     13  C   UNL     1      14.241  80.525  -5.130  1.00  0.00     0.047 A 
ATOM     14  C   UNL     1      13.804  77.793  -4.724  1.00  0.00     0.016 A 
ATOM     15  C   UNL     1      13.348  80.101  -4.142  1.00  0.00     0.016 A 
ATOM     16  C   UNL     1      13.111  78.730  -3.935  1.00  0.00     0.023 A 
BRANCH  16  17
ATOM     17  C   UNL     1      12.175  78.292  -2.871  1.00  0.00     0.193 C 
ATOM     18  O   UNL     1      11.375  77.348  -3.117  1.00  0.00    -0.289 OA
BRANCH  17  19
ATOM     19  C   UNL     1      12.146  78.922  -1.530  1.00  0.00     0.023 A 
ATOM     20  C   UNL     1      13.003  78.483  -0.504  1.00  0.00     0.014 A 
ATOM     21  C   UNL     1      11.222  79.946  -1.254  1.00  0.00     0.014 A 
ATOM     22  C   UNL     1      12.952  79.075   0.762  1.00  0.00     0.021 A 
ATOM     23  C   UNL     1      11.174  80.534   0.013  1.00  0.00     0.021 A 
ATOM     24  C   UNL     1      12.041  80.102   1.021  1.00  0.00     0.041 A 
ATOM     25  Cl  UNL     1      11.979  80.843   2.611  1.00  0.00    -0.084 Cl
ENDBRANCH  17  19
ENDBRANCH  16  17
ENDBRANCH  10  11
ENDBRANCH   1  10
TORSDOF 7
ENDMDL
MODEL 6
REMARK VINA RESULT:    -8.704      3.785      8.856
REMARK INTER + INTRA:         -13.071
REMARK INTER:                 -12.681
REMARK INTRA:                  -0.390
REMARK UNBOUND:                -0.805
REMARK SMILES CC(C)OC(=O)C(C)(C)Oc1ccc(C(=O)c2ccc(Cl)cc2)cc1
REMARK SMILES IDX 7 1 8 2 9 3 5 4 6 5 4 6 2 7 1 8 3 9 10 10 11 11 12 12 25 13
REMARK SMILES IDX 13 14 24 15 14 16 15 17 16 18 17 19 18 20 23 21 19 22 22 23
REMARK SMILES IDX 20 24 21 25
REMARK H PARENT
REMARK Flexibility Score: inf
ROOT
ATOM      1  C   UNL     1      16.229  80.034  -5.782  1.00  0.00     0.200 C 
ATOM      2  C   UNL     1      15.766  81.347  -6.438  1.00  0.00     0.069 C 
ATOM      3  C   UNL     1      15.395  78.853  -6.310  1.00  0.00     0.069 C 
ENDROOT
BRANCH   1   4
ATOM      4  C   UNL     1      17.678  79.802  -6.132  1.00  0.00     0.350 C 
ATOM      5  O   UNL     1      17.983  79.109  -7.143  1.00  0.00    -0.247 OA
BRANCH   4   6
ATOM      6  O   UNL     1      18.680  80.366  -5.333  1.00  0.00    -0.460 OA
BRANCH   6   7
ATOM      7  C   UNL     1      19.058  81.741  -5.393  1.00  0.00     0.170 C 
ATOM      8  C   UNL     1      20.285  81.955  -4.509  1.00  0.00     0.052 C 
ATOM      9  C   UNL     1      19.363  82.142  -6.840  1.00  0.00     0.052 C 
ENDBRANCH   6   7
ENDBRANCH   4   6
ENDBRANCH   1   4
BRANCH   1  10
ATOM     10  O   UNL     1      16.110  80.125  -4.353  1.00  0.00    -0.476 OA
BRANCH  10  11
ATOM     11  C   UNL     1      14.928  79.882  -3.645  1.00  0.00     0.121 A 
ATOM     12  C   UNL     1      13.693  80.252  -4.189  1.00  0.00     0.047 A 
ATOM     13  C   UNL     1      14.978  79.297  -2.375  1.00  0.00     0.047 A 
ATOM     14  C   UNL     1      12.513  80.020  -3.478  1.00  0.00     0.016 A 
ATOM     15  C   UNL     1      13.800  79.064  -1.661  1.00  0.00     0.016 A 
ATOM     16  C   UNL     1      12.554  79.433  -2.200  1.00  0.00     0.023 A 
BRANCH  16  17
ATOM     17  C   UNL     1      11.309  79.163  -1.441  1.00  0.00     0.193 C 
ATOM     18  O   UNL     1      11.138  79.736  -0.331  1.00  0.00    -0.289 OA
BRANCH  17  19
ATOM     19  C   UNL     1      10.258  78.245  -1.941  1.00  0.00     0.023 A 
ATOM     20  C   UNL     1       8.911  78.650  -2.004  1.00  0.00     0.014 A 
ATOM     21  C   UNL     1      10.593  76.932  -2.318  1.00  0.00     0.014 A 
ATOM     22  C   UNL     1       7.928  77.768  -2.461  1.00  0.00     0.021 A 
ATOM     23  C   UNL     1       9.606  76.053  -2.773  1.00  0.00     0.021 A 
ATOM     24  C   UNL     1       8.273  76.470  -2.848  1.00  0.00     0.041 A 
ATOM     25  Cl  UNL     1       7.037  75.364  -3.421  1.00  0.00    -0.084 Cl
ENDBRANCH  17  19
ENDBRANCH  16  17
ENDBRANCH  10  11
ENDBRANCH   1  10
TORSDOF 7
ENDMDL
MODEL 7
REMARK VINA RESULT:    -8.682      1.815      3.716
REMARK INTER + INTRA:         -13.039
REMARK INTER:                 -12.233
REMARK INTRA:                  -0.806
REMARK UNBOUND:                -0.805
REMARK SMILES CC(C)OC(=O)C(C)(C)Oc1ccc(C(=O)c2ccc(Cl)cc2)cc1
REMARK SMILES IDX 7 1 8 2 9 3 5 4 6 5 4 6 2 7 1 8 3 9 10 10 11 11 12 12 25 13
REMARK SMILES IDX 13 14 24 15 14 16 15 17 16 18 17 19 18 20 23 21 19 22 22 23
REMARK SMILES IDX 20 24 21 25
REMARK H PARENT
REMARK Flexibility Score: inf
ROOT
ATOM      1  C   UNL     1       8.242  75.504  -1.073  1.00  0.00     0.200 C 
ATOM      2  C   UNL     1       9.594  75.235  -0.389  1.00  0.00     0.069 C 
ATOM      3  C   UNL     1       7.856  74.315  -1.973  1.00  0.00     0.069 C 
ENDROOT
BRANCH   1   4
ATOM      4  C   UNL     1       7.185  75.670  -0.010  1.00  0.00     0.350 C 
ATOM      5  O   UNL     1       6.321  74.767   0.173  1.00  0.00    -0.247 OA
BRANCH   4   6
ATOM      6  O   UNL     1       7.174  76.829   0.777  1.00  0.00    -0.460 OA
BRANCH   6   7
ATOM      7  C   UNL     1       6.049  77.700   0.887  1.00  0.00     0.170 C 
ATOM      8  C   UNL     1       5.663  77.824   2.360  1.00  0.00     0.052 C 
ATOM      9  C   UNL     1       6.386  79.075   0.303  1.00  0.00     0.052 C 
ENDBRANCH   6   7
ENDBRANCH   4   6
ENDBRANCH   1   4
BRANCH   1  10
ATOM     10  O   UNL     1       8.309  76.711  -1.848  1.00  0.00    -0.476 OA
BRANCH  10  11
ATOM     11  C   UNL     1       9.434  77.540  -1.916  1.00  0.00     0.121 A 
ATOM     12  C   UNL     1      10.558  77.144  -2.649  1.00  0.00     0.047 A 
ATOM     13  C   UNL     1       9.453  78.756  -1.224  1.00  0.00     0.047 A 
ATOM     14  C   UNL     1      11.686  77.966  -2.709  1.00  0.00     0.016 A 
ATOM     15  C   UNL     1      10.580  79.581  -1.280  1.00  0.00     0.016 A 
ATOM     16  C   UNL     1      11.713  79.190  -2.015  1.00  0.00     0.023 A 
BRANCH  16  17
ATOM     17  C   UNL     1      12.896  80.081  -2.084  1.00  0.00     0.193 C 
ATOM     18  O   UNL     1      13.186  80.785  -1.079  1.00  0.00    -0.289 OA
BRANCH  17  19
ATOM     19  C   UNL     1      13.750  80.176  -3.292  1.00  0.00     0.023 A 
ATOM     20  C   UNL     1      15.139  79.958  -3.217  1.00  0.00     0.014 A 
ATOM     21  C   UNL     1      13.182  80.531  -4.529  1.00  0.00     0.014 A 
ATOM     22  C   UNL     1      15.935  80.067  -4.361  1.00  0.00     0.021 A 
ATOM     23  C   UNL     1      13.982  80.640  -5.670  1.00  0.00     0.021 A 
ATOM     24  C   UNL     1      15.358  80.405  -5.589  1.00  0.00     0.041 A 
ATOM     25  Cl  UNL     1      16.359  80.543  -7.023  1.00  0.00    -0.084 Cl
ENDBRANCH  17  19
ENDBRANCH  16  17
ENDBRANCH  10  11
ENDBRANCH   1  10
TORSDOF 7
ENDMDL
MODEL 8
REMARK VINA RESULT:    -8.627      4.159      5.864
REMARK INTER + INTRA:         -12.962
REMARK INTER:                 -11.875
REMARK INTRA:                  -1.086
REMARK UNBOUND:                -0.805
REMARK SMILES CC(C)OC(=O)C(C)(C)Oc1ccc(C(=O)c2ccc(Cl)cc2)cc1
REMARK SMILES IDX 7 1 8 2 9 3 5 4 6 5 4 6 2 7 1 8 3 9 10 10 11 11 12 12 25 13
REMARK SMILES IDX 13 14 24 15 14 16 15 17 16 18 17 19 18 20 23 21 19 22 22 23
REMARK SMILES IDX 20 24 21 25
REMARK H PARENT
REMARK Flexibility Score: inf
ROOT
ATOM      1  C   UNL     1      11.545  80.251  -1.326  1.00  0.00     0.200 C 
ATOM      2  C   UNL     1      10.292  80.974  -0.802  1.00  0.00     0.069 C 
ATOM      3  C   UNL     1      12.800  81.102  -1.058  1.00  0.00     0.069 C 
ENDROOT
BRANCH   1   4
ATOM      4  C   UNL     1      11.685  78.936  -0.600  1.00  0.00     0.350 C 
ATOM      5  O   UNL     1      10.862  78.003  -0.814  1.00  0.00    -0.247 OA
BRANCH   4   6
ATOM      6  O   UNL     1      12.739  78.756   0.305  1.00  0.00    -0.460 OA
BRANCH   6   7
ATOM      7  C   UNL     1      13.792  77.811   0.114  1.00  0.00     0.170 C 
ATOM      8  C   UNL     1      15.097  78.568  -0.121  1.00  0.00     0.052 C 
ATOM      9  C   UNL     1      13.913  76.902   1.340  1.00  0.00     0.052 C 
ENDBRANCH   6   7
ENDBRANCH   4   6
ENDBRANCH   1   4
BRANCH   1  10
ATOM     10  O   UNL     1      11.415  79.989  -2.732  1.00  0.00    -0.476 OA
BRANCH  10  11
ATOM     11  C   UNL     1      12.490  79.713  -3.584  1.00  0.00     0.121 A 
ATOM     12  C   UNL     1      12.984  80.704  -4.439  1.00  0.00     0.047 A 
ATOM     13  C   UNL     1      13.056  78.433  -3.608  1.00  0.00     0.047 A 
ATOM     14  C   UNL     1      14.050  80.426  -5.298  1.00  0.00     0.016 A 
ATOM     15  C   UNL     1      14.123  78.151  -4.466  1.00  0.00     0.016 A 
ATOM     16  C   UNL     1      14.625  79.142  -5.329  1.00  0.00     0.023 A 
BRANCH  16  17
ATOM     17  C   UNL     1      15.769  78.838  -6.221  1.00  0.00     0.193 C 
ATOM     18  O   UNL     1      15.817  77.711  -6.785  1.00  0.00    -0.289 OA
BRANCH  17  19
ATOM     19  C   UNL     1      16.859  79.810  -6.475  1.00  0.00     0.023 A 
ATOM     20  C   UNL     1      17.877  80.022  -5.527  1.00  0.00     0.014 A 
ATOM     21  C   UNL     1      16.861  80.571  -7.658  1.00  0.00     0.014 A 
ATOM     22  C   UNL     1      18.889  80.955  -5.772  1.00  0.00     0.021 A 
ATOM     23  C   UNL     1      17.874  81.504  -7.898  1.00  0.00     0.021 A 
ATOM     24  C   UNL     1      18.891  81.695  -6.958  1.00  0.00     0.041 A 
ATOM     25  Cl  UNL     1      20.161  82.866  -7.262  1.00  0.00    -0.084 Cl
ENDBRANCH  17  19
ENDBRANCH  16  17
ENDBRANCH  10  11
ENDBRANCH   1  10
TORSDOF 7
ENDMDL
MODEL 9
REMARK VINA RESULT:    -8.428      3.511      7.443
REMARK INTER + INTRA:         -12.681
REMARK INTER:                 -11.387
REMARK INTRA:                  -1.294
REMARK UNBOUND:                -0.805
REMARK SMILES CC(C)OC(=O)C(C)(C)Oc1ccc(C(=O)c2ccc(Cl)cc2)cc1
REMARK SMILES IDX 7 1 8 2 9 3 5 4 6 5 4 6 2 7 1 8 3 9 10 10 11 11 12 12 25 13
REMARK SMILES IDX 13 14 24 15 14 16 15 17 16 18 17 19 18 20 23 21 19 22 22 23
REMARK SMILES IDX 20 24 21 25
REMARK H PARENT
REMARK Flexibility Score: inf
ROOT
ATOM      1  C   UNL     1      14.028  79.926  -0.475  1.00  0.00     0.200 C 
ATOM      2  C   UNL     1      14.682  81.211   0.065  1.00  0.00     0.069 C 
ATOM      3  C   UNL     1      15.002  79.188  -1.411  1.00  0.00     0.069 C 
ENDROOT
BRANCH   1   4
ATOM      4  C   UNL     1      13.696  79.025   0.689  1.00  0.00     0.350 C 
ATOM      5  O   UNL     1      12.893  79.414   1.583  1.00  0.00    -0.247 OA
BRANCH   4   6
ATOM      6  O   UNL     1      14.278  77.754   0.765  1.00  0.00    -0.460 OA
BRANCH   6   7
ATOM      7  C   UNL     1      13.642  76.628   1.370  1.00  0.00     0.170 C 
ATOM      8  C   UNL     1      12.478  76.185   0.486  1.00  0.00     0.052 C 
ATOM      9  C   UNL     1      14.646  75.486   1.547  1.00  0.00     0.052 C 
ENDBRANCH   6   7
ENDBRANCH   4   6
ENDBRANCH   1   4
BRANCH   1  10
ATOM     10  O   UNL     1      12.813  80.243  -1.173  1.00  0.00    -0.476 OA
BRANCH  10  11
ATOM     11  C   UNL     1      11.862  79.296  -1.566  1.00  0.00     0.121 A 
ATOM     12  C   UNL     1      10.599  79.275  -0.964  1.00  0.00     0.047 A 
ATOM     13  C   UNL     1      12.181  78.343  -2.540  1.00  0.00     0.047 A 
ATOM     14  C   UNL     1       9.651  78.323  -1.348  1.00  0.00     0.016 A 
ATOM     15  C   UNL     1      11.236  77.388  -2.925  1.00  0.00     0.016 A 
ATOM     16  C   UNL     1       9.964  77.360  -2.326  1.00  0.00     0.023 A 
BRANCH  16  17
ATOM     17  C   UNL     1       8.962  76.355  -2.757  1.00  0.00     0.193 C 
ATOM     18  O   UNL     1       7.845  76.755  -3.184  1.00  0.00    -0.289 OA
BRANCH  17  19
ATOM     19  C   UNL     1       9.227  74.898  -2.703  1.00  0.00     0.023 A 
ATOM     20  C   UNL     1       8.846  74.052  -3.762  1.00  0.00     0.014 A 
ATOM     21  C   UNL     1       9.825  74.333  -1.563  1.00  0.00     0.014 A 
ATOM     22  C   UNL     1       9.086  72.677  -3.690  1.00  0.00     0.021 A 
ATOM     23  C   UNL     1      10.062  72.957  -1.495  1.00  0.00     0.021 A 
ATOM     24  C   UNL     1       9.696  72.128  -2.559  1.00  0.00     0.041 A 
ATOM     25  Cl  UNL     1       9.995  70.401  -2.471  1.00  0.00    -0.084 Cl
ENDBRANCH  17  19
ENDBRANCH  16  17
ENDBRANCH  10  11
ENDBRANCH   1  10
TORSDOF 7
ENDMDL
MODEL 10
REMARK VINA RESULT:    -8.415      3.203      4.886
REMARK INTER + INTRA:         -12.663
REMARK INTER:                 -12.617
REMARK INTRA:                  -0.046
REMARK UNBOUND:                -0.805
REMARK SMILES CC(C)OC(=O)C(C)(C)Oc1ccc(C(=O)c2ccc(Cl)cc2)cc1
REMARK SMILES IDX 7 1 8 2 9 3 5 4 6 5 4 6 2 7 1 8 3 9 10 10 11 11 12 12 25 13
REMARK SMILES IDX 13 14 24 15 14 16 15 17 16 18 17 19 18 20 23 21 19 22 22 23
REMARK SMILES IDX 20 24 21 25
REMARK H PARENT
REMARK Flexibility Score: inf
ROOT
ATOM      1  C   UNL     1       9.966  79.800  -1.064  1.00  0.00     0.200 C 
ATOM      2  C   UNL     1       9.781  80.697  -2.300  1.00  0.00     0.069 C 
ATOM      3  C   UNL     1       9.744  80.616   0.223  1.00  0.00     0.069 C 
ENDROOT
BRANCH   1   4
ATOM      4  C   UNL     1       8.948  78.688  -1.114  1.00  0.00     0.350 C 
ATOM      5  O   UNL     1       8.776  78.033  -2.181  1.00  0.00    -0.247 OA
BRANCH   4   6
ATOM      6  O   UNL     1       8.203  78.381   0.031  1.00  0.00    -0.460 OA
BRANCH   6   7
ATOM      7  C   UNL     1       6.858  77.905  -0.005  1.00  0.00     0.170 C 
ATOM      8  C   UNL     1       6.845  76.430   0.390  1.00  0.00     0.052 C 
ATOM      9  C   UNL     1       5.983  78.723   0.949  1.00  0.00     0.052 C 
ENDBRANCH   6   7
ENDBRANCH   4   6
ENDBRANCH   1   4
BRANCH   1  10
ATOM     10  O   UNL     1      11.281  79.221  -1.062  1.00  0.00    -0.476 OA
BRANCH  10  11
ATOM     11  C   UNL     1      12.102  79.132  -2.191  1.00  0.00     0.121 A 
ATOM     12  C   UNL     1      12.184  77.934  -2.910  1.00  0.00     0.047 A 
ATOM     13  C   UNL     1      12.872  80.232  -2.587  1.00  0.00     0.047 A 
ATOM     14  C   UNL     1      13.013  77.841  -4.031  1.00  0.00     0.016 A 
ATOM     15  C   UNL     1      13.703  80.141  -3.708  1.00  0.00     0.016 A 
ATOM     16  C   UNL     1      13.790  78.941  -4.436  1.00  0.00     0.023 A 
BRANCH  16  17
ATOM     17  C   UNL     1      14.660  78.863  -5.635  1.00  0.00     0.193 C 
ATOM     18  O   UNL     1      14.327  78.095  -6.578  1.00  0.00    -0.289 OA
BRANCH  17  19
ATOM     19  C   UNL     1      15.907  79.654  -5.764  1.00  0.00     0.023 A 
ATOM     20  C   UNL     1      16.222  80.668  -4.839  1.00  0.00     0.014 A 
ATOM     21  C   UNL     1      16.775  79.427  -6.847  1.00  0.00     0.014 A 
ATOM     22  C   UNL     1      17.393  81.418  -4.984  1.00  0.00     0.021 A 
ATOM     23  C   UNL     1      17.945  80.179  -6.988  1.00  0.00     0.021 A 
ATOM     24  C   UNL     1      18.257  81.173  -6.055  1.00  0.00     0.041 A 
ATOM     25  Cl  UNL     1      19.725  82.116  -6.234  1.00  0.00    -0.084 Cl
ENDBRANCH  17  19
ENDBRANCH  16  17
ENDBRANCH  10  11
ENDBRANCH   1  10
TORSDOF 7
ENDMDL
MODEL 11
REMARK VINA RESULT:    -8.324      2.870      7.545
REMARK INTER + INTRA:         -12.535
REMARK INTER:                 -11.521
REMARK INTRA:                  -1.014
REMARK UNBOUND:                -0.805
REMARK SMILES CC(C)OC(=O)C(C)(C)Oc1ccc(C(=O)c2ccc(Cl)cc2)cc1
REMARK SMILES IDX 7 1 8 2 9 3 5 4 6 5 4 6 2 7 1 8 3 9 10 10 11 11 12 12 25 13
REMARK SMILES IDX 13 14 24 15 14 16 15 17 16 18 17 19 18 20 23 21 19 22 22 23
REMARK SMILES IDX 20 24 21 25
REMARK H PARENT
REMARK Flexibility Score: inf
ROOT
ATOM      1  C   UNL     1      11.909  80.315  -0.620  1.00  0.00     0.200 C 
ATOM      2  C   UNL     1      12.192  79.158   0.355  1.00  0.00     0.069 C 
ATOM      3  C   UNL     1      11.644  81.615   0.162  1.00  0.00     0.069 C 
ENDROOT
BRANCH   1   4
ATOM      4  C   UNL     1      13.119  80.515  -1.499  1.00  0.00     0.350 C 
ATOM      5  O   UNL     1      14.255  80.704  -0.981  1.00  0.00    -0.247 OA
BRANCH   4   6
ATOM      6  O   UNL     1      12.973  80.481  -2.892  1.00  0.00    -0.460 OA
BRANCH   6   7
ATOM      7  C   UNL     1      13.948  79.926  -3.775  1.00  0.00     0.170 C 
ATOM      8  C   UNL     1      13.868  78.403  -3.702  1.00  0.00     0.052 C 
ATOM      9  C   UNL     1      13.698  80.409  -5.206  1.00  0.00     0.052 C 
ENDBRANCH   6   7
ENDBRANCH   4   6
ENDBRANCH   1   4
BRANCH   1  10
ATOM     10  O   UNL     1      10.783  79.999  -1.453  1.00  0.00    -0.476 OA
BRANCH  10  11
ATOM     11  C   UNL     1      10.182  78.737  -1.517  1.00  0.00     0.121 A 
ATOM     12  C   UNL     1      10.808  77.694  -2.208  1.00  0.00     0.047 A 
ATOM     13  C   UNL     1       8.935  78.522  -0.918  1.00  0.00     0.047 A 
ATOM     14  C   UNL     1      10.203  76.436  -2.283  1.00  0.00     0.016 A 
ATOM     15  C   UNL     1       8.328  77.265  -0.992  1.00  0.00     0.016 A 
ATOM     16  C   UNL     1       8.950  76.211  -1.684  1.00  0.00     0.023 A 
BRANCH  16  17
ATOM     17  C   UNL     1       8.305  74.877  -1.739  1.00  0.00     0.193 C 
ATOM     18  O   UNL     1       7.443  74.583  -0.868  1.00  0.00    -0.289 OA
BRANCH  17  19
ATOM     19  C   UNL     1       8.638  73.876  -2.781  1.00  0.00     0.023 A 
ATOM     20  C   UNL     1       9.388  72.726  -2.469  1.00  0.00     0.014 A 
ATOM     21  C   UNL     1       8.244  74.091  -4.114  1.00  0.00     0.014 A 
ATOM     22  C   UNL     1       9.710  71.800  -3.465  1.00  0.00     0.021 A 
ATOM     23  C   UNL     1       8.568  73.162  -5.107  1.00  0.00     0.021 A 
ATOM     24  C   UNL     1       9.299  72.014  -4.783  1.00  0.00     0.041 A 
ATOM     25  Cl  UNL     1       9.705  70.850  -6.032  1.00  0.00    -0.084 Cl
ENDBRANCH  17  19
ENDBRANCH  16  17
ENDBRANCH  10  11
ENDBRANCH   1  10
TORSDOF 7
ENDMDL
MODEL 12
REMARK VINA RESULT:    -8.170      1.884      3.783
REMARK INTER + INTRA:         -12.318
REMARK INTER:                 -11.320
REMARK INTRA:                  -0.998
REMARK UNBOUND:                -0.805
REMARK SMILES CC(C)OC(=O)C(C)(C)Oc1ccc(C(=O)c2ccc(Cl)cc2)cc1
REMARK SMILES IDX 7 1 8 2 9 3 5 4 6 5 4 6 2 7 1 8 3 9 10 10 11 11 12 12 25 13
REMARK SMILES IDX 13 14 24 15 14 16 15 17 16 18 17 19 18 20 23 21 19 22 22 23
REMARK SMILES IDX 20 24 21 25
REMARK H PARENT
REMARK Flexibility Score: inf
ROOT
ATOM      1  C   UNL     1       8.329  75.785  -1.355  1.00  0.00     0.200 C 
ATOM      2  C   UNL     1       8.072  75.949   0.154  1.00  0.00     0.069 C 
ATOM      3  C   UNL     1       7.494  74.618  -1.912  1.00  0.00     0.069 C 
ENDROOT
BRANCH   1   4
ATOM      4  C   UNL     1       7.918  77.055  -2.057  1.00  0.00     0.350 C 
ATOM      5  O   UNL     1       7.693  77.049  -3.300  1.00  0.00    -0.247 OA
BRANCH   4   6
ATOM      6  O   UNL     1       7.779  78.238  -1.320  1.00  0.00    -0.460 OA
BRANCH   6   7
ATOM      7  C   UNL     1       8.500  79.437  -1.606  1.00  0.00     0.170 C 
ATOM      8  C   UNL     1       7.543  80.450  -2.231  1.00  0.00     0.052 C 
ATOM      9  C   UNL     1       9.116  80.002  -0.323  1.00  0.00     0.052 C 
ENDBRANCH   6   7
ENDBRANCH   4   6
ENDBRANCH   1   4
BRANCH   1  10
ATOM     10  O   UNL     1       9.726  75.556  -1.599  1.00  0.00    -0.476 OA
BRANCH  10  11
ATOM     11  C   UNL     1      10.685  76.570  -1.688  1.00  0.00     0.121 A 
ATOM     12  C   UNL     1      11.053  77.083  -2.938  1.00  0.00     0.047 A 
ATOM     13  C   UNL     1      11.306  77.054  -0.531  1.00  0.00     0.047 A 
ATOM     14  C   UNL     1      12.019  78.088  -3.030  1.00  0.00     0.016 A 
ATOM     15  C   UNL     1      12.274  78.059  -0.620  1.00  0.00     0.016 A 
ATOM     16  C   UNL     1      12.649  78.580  -1.871  1.00  0.00     0.023 A 
BRANCH  16  17
ATOM     17  C   UNL     1      13.663  79.659  -1.952  1.00  0.00     0.193 C 
ATOM     18  O   UNL     1      14.011  80.245  -0.891  1.00  0.00    -0.289 OA
BRANCH  17  19
ATOM     19  C   UNL     1      14.280  80.074  -3.234  1.00  0.00     0.023 A 
ATOM     20  C   UNL     1      15.665  79.940  -3.448  1.00  0.00     0.014 A 
ATOM     21  C   UNL     1      13.488  80.653  -4.241  1.00  0.00     0.014 A 
ATOM     22  C   UNL     1      16.237  80.352  -4.655  1.00  0.00     0.021 A 
ATOM     23  C   UNL     1      14.065  81.064  -5.447  1.00  0.00     0.021 A 
ATOM     24  C   UNL     1      15.439  80.911  -5.657  1.00  0.00     0.041 A 
ATOM     25  Cl  UNL     1      16.159  81.428  -7.171  1.00  0.00    -0.084 Cl
ENDBRANCH  17  19
ENDBRANCH  16  17
ENDBRANCH  10  11
ENDBRANCH   1  10
TORSDOF 7
ENDMDL
MODEL 13
REMARK VINA RESULT:    -8.130      3.352      8.389
REMARK INTER + INTRA:         -12.261
REMARK INTER:                 -12.285
REMARK INTRA:                   0.024
REMARK UNBOUND:                -0.805
REMARK SMILES CC(C)OC(=O)C(C)(C)Oc1ccc(C(=O)c2ccc(Cl)cc2)cc1
REMARK SMILES IDX 7 1 8 2 9 3 5 4 6 5 4 6 2 7 1 8 3 9 10 10 11 11 12 12 25 13
REMARK SMILES IDX 13 14 24 15 14 16 15 17 16 18 17 19 18 20 23 21 19 22 22 23
REMARK SMILES IDX 20 24 21 25
REMARK H PARENT
REMARK Flexibility Score: inf
ROOT
ATOM      1  C   UNL     1      14.510  79.997  -4.467  1.00  0.00     0.200 C 
ATOM      2  C   UNL     1      14.328  78.723  -5.311  1.00  0.00     0.069 C 
ATOM      3  C   UNL     1      15.601  79.778  -3.403  1.00  0.00     0.069 C 
ENDROOT
BRANCH   1   4
ATOM      4  C   UNL     1      14.937  81.123  -5.376  1.00  0.00     0.350 C 
ATOM      5  O   UNL     1      14.111  82.018  -5.708  1.00  0.00    -0.247 OA
BRANCH   4   6
ATOM      6  O   UNL     1      16.258  81.172  -5.840  1.00  0.00    -0.460 OA
BRANCH   6   7
ATOM      7  C   UNL     1      16.652  80.757  -7.148  1.00  0.00     0.170 C 
ATOM      8  C   UNL     1      17.429  81.892  -7.812  1.00  0.00     0.052 C 
ATOM      9  C   UNL     1      17.513  79.494  -7.064  1.00  0.00     0.052 C 
ENDBRANCH   6   7
ENDBRANCH   4   6
ENDBRANCH   1   4
BRANCH   1  10
ATOM     10  O   UNL     1      13.270  80.358  -3.839  1.00  0.00    -0.476 OA
BRANCH  10  11
ATOM     11  C   UNL     1      12.360  79.437  -3.308  1.00  0.00     0.121 A 
ATOM     12  C   UNL     1      12.540  78.066  -3.522  1.00  0.00     0.047 A 
ATOM     13  C   UNL     1      11.248  79.886  -2.587  1.00  0.00     0.047 A 
ATOM     14  C   UNL     1      11.627  77.146  -3.000  1.00  0.00     0.016 A 
ATOM     15  C   UNL     1      10.332  78.968  -2.065  1.00  0.00     0.016 A 
ATOM     16  C   UNL     1      10.505  77.589  -2.275  1.00  0.00     0.023 A 
BRANCH  16  17
ATOM     17  C   UNL     1       9.537  76.623  -1.700  1.00  0.00     0.193 C 
ATOM     18  O   UNL     1       8.657  77.047  -0.902  1.00  0.00    -0.289 OA
BRANCH  17  19
ATOM     19  C   UNL     1       9.567  75.178  -2.028  1.00  0.00     0.023 A 
ATOM     20  C   UNL     1      10.206  74.255  -1.179  1.00  0.00     0.014 A 
ATOM     21  C   UNL     1       8.991  74.717  -3.225  1.00  0.00     0.014 A 
ATOM     22  C   UNL     1      10.242  72.897  -1.510  1.00  0.00     0.021 A 
ATOM     23  C   UNL     1       9.029  73.358  -3.553  1.00  0.00     0.021 A 
ATOM     24  C   UNL     1       9.652  72.446  -2.695  1.00  0.00     0.041 A 
ATOM     25  Cl  UNL     1       9.699  70.742  -3.108  1.00  0.00    -0.084 Cl
ENDBRANCH  17  19
ENDBRANCH  16  17
ENDBRANCH  10  11
ENDBRANCH   1  10
TORSDOF 7
ENDMDL
MODEL 14
REMARK VINA RESULT:    -7.915      2.716      3.827
REMARK INTER + INTRA:         -11.958
REMARK INTER:                 -11.523
REMARK INTRA:                  -0.435
REMARK UNBOUND:                -0.805
REMARK SMILES CC(C)OC(=O)C(C)(C)Oc1ccc(C(=O)c2ccc(Cl)cc2)cc1
REMARK SMILES IDX 7 1 8 2 9 3 5 4 6 5 4 6 2 7 1 8 3 9 10 10 11 11 12 12 25 13
REMARK SMILES IDX 13 14 24 15 14 16 15 17 16 18 17 19 18 20 23 21 19 22 22 23
REMARK SMILES IDX 20 24 21 25
REMARK H PARENT
REMARK Flexibility Score: inf
ROOT
ATOM      1  C   UNL     1       8.367  79.199  -0.842  1.00  0.00     0.200 C 
ATOM      2  C   UNL     1       7.886  79.598  -2.249  1.00  0.00     0.069 C 
ATOM      3  C   UNL     1       8.873  80.438  -0.082  1.00  0.00     0.069 C 
ENDROOT
BRANCH   1   4
ATOM      4  C   UNL     1       7.206  78.605  -0.084  1.00  0.00     0.350 C 
ATOM      5  O   UNL     1       6.174  79.298   0.142  1.00  0.00    -0.247 OA
BRANCH   4   6
ATOM      6  O   UNL     1       7.277  77.278   0.360  1.00  0.00    -0.460 OA
BRANCH   6   7
ATOM      7  C   UNL     1       6.697  76.178  -0.340  1.00  0.00     0.170 C 
ATOM      8  C   UNL     1       7.805  75.207  -0.739  1.00  0.00     0.052 C 
ATOM      9  C   UNL     1       5.661  75.477   0.543  1.00  0.00     0.052 C 
ENDBRANCH   6   7
ENDBRANCH   4   6
ENDBRANCH   1   4
BRANCH   1  10
ATOM     10  O   UNL     1       9.408  78.214  -0.934  1.00  0.00    -0.476 OA
BRANCH  10  11
ATOM     11  C   UNL     1      10.724  78.493  -1.318  1.00  0.00     0.121 A 
ATOM     12  C   UNL     1      11.191  78.089  -2.573  1.00  0.00     0.047 A 
ATOM     13  C   UNL     1      11.589  79.150  -0.435  1.00  0.00     0.047 A 
ATOM     14  C   UNL     1      12.509  78.358  -2.954  1.00  0.00     0.016 A 
ATOM     15  C   UNL     1      12.907  79.420  -0.812  1.00  0.00     0.016 A 
ATOM     16  C   UNL     1      13.385  79.017  -2.072  1.00  0.00     0.023 A 
BRANCH  16  17
ATOM     17  C   UNL     1      14.780  79.326  -2.469  1.00  0.00     0.193 C 
ATOM     18  O   UNL     1      15.723  78.940  -1.725  1.00  0.00    -0.289 OA
BRANCH  17  19
ATOM     19  C   UNL     1      15.107  80.071  -3.708  1.00  0.00     0.023 A 
ATOM     20  C   UNL     1      14.107  80.748  -4.432  1.00  0.00     0.014 A 
ATOM     21  C   UNL     1      16.424  80.073  -4.201  1.00  0.00     0.014 A 
ATOM     22  C   UNL     1      14.426  81.432  -5.608  1.00  0.00     0.021 A 
ATOM     23  C   UNL     1      16.738  80.759  -5.378  1.00  0.00     0.021 A 
ATOM     24  C   UNL     1      15.741  81.441  -6.081  1.00  0.00     0.041 A 
ATOM     25  Cl  UNL     1      16.139  82.301  -7.558  1.00  0.00    -0.084 Cl
ENDBRANCH  17  19
ENDBRANCH  16  17
ENDBRANCH  10  11
ENDBRANCH   1  10
TORSDOF 7
ENDMDL
MODEL 15
REMARK VINA RESULT:    -7.908      3.431      7.568
REMARK INTER + INTRA:         -11.949
REMARK INTER:                 -11.027
REMARK INTRA:                  -0.922
REMARK UNBOUND:                -0.805
REMARK SMILES CC(C)OC(=O)C(C)(C)Oc1ccc(C(=O)c2ccc(Cl)cc2)cc1
REMARK SMILES IDX 7 1 8 2 9 3 5 4 6 5 4 6 2 7 1 8 3 9 10 10 11 11 12 12 25 13
REMARK SMILES IDX 13 14 24 15 14 16 15 17 16 18 17 19 18 20 23 21 19 22 22 23
REMARK SMILES IDX 20 24 21 25
REMARK H PARENT
REMARK Flexibility Score: inf
ROOT
ATOM      1  C   UNL     1      11.211  81.131  -0.269  1.00  0.00     0.200 C 
ATOM      2  C   UNL     1      10.913  80.748   1.191  1.00  0.00     0.069 C 
ATOM      3  C   UNL     1      11.310  82.661  -0.407  1.00  0.00     0.069 C 
ENDROOT
BRANCH   1   4
ATOM      4  C   UNL     1      12.531  80.521  -0.670  1.00  0.00     0.350 C 
ATOM      5  O   UNL     1      13.005  80.733  -1.821  1.00  0.00    -0.247 OA
BRANCH   4   6
ATOM      6  O   UNL     1      13.231  79.724   0.247  1.00  0.00    -0.460 OA
BRANCH   6   7
ATOM      7  C   UNL     1      13.923  78.529  -0.112  1.00  0.00     0.170 C 
ATOM      8  C   UNL     1      15.382  78.873  -0.406  1.00  0.00     0.052 C 
ATOM      9  C   UNL     1      13.831  77.504   1.022  1.00  0.00     0.052 C 
ENDBRANCH   6   7
ENDBRANCH   4   6
ENDBRANCH   1   4
BRANCH   1  10
ATOM     10  O   UNL     1      10.186  80.620  -1.136  1.00  0.00    -0.476 OA
BRANCH  10  11
ATOM     11  C   UNL     1       9.741  79.294  -1.131  1.00  0.00     0.121 A 
ATOM     12  C   UNL     1      10.559  78.275  -1.632  1.00  0.00     0.047 A 
ATOM     13  C   UNL     1       8.462  78.984  -0.655  1.00  0.00     0.047 A 
ATOM     14  C   UNL     1      10.111  76.951  -1.638  1.00  0.00     0.016 A 
ATOM     15  C   UNL     1       8.010  77.661  -0.661  1.00  0.00     0.016 A 
ATOM     16  C   UNL     1       8.826  76.631  -1.162  1.00  0.00     0.023 A 
BRANCH  16  17
ATOM     17  C   UNL     1       8.344  75.229  -1.146  1.00  0.00     0.193 C 
ATOM     18  O   UNL     1       7.613  74.849  -0.191  1.00  0.00    -0.289 OA
BRANCH  17  19
ATOM     19  C   UNL     1       8.692  74.257  -2.210  1.00  0.00     0.023 A 
ATOM     20  C   UNL     1       9.577  73.192  -1.958  1.00  0.00     0.014 A 
ATOM     21  C   UNL     1       8.170  74.417  -3.506  1.00  0.00     0.014 A 
ATOM     22  C   UNL     1       9.910  72.294  -2.976  1.00  0.00     0.021 A 
ATOM     23  C   UNL     1       8.506  73.516  -4.521  1.00  0.00     0.021 A 
ATOM     24  C   UNL     1       9.373  72.452  -4.257  1.00  0.00     0.041 A 
ATOM     25  Cl  UNL     1       9.793  71.323  -5.532  1.00  0.00    -0.084 Cl
ENDBRANCH  17  19
ENDBRANCH  16  17
ENDBRANCH  10  11
ENDBRANCH   1  10
TORSDOF 7
ENDMDL
