MODEL 1
REMARK VINA RESULT:    -9.310      0.000      0.000
REMARK INTER + INTRA:         -14.075
REMARK INTER:                 -12.576
REMARK INTRA:                  -1.499
REMARK UNBOUND:                -1.499
REMARK SMILES O=C1C(CCS(=O)c2ccccc2)C(=O)N(c2ccccc2)N1c1ccccc1
REMARK SMILES IDX 4 1 3 2 1 3 2 4 23 5 14 6 16 7 15 8 24 9 25 10 29 11 26 12
REMARK SMILES IDX 28 13 27 14 17 15 18 16 22 17 19 18 21 19 20 20 5 21 6 22
REMARK SMILES IDX 7 23 8 24 9 25 13 26 10 27 12 28 11 29
REMARK H PARENT
REMARK Flexibility Score: inf
ROOT
ATOM      1  C   UNL     1       8.514  76.967  -2.917  1.00  0.00     0.037 C 
ENDROOT
BRANCH   1   2
ATOM      2  C   UNL     1       9.788  76.777  -2.074  1.00  0.00     0.173 C 
ATOM      3  O   UNL     1       8.953  77.751   0.004  1.00  0.00    -0.272 OA
ATOM      4  C   UNL     1       9.814  77.733  -0.918  1.00  0.00     0.258 C 
ATOM      5  N   UNL     1      10.908  78.645  -0.992  1.00  0.00    -0.213 N 
ATOM      6  C   UNL     1      11.027  77.235  -2.792  1.00  0.00     0.258 C 
ATOM      7  N   UNL     1      11.637  78.355  -2.153  1.00  0.00    -0.213 N 
ATOM      8  O   UNL     1      11.530  76.646  -3.786  1.00  0.00    -0.272 OA
BRANCH   5   9
ATOM      9  C   UNL     1      11.007  79.868  -0.243  1.00  0.00     0.067 A 
ATOM     10  C   UNL     1      11.658  79.884   1.001  1.00  0.00     0.028 A 
ATOM     11  C   UNL     1      10.459  81.060  -0.747  1.00  0.00     0.028 A 
ATOM     12  C   UNL     1      11.763  81.074   1.727  1.00  0.00     0.002 A 
ATOM     13  C   UNL     1      10.566  82.248  -0.018  1.00  0.00     0.002 A 
ATOM     14  C   UNL     1      11.219  82.256   1.217  1.00  0.00     0.000 A 
ENDBRANCH   5   9
BRANCH   7  15
ATOM     15  C   UNL     1      12.958  78.845  -2.439  1.00  0.00     0.067 A 
ATOM     16  C   UNL     1      14.022  78.590  -1.556  1.00  0.00     0.028 A 
ATOM     17  C   UNL     1      13.198  79.590  -3.605  1.00  0.00     0.028 A 
ATOM     18  C   UNL     1      15.302  79.078  -1.835  1.00  0.00     0.002 A 
ATOM     19  C   UNL     1      14.479  80.076  -3.881  1.00  0.00     0.002 A 
ATOM     20  C   UNL     1      15.530  79.821  -2.996  1.00  0.00     0.000 A 
ENDBRANCH   7  15
ENDBRANCH   1   2
BRANCH   1  21
ATOM     21  C   UNL     1       7.630  75.718  -2.913  1.00  0.00     0.112 C 
BRANCH  21  22
ATOM     22  S   UNL     1       8.306  74.481  -1.781  1.00  0.00     0.053 S 
ATOM     23  O   UNL     1       7.090  73.859  -1.105  1.00  0.00    -0.254 OA
BRANCH  22  24
ATOM     24  C   UNL     1       8.931  73.189  -2.832  1.00  0.00     0.039 A 
ATOM     25  C   UNL     1       8.816  73.312  -4.223  1.00  0.00     0.018 A 
ATOM     26  C   UNL     1       9.536  72.048  -2.283  1.00  0.00     0.018 A 
ATOM     27  C   UNL     1       9.300  72.302  -5.059  1.00  0.00     0.001 A 
ATOM     28  C   UNL     1      10.019  71.039  -3.121  1.00  0.00     0.001 A 
ATOM     29  C   UNL     1       9.901  71.165  -4.508  1.00  0.00     0.000 A 
ENDBRANCH  22  24
ENDBRANCH  21  22
ENDBRANCH   1  21
TORSDOF 6
ENDMDL
MODEL 2
REMARK VINA RESULT:    -9.249      3.546      8.085
REMARK INTER + INTRA:         -13.993
REMARK INTER:                 -12.695
REMARK INTRA:                  -1.298
REMARK UNBOUND:                -1.499
REMARK SMILES O=C1C(CCS(=O)c2ccccc2)C(=O)N(c2ccccc2)N1c1ccccc1
REMARK SMILES IDX 4 1 3 2 1 3 2 4 23 5 14 6 16 7 15 8 24 9 25 10 29 11 26 12
REMARK SMILES IDX 28 13 27 14 17 15 18 16 22 17 19 18 21 19 20 20 5 21 6 22
REMARK SMILES IDX 7 23 8 24 9 25 13 26 10 27 12 28 11 29
REMARK H PARENT
REMARK Flexibility Score: inf
ROOT
ATOM      1  C   UNL     1      13.501  79.895  -4.999  1.00  0.00     0.037 C 
ENDROOT
BRANCH   1   2
ATOM      2  C   UNL     1      13.776  79.201  -3.653  1.00  0.00     0.173 C 
ATOM      3  O   UNL     1      12.563  77.129  -4.101  1.00  0.00    -0.272 OA
ATOM      4  C   UNL     1      12.748  78.144  -3.375  1.00  0.00     0.258 C 
ATOM      5  N   UNL     1      11.977  78.430  -2.210  1.00  0.00    -0.213 N 
ATOM      6  C   UNL     1      13.518  80.102  -2.477  1.00  0.00     0.258 C 
ATOM      7  N   UNL     1      12.434  79.641  -1.674  1.00  0.00    -0.213 N 
ATOM      8  O   UNL     1      14.232  81.094  -2.174  1.00  0.00    -0.272 OA
BRANCH   5   9
ATOM      9  C   UNL     1      10.723  77.807  -1.884  1.00  0.00     0.067 A 
ATOM     10  C   UNL     1       9.514  78.416  -2.257  1.00  0.00     0.028 A 
ATOM     11  C   UNL     1      10.692  76.584  -1.193  1.00  0.00     0.028 A 
ATOM     12  C   UNL     1       8.294  77.807  -1.948  1.00  0.00     0.002 A 
ATOM     13  C   UNL     1       9.470  75.979  -0.886  1.00  0.00     0.002 A 
ATOM     14  C   UNL     1       8.271  76.589  -1.264  1.00  0.00     0.000 A 
ENDBRANCH   5   9
BRANCH   7  15
ATOM     15  C   UNL     1      12.122  80.127  -0.357  1.00  0.00     0.067 A 
ATOM     16  C   UNL     1      11.128  81.104  -0.172  1.00  0.00     0.028 A 
ATOM     17  C   UNL     1      12.814  79.632   0.760  1.00  0.00     0.028 A 
ATOM     18  C   UNL     1      10.838  81.580   1.110  1.00  0.00     0.002 A 
ATOM     19  C   UNL     1      12.520  80.109   2.041  1.00  0.00     0.002 A 
ATOM     20  C   UNL     1      11.533  81.083   2.216  1.00  0.00     0.000 A 
ENDBRANCH   7  15
ENDBRANCH   1   2
BRANCH   1  21
ATOM     21  C   UNL     1      14.681  80.756  -5.454  1.00  0.00     0.112 C 
BRANCH  21  22
ATOM     22  S   UNL     1      16.197  79.772  -5.481  1.00  0.00     0.053 S 
ATOM     23  O   UNL     1      15.941  78.682  -6.514  1.00  0.00    -0.254 OA
BRANCH  22  24
ATOM     24  C   UNL     1      17.413  80.822  -6.244  1.00  0.00     0.039 A 
ATOM     25  C   UNL     1      17.264  81.191  -7.588  1.00  0.00     0.018 A 
ATOM     26  C   UNL     1      18.520  81.283  -5.517  1.00  0.00     0.018 A 
ATOM     27  C   UNL     1      18.215  82.012  -8.201  1.00  0.00     0.001 A 
ATOM     28  C   UNL     1      19.470  82.104  -6.131  1.00  0.00     0.001 A 
ATOM     29  C   UNL     1      19.319  82.468  -7.472  1.00  0.00     0.000 A 
ENDBRANCH  22  24
ENDBRANCH  21  22
ENDBRANCH   1  21
TORSDOF 6
ENDMDL
MODEL 3
REMARK VINA RESULT:    -9.227      2.641      7.019
REMARK INTER + INTRA:         -13.963
REMARK INTER:                 -12.968
REMARK INTRA:                  -0.995
REMARK UNBOUND:                -1.499
REMARK SMILES O=C1C(CCS(=O)c2ccccc2)C(=O)N(c2ccccc2)N1c1ccccc1
REMARK SMILES IDX 4 1 3 2 1 3 2 4 23 5 14 6 16 7 15 8 24 9 25 10 29 11 26 12
REMARK SMILES IDX 28 13 27 14 17 15 18 16 22 17 19 18 21 19 20 20 5 21 6 22
REMARK SMILES IDX 7 23 8 24 9 25 13 26 10 27 12 28 11 29
REMARK H PARENT
REMARK Flexibility Score: inf
ROOT
ATOM      1  C   UNL     1      11.095  78.966  -1.600  1.00  0.00     0.037 C 
ENDROOT
BRANCH   1   2
ATOM      2  C   UNL     1      10.232  78.187  -2.610  1.00  0.00     0.173 C 
ATOM      3  O   UNL     1       8.045  78.882  -1.775  1.00  0.00    -0.272 OA
ATOM      4  C   UNL     1       8.851  77.958  -2.070  1.00  0.00     0.258 C 
ATOM      5  N   UNL     1       8.558  76.573  -1.898  1.00  0.00    -0.213 N 
ATOM      6  C   UNL     1      10.672  76.757  -2.760  1.00  0.00     0.258 C 
ATOM      7  N   UNL     1       9.683  75.839  -2.298  1.00  0.00    -0.213 N 
ATOM      8  O   UNL     1      11.744  76.398  -3.315  1.00  0.00    -0.272 OA
BRANCH   5   9
ATOM      9  C   UNL     1       7.481  76.056  -1.099  1.00  0.00     0.067 A 
ATOM     10  C   UNL     1       7.173  76.643   0.138  1.00  0.00     0.028 A 
ATOM     11  C   UNL     1       6.722  74.961  -1.548  1.00  0.00     0.028 A 
ATOM     12  C   UNL     1       6.120  76.147   0.912  1.00  0.00     0.002 A 
ATOM     13  C   UNL     1       5.669  74.468  -0.771  1.00  0.00     0.002 A 
ATOM     14  C   UNL     1       5.368  75.061   0.458  1.00  0.00     0.000 A 
ENDBRANCH   5   9
BRANCH   7  15
ATOM     15  C   UNL     1       9.694  74.423  -2.552  1.00  0.00     0.067 A 
ATOM     16  C   UNL     1      10.156  73.525  -1.574  1.00  0.00     0.028 A 
ATOM     17  C   UNL     1       9.245  73.924  -3.786  1.00  0.00     0.028 A 
ATOM     18  C   UNL     1      10.173  72.151  -1.831  1.00  0.00     0.002 A 
ATOM     19  C   UNL     1       9.263  72.549  -4.039  1.00  0.00     0.002 A 
ATOM     20  C   UNL     1       9.727  71.663  -3.063  1.00  0.00     0.000 A 
ENDBRANCH   7  15
ENDBRANCH   1   2
BRANCH   1  21
ATOM     21  C   UNL     1      11.936  80.050  -2.278  1.00  0.00     0.112 C 
BRANCH  21  22
ATOM     22  S   UNL     1      13.695  79.723  -2.025  1.00  0.00     0.053 S 
ATOM     23  O   UNL     1      13.753  78.330  -1.410  1.00  0.00    -0.254 OA
BRANCH  22  24
ATOM     24  C   UNL     1      14.363  79.508  -3.660  1.00  0.00     0.039 A 
ATOM     25  C   UNL     1      13.733  78.633  -4.555  1.00  0.00     0.018 A 
ATOM     26  C   UNL     1      15.513  80.203  -4.061  1.00  0.00     0.018 A 
ATOM     27  C   UNL     1      14.251  78.452  -5.841  1.00  0.00     0.001 A 
ATOM     28  C   UNL     1      16.029  80.021  -5.348  1.00  0.00     0.001 A 
ATOM     29  C   UNL     1      15.399  79.146  -6.238  1.00  0.00     0.000 A 
ENDBRANCH  22  24
ENDBRANCH  21  22
ENDBRANCH   1  21
TORSDOF 6
ENDMDL
MODEL 4
REMARK VINA RESULT:    -9.130      2.792      6.975
REMARK INTER + INTRA:         -13.832
REMARK INTER:                 -13.182
REMARK INTRA:                  -0.650
REMARK UNBOUND:                -1.499
REMARK SMILES O=C1C(CCS(=O)c2ccccc2)C(=O)N(c2ccccc2)N1c1ccccc1
REMARK SMILES IDX 4 1 3 2 1 3 2 4 23 5 14 6 16 7 15 8 24 9 25 10 29 11 26 12
REMARK SMILES IDX 28 13 27 14 17 15 18 16 22 17 19 18 21 19 20 20 5 21 6 22
REMARK SMILES IDX 7 23 8 24 9 25 13 26 10 27 12 28 11 29
REMARK H PARENT
REMARK Flexibility Score: inf
ROOT
ATOM      1  C   UNL     1      12.166  79.569  -0.623  1.00  0.00     0.037 C 
ENDROOT
BRANCH   1   2
ATOM      2  C   UNL     1      10.989  79.594  -1.615  1.00  0.00     0.173 C 
ATOM      3  O   UNL     1       9.366  80.705  -0.168  1.00  0.00    -0.272 OA
ATOM      4  C   UNL     1       9.681  79.722  -0.892  1.00  0.00     0.258 C 
ATOM      5  N   UNL     1       8.839  78.588  -1.089  1.00  0.00    -0.213 N 
ATOM      6  C   UNL     1      10.767  78.264  -2.280  1.00  0.00     0.258 C 
ATOM      7  N   UNL     1       9.515  77.684  -1.920  1.00  0.00    -0.213 N 
ATOM      8  O   UNL     1      11.546  77.757  -3.130  1.00  0.00    -0.272 OA
BRANCH   5   9
ATOM      9  C   UNL     1       7.699  78.261  -0.276  1.00  0.00     0.067 A 
ATOM     10  C   UNL     1       7.483  76.939   0.141  1.00  0.00     0.028 A 
ATOM     11  C   UNL     1       6.790  79.261   0.113  1.00  0.00     0.028 A 
ATOM     12  C   UNL     1       6.380  76.621   0.939  1.00  0.00     0.002 A 
ATOM     13  C   UNL     1       5.689  78.940   0.911  1.00  0.00     0.002 A 
ATOM     14  C   UNL     1       5.483  77.621   1.325  1.00  0.00     0.000 A 
ENDBRANCH   5   9
BRANCH   7  15
ATOM     15  C   UNL     1       8.906  76.565  -2.586  1.00  0.00     0.067 A 
ATOM     16  C   UNL     1       7.739  76.737  -3.352  1.00  0.00     0.028 A 
ATOM     17  C   UNL     1       9.471  75.284  -2.474  1.00  0.00     0.028 A 
ATOM     18  C   UNL     1       7.147  75.643  -3.989  1.00  0.00     0.002 A 
ATOM     19  C   UNL     1       8.876  74.192  -3.113  1.00  0.00     0.002 A 
ATOM     20  C   UNL     1       7.715  74.371  -3.869  1.00  0.00     0.000 A 
ENDBRANCH   7  15
ENDBRANCH   1   2
BRANCH   1  21
ATOM     21  C   UNL     1      13.258  80.571  -1.001  1.00  0.00     0.112 C 
BRANCH  21  22
ATOM     22  S   UNL     1      14.704  79.702  -1.650  1.00  0.00     0.053 S 
ATOM     23  O   UNL     1      14.307  78.231  -1.663  1.00  0.00    -0.254 OA
BRANCH  22  24
ATOM     24  C   UNL     1      14.776  80.151  -3.370  1.00  0.00     0.039 A 
ATOM     25  C   UNL     1      13.593  80.460  -4.055  1.00  0.00     0.018 A 
ATOM     26  C   UNL     1      16.003  80.196  -4.048  1.00  0.00     0.018 A 
ATOM     27  C   UNL     1      13.636  80.811  -5.408  1.00  0.00     0.001 A 
ATOM     28  C   UNL     1      16.043  80.547  -5.401  1.00  0.00     0.001 A 
ATOM     29  C   UNL     1      14.861  80.853  -6.081  1.00  0.00     0.000 A 
ENDBRANCH  22  24
ENDBRANCH  21  22
ENDBRANCH   1  21
TORSDOF 6
ENDMDL
MODEL 5
REMARK VINA RESULT:    -8.818      2.988      7.300
REMARK INTER + INTRA:         -13.410
REMARK INTER:                 -12.526
REMARK INTRA:                  -0.884
REMARK UNBOUND:                -1.499
REMARK SMILES O=C1C(CCS(=O)c2ccccc2)C(=O)N(c2ccccc2)N1c1ccccc1
REMARK SMILES IDX 4 1 3 2 1 3 2 4 23 5 14 6 16 7 15 8 24 9 25 10 29 11 26 12
REMARK SMILES IDX 28 13 27 14 17 15 18 16 22 17 19 18 21 19 20 20 5 21 6 22
REMARK SMILES IDX 7 23 8 24 9 25 13 26 10 27 12 28 11 29
REMARK H PARENT
REMARK Flexibility Score: inf
ROOT
ATOM      1  C   UNL     1      14.701  79.293  -0.423  1.00  0.00     0.037 C 
ENDROOT
BRANCH   1   2
ATOM      2  C   UNL     1      13.390  79.162   0.374  1.00  0.00     0.173 C 
ATOM      3  O   UNL     1      13.383  76.730   0.591  1.00  0.00    -0.272 OA
ATOM      4  C   UNL     1      12.806  77.789   0.222  1.00  0.00     0.258 C 
ATOM      5  N   UNL     1      11.531  77.809  -0.417  1.00  0.00    -0.213 N 
ATOM      6  C   UNL     1      12.270  79.967  -0.223  1.00  0.00     0.258 C 
ATOM      7  N   UNL     1      11.214  79.142  -0.711  1.00  0.00    -0.213 N 
ATOM      8  O   UNL     1      12.216  81.226  -0.211  1.00  0.00    -0.272 OA
BRANCH   5   9
ATOM      9  C   UNL     1      10.889  76.663  -1.002  1.00  0.00     0.067 A 
ATOM     10  C   UNL     1      10.529  75.569  -0.200  1.00  0.00     0.028 A 
ATOM     11  C   UNL     1      10.612  76.626  -2.379  1.00  0.00     0.028 A 
ATOM     12  C   UNL     1       9.897  74.458  -0.765  1.00  0.00     0.002 A 
ATOM     13  C   UNL     1       9.980  75.513  -2.941  1.00  0.00     0.002 A 
ATOM     14  C   UNL     1       9.621  74.430  -2.135  1.00  0.00     0.000 A 
ENDBRANCH   5   9
BRANCH   7  15
ATOM     15  C   UNL     1       9.909  79.614  -1.086  1.00  0.00     0.067 A 
ATOM     16  C   UNL     1       8.779  79.276  -0.321  1.00  0.00     0.028 A 
ATOM     17  C   UNL     1       9.749  80.416  -2.228  1.00  0.00     0.028 A 
ATOM     18  C   UNL     1       7.512  79.729  -0.697  1.00  0.00     0.002 A 
ATOM     19  C   UNL     1       8.480  80.868  -2.601  1.00  0.00     0.002 A 
ATOM     20  C   UNL     1       7.362  80.525  -1.836  1.00  0.00     0.000 A 
ENDBRANCH   7  15
ENDBRANCH   1   2
BRANCH   1  21
ATOM     21  C   UNL     1      14.524  80.142  -1.684  1.00  0.00     0.112 C 
BRANCH  21  22
ATOM     22  S   UNL     1      14.544  79.087  -3.152  1.00  0.00     0.053 S 
ATOM     23  O   UNL     1      13.077  78.831  -3.474  1.00  0.00    -0.254 OA
BRANCH  22  24
ATOM     24  C   UNL     1      15.102  80.144  -4.470  1.00  0.00     0.039 A 
ATOM     25  C   UNL     1      14.282  81.190  -4.913  1.00  0.00     0.018 A 
ATOM     26  C   UNL     1      16.353  79.940  -5.071  1.00  0.00     0.018 A 
ATOM     27  C   UNL     1      14.708  82.025  -5.950  1.00  0.00     0.001 A 
ATOM     28  C   UNL     1      16.777  80.777  -6.108  1.00  0.00     0.001 A 
ATOM     29  C   UNL     1      15.955  81.818  -6.548  1.00  0.00     0.000 A 
ENDBRANCH  22  24
ENDBRANCH  21  22
ENDBRANCH   1  21
TORSDOF 6
ENDMDL
MODEL 6
REMARK VINA RESULT:    -8.763      2.740      7.207
REMARK INTER + INTRA:         -13.336
REMARK INTER:                 -12.404
REMARK INTRA:                  -0.932
REMARK UNBOUND:                -1.499
REMARK SMILES O=C1C(CCS(=O)c2ccccc2)C(=O)N(c2ccccc2)N1c1ccccc1
REMARK SMILES IDX 4 1 3 2 1 3 2 4 23 5 14 6 16 7 15 8 24 9 25 10 29 11 26 12
REMARK SMILES IDX 28 13 27 14 17 15 18 16 22 17 19 18 21 19 20 20 5 21 6 22
REMARK SMILES IDX 7 23 8 24 9 25 13 26 10 27 12 28 11 29
REMARK H PARENT
REMARK Flexibility Score: inf
ROOT
ATOM      1  C   UNL     1      10.499  79.273  -1.206  1.00  0.00     0.037 C 
ENDROOT
BRANCH   1   2
ATOM      2  C   UNL     1       9.732  78.485  -2.283  1.00  0.00     0.173 C 
ATOM      3  O   UNL     1       7.472  78.974  -1.498  1.00  0.00    -0.272 OA
ATOM      4  C   UNL     1       8.354  78.128  -1.807  1.00  0.00     0.258 C 
ATOM      5  N   UNL     1       8.161  76.718  -1.712  1.00  0.00    -0.213 N 
ATOM      6  C   UNL     1      10.282  77.100  -2.484  1.00  0.00     0.258 C 
ATOM      7  N   UNL     1       9.350  76.090  -2.104  1.00  0.00    -0.213 N 
ATOM      8  O   UNL     1      11.396  76.850  -3.016  1.00  0.00    -0.272 OA
BRANCH   5   9
ATOM      9  C   UNL     1       7.099  76.084  -0.979  1.00  0.00     0.067 A 
ATOM     10  C   UNL     1       6.788  76.506   0.323  1.00  0.00     0.028 A 
ATOM     11  C   UNL     1       6.359  75.038  -1.557  1.00  0.00     0.028 A 
ATOM     12  C   UNL     1       5.750  75.896   1.034  1.00  0.00     0.002 A 
ATOM     13  C   UNL     1       5.321  74.431  -0.844  1.00  0.00     0.002 A 
ATOM     14  C   UNL     1       5.016  74.860   0.451  1.00  0.00     0.000 A 
ENDBRANCH   5   9
BRANCH   7  15
ATOM     15  C   UNL     1       9.476  74.694  -2.425  1.00  0.00     0.067 A 
ATOM     16  C   UNL     1      10.059  73.800  -1.510  1.00  0.00     0.028 A 
ATOM     17  C   UNL     1       9.019  74.209  -3.662  1.00  0.00     0.028 A 
ATOM     18  C   UNL     1      10.188  72.446  -1.832  1.00  0.00     0.002 A 
ATOM     19  C   UNL     1       9.148  72.854  -3.980  1.00  0.00     0.002 A 
ATOM     20  C   UNL     1       9.733  71.973  -3.066  1.00  0.00     0.000 A 
ENDBRANCH   7  15
ENDBRANCH   1   2
BRANCH   1  21
ATOM     21  C   UNL     1      10.264  80.781  -1.321  1.00  0.00     0.112 C 
BRANCH  21  22
ATOM     22  S   UNL     1      11.504  81.679  -0.360  1.00  0.00     0.053 S 
ATOM     23  O   UNL     1      11.053  81.545   1.089  1.00  0.00    -0.254 OA
BRANCH  22  24
ATOM     24  C   UNL     1      12.973  80.680  -0.456  1.00  0.00     0.039 A 
ATOM     25  C   UNL     1      13.664  80.581  -1.671  1.00  0.00     0.018 A 
ATOM     26  C   UNL     1      13.444  79.989   0.670  1.00  0.00     0.018 A 
ATOM     27  C   UNL     1      14.818  79.795  -1.760  1.00  0.00     0.001 A 
ATOM     28  C   UNL     1      14.597  79.204   0.578  1.00  0.00     0.001 A 
ATOM     29  C   UNL     1      15.284  79.106  -0.636  1.00  0.00     0.000 A 
ENDBRANCH  22  24
ENDBRANCH  21  22
ENDBRANCH   1  21
TORSDOF 6
ENDMDL
MODEL 7
REMARK VINA RESULT:    -8.685      2.967      7.898
REMARK INTER + INTRA:         -13.231
REMARK INTER:                 -12.984
REMARK INTRA:                  -0.247
REMARK UNBOUND:                -1.499
REMARK SMILES O=C1C(CCS(=O)c2ccccc2)C(=O)N(c2ccccc2)N1c1ccccc1
REMARK SMILES IDX 4 1 3 2 1 3 2 4 23 5 14 6 16 7 15 8 24 9 25 10 29 11 26 12
REMARK SMILES IDX 28 13 27 14 17 15 18 16 22 17 19 18 21 19 20 20 5 21 6 22
REMARK SMILES IDX 7 23 8 24 9 25 13 26 10 27 12 28 11 29
REMARK H PARENT
REMARK Flexibility Score: inf
ROOT
ATOM      1  C   UNL     1      11.967  79.937  -2.877  1.00  0.00     0.037 C 
ENDROOT
BRANCH   1   2
ATOM      2  C   UNL     1      11.636  78.902  -1.786  1.00  0.00     0.173 C 
ATOM      3  O   UNL     1      11.900  76.895  -3.151  1.00  0.00    -0.272 OA
ATOM      4  C   UNL     1      11.185  77.608  -2.396  1.00  0.00     0.258 C 
ATOM      5  N   UNL     1       9.840  77.284  -2.050  1.00  0.00    -0.213 N 
ATOM      6  C   UNL     1      10.392  79.253  -1.019  1.00  0.00     0.258 C 
ATOM      7  N   UNL     1       9.347  78.304  -1.226  1.00  0.00    -0.213 N 
ATOM      8  O   UNL     1      10.304  80.214  -0.210  1.00  0.00    -0.272 OA
BRANCH   5   9
ATOM      9  C   UNL     1       9.028  76.315  -2.734  1.00  0.00     0.067 A 
ATOM     10  C   UNL     1       9.402  74.962  -2.748  1.00  0.00     0.028 A 
ATOM     11  C   UNL     1       7.850  76.709  -3.394  1.00  0.00     0.028 A 
ATOM     12  C   UNL     1       8.609  74.017  -3.406  1.00  0.00     0.002 A 
ATOM     13  C   UNL     1       7.060  75.761  -4.050  1.00  0.00     0.002 A 
ATOM     14  C   UNL     1       7.438  74.416  -4.056  1.00  0.00     0.000 A 
ENDBRANCH   5   9
BRANCH   7  15
ATOM     15  C   UNL     1       8.148  78.216  -0.435  1.00  0.00     0.067 A 
ATOM     16  C   UNL     1       7.721  76.981   0.081  1.00  0.00     0.028 A 
ATOM     17  C   UNL     1       7.389  79.369  -0.175  1.00  0.00     0.028 A 
ATOM     18  C   UNL     1       6.550  76.901   0.840  1.00  0.00     0.002 A 
ATOM     19  C   UNL     1       6.219  79.285   0.585  1.00  0.00     0.002 A 
ATOM     20  C   UNL     1       5.799  78.052   1.092  1.00  0.00     0.000 A 
ENDBRANCH   7  15
ENDBRANCH   1   2
BRANCH   1  21
ATOM     21  C   UNL     1      13.431  79.861  -3.316  1.00  0.00     0.112 C 
BRANCH  21  22
ATOM     22  S   UNL     1      13.543  79.893  -5.119  1.00  0.00     0.053 S 
ATOM     23  O   UNL     1      13.078  81.287  -5.520  1.00  0.00    -0.254 OA
BRANCH  22  24
ATOM     24  C   UNL     1      15.287  79.895  -5.471  1.00  0.00     0.039 A 
ATOM     25  C   UNL     1      15.805  78.994  -6.412  1.00  0.00     0.018 A 
ATOM     26  C   UNL     1      16.149  80.787  -4.816  1.00  0.00     0.018 A 
ATOM     27  C   UNL     1      17.174  78.984  -6.694  1.00  0.00     0.001 A 
ATOM     28  C   UNL     1      17.518  80.775  -5.100  1.00  0.00     0.001 A 
ATOM     29  C   UNL     1      18.031  79.874  -6.038  1.00  0.00     0.000 A 
ENDBRANCH  22  24
ENDBRANCH  21  22
ENDBRANCH   1  21
TORSDOF 6
ENDMDL
MODEL 8
REMARK VINA RESULT:    -8.626      2.901      6.839
REMARK INTER + INTRA:         -13.152
REMARK INTER:                 -12.131
REMARK INTRA:                  -1.020
REMARK UNBOUND:                -1.499
REMARK SMILES O=C1C(CCS(=O)c2ccccc2)C(=O)N(c2ccccc2)N1c1ccccc1
REMARK SMILES IDX 4 1 3 2 1 3 2 4 23 5 14 6 16 7 15 8 24 9 25 10 29 11 26 12
REMARK SMILES IDX 28 13 27 14 17 15 18 16 22 17 19 18 21 19 20 20 5 21 6 22
REMARK SMILES IDX 7 23 8 24 9 25 13 26 10 27 12 28 11 29
REMARK H PARENT
REMARK Flexibility Score: inf
ROOT
ATOM      1  C   UNL     1      10.078  80.822  -1.275  1.00  0.00     0.037 C 
ENDROOT
BRANCH   1   2
ATOM      2  C   UNL     1       9.432  79.768  -2.193  1.00  0.00     0.173 C 
ATOM      3  O   UNL     1       7.126  80.049  -1.439  1.00  0.00    -0.272 OA
ATOM      4  C   UNL     1       8.122  79.300  -1.631  1.00  0.00     0.258 C 
ATOM      5  N   UNL     1       8.136  77.911  -1.307  1.00  0.00    -0.213 N 
ATOM      6  C   UNL     1      10.177  78.463  -2.184  1.00  0.00     0.258 C 
ATOM      7  N   UNL     1       9.403  77.404  -1.624  1.00  0.00    -0.213 N 
ATOM      8  O   UNL     1      11.315  78.292  -2.697  1.00  0.00    -0.272 OA
BRANCH   5   9
ATOM      9  C   UNL     1       7.178  77.258  -0.456  1.00  0.00     0.067 A 
ATOM     10  C   UNL     1       6.768  75.944  -0.732  1.00  0.00     0.028 A 
ATOM     11  C   UNL     1       6.646  77.924   0.661  1.00  0.00     0.028 A 
ATOM     12  C   UNL     1       5.844  75.305   0.100  1.00  0.00     0.002 A 
ATOM     13  C   UNL     1       5.722  77.281   1.490  1.00  0.00     0.002 A 
ATOM     14  C   UNL     1       5.321  75.972   1.210  1.00  0.00     0.000 A 
ENDBRANCH   5   9
BRANCH   7  15
ATOM     15  C   UNL     1       9.730  76.007  -1.721  1.00  0.00     0.067 A 
ATOM     16  C   UNL     1       9.528  75.307  -2.923  1.00  0.00     0.028 A 
ATOM     17  C   UNL     1      10.251  75.325  -0.609  1.00  0.00     0.028 A 
ATOM     18  C   UNL     1       9.839  73.947  -3.007  1.00  0.00     0.002 A 
ATOM     19  C   UNL     1      10.561  73.965  -0.696  1.00  0.00     0.002 A 
ATOM     20  C   UNL     1      10.355  73.276  -1.894  1.00  0.00     0.000 A 
ENDBRANCH   7  15
ENDBRANCH   1   2
BRANCH   1  21
ATOM     21  C   UNL     1       9.980  80.436   0.202  1.00  0.00     0.112 C 
BRANCH  21  22
ATOM     22  S   UNL     1      11.397  81.092   1.113  1.00  0.00     0.053 S 
ATOM     23  O   UNL     1      11.258  80.526   2.521  1.00  0.00    -0.254 OA
BRANCH  22  24
ATOM     24  C   UNL     1      12.809  80.246   0.438  1.00  0.00     0.039 A 
ATOM     25  C   UNL     1      13.195  79.010   0.972  1.00  0.00     0.018 A 
ATOM     26  C   UNL     1      13.540  80.805  -0.621  1.00  0.00     0.018 A 
ATOM     27  C   UNL     1      14.306  78.337   0.453  1.00  0.00     0.001 A 
ATOM     28  C   UNL     1      14.650  80.131  -1.138  1.00  0.00     0.001 A 
ATOM     29  C   UNL     1      15.034  78.898  -0.602  1.00  0.00     0.000 A 
ENDBRANCH  22  24
ENDBRANCH  21  22
ENDBRANCH   1  21
TORSDOF 6
ENDMDL
MODEL 9
REMARK VINA RESULT:    -8.577      3.491      7.815
REMARK INTER + INTRA:         -13.085
REMARK INTER:                 -11.934
REMARK INTRA:                  -1.151
REMARK UNBOUND:                -1.499
REMARK SMILES O=C1C(CCS(=O)c2ccccc2)C(=O)N(c2ccccc2)N1c1ccccc1
REMARK SMILES IDX 4 1 3 2 1 3 2 4 23 5 14 6 16 7 15 8 24 9 25 10 29 11 26 12
REMARK SMILES IDX 28 13 27 14 17 15 18 16 22 17 19 18 21 19 20 20 5 21 6 22
REMARK SMILES IDX 7 23 8 24 9 25 13 26 10 27 12 28 11 29
REMARK H PARENT
REMARK Flexibility Score: inf
ROOT
ATOM      1  C   UNL     1      14.906  78.801  -3.725  1.00  0.00     0.037 C 
ENDROOT
BRANCH   1   2
ATOM      2  C   UNL     1      13.402  79.126  -3.780  1.00  0.00     0.173 C 
ATOM      3  O   UNL     1      13.480  81.236  -2.553  1.00  0.00    -0.272 OA
ATOM      4  C   UNL     1      13.018  80.069  -2.678  1.00  0.00     0.258 C 
ATOM      5  N   UNL     1      12.089  79.488  -1.765  1.00  0.00    -0.213 N 
ATOM      6  C   UNL     1      12.545  77.951  -3.400  1.00  0.00     0.258 C 
ATOM      7  N   UNL     1      11.818  78.182  -2.194  1.00  0.00    -0.213 N 
ATOM      8  O   UNL     1      12.403  76.918  -4.106  1.00  0.00    -0.272 OA
BRANCH   5   9
ATOM      9  C   UNL     1      11.802  79.998  -0.452  1.00  0.00     0.067 A 
ATOM     10  C   UNL     1      12.685  79.752   0.611  1.00  0.00     0.028 A 
ATOM     11  C   UNL     1      10.637  80.750  -0.217  1.00  0.00     0.028 A 
ATOM     12  C   UNL     1      12.412  80.254   1.886  1.00  0.00     0.002 A 
ATOM     13  C   UNL     1      10.368  81.251   1.059  1.00  0.00     0.002 A 
ATOM     14  C   UNL     1      11.254  81.004   2.111  1.00  0.00     0.000 A 
ENDBRANCH   5   9
BRANCH   7  15
ATOM     15  C   UNL     1      10.728  77.371  -1.724  1.00  0.00     0.067 A 
ATOM     16  C   UNL     1      10.942  76.382  -0.748  1.00  0.00     0.028 A 
ATOM     17  C   UNL     1       9.435  77.557  -2.240  1.00  0.00     0.028 A 
ATOM     18  C   UNL     1       9.880  75.590  -0.303  1.00  0.00     0.002 A 
ATOM     19  C   UNL     1       8.375  76.764  -1.791  1.00  0.00     0.002 A 
ATOM     20  C   UNL     1       8.597  75.780  -0.824  1.00  0.00     0.000 A 
ENDBRANCH   7  15
ENDBRANCH   1   2
BRANCH   1  21
ATOM     21  C   UNL     1      15.768  80.005  -4.110  1.00  0.00     0.112 C 
BRANCH  21  22
ATOM     22  S   UNL     1      15.389  80.528  -5.798  1.00  0.00     0.053 S 
ATOM     23  O   UNL     1      14.477  81.738  -5.641  1.00  0.00    -0.254 OA
BRANCH  22  24
ATOM     24  C   UNL     1      16.911  81.205  -6.423  1.00  0.00     0.039 A 
ATOM     25  C   UNL     1      18.042  81.242  -5.597  1.00  0.00     0.018 A 
ATOM     26  C   UNL     1      16.990  81.705  -7.731  1.00  0.00     0.018 A 
ATOM     27  C   UNL     1      19.244  81.775  -6.074  1.00  0.00     0.001 A 
ATOM     28  C   UNL     1      18.192  82.238  -8.207  1.00  0.00     0.001 A 
ATOM     29  C   UNL     1      19.318  82.274  -7.379  1.00  0.00     0.000 A 
ENDBRANCH  22  24
ENDBRANCH  21  22
ENDBRANCH   1  21
TORSDOF 6
ENDMDL
MODEL 10
REMARK VINA RESULT:    -8.266      2.491      7.495
REMARK INTER + INTRA:         -12.665
REMARK INTER:                 -12.144
REMARK INTRA:                  -0.521
REMARK UNBOUND:                -1.499
REMARK SMILES O=C1C(CCS(=O)c2ccccc2)C(=O)N(c2ccccc2)N1c1ccccc1
REMARK SMILES IDX 4 1 3 2 1 3 2 4 23 5 14 6 16 7 15 8 24 9 25 10 29 11 26 12
REMARK SMILES IDX 28 13 27 14 17 15 18 16 22 17 19 18 21 19 20 20 5 21 6 22
REMARK SMILES IDX 7 23 8 24 9 25 13 26 10 27 12 28 11 29
REMARK H PARENT
REMARK Flexibility Score: inf
ROOT
ATOM      1  C   UNL     1      11.554  78.376  -1.908  1.00  0.00     0.037 C 
ENDROOT
BRANCH   1   2
ATOM      2  C   UNL     1      10.629  77.665  -2.913  1.00  0.00     0.173 C 
ATOM      3  O   UNL     1       8.505  78.506  -2.051  1.00  0.00    -0.272 OA
ATOM      4  C   UNL     1       9.241  77.531  -2.360  1.00  0.00     0.258 C 
ATOM      5  N   UNL     1       8.854  76.168  -2.193  1.00  0.00    -0.213 N 
ATOM      6  C   UNL     1      10.966  76.210  -3.076  1.00  0.00     0.258 C 
ATOM      7  N   UNL     1       9.920  75.360  -2.609  1.00  0.00    -0.213 N 
ATOM      8  O   UNL     1      12.005  75.780  -3.645  1.00  0.00    -0.272 OA
BRANCH   5   9
ATOM      9  C   UNL     1       7.750  75.723  -1.386  1.00  0.00     0.067 A 
ATOM     10  C   UNL     1       7.652  76.118  -0.043  1.00  0.00     0.028 A 
ATOM     11  C   UNL     1       6.758  74.890  -1.932  1.00  0.00     0.028 A 
ATOM     12  C   UNL     1       6.575  75.693   0.741  1.00  0.00     0.002 A 
ATOM     13  C   UNL     1       5.683  74.467  -1.145  1.00  0.00     0.002 A 
ATOM     14  C   UNL     1       5.591  74.869   0.191  1.00  0.00     0.000 A 
ENDBRANCH   5   9
BRANCH   7  15
ATOM     15  C   UNL     1       9.829  73.949  -2.872  1.00  0.00     0.067 A 
ATOM     16  C   UNL     1      10.175  73.014  -1.881  1.00  0.00     0.028 A 
ATOM     17  C   UNL     1       9.396  73.490  -4.127  1.00  0.00     0.028 A 
ATOM     18  C   UNL     1      10.094  71.644  -2.146  1.00  0.00     0.002 A 
ATOM     19  C   UNL     1       9.316  72.120  -4.388  1.00  0.00     0.002 A 
ATOM     20  C   UNL     1       9.665  71.196  -3.398  1.00  0.00     0.000 A 
ENDBRANCH   7  15
ENDBRANCH   1   2
BRANCH   1  21
ATOM     21  C   UNL     1      13.031  78.225  -2.279  1.00  0.00     0.112 C 
BRANCH  21  22
ATOM     22  S   UNL     1      14.066  79.116  -1.095  1.00  0.00     0.053 S 
ATOM     23  O   UNL     1      14.869  80.101  -1.935  1.00  0.00    -0.254 OA
BRANCH  22  24
ATOM     24  C   UNL     1      12.936  80.141  -0.178  1.00  0.00     0.039 A 
ATOM     25  C   UNL     1      12.190  81.119  -0.849  1.00  0.00     0.018 A 
ATOM     26  C   UNL     1      12.787  79.981   1.207  1.00  0.00     0.018 A 
ATOM     27  C   UNL     1      11.302  81.933  -0.139  1.00  0.00     0.001 A 
ATOM     28  C   UNL     1      11.898  80.797   1.915  1.00  0.00     0.001 A 
ATOM     29  C   UNL     1      11.157  81.773   1.243  1.00  0.00     0.000 A 
ENDBRANCH  22  24
ENDBRANCH  21  22
ENDBRANCH   1  21
TORSDOF 6
ENDMDL
MODEL 11
REMARK VINA RESULT:    -8.029      2.207      4.280
REMARK INTER + INTRA:         -12.345
REMARK INTER:                 -11.156
REMARK INTRA:                  -1.189
REMARK UNBOUND:                -1.499
REMARK SMILES O=C1C(CCS(=O)c2ccccc2)C(=O)N(c2ccccc2)N1c1ccccc1
REMARK SMILES IDX 4 1 3 2 1 3 2 4 23 5 14 6 16 7 15 8 24 9 25 10 29 11 26 12
REMARK SMILES IDX 28 13 27 14 17 15 18 16 22 17 19 18 21 19 20 20 5 21 6 22
REMARK SMILES IDX 7 23 8 24 9 25 13 26 10 27 12 28 11 29
REMARK H PARENT
REMARK Flexibility Score: inf
ROOT
ATOM      1  C   UNL     1       7.879  79.982  -1.562  1.00  0.00     0.037 C 
ENDROOT
BRANCH   1   2
ATOM      2  C   UNL     1       9.166  80.798  -1.342  1.00  0.00     0.173 C 
ATOM      3  O   UNL     1       9.708  81.190  -3.691  1.00  0.00    -0.272 OA
ATOM      4  C   UNL     1      10.044  80.750  -2.558  1.00  0.00     0.258 C 
ATOM      5  N   UNL     1      11.298  80.121  -2.298  1.00  0.00    -0.213 N 
ATOM      6  C   UNL     1      10.094  80.153  -0.350  1.00  0.00     0.258 C 
ATOM      7  N   UNL     1      11.317  79.734  -0.951  1.00  0.00    -0.213 N 
ATOM      8  O   UNL     1       9.867  80.074   0.886  1.00  0.00    -0.272 OA
BRANCH   5   9
ATOM      9  C   UNL     1      12.192  79.626  -3.308  1.00  0.00     0.067 A 
ATOM     10  C   UNL     1      12.817  80.515  -4.197  1.00  0.00     0.028 A 
ATOM     11  C   UNL     1      12.453  78.249  -3.418  1.00  0.00     0.028 A 
ATOM     12  C   UNL     1      13.693  80.036  -5.175  1.00  0.00     0.002 A 
ATOM     13  C   UNL     1      13.331  77.774  -4.397  1.00  0.00     0.002 A 
ATOM     14  C   UNL     1      13.951  78.667  -5.275  1.00  0.00     0.000 A 
ENDBRANCH   5   9
BRANCH   7  15
ATOM     15  C   UNL     1      12.494  79.336  -0.226  1.00  0.00     0.067 A 
ATOM     16  C   UNL     1      13.504  80.269   0.065  1.00  0.00     0.028 A 
ATOM     17  C   UNL     1      12.647  78.005   0.194  1.00  0.00     0.028 A 
ATOM     18  C   UNL     1      14.650  79.873   0.760  1.00  0.00     0.002 A 
ATOM     19  C   UNL     1      13.794  77.612   0.890  1.00  0.00     0.002 A 
ATOM     20  C   UNL     1      14.795  78.546   1.173  1.00  0.00     0.000 A 
ENDBRANCH   7  15
ENDBRANCH   1   2
BRANCH   1  21
ATOM     21  C   UNL     1       8.165  78.610  -2.175  1.00  0.00     0.112 C 
BRANCH  21  22
ATOM     22  S   UNL     1       8.316  77.366  -0.873  1.00  0.00     0.053 S 
ATOM     23  O   UNL     1       6.913  77.225  -0.295  1.00  0.00    -0.254 OA
BRANCH  22  24
ATOM     24  C   UNL     1       8.591  75.832  -1.732  1.00  0.00     0.039 A 
ATOM     25  C   UNL     1       9.550  74.932  -1.251  1.00  0.00     0.018 A 
ATOM     26  C   UNL     1       7.859  75.517  -2.886  1.00  0.00     0.018 A 
ATOM     27  C   UNL     1       9.778  73.725  -1.920  1.00  0.00     0.001 A 
ATOM     28  C   UNL     1       8.088  74.309  -3.554  1.00  0.00     0.001 A 
ATOM     29  C   UNL     1       9.048  73.414  -3.071  1.00  0.00     0.000 A 
ENDBRANCH  22  24
ENDBRANCH  21  22
ENDBRANCH   1  21
TORSDOF 6
ENDMDL
MODEL 12
REMARK VINA RESULT:    -7.953      2.636      5.186
REMARK INTER + INTRA:         -12.243
REMARK INTER:                 -12.016
REMARK INTRA:                  -0.227
REMARK UNBOUND:                -1.499
REMARK SMILES O=C1C(CCS(=O)c2ccccc2)C(=O)N(c2ccccc2)N1c1ccccc1
REMARK SMILES IDX 4 1 3 2 1 3 2 4 23 5 14 6 16 7 15 8 24 9 25 10 29 11 26 12
REMARK SMILES IDX 28 13 27 14 17 15 18 16 22 17 19 18 21 19 20 20 5 21 6 22
REMARK SMILES IDX 7 23 8 24 9 25 13 26 10 27 12 28 11 29
REMARK H PARENT
REMARK Flexibility Score: inf
ROOT
ATOM      1  C   UNL     1       8.761  72.812  -1.902  1.00  0.00     0.037 C 
ENDROOT
BRANCH   1   2
ATOM      2  C   UNL     1       8.260  74.149  -2.480  1.00  0.00     0.173 C 
ATOM      3  O   UNL     1      10.386  74.922  -3.400  1.00  0.00    -0.272 OA
ATOM      4  C   UNL     1       9.394  75.118  -2.647  1.00  0.00     0.258 C 
ATOM      5  N   UNL     1       9.240  76.279  -1.833  1.00  0.00    -0.213 N 
ATOM      6  C   UNL     1       7.425  74.924  -1.499  1.00  0.00     0.258 C 
ATOM      7  N   UNL     1       8.046  76.148  -1.112  1.00  0.00    -0.213 N 
ATOM      8  O   UNL     1       6.269  74.587  -1.130  1.00  0.00    -0.272 OA
BRANCH   5   9
ATOM      9  C   UNL     1      10.294  77.204  -1.517  1.00  0.00     0.067 A 
ATOM     10  C   UNL     1      10.430  78.396  -2.244  1.00  0.00     0.028 A 
ATOM     11  C   UNL     1      11.198  76.927  -0.476  1.00  0.00     0.028 A 
ATOM     12  C   UNL     1      11.449  79.301  -1.932  1.00  0.00     0.002 A 
ATOM     13  C   UNL     1      12.216  77.834  -0.167  1.00  0.00     0.002 A 
ATOM     14  C   UNL     1      12.342  79.021  -0.894  1.00  0.00     0.000 A 
ENDBRANCH   5   9
BRANCH   7  15
ATOM     15  C   UNL     1       7.388  77.216  -0.408  1.00  0.00     0.067 A 
ATOM     16  C   UNL     1       7.491  78.542  -0.864  1.00  0.00     0.028 A 
ATOM     17  C   UNL     1       6.639  76.943   0.748  1.00  0.00     0.028 A 
ATOM     18  C   UNL     1       6.857  79.576  -0.169  1.00  0.00     0.002 A 
ATOM     19  C   UNL     1       6.007  77.980   1.440  1.00  0.00     0.002 A 
ATOM     20  C   UNL     1       6.116  79.296   0.982  1.00  0.00     0.000 A 
ENDBRANCH   7  15
ENDBRANCH   1   2
BRANCH   1  21
ATOM     21  C   UNL     1      10.109  72.961  -1.194  1.00  0.00     0.112 C 
BRANCH  21  22
ATOM     22  S   UNL     1      11.262  71.697  -1.778  1.00  0.00     0.053 S 
ATOM     23  O   UNL     1      10.566  70.370  -1.501  1.00  0.00    -0.254 OA
BRANCH  22  24
ATOM     24  C   UNL     1      11.240  71.840  -3.552  1.00  0.00     0.039 A 
ATOM     25  C   UNL     1      10.169  71.300  -4.276  1.00  0.00     0.018 A 
ATOM     26  C   UNL     1      12.284  72.485  -4.232  1.00  0.00     0.018 A 
ATOM     27  C   UNL     1      10.143  71.402  -5.671  1.00  0.00     0.001 A 
ATOM     28  C   UNL     1      12.255  72.586  -5.626  1.00  0.00     0.001 A 
ATOM     29  C   UNL     1      11.186  72.045  -6.345  1.00  0.00     0.000 A 
ENDBRANCH  22  24
ENDBRANCH  21  22
ENDBRANCH   1  21
TORSDOF 6
ENDMDL
MODEL 13
REMARK VINA RESULT:    -7.901      2.323      4.529
REMARK INTER + INTRA:         -12.171
REMARK INTER:                 -11.934
REMARK INTRA:                  -0.237
REMARK UNBOUND:                -1.499
REMARK SMILES O=C1C(CCS(=O)c2ccccc2)C(=O)N(c2ccccc2)N1c1ccccc1
REMARK SMILES IDX 4 1 3 2 1 3 2 4 23 5 14 6 16 7 15 8 24 9 25 10 29 11 26 12
REMARK SMILES IDX 28 13 27 14 17 15 18 16 22 17 19 18 21 19 20 20 5 21 6 22
REMARK SMILES IDX 7 23 8 24 9 25 13 26 10 27 12 28 11 29
REMARK H PARENT
REMARK Flexibility Score: inf
ROOT
ATOM      1  C   UNL     1      10.510  75.359  -2.957  1.00  0.00     0.037 C 
ENDROOT
BRANCH   1   2
ATOM      2  C   UNL     1       9.654  76.635  -3.057  1.00  0.00     0.173 C 
ATOM      3  O   UNL     1      11.477  78.258  -2.975  1.00  0.00    -0.272 OA
ATOM      4  C   UNL     1      10.392  77.819  -2.506  1.00  0.00     0.258 C 
ATOM      5  N   UNL     1       9.742  78.381  -1.366  1.00  0.00    -0.213 N 
ATOM      6  C   UNL     1       8.485  76.619  -2.112  1.00  0.00     0.258 C 
ATOM      7  N   UNL     1       8.587  77.630  -1.112  1.00  0.00    -0.213 N 
ATOM      8  O   UNL     1       7.481  75.869  -2.238  1.00  0.00    -0.272 OA
BRANCH   5   9
ATOM      9  C   UNL     1      10.361  79.281  -0.432  1.00  0.00     0.067 A 
ATOM     10  C   UNL     1      11.607  78.967   0.134  1.00  0.00     0.028 A 
ATOM     11  C   UNL     1       9.728  80.485  -0.075  1.00  0.00     0.028 A 
ATOM     12  C   UNL     1      12.213  79.846   1.036  1.00  0.00     0.002 A 
ATOM     13  C   UNL     1      10.338  81.361   0.827  1.00  0.00     0.002 A 
ATOM     14  C   UNL     1      11.580  81.042   1.383  1.00  0.00     0.000 A 
ENDBRANCH   5   9
BRANCH   7  15
ATOM     15  C   UNL     1       7.516  78.037  -0.243  1.00  0.00     0.067 A 
ATOM     16  C   UNL     1       6.948  79.318  -0.359  1.00  0.00     0.028 A 
ATOM     17  C   UNL     1       7.029  77.157   0.738  1.00  0.00     0.028 A 
ATOM     18  C   UNL     1       5.915  79.711   0.495  1.00  0.00     0.002 A 
ATOM     19  C   UNL     1       5.995  77.554   1.590  1.00  0.00     0.002 A 
ATOM     20  C   UNL     1       5.438  78.830   1.470  1.00  0.00     0.000 A 
ENDBRANCH   7  15
ENDBRANCH   1   2
BRANCH   1  21
ATOM     21  C   UNL     1      10.467  74.745  -1.556  1.00  0.00     0.112 C 
BRANCH  21  22
ATOM     22  S   UNL     1      10.085  72.982  -1.660  1.00  0.00     0.053 S 
ATOM     23  O   UNL     1       8.568  72.899  -1.545  1.00  0.00    -0.254 OA
BRANCH  22  24
ATOM     24  C   UNL     1      10.420  72.538  -3.351  1.00  0.00     0.039 A 
ATOM     25  C   UNL     1       9.371  72.109  -4.174  1.00  0.00     0.018 A 
ATOM     26  C   UNL     1      11.722  72.612  -3.866  1.00  0.00     0.018 A 
ATOM     27  C   UNL     1       9.622  71.753  -5.503  1.00  0.00     0.001 A 
ATOM     28  C   UNL     1      11.971  72.257  -5.195  1.00  0.00     0.001 A 
ATOM     29  C   UNL     1      10.922  71.827  -6.013  1.00  0.00     0.000 A 
ENDBRANCH  22  24
ENDBRANCH  21  22
ENDBRANCH   1  21
TORSDOF 6
ENDMDL
MODEL 14
REMARK VINA RESULT:    -7.744      4.119      6.177
REMARK INTER + INTRA:         -11.960
REMARK INTER:                 -10.265
REMARK INTRA:                  -1.695
REMARK UNBOUND:                -1.499
REMARK SMILES O=C1C(CCS(=O)c2ccccc2)C(=O)N(c2ccccc2)N1c1ccccc1
REMARK SMILES IDX 4 1 3 2 1 3 2 4 23 5 14 6 16 7 15 8 24 9 25 10 29 11 26 12
REMARK SMILES IDX 28 13 27 14 17 15 18 16 22 17 19 18 21 19 20 20 5 21 6 22
REMARK SMILES IDX 7 23 8 24 9 25 13 26 10 27 12 28 11 29
REMARK H PARENT
REMARK Flexibility Score: inf
ROOT
ATOM      1  C   UNL     1      14.127  78.234   1.883  1.00  0.00     0.037 C 
ENDROOT
BRANCH   1   2
ATOM      2  C   UNL     1      14.088  79.410   0.889  1.00  0.00     0.173 C 
ATOM      3  O   UNL     1      11.864  80.243   1.457  1.00  0.00    -0.272 OA
ATOM      4  C   UNL     1      12.674  79.813   0.591  1.00  0.00     0.258 C 
ATOM      5  N   UNL     1      12.334  79.626  -0.781  1.00  0.00    -0.213 N 
ATOM      6  C   UNL     1      14.520  79.009  -0.494  1.00  0.00     0.258 C 
ATOM      7  N   UNL     1      13.458  79.112  -1.441  1.00  0.00    -0.213 N 
ATOM      8  O   UNL     1      15.702  78.709  -0.810  1.00  0.00    -0.272 OA
BRANCH   5   9
ATOM      9  C   UNL     1      10.992  79.594  -1.297  1.00  0.00     0.067 A 
ATOM     10  C   UNL     1      10.284  78.383  -1.349  1.00  0.00     0.028 A 
ATOM     11  C   UNL     1      10.373  80.771  -1.751  1.00  0.00     0.028 A 
ATOM     12  C   UNL     1       8.976  78.351  -1.841  1.00  0.00     0.002 A 
ATOM     13  C   UNL     1       9.065  80.735  -2.243  1.00  0.00     0.002 A 
ATOM     14  C   UNL     1       8.366  79.526  -2.287  1.00  0.00     0.000 A 
ENDBRANCH   5   9
BRANCH   7  15
ATOM     15  C   UNL     1      13.622  79.058  -2.868  1.00  0.00     0.067 A 
ATOM     16  C   UNL     1      13.559  77.831  -3.550  1.00  0.00     0.028 A 
ATOM     17  C   UNL     1      13.852  80.237  -3.597  1.00  0.00     0.028 A 
ATOM     18  C   UNL     1      13.730  77.785  -4.937  1.00  0.00     0.002 A 
ATOM     19  C   UNL     1      14.021  80.188  -4.983  1.00  0.00     0.002 A 
ATOM     20  C   UNL     1      13.960  78.963  -5.653  1.00  0.00     0.000 A 
ENDBRANCH   7  15
ENDBRANCH   1   2
BRANCH   1  21
ATOM     21  C   UNL     1      13.336  77.026   1.376  1.00  0.00     0.112 C 
BRANCH  21  22
ATOM     22  S   UNL     1      14.336  75.527   1.507  1.00  0.00     0.053 S 
ATOM     23  O   UNL     1      15.764  75.979   1.227  1.00  0.00    -0.254 OA
BRANCH  22  24
ATOM     24  C   UNL     1      14.337  75.125   3.240  1.00  0.00     0.039 A 
ATOM     25  C   UNL     1      15.453  74.492   3.803  1.00  0.00     0.018 A 
ATOM     26  C   UNL     1      13.232  75.434   4.048  1.00  0.00     0.018 A 
ATOM     27  C   UNL     1      15.464  74.167   5.163  1.00  0.00     0.001 A 
ATOM     28  C   UNL     1      13.245  75.109   5.408  1.00  0.00     0.001 A 
ATOM     29  C   UNL     1      14.360  74.475   5.965  1.00  0.00     0.000 A 
ENDBRANCH  22  24
ENDBRANCH  21  22
ENDBRANCH   1  21
TORSDOF 6
ENDMDL
MODEL 15
REMARK VINA RESULT:    -7.706      0.804      3.714
REMARK INTER + INTRA:         -11.908
REMARK INTER:                 -10.814
REMARK INTRA:                  -1.095
REMARK UNBOUND:                -1.499
REMARK SMILES O=C1C(CCS(=O)c2ccccc2)C(=O)N(c2ccccc2)N1c1ccccc1
REMARK SMILES IDX 4 1 3 2 1 3 2 4 23 5 14 6 16 7 15 8 24 9 25 10 29 11 26 12
REMARK SMILES IDX 28 13 27 14 17 15 18 16 22 17 19 18 21 19 20 20 5 21 6 22
REMARK SMILES IDX 7 23 8 24 9 25 13 26 10 27 12 28 11 29
REMARK H PARENT
REMARK Flexibility Score: inf
ROOT
ATOM      1  C   UNL     1       9.968  75.502  -1.585  1.00  0.00     0.037 C 
ENDROOT
BRANCH   1   2
ATOM      2  C   UNL     1       9.841  76.964  -2.051  1.00  0.00     0.173 C 
ATOM      3  O   UNL     1      11.557  76.901  -3.788  1.00  0.00    -0.272 OA
ATOM      4  C   UNL     1      11.097  77.418  -2.734  1.00  0.00     0.258 C 
ATOM      5  N   UNL     1      11.736  78.488  -2.039  1.00  0.00    -0.213 N 
ATOM      6  C   UNL     1       9.826  77.935  -0.904  1.00  0.00     0.258 C 
ATOM      7  N   UNL     1      10.969  78.787  -0.905  1.00  0.00    -0.213 N 
ATOM      8  O   UNL     1       8.874  78.055  -0.088  1.00  0.00    -0.272 OA
BRANCH   5   9
ATOM      9  C   UNL     1      13.098  78.900  -2.243  1.00  0.00     0.067 A 
ATOM     10  C   UNL     1      14.085  78.573  -1.299  1.00  0.00     0.028 A 
ATOM     11  C   UNL     1      13.458  79.631  -3.388  1.00  0.00     0.028 A 
ATOM     12  C   UNL     1      15.411  78.966  -1.500  1.00  0.00     0.002 A 
ATOM     13  C   UNL     1      14.786  80.022  -3.585  1.00  0.00     0.002 A 
ATOM     14  C   UNL     1      15.762  79.689  -2.642  1.00  0.00     0.000 A 
ENDBRANCH   5   9
BRANCH   7  15
ATOM     15  C   UNL     1      11.108  79.977  -0.109  1.00  0.00     0.067 A 
ATOM     16  C   UNL     1      10.586  81.203  -0.557  1.00  0.00     0.028 A 
ATOM     17  C   UNL     1      11.773  79.925   1.127  1.00  0.00     0.028 A 
ATOM     18  C   UNL     1      10.734  82.357   0.217  1.00  0.00     0.002 A 
ATOM     19  C   UNL     1      11.918  81.081   1.899  1.00  0.00     0.002 A 
ATOM     20  C   UNL     1      11.399  82.297   1.445  1.00  0.00     0.000 A 
ENDBRANCH   7  15
ENDBRANCH   1   2
BRANCH   1  21
ATOM     21  C   UNL     1       8.656  74.967  -1.006  1.00  0.00     0.112 C 
BRANCH  21  22
ATOM     22  S   UNL     1       7.685  74.163  -2.302  1.00  0.00     0.053 S 
ATOM     23  O   UNL     1       7.353  75.272  -3.292  1.00  0.00    -0.254 OA
BRANCH  22  24
ATOM     24  C   UNL     1       8.846  73.133  -3.172  1.00  0.00     0.039 A 
ATOM     25  C   UNL     1       8.955  73.239  -4.565  1.00  0.00     0.018 A 
ATOM     26  C   UNL     1       9.650  72.215  -2.479  1.00  0.00     0.018 A 
ATOM     27  C   UNL     1       9.861  72.432  -5.261  1.00  0.00     0.001 A 
ATOM     28  C   UNL     1      10.554  71.410  -3.177  1.00  0.00     0.001 A 
ATOM     29  C   UNL     1      10.660  71.517  -4.567  1.00  0.00     0.000 A 
ENDBRANCH  22  24
ENDBRANCH  21  22
ENDBRANCH   1  21
TORSDOF 6
ENDMDL
