MODEL 1
REMARK VINA RESULT:   -10.928      0.000      0.000
REMARK INTER + INTRA:         -14.817
REMARK INTER:                 -15.399
REMARK INTRA:                   0.582
REMARK UNBOUND:                 0.582
REMARK SMILES CC(=O)N1CCN(c2ccc(OCC3COC(Cn4ccnc4)(c4ccc(Cl)cc4Cl)O3)cc2)CC1
REMARK SMILES IDX 13 1 12 2 11 3 8 4 9 5 34 6 10 7 33 8 7 9 1 10 2 11 3 12
REMARK SMILES IDX 4 13 5 14 36 15 6 16 35 17 14 18 15 19 32 20 16 21 17 22
REMARK SMILES IDX 18 23 19 24 20 25 23 26 21 27 22 28 24 29 25 30 30 31 26 32
REMARK SMILES IDX 29 33 31 34 27 35 28 36
REMARK H PARENT
REMARK Flexibility Score: inf
ROOT
ATOM      1  C   UNL     1      10.948  78.342  -0.801  1.00  0.00     0.264 C 
ENDROOT
BRANCH   1   2
ATOM      2  O   UNL     1      12.256  78.908  -0.702  1.00  0.00    -0.491 OA
BRANCH   2   3
ATOM      3  C   UNL     1      13.069  79.285  -1.783  1.00  0.00     0.119 A 
ATOM      4  C   UNL     1      14.804  80.046  -3.879  1.00  0.00     0.037 A 
ATOM      5  C   UNL     1      15.316  79.650  -2.631  1.00  0.00     0.030 A 
ATOM      6  C   UNL     1      13.410  80.058  -4.066  1.00  0.00     0.030 A 
ATOM      7  C   UNL     1      14.456  79.273  -1.598  1.00  0.00     0.048 A 
ATOM      8  C   UNL     1      12.550  79.682  -3.030  1.00  0.00     0.048 A 
BRANCH   4   9
ATOM      9  N   UNL     1      15.694  80.454  -4.941  1.00  0.00    -0.368 N 
ATOM     10  C   UNL     1      19.921  82.466  -7.117  1.00  0.00     0.114 C 
ATOM     11  C   UNL     1      18.497  82.302  -7.557  1.00  0.00     0.219 C 
ATOM     12  O   UNL     1      18.134  82.844  -8.636  1.00  0.00    -0.275 OA
ATOM     13  N   UNL     1      17.557  81.522  -6.787  1.00  0.00    -0.339 N 
ATOM     14  C   UNL     1      16.130  81.529  -7.139  1.00  0.00     0.141 C 
ATOM     15  C   UNL     1      18.035  80.649  -5.701  1.00  0.00     0.141 C 
ATOM     16  C   UNL     1      15.269  81.512  -5.872  1.00  0.00     0.138 C 
ATOM     17  C   UNL     1      16.934  79.708  -5.195  1.00  0.00     0.138 C 
ENDBRANCH   4   9
ENDBRANCH   2   3
ENDBRANCH   1   2
BRANCH   1  18
ATOM     18  C   UNL     1      11.016  76.840  -1.109  1.00  0.00     0.185 C 
ATOM     19  C   UNL     1      10.721  75.985   0.093  1.00  0.00     0.200 C 
ATOM     20  O   UNL     1      10.057  76.513  -2.066  1.00  0.00    -0.335 OA
ATOM     21  O   UNL     1       9.929  74.942  -0.369  1.00  0.00    -0.342 OA
ATOM     22  C   UNL     1       9.330  75.408  -1.561  1.00  0.00     0.215 C 
BRANCH  22  23
ATOM     23  C   UNL     1       7.886  75.870  -1.255  1.00  0.00     0.194 C 
BRANCH  23  24
ATOM     24  N   UNL     1       7.786  77.329  -1.232  1.00  0.00    -0.332 N 
ATOM     25  C   UNL     1       7.882  78.162  -2.281  1.00  0.00     0.107 A 
ATOM     26  C   UNL     1       7.513  78.108  -0.168  1.00  0.00     0.199 A 
ATOM     27  C   UNL     1       7.669  79.442  -1.822  1.00  0.00     0.130 A 
ATOM     28  N   UNL     1       7.436  79.415  -0.494  1.00  0.00    -0.245 NA
ENDBRANCH  23  24
ENDBRANCH  22  23
BRANCH  22  29
ATOM     29  C   UNL     1       9.309  74.276  -2.594  1.00  0.00     0.032 A 
ATOM     30  C   UNL     1      10.250  73.226  -2.497  1.00  0.00     0.012 A 
ATOM     31  C   UNL     1       8.429  74.288  -3.710  1.00  0.00     0.051 A 
ATOM     32  C   UNL     1      10.292  72.208  -3.452  1.00  0.00     0.021 A 
ATOM     33  C   UNL     1       8.481  73.257  -4.657  1.00  0.00     0.041 A 
ATOM     34  Cl  UNL     1       7.260  75.576  -3.998  1.00  0.00    -0.084 Cl
ATOM     35  C   UNL     1       9.407  72.220  -4.528  1.00  0.00     0.042 A 
ATOM     36  Cl  UNL     1       9.468  70.943  -5.731  1.00  0.00    -0.084 Cl
ENDBRANCH  22  29
ENDBRANCH   1  18
TORSDOF 7
ENDMDL
MODEL 2
REMARK VINA RESULT:   -10.882      1.636      2.197
REMARK INTER + INTRA:         -14.752
REMARK INTER:                 -14.824
REMARK INTRA:                   0.071
REMARK UNBOUND:                 0.582
REMARK SMILES CC(=O)N1CCN(c2ccc(OCC3COC(Cn4ccnc4)(c4ccc(Cl)cc4Cl)O3)cc2)CC1
REMARK SMILES IDX 13 1 12 2 11 3 8 4 9 5 34 6 10 7 33 8 7 9 1 10 2 11 3 12
REMARK SMILES IDX 4 13 5 14 36 15 6 16 35 17 14 18 15 19 32 20 16 21 17 22
REMARK SMILES IDX 18 23 19 24 20 25 23 26 21 27 22 28 24 29 25 30 30 31 26 32
REMARK SMILES IDX 29 33 31 34 27 35 28 36
REMARK H PARENT
REMARK Flexibility Score: inf
ROOT
ATOM      1  C   UNL     1      11.010  77.311  -0.482  1.00  0.00     0.264 C 
ENDROOT
BRANCH   1   2
ATOM      2  O   UNL     1      12.394  77.663  -0.487  1.00  0.00    -0.491 OA
BRANCH   2   3
ATOM      3  C   UNL     1      13.079  78.272  -1.551  1.00  0.00     0.119 A 
ATOM      4  C   UNL     1      14.378  79.441  -3.771  1.00  0.00     0.037 A 
ATOM      5  C   UNL     1      13.134  78.805  -3.921  1.00  0.00     0.030 A 
ATOM      6  C   UNL     1      14.967  79.484  -2.494  1.00  0.00     0.030 A 
ATOM      7  C   UNL     1      12.494  78.229  -2.820  1.00  0.00     0.048 A 
ATOM      8  C   UNL     1      14.326  78.906  -1.395  1.00  0.00     0.048 A 
BRANCH   4   9
ATOM      9  N   UNL     1      15.047  80.020  -4.913  1.00  0.00    -0.368 N 
ATOM     10  C   UNL     1      18.989  81.312  -7.985  1.00  0.00     0.114 C 
ATOM     11  C   UNL     1      17.634  81.898  -7.722  1.00  0.00     0.219 C 
ATOM     12  O   UNL     1      17.350  83.014  -8.237  1.00  0.00    -0.275 OA
ATOM     13  N   UNL     1      16.655  81.200  -6.922  1.00  0.00    -0.339 N 
ATOM     14  C   UNL     1      15.409  81.874  -6.528  1.00  0.00     0.141 C 
ATOM     15  C   UNL     1      16.860  79.784  -6.571  1.00  0.00     0.141 C 
ATOM     16  C   UNL     1      15.021  81.480  -5.100  1.00  0.00     0.138 C 
ATOM     17  C   UNL     1      15.600  79.156  -5.964  1.00  0.00     0.138 C 
ENDBRANCH   4   9
ENDBRANCH   2   3
ENDBRANCH   1   2
BRANCH   1  18
ATOM     18  C   UNL     1      10.810  75.844  -0.890  1.00  0.00     0.185 C 
ATOM     19  C   UNL     1       9.884  75.103   0.035  1.00  0.00     0.200 C 
ATOM     20  O   UNL     1      10.228  75.785  -2.155  1.00  0.00    -0.335 OA
ATOM     21  O   UNL     1       9.087  74.311  -0.781  1.00  0.00    -0.342 OA
ATOM     22  C   UNL     1       9.114  74.917  -2.056  1.00  0.00     0.215 C 
BRANCH  22  23
ATOM     23  C   UNL     1       7.824  75.750  -2.247  1.00  0.00     0.194 C 
BRANCH  23  24
ATOM     24  N   UNL     1       6.992  75.728  -1.044  1.00  0.00    -0.332 N 
ATOM     25  C   UNL     1       6.928  76.670  -0.089  1.00  0.00     0.107 A 
ATOM     26  C   UNL     1       6.087  74.793  -0.700  1.00  0.00     0.199 A 
ATOM     27  C   UNL     1       5.979  76.276   0.826  1.00  0.00     0.130 A 
ATOM     28  N   UNL     1       5.446  75.097   0.448  1.00  0.00    -0.245 NA
ENDBRANCH  23  24
ENDBRANCH  22  23
BRANCH  22  29
ATOM     29  C   UNL     1       9.197  73.830  -3.133  1.00  0.00     0.032 A 
ATOM     30  C   UNL     1       8.475  73.984  -4.339  1.00  0.00     0.012 A 
ATOM     31  C   UNL     1       9.908  72.616  -2.928  1.00  0.00     0.051 A 
ATOM     32  C   UNL     1       8.487  72.988  -5.317  1.00  0.00     0.021 A 
ATOM     33  C   UNL     1       9.914  71.628  -3.922  1.00  0.00     0.041 A 
ATOM     34  Cl  UNL     1      10.786  72.257  -1.442  1.00  0.00    -0.084 Cl
ATOM     35  C   UNL     1       9.208  71.813  -5.111  1.00  0.00     0.042 A 
ATOM     36  Cl  UNL     1       9.214  70.560  -6.340  1.00  0.00    -0.084 Cl
ENDBRANCH  22  29
ENDBRANCH   1  18
TORSDOF 7
ENDMDL
MODEL 3
REMARK VINA RESULT:   -10.546      1.200      1.589
REMARK INTER + INTRA:         -14.279
REMARK INTER:                 -14.639
REMARK INTRA:                   0.360
REMARK UNBOUND:                 0.582
REMARK SMILES CC(=O)N1CCN(c2ccc(OCC3COC(Cn4ccnc4)(c4ccc(Cl)cc4Cl)O3)cc2)CC1
REMARK SMILES IDX 13 1 12 2 11 3 8 4 9 5 34 6 10 7 33 8 7 9 1 10 2 11 3 12
REMARK SMILES IDX 4 13 5 14 36 15 6 16 35 17 14 18 15 19 32 20 16 21 17 22
REMARK SMILES IDX 18 23 19 24 20 25 23 26 21 27 22 28 24 29 25 30 30 31 26 32
REMARK SMILES IDX 29 33 31 34 27 35 28 36
REMARK H PARENT
REMARK Flexibility Score: inf
ROOT
ATOM      1  C   UNL     1      11.075  77.772  -0.624  1.00  0.00     0.264 C 
ENDROOT
BRANCH   1   2
ATOM      2  O   UNL     1      12.459  78.119  -0.664  1.00  0.00    -0.491 OA
BRANCH   2   3
ATOM      3  C   UNL     1      13.156  78.579  -1.793  1.00  0.00     0.119 A 
ATOM      4  C   UNL     1      14.617  79.586  -3.991  1.00  0.00     0.037 A 
ATOM      5  C   UNL     1      14.973  79.928  -2.675  1.00  0.00     0.030 A 
ATOM      6  C   UNL     1      13.518  78.732  -4.195  1.00  0.00     0.030 A 
ATOM      7  C   UNL     1      14.249  79.427  -1.591  1.00  0.00     0.048 A 
ATOM      8  C   UNL     1      12.794  78.233  -3.109  1.00  0.00     0.048 A 
BRANCH   4   9
ATOM      9  N   UNL     1      15.356  80.119  -5.113  1.00  0.00    -0.368 N 
ATOM     10  C   UNL     1      19.487  81.440  -7.913  1.00  0.00     0.114 C 
ATOM     11  C   UNL     1      18.078  81.948  -7.824  1.00  0.00     0.219 C 
ATOM     12  O   UNL     1      17.776  82.997  -8.456  1.00  0.00    -0.275 OA
ATOM     13  N   UNL     1      17.073  81.248  -7.060  1.00  0.00    -0.339 N 
ATOM     14  C   UNL     1      15.755  81.861  -6.840  1.00  0.00     0.141 C 
ATOM     15  C   UNL     1      17.332  79.882  -6.573  1.00  0.00     0.141 C 
ATOM     16  C   UNL     1      15.256  81.555  -5.424  1.00  0.00     0.138 C 
ATOM     17  C   UNL     1      16.061  79.216  -6.032  1.00  0.00     0.138 C 
ENDBRANCH   4   9
ENDBRANCH   2   3
ENDBRANCH   1   2
BRANCH   1  18
ATOM     18  C   UNL     1      10.867  76.283  -0.934  1.00  0.00     0.185 C 
ATOM     19  C   UNL     1      10.034  75.582   0.104  1.00  0.00     0.200 C 
ATOM     20  O   UNL     1      10.184  76.146  -2.141  1.00  0.00    -0.335 OA
ATOM     21  O   UNL     1       9.187  74.735  -0.598  1.00  0.00    -0.342 OA
ATOM     22  C   UNL     1       9.097  75.270  -1.903  1.00  0.00     0.215 C 
BRANCH  22  23
ATOM     23  C   UNL     1       7.782  76.075  -2.030  1.00  0.00     0.194 C 
BRANCH  23  24
ATOM     24  N   UNL     1       6.906  75.850  -0.879  1.00  0.00    -0.332 N 
ATOM     25  C   UNL     1       6.741  76.659   0.179  1.00  0.00     0.107 A 
ATOM     26  C   UNL     1       6.054  74.824  -0.696  1.00  0.00     0.199 A 
ATOM     27  C   UNL     1       5.785  76.095   0.994  1.00  0.00     0.130 A 
ATOM     28  N   UNL     1       5.348  74.941   0.449  1.00  0.00    -0.245 NA
ENDBRANCH  23  24
ENDBRANCH  22  23
BRANCH  22  29
ATOM     29  C   UNL     1       9.110  74.127  -2.922  1.00  0.00     0.032 A 
ATOM     30  C   UNL     1      10.029  73.064  -2.768  1.00  0.00     0.012 A 
ATOM     31  C   UNL     1       8.287  74.138  -4.081  1.00  0.00     0.051 A 
ATOM     32  C   UNL     1      10.103  72.034  -3.708  1.00  0.00     0.021 A 
ATOM     33  C   UNL     1       8.370  73.094  -5.013  1.00  0.00     0.041 A 
ATOM     34  Cl  UNL     1       7.154  75.439  -4.441  1.00  0.00    -0.084 Cl
ATOM     35  C   UNL     1       9.272  72.046  -4.826  1.00  0.00     0.042 A 
ATOM     36  Cl  UNL     1       9.374  70.754  -6.010  1.00  0.00    -0.084 Cl
ENDBRANCH  22  29
ENDBRANCH   1  18
TORSDOF 7
ENDMDL
MODEL 4
REMARK VINA RESULT:    -8.912      1.772      2.307
REMARK INTER + INTRA:         -11.976
REMARK INTER:                 -12.342
REMARK INTRA:                   0.365
REMARK UNBOUND:                 0.582
REMARK SMILES CC(=O)N1CCN(c2ccc(OCC3COC(Cn4ccnc4)(c4ccc(Cl)cc4Cl)O3)cc2)CC1
REMARK SMILES IDX 13 1 12 2 11 3 8 4 9 5 34 6 10 7 33 8 7 9 1 10 2 11 3 12
REMARK SMILES IDX 4 13 5 14 36 15 6 16 35 17 14 18 15 19 32 20 16 21 17 22
REMARK SMILES IDX 18 23 19 24 20 25 23 26 21 27 22 28 24 29 25 30 30 31 26 32
REMARK SMILES IDX 29 33 31 34 27 35 28 36
REMARK H PARENT
REMARK Flexibility Score: inf
ROOT
ATOM      1  C   UNL     1       8.991  78.236  -0.718  1.00  0.00     0.264 C 
ENDROOT
BRANCH   1   2
ATOM      2  O   UNL     1      10.132  79.086  -0.594  1.00  0.00    -0.491 OA
BRANCH   2   3
ATOM      3  C   UNL     1      11.165  79.213  -1.537  1.00  0.00     0.119 A 
ATOM      4  C   UNL     1      13.311  79.387  -3.366  1.00  0.00     0.037 A 
ATOM      5  C   UNL     1      13.297  78.397  -2.369  1.00  0.00     0.030 A 
ATOM      6  C   UNL     1      12.237  80.293  -3.437  1.00  0.00     0.030 A 
ATOM      7  C   UNL     1      12.233  78.312  -1.468  1.00  0.00     0.048 A 
ATOM      8  C   UNL     1      11.174  80.208  -2.532  1.00  0.00     0.048 A 
BRANCH   4   9
ATOM      9  N   UNL     1      14.420  79.485  -4.287  1.00  0.00    -0.368 N 
ATOM     10  C   UNL     1      17.724  81.728  -7.559  1.00  0.00     0.114 C 
ATOM     11  C   UNL     1      17.197  80.333  -7.398  1.00  0.00     0.219 C 
ATOM     12  O   UNL     1      17.483  79.476  -8.279  1.00  0.00    -0.275 OA
ATOM     13  N   UNL     1      16.401  79.956  -6.254  1.00  0.00    -0.339 N 
ATOM     14  C   UNL     1      15.746  78.640  -6.212  1.00  0.00     0.141 C 
ATOM     15  C   UNL     1      16.315  80.850  -5.087  1.00  0.00     0.141 C 
ATOM     16  C   UNL     1      14.363  78.756  -5.565  1.00  0.00     0.138 C 
ATOM     17  C   UNL     1      15.660  80.161  -3.883  1.00  0.00     0.138 C 
ENDBRANCH   4   9
ENDBRANCH   2   3
ENDBRANCH   1   2
BRANCH   1  18
ATOM     18  C   UNL     1       9.407  76.792  -1.032  1.00  0.00     0.185 C 
ATOM     19  C   UNL     1       9.073  75.835   0.079  1.00  0.00     0.200 C 
ATOM     20  O   UNL     1       8.720  76.341  -2.158  1.00  0.00    -0.335 OA
ATOM     21  O   UNL     1       8.597  74.687  -0.541  1.00  0.00    -0.342 OA
ATOM     22  C   UNL     1       8.145  75.093  -1.816  1.00  0.00     0.215 C 
BRANCH  22  23
ATOM     23  C   UNL     1       6.607  75.255  -1.779  1.00  0.00     0.194 C 
BRANCH  23  24
ATOM     24  N   UNL     1       6.125  75.455  -0.412  1.00  0.00    -0.332 N 
ATOM     25  C   UNL     1       6.055  76.617   0.257  1.00  0.00     0.107 A 
ATOM     26  C   UNL     1       5.598  74.526   0.407  1.00  0.00     0.199 A 
ATOM     27  C   UNL     1       5.488  76.361   1.485  1.00  0.00     0.130 A 
ATOM     28  N   UNL     1       5.198  75.048   1.585  1.00  0.00    -0.245 NA
ENDBRANCH  23  24
ENDBRANCH  22  23
BRANCH  22  29
ATOM     29  C   UNL     1       8.534  74.033  -2.853  1.00  0.00     0.032 A 
ATOM     30  C   UNL     1       9.421  72.994  -2.490  1.00  0.00     0.012 A 
ATOM     31  C   UNL     1       8.104  74.106  -4.206  1.00  0.00     0.051 A 
ATOM     32  C   UNL     1       9.836  72.044  -3.426  1.00  0.00     0.021 A 
ATOM     33  C   UNL     1       8.526  73.142  -5.131  1.00  0.00     0.041 A 
ATOM     34  Cl  UNL     1       7.062  75.392  -4.814  1.00  0.00    -0.084 Cl
ATOM     35  C   UNL     1       9.387  72.115  -4.743  1.00  0.00     0.042 A 
ATOM     36  Cl  UNL     1       9.919  70.924  -5.917  1.00  0.00    -0.084 Cl
ENDBRANCH  22  29
ENDBRANCH   1  18
TORSDOF 7
ENDMDL
MODEL 5
REMARK VINA RESULT:    -8.875      2.039      3.676
REMARK INTER + INTRA:         -11.925
REMARK INTER:                 -11.939
REMARK INTRA:                   0.014
REMARK UNBOUND:                 0.582
REMARK SMILES CC(=O)N1CCN(c2ccc(OCC3COC(Cn4ccnc4)(c4ccc(Cl)cc4Cl)O3)cc2)CC1
REMARK SMILES IDX 13 1 12 2 11 3 8 4 9 5 34 6 10 7 33 8 7 9 1 10 2 11 3 12
REMARK SMILES IDX 4 13 5 14 36 15 6 16 35 17 14 18 15 19 32 20 16 21 17 22
REMARK SMILES IDX 18 23 19 24 20 25 23 26 21 27 22 28 24 29 25 30 30 31 26 32
REMARK SMILES IDX 29 33 31 34 27 35 28 36
REMARK H PARENT
REMARK Flexibility Score: inf
ROOT
ATOM      1  C   UNL     1      12.099  77.627  -0.675  1.00  0.00     0.264 C 
ENDROOT
BRANCH   1   2
ATOM      2  O   UNL     1      12.571  78.951  -0.925  1.00  0.00    -0.491 OA
BRANCH   2   3
ATOM      3  C   UNL     1      13.376  79.342  -2.008  1.00  0.00     0.119 A 
ATOM      4  C   UNL     1      15.096  80.121  -4.109  1.00  0.00     0.037 A 
ATOM      5  C   UNL     1      15.617  79.616  -2.905  1.00  0.00     0.030 A 
ATOM      6  C   UNL     1      13.701  80.233  -4.249  1.00  0.00     0.030 A 
ATOM      7  C   UNL     1      14.764  79.230  -1.869  1.00  0.00     0.048 A 
ATOM      8  C   UNL     1      12.848  79.848  -3.210  1.00  0.00     0.048 A 
BRANCH   4   9
ATOM      9  N   UNL     1      15.981  80.537  -5.174  1.00  0.00    -0.368 N 
ATOM     10  C   UNL     1      20.134  82.683  -7.363  1.00  0.00     0.114 C 
ATOM     11  C   UNL     1      18.726  82.434  -7.815  1.00  0.00     0.219 C 
ATOM     12  O   UNL     1      18.352  82.921  -8.917  1.00  0.00    -0.275 OA
ATOM     13  N   UNL     1      17.814  81.634  -7.031  1.00  0.00    -0.339 N 
ATOM     14  C   UNL     1      16.394  81.558  -7.402  1.00  0.00     0.141 C 
ATOM     15  C   UNL     1      18.319  80.823  -5.910  1.00  0.00     0.141 C 
ATOM     16  C   UNL     1      15.517  81.541  -6.146  1.00  0.00     0.138 C 
ATOM     17  C   UNL     1      17.259  79.846  -5.386  1.00  0.00     0.138 C 
ENDBRANCH   4   9
ENDBRANCH   2   3
ENDBRANCH   1   2
BRANCH   1  18
ATOM     18  C   UNL     1      10.722  77.399  -1.316  1.00  0.00     0.185 C 
ATOM     19  C   UNL     1      10.810  76.733  -2.662  1.00  0.00     0.200 C 
ATOM     20  O   UNL     1       9.964  76.552  -0.508  1.00  0.00    -0.335 OA
ATOM     21  O   UNL     1       9.775  75.807  -2.694  1.00  0.00    -0.342 OA
ATOM     22  C   UNL     1       9.466  75.524  -1.344  1.00  0.00     0.215 C 
BRANCH  22  23
ATOM     23  C   UNL     1      10.141  74.192  -0.940  1.00  0.00     0.194 C 
BRANCH  23  24
ATOM     24  N   UNL     1      10.185  73.254  -2.062  1.00  0.00    -0.332 N 
ATOM     25  C   UNL     1       9.428  72.158  -2.228  1.00  0.00     0.107 A 
ATOM     26  C   UNL     1      10.945  73.348  -3.169  1.00  0.00     0.199 A 
ATOM     27  C   UNL     1       9.755  71.602  -3.444  1.00  0.00     0.130 A 
ATOM     28  N   UNL     1      10.708  72.345  -4.041  1.00  0.00    -0.245 NA
ENDBRANCH  23  24
ENDBRANCH  22  23
BRANCH  22  29
ATOM     29  C   UNL     1       7.946  75.408  -1.186  1.00  0.00     0.032 A 
ATOM     30  C   UNL     1       7.358  75.612   0.083  1.00  0.00     0.012 A 
ATOM     31  C   UNL     1       7.103  75.009  -2.259  1.00  0.00     0.051 A 
ATOM     32  C   UNL     1       5.983  75.461   0.271  1.00  0.00     0.021 A 
ATOM     33  C   UNL     1       5.724  74.867  -2.054  1.00  0.00     0.041 A 
ATOM     34  Cl  UNL     1       7.711  74.645  -3.874  1.00  0.00    -0.084 Cl
ATOM     35  C   UNL     1       5.166  75.093  -0.795  1.00  0.00     0.042 A 
ATOM     36  Cl  UNL     1       3.439  74.897  -0.552  1.00  0.00    -0.084 Cl
ENDBRANCH  22  29
ENDBRANCH   1  18
TORSDOF 7
ENDMDL
MODEL 6
REMARK VINA RESULT:    -8.737      2.533      3.800
REMARK INTER + INTRA:         -11.730
REMARK INTER:                 -12.892
REMARK INTRA:                   1.162
REMARK UNBOUND:                 0.582
REMARK SMILES CC(=O)N1CCN(c2ccc(OCC3COC(Cn4ccnc4)(c4ccc(Cl)cc4Cl)O3)cc2)CC1
REMARK SMILES IDX 13 1 12 2 11 3 8 4 9 5 34 6 10 7 33 8 7 9 1 10 2 11 3 12
REMARK SMILES IDX 4 13 5 14 36 15 6 16 35 17 14 18 15 19 32 20 16 21 17 22
REMARK SMILES IDX 18 23 19 24 20 25 23 26 21 27 22 28 24 29 25 30 30 31 26 32
REMARK SMILES IDX 29 33 31 34 27 35 28 36
REMARK H PARENT
REMARK Flexibility Score: inf
ROOT
ATOM      1  C   UNL     1      10.666  80.756  -0.628  1.00  0.00     0.264 C 
ENDROOT
BRANCH   1   2
ATOM      2  O   UNL     1      11.596  79.785  -1.109  1.00  0.00    -0.491 OA
BRANCH   2   3
ATOM      3  C   UNL     1      12.553  79.997  -2.114  1.00  0.00     0.119 A 
ATOM      4  C   UNL     1      14.563  80.447  -4.048  1.00  0.00     0.037 A 
ATOM      5  C   UNL     1      14.891  80.330  -2.686  1.00  0.00     0.030 A 
ATOM      6  C   UNL     1      13.215  80.337  -4.432  1.00  0.00     0.030 A 
ATOM      7  C   UNL     1      13.894  80.106  -1.733  1.00  0.00     0.048 A 
ATOM      8  C   UNL     1      12.218  80.114  -3.477  1.00  0.00     0.048 A 
BRANCH   4   9
ATOM      9  N   UNL     1      15.593  80.697  -5.030  1.00  0.00    -0.368 N 
ATOM     10  C   UNL     1      20.083  82.422  -6.906  1.00  0.00     0.114 C 
ATOM     11  C   UNL     1      18.732  82.159  -7.503  1.00  0.00     0.219 C 
ATOM     12  O   UNL     1      18.523  82.512  -8.696  1.00  0.00    -0.275 OA
ATOM     13  N   UNL     1      17.694  81.493  -6.753  1.00  0.00    -0.339 N 
ATOM     14  C   UNL     1      16.329  81.413  -7.294  1.00  0.00     0.141 C 
ATOM     15  C   UNL     1      18.016  80.816  -5.485  1.00  0.00     0.141 C 
ATOM     16  C   UNL     1      15.302  81.582  -6.170  1.00  0.00     0.138 C 
ATOM     17  C   UNL     1      16.855  79.947  -4.988  1.00  0.00     0.138 C 
ENDBRANCH   4   9
ENDBRANCH   2   3
ENDBRANCH   1   2
BRANCH   1  18
ATOM     18  C   UNL     1       9.260  80.154  -0.486  1.00  0.00     0.185 C 
ATOM     19  C   UNL     1       8.467  80.219  -1.762  1.00  0.00     0.200 C 
ATOM     20  O   UNL     1       9.360  78.803  -0.155  1.00  0.00    -0.335 OA
ATOM     21  O   UNL     1       7.800  79.004  -1.856  1.00  0.00    -0.342 OA
ATOM     22  C   UNL     1       8.536  78.095  -1.063  1.00  0.00     0.215 C 
BRANCH  22  23
ATOM     23  C   UNL     1       9.440  77.240  -1.982  1.00  0.00     0.194 C 
BRANCH  23  24
ATOM     24  N   UNL     1       8.647  76.349  -2.830  1.00  0.00    -0.332 N 
ATOM     25  C   UNL     1       8.850  75.038  -3.035  1.00  0.00     0.107 A 
ATOM     26  C   UNL     1       7.528  76.659  -3.511  1.00  0.00     0.199 A 
ATOM     27  C   UNL     1       7.841  74.579  -3.852  1.00  0.00     0.130 A 
ATOM     28  N   UNL     1       7.006  75.594  -4.154  1.00  0.00    -0.245 NA
ENDBRANCH  23  24
ENDBRANCH  22  23
BRANCH  22  29
ATOM     29  C   UNL     1       7.566  77.191  -0.296  1.00  0.00     0.032 A 
ATOM     30  C   UNL     1       7.733  75.788  -0.343  1.00  0.00     0.012 A 
ATOM     31  C   UNL     1       6.436  77.708   0.395  1.00  0.00     0.051 A 
ATOM     32  C   UNL     1       6.835  74.934   0.300  1.00  0.00     0.021 A 
ATOM     33  C   UNL     1       5.547  76.838   1.040  1.00  0.00     0.041 A 
ATOM     34  Cl  UNL     1       6.061  79.429   0.468  1.00  0.00    -0.084 Cl
ATOM     35  C   UNL     1       5.746  75.457   0.994  1.00  0.00     0.042 A 
ATOM     36  Cl  UNL     1       4.615  74.380   1.795  1.00  0.00    -0.084 Cl
ENDBRANCH  22  29
ENDBRANCH   1  18
TORSDOF 7
ENDMDL
MODEL 7
REMARK VINA RESULT:    -8.725      2.398      3.821
REMARK INTER + INTRA:         -11.713
REMARK INTER:                 -11.952
REMARK INTRA:                   0.239
REMARK UNBOUND:                 0.582
REMARK SMILES CC(=O)N1CCN(c2ccc(OCC3COC(Cn4ccnc4)(c4ccc(Cl)cc4Cl)O3)cc2)CC1
REMARK SMILES IDX 13 1 12 2 11 3 8 4 9 5 34 6 10 7 33 8 7 9 1 10 2 11 3 12
REMARK SMILES IDX 4 13 5 14 36 15 6 16 35 17 14 18 15 19 32 20 16 21 17 22
REMARK SMILES IDX 18 23 19 24 20 25 23 26 21 27 22 28 24 29 25 30 30 31 26 32
REMARK SMILES IDX 29 33 31 34 27 35 28 36
REMARK H PARENT
REMARK Flexibility Score: inf
ROOT
ATOM      1  C   UNL     1      10.561  80.907  -0.843  1.00  0.00     0.264 C 
ENDROOT
BRANCH   1   2
ATOM      2  O   UNL     1      11.612  79.989  -1.145  1.00  0.00    -0.491 OA
BRANCH   2   3
ATOM      3  C   UNL     1      12.644  80.202  -2.073  1.00  0.00     0.119 A 
ATOM      4  C   UNL     1      14.639  80.605  -4.032  1.00  0.00     0.037 A 
ATOM      5  C   UNL     1      13.287  80.491  -4.397  1.00  0.00     0.030 A 
ATOM      6  C   UNL     1      14.983  80.513  -2.671  1.00  0.00     0.030 A 
ATOM      7  C   UNL     1      12.303  80.294  -3.426  1.00  0.00     0.048 A 
ATOM      8  C   UNL     1      13.997  80.313  -1.700  1.00  0.00     0.048 A 
BRANCH   4   9
ATOM      9  N   UNL     1      15.658  80.791  -5.039  1.00  0.00    -0.368 N 
ATOM     10  C   UNL     1      19.995  82.620  -7.160  1.00  0.00     0.114 C 
ATOM     11  C   UNL     1      18.688  82.131  -7.710  1.00  0.00     0.219 C 
ATOM     12  O   UNL     1      18.468  82.263  -8.945  1.00  0.00    -0.275 OA
ATOM     13  N   UNL     1      17.705  81.499  -6.863  1.00  0.00    -0.339 N 
ATOM     14  C   UNL     1      16.365  81.198  -7.387  1.00  0.00     0.141 C 
ATOM     15  C   UNL     1      18.067  81.072  -5.500  1.00  0.00     0.141 C 
ATOM     16  C   UNL     1      15.305  81.446  -6.309  1.00  0.00     0.138 C 
ATOM     17  C   UNL     1      16.986  80.185  -4.871  1.00  0.00     0.138 C 
ENDBRANCH   4   9
ENDBRANCH   2   3
ENDBRANCH   1   2
BRANCH   1  18
ATOM     18  C   UNL     1       9.188  80.225  -0.925  1.00  0.00     0.185 C 
ATOM     19  C   UNL     1       8.683  80.101  -2.337  1.00  0.00     0.200 C 
ATOM     20  O   UNL     1       9.279  78.927  -0.426  1.00  0.00    -0.335 OA
ATOM     21  O   UNL     1       8.109  78.839  -2.423  1.00  0.00    -0.342 OA
ATOM     22  C   UNL     1       8.701  78.072  -1.395  1.00  0.00     0.215 C 
BRANCH  22  23
ATOM     23  C   UNL     1       9.820  77.191  -2.001  1.00  0.00     0.194 C 
BRANCH  23  24
ATOM     24  N   UNL     1      10.751  76.729  -0.972  1.00  0.00    -0.332 N 
ATOM     25  C   UNL     1      11.929  77.283  -0.641  1.00  0.00     0.107 A 
ATOM     26  C   UNL     1      10.575  75.702  -0.119  1.00  0.00     0.199 A 
ATOM     27  C   UNL     1      12.449  76.567   0.413  1.00  0.00     0.130 A 
ATOM     28  N   UNL     1      11.602  75.572   0.747  1.00  0.00    -0.245 NA
ENDBRANCH  23  24
ENDBRANCH  22  23
BRANCH  22  29
ATOM     29  C   UNL     1       7.634  77.185  -0.745  1.00  0.00     0.032 A 
ATOM     30  C   UNL     1       7.035  77.590   0.470  1.00  0.00     0.012 A 
ATOM     31  C   UNL     1       7.282  75.914  -1.275  1.00  0.00     0.051 A 
ATOM     32  C   UNL     1       6.098  76.780   1.114  1.00  0.00     0.021 A 
ATOM     33  C   UNL     1       6.337  75.115  -0.618  1.00  0.00     0.041 A 
ATOM     34  Cl  UNL     1       8.008  75.249  -2.738  1.00  0.00    -0.084 Cl
ATOM     35  C   UNL     1       5.746  75.547   0.571  1.00  0.00     0.042 A 
ATOM     36  Cl  UNL     1       4.574  74.528   1.389  1.00  0.00    -0.084 Cl
ENDBRANCH  22  29
ENDBRANCH   1  18
TORSDOF 7
ENDMDL
MODEL 8
REMARK VINA RESULT:    -8.001      4.282      8.621
REMARK INTER + INTRA:         -10.693
REMARK INTER:                 -11.191
REMARK INTRA:                   0.499
REMARK UNBOUND:                 0.582
REMARK SMILES CC(=O)N1CCN(c2ccc(OCC3COC(Cn4ccnc4)(c4ccc(Cl)cc4Cl)O3)cc2)CC1
REMARK SMILES IDX 13 1 12 2 11 3 8 4 9 5 34 6 10 7 33 8 7 9 1 10 2 11 3 12
REMARK SMILES IDX 4 13 5 14 36 15 6 16 35 17 14 18 15 19 32 20 16 21 17 22
REMARK SMILES IDX 18 23 19 24 20 25 23 26 21 27 22 28 24 29 25 30 30 31 26 32
REMARK SMILES IDX 29 33 31 34 27 35 28 36
REMARK H PARENT
REMARK Flexibility Score: inf
ROOT
ATOM      1  C   UNL     1       8.934  80.700   0.475  1.00  0.00     0.264 C 
ENDROOT
BRANCH   1   2
ATOM      2  O   UNL     1       8.002  79.800  -0.126  1.00  0.00    -0.491 OA
BRANCH   2   3
ATOM      3  C   UNL     1       8.321  78.572  -0.728  1.00  0.00     0.119 A 
ATOM      4  C   UNL     1       8.952  76.047  -1.826  1.00  0.00     0.037 A 
ATOM      5  C   UNL     1       8.439  76.154  -0.522  1.00  0.00     0.030 A 
ATOM      6  C   UNL     1       9.148  77.220  -2.576  1.00  0.00     0.030 A 
ATOM      7  C   UNL     1       8.126  77.405   0.017  1.00  0.00     0.048 A 
ATOM      8  C   UNL     1       8.837  78.471  -2.034  1.00  0.00     0.048 A 
BRANCH   4   9
ATOM      9  N   UNL     1       9.291  74.754  -2.376  1.00  0.00    -0.368 N 
ATOM     10  C   UNL     1       9.630  71.015  -5.919  1.00  0.00     0.114 C 
ATOM     11  C   UNL     1       9.565  71.032  -4.420  1.00  0.00     0.219 C 
ATOM     12  O   UNL     1       9.450  69.934  -3.810  1.00  0.00    -0.275 OA
ATOM     13  N   UNL     1       9.656  72.267  -3.677  1.00  0.00    -0.339 N 
ATOM     14  C   UNL     1       9.406  72.276  -2.229  1.00  0.00     0.141 C 
ATOM     15  C   UNL     1      10.086  73.504  -4.350  1.00  0.00     0.141 C 
ATOM     16  C   UNL     1       8.651  73.547  -1.828  1.00  0.00     0.138 C 
ATOM     17  C   UNL     1      10.384  74.628  -3.350  1.00  0.00     0.138 C 
ENDBRANCH   4   9
ENDBRANCH   2   3
ENDBRANCH   1   2
BRANCH   1  18
ATOM     18  C   UNL     1      10.020  81.123  -0.525  1.00  0.00     0.185 C 
ATOM     19  C   UNL     1      10.885  82.239  -0.007  1.00  0.00     0.200 C 
ATOM     20  O   UNL     1      10.873  80.049  -0.772  1.00  0.00    -0.335 OA
ATOM     21  O   UNL     1      12.182  81.921  -0.388  1.00  0.00    -0.342 OA
ATOM     22  C   UNL     1      12.195  80.523  -0.592  1.00  0.00     0.215 C 
BRANCH  22  23
ATOM     23  C   UNL     1      12.796  79.836   0.657  1.00  0.00     0.194 C 
BRANCH  23  24
ATOM     24  N   UNL     1      12.764  78.379   0.531  1.00  0.00    -0.332 N 
ATOM     25  C   UNL     1      13.586  77.499   1.125  1.00  0.00     0.107 A 
ATOM     26  C   UNL     1      11.867  77.642  -0.150  1.00  0.00     0.199 A 
ATOM     27  C   UNL     1      13.167  76.234   0.782  1.00  0.00     0.130 A 
ATOM     28  N   UNL     1      12.086  76.317  -0.020  1.00  0.00    -0.245 NA
ENDBRANCH  23  24
ENDBRANCH  22  23
BRANCH  22  29
ATOM     29  C   UNL     1      13.043  80.199  -1.826  1.00  0.00     0.032 A 
ATOM     30  C   UNL     1      12.406  79.879  -3.047  1.00  0.00     0.012 A 
ATOM     31  C   UNL     1      14.461  80.116  -1.769  1.00  0.00     0.051 A 
ATOM     32  C   UNL     1      13.149  79.527  -4.175  1.00  0.00     0.021 A 
ATOM     33  C   UNL     1      15.192  79.766  -2.911  1.00  0.00     0.041 A 
ATOM     34  Cl  UNL     1      15.380  80.410  -0.293  1.00  0.00    -0.084 Cl
ATOM     35  C   UNL     1      14.539  79.474  -4.110  1.00  0.00     0.042 A 
ATOM     36  Cl  UNL     1      15.469  79.022  -5.528  1.00  0.00    -0.084 Cl
ENDBRANCH  22  29
ENDBRANCH   1  18
TORSDOF 7
ENDMDL
MODEL 9
REMARK VINA RESULT:    -7.970      2.605      4.488
REMARK INTER + INTRA:         -10.649
REMARK INTER:                 -10.587
REMARK INTRA:                  -0.061
REMARK UNBOUND:                 0.582
REMARK SMILES CC(=O)N1CCN(c2ccc(OCC3COC(Cn4ccnc4)(c4ccc(Cl)cc4Cl)O3)cc2)CC1
REMARK SMILES IDX 13 1 12 2 11 3 8 4 9 5 34 6 10 7 33 8 7 9 1 10 2 11 3 12
REMARK SMILES IDX 4 13 5 14 36 15 6 16 35 17 14 18 15 19 32 20 16 21 17 22
REMARK SMILES IDX 18 23 19 24 20 25 23 26 21 27 22 28 24 29 25 30 30 31 26 32
REMARK SMILES IDX 29 33 31 34 27 35 28 36
REMARK H PARENT
REMARK Flexibility Score: inf
ROOT
ATOM      1  C   UNL     1      11.199  77.407  -2.443  1.00  0.00     0.264 C 
ENDROOT
BRANCH   1   2
ATOM      2  O   UNL     1      12.441  77.943  -1.987  1.00  0.00    -0.491 OA
BRANCH   2   3
ATOM      3  C   UNL     1      13.418  78.546  -2.796  1.00  0.00     0.119 A 
ATOM      4  C   UNL     1      15.349  79.683  -4.518  1.00  0.00     0.037 A 
ATOM      5  C   UNL     1      14.347  78.836  -5.022  1.00  0.00     0.030 A 
ATOM      6  C   UNL     1      15.374  79.954  -3.138  1.00  0.00     0.030 A 
ATOM      7  C   UNL     1      13.393  78.277  -4.168  1.00  0.00     0.048 A 
ATOM      8  C   UNL     1      14.420  79.392  -2.284  1.00  0.00     0.048 A 
BRANCH   4   9
ATOM      9  N   UNL     1      16.345  80.246  -5.399  1.00  0.00    -0.368 N 
ATOM     10  C   UNL     1      20.631  82.785  -6.754  1.00  0.00     0.114 C 
ATOM     11  C   UNL     1      19.314  82.526  -7.423  1.00  0.00     0.219 C 
ATOM     12  O   UNL     1      19.067  83.110  -8.514  1.00  0.00    -0.275 OA
ATOM     13  N   UNL     1      18.351  81.610  -6.860  1.00  0.00    -0.339 N 
ATOM     14  C   UNL     1      17.001  81.514  -7.434  1.00  0.00     0.141 C 
ATOM     15  C   UNL     1      18.743  80.706  -5.764  1.00  0.00     0.141 C 
ATOM     16  C   UNL     1      15.963  81.326  -6.323  1.00  0.00     0.138 C 
ATOM     17  C   UNL     1      17.678  79.636  -5.495  1.00  0.00     0.138 C 
ENDBRANCH   4   9
ENDBRANCH   2   3
ENDBRANCH   1   2
BRANCH   1  18
ATOM     18  C   UNL     1      10.015  78.045  -1.701  1.00  0.00     0.185 C 
ATOM     19  C   UNL     1       9.024  78.688  -2.632  1.00  0.00     0.200 C 
ATOM     20  O   UNL     1       9.315  77.062  -1.002  1.00  0.00    -0.335 OA
ATOM     21  O   UNL     1       7.769  78.369  -2.128  1.00  0.00    -0.342 OA
ATOM     22  C   UNL     1       7.949  77.207  -1.345  1.00  0.00     0.215 C 
BRANCH  22  23
ATOM     23  C   UNL     1       7.516  75.971  -2.168  1.00  0.00     0.194 C 
BRANCH  23  24
ATOM     24  N   UNL     1       8.543  74.929  -2.146  1.00  0.00    -0.332 N 
ATOM     25  C   UNL     1       9.208  74.429  -3.200  1.00  0.00     0.107 A 
ATOM     26  C   UNL     1       9.062  74.322  -1.062  1.00  0.00     0.199 A 
ATOM     27  C   UNL     1      10.121  73.515  -2.726  1.00  0.00     0.130 A 
ATOM     28  N   UNL     1      10.035  73.444  -1.382  1.00  0.00    -0.245 NA
ENDBRANCH  23  24
ENDBRANCH  22  23
BRANCH  22  29
ATOM     29  C   UNL     1       7.097  77.314  -0.076  1.00  0.00     0.032 A 
ATOM     30  C   UNL     1       6.457  76.161   0.435  1.00  0.00     0.012 A 
ATOM     31  C   UNL     1       6.849  78.558   0.565  1.00  0.00     0.051 A 
ATOM     32  C   UNL     1       5.632  76.236   1.558  1.00  0.00     0.021 A 
ATOM     33  C   UNL     1       6.021  78.614   1.694  1.00  0.00     0.041 A 
ATOM     34  Cl  UNL     1       7.517  80.085  -0.011  1.00  0.00    -0.084 Cl
ATOM     35  C   UNL     1       5.416  77.458   2.190  1.00  0.00     0.042 A 
ATOM     36  Cl  UNL     1       4.371  77.549   3.597  1.00  0.00    -0.084 Cl
ENDBRANCH  22  29
ENDBRANCH   1  18
TORSDOF 7
ENDMDL
