MODEL 1
REMARK VINA RESULT:    -7.389      0.000      0.000
REMARK INTER + INTRA:         -10.508
REMARK INTER:                  -9.981
REMARK INTRA:                  -0.527
REMARK UNBOUND:                -0.527
REMARK SMILES CN(C)CCOC(c1ccccc1)c1ccc(Br)cc1
REMARK SMILES IDX 5 1 4 2 2 3 1 4 3 5 6 6 7 7 8 8 9 9 13 10 10 11 12 12 11 13
REMARK SMILES IDX 14 14 15 15 20 16 16 17 19 18 17 19 18 20
REMARK H PARENT
REMARK Flexibility Score: inf
ROOT
ATOM      1  C   UNL     1     -81.235 -19.360  84.406  1.00  0.00     0.177 C 
ENDROOT
BRANCH   1   2
ATOM      2  C   UNL     1     -79.984 -18.494  84.256  1.00  0.00     0.112 C 
BRANCH   2   3
ATOM      3  N   UNL     1     -79.149 -18.966  83.129  1.00  0.00    -0.307 NA
ATOM      4  C   UNL     1     -77.755 -19.141  83.568  1.00  0.00     0.105 C 
ATOM      5  C   UNL     1     -79.190 -18.016  82.004  1.00  0.00     0.105 C 
ENDBRANCH   2   3
ENDBRANCH   1   2
BRANCH   1   6
ATOM      6  O   UNL     1     -81.607 -19.395  85.770  1.00  0.00    -0.367 OA
BRANCH   6   7
ATOM      7  C   UNL     1     -81.562 -20.723  86.271  1.00  0.00     0.178 C 
BRANCH   7   8
ATOM      8  C   UNL     1     -82.901 -21.083  86.872  1.00  0.00    -0.015 A 
ATOM      9  C   UNL     1     -83.665 -20.125  87.567  1.00  0.00     0.007 A 
ATOM     10  C   UNL     1     -83.370 -22.408  86.802  1.00  0.00     0.007 A 
ATOM     11  C   UNL     1     -84.883 -20.482  88.152  1.00  0.00     0.000 A 
ATOM     12  C   UNL     1     -84.590 -22.758  87.390  1.00  0.00     0.000 A 
ATOM     13  C   UNL     1     -85.347 -21.796  88.063  1.00  0.00     0.000 A 
ENDBRANCH   7   8
BRANCH   7  14
ATOM     14  C   UNL     1     -80.491 -20.867  87.335  1.00  0.00    -0.015 A 
ATOM     15  C   UNL     1     -79.136 -20.722  86.989  1.00  0.00     0.008 A 
ATOM     16  C   UNL     1     -80.826 -21.201  88.660  1.00  0.00     0.008 A 
ATOM     17  C   UNL     1     -78.139 -20.883  87.955  1.00  0.00     0.016 A 
ATOM     18  C   UNL     1     -79.827 -21.361  89.623  1.00  0.00     0.016 A 
ATOM     19  C   UNL     1     -78.483 -21.201  89.272  1.00  0.00     0.017 A 
ATOM     20  Br  UNL     1     -77.118 -21.421  90.591  1.00  0.00    -0.051 Br
ENDBRANCH   7  14
ENDBRANCH   6   7
ENDBRANCH   1   6
TORSDOF 6
ENDMDL
MODEL 2
REMARK VINA RESULT:    -7.228      0.297      1.557
REMARK INTER + INTRA:         -10.291
REMARK INTER:                  -9.708
REMARK INTRA:                  -0.583
REMARK UNBOUND:                -0.527
REMARK SMILES CN(C)CCOC(c1ccccc1)c1ccc(Br)cc1
REMARK SMILES IDX 5 1 4 2 2 3 1 4 3 5 6 6 7 7 8 8 9 9 13 10 10 11 12 12 11 13
REMARK SMILES IDX 14 14 15 15 20 16 16 17 19 18 17 19 18 20
REMARK H PARENT
REMARK Flexibility Score: inf
ROOT
ATOM      1  C   UNL     1     -81.059 -19.458  84.338  1.00  0.00     0.177 C 
ENDROOT
BRANCH   1   2
ATOM      2  C   UNL     1     -79.924 -18.457  84.123  1.00  0.00     0.112 C 
BRANCH   2   3
ATOM      3  N   UNL     1     -78.961 -18.959  83.119  1.00  0.00    -0.307 NA
ATOM      4  C   UNL     1     -77.634 -19.132  83.731  1.00  0.00     0.105 C 
ATOM      5  C   UNL     1     -78.854 -18.034  81.977  1.00  0.00     0.105 C 
ENDBRANCH   2   3
ENDBRANCH   1   2
BRANCH   1   6
ATOM      6  O   UNL     1     -81.414 -19.463  85.707  1.00  0.00    -0.367 OA
BRANCH   6   7
ATOM      7  C   UNL     1     -81.317 -20.771  86.249  1.00  0.00     0.178 C 
BRANCH   7   8
ATOM      8  C   UNL     1     -82.653 -21.181  86.826  1.00  0.00    -0.015 A 
ATOM      9  C   UNL     1     -83.131 -22.498  86.683  1.00  0.00     0.007 A 
ATOM     10  C   UNL     1     -83.469 -20.225  87.458  1.00  0.00     0.007 A 
ATOM     11  C   UNL     1     -84.386 -22.853  87.186  1.00  0.00     0.000 A 
ATOM     12  C   UNL     1     -84.723 -20.586  87.959  1.00  0.00     0.000 A 
ATOM     13  C   UNL     1     -85.181 -21.899  87.826  1.00  0.00     0.000 A 
ENDBRANCH   7   8
BRANCH   7  14
ATOM     14  C   UNL     1     -80.270 -20.830  87.344  1.00  0.00    -0.015 A 
ATOM     15  C   UNL     1     -80.634 -21.229  88.641  1.00  0.00     0.008 A 
ATOM     16  C   UNL     1     -78.942 -20.435  87.097  1.00  0.00     0.008 A 
ATOM     17  C   UNL     1     -79.683 -21.257  89.665  1.00  0.00     0.016 A 
ATOM     18  C   UNL     1     -77.994 -20.465  88.123  1.00  0.00     0.016 A 
ATOM     19  C   UNL     1     -78.362 -20.877  89.407  1.00  0.00     0.017 A 
ATOM     20  Br  UNL     1     -77.065 -20.915  90.809  1.00  0.00    -0.051 Br
ENDBRANCH   7  14
ENDBRANCH   6   7
ENDBRANCH   1   6
TORSDOF 6
ENDMDL
MODEL 3
REMARK VINA RESULT:    -7.190      3.199      4.737
REMARK INTER + INTRA:         -10.239
REMARK INTER:                  -9.634
REMARK INTRA:                  -0.605
REMARK UNBOUND:                -0.527
REMARK SMILES CN(C)CCOC(c1ccccc1)c1ccc(Br)cc1
REMARK SMILES IDX 5 1 4 2 2 3 1 4 3 5 6 6 7 7 8 8 9 9 13 10 10 11 12 12 11 13
REMARK SMILES IDX 14 14 15 15 20 16 16 17 19 18 17 19 18 20
REMARK H PARENT
REMARK Flexibility Score: inf
ROOT
ATOM      1  C   UNL     1     -76.770 -19.097  82.962  1.00  0.00     0.177 C 
ENDROOT
BRANCH   1   2
ATOM      2  C   UNL     1     -75.573 -18.233  82.568  1.00  0.00     0.112 C 
BRANCH   2   3
ATOM      3  N   UNL     1     -74.380 -19.070  82.313  1.00  0.00    -0.307 NA
ATOM      4  C   UNL     1     -74.192 -20.034  83.409  1.00  0.00     0.105 C 
ATOM      5  C   UNL     1     -73.168 -18.241  82.181  1.00  0.00     0.105 C 
ENDBRANCH   2   3
ENDBRANCH   1   2
BRANCH   1   6
ATOM      6  O   UNL     1     -77.544 -18.400  83.919  1.00  0.00    -0.367 OA
BRANCH   6   7
ATOM      7  C   UNL     1     -77.707 -19.174  85.097  1.00  0.00     0.178 C 
BRANCH   7   8
ATOM      8  C   UNL     1     -79.176 -19.450  85.323  1.00  0.00    -0.015 A 
ATOM      9  C   UNL     1     -79.597 -20.421  86.252  1.00  0.00     0.007 A 
ATOM     10  C   UNL     1     -80.144 -18.781  84.551  1.00  0.00     0.007 A 
ATOM     11  C   UNL     1     -80.957 -20.694  86.421  1.00  0.00     0.000 A 
ATOM     12  C   UNL     1     -81.503 -19.059  84.725  1.00  0.00     0.000 A 
ATOM     13  C   UNL     1     -81.910 -20.013  85.661  1.00  0.00     0.000 A 
ENDBRANCH   7   8
BRANCH   7  14
ATOM     14  C   UNL     1     -77.151 -18.448  86.307  1.00  0.00    -0.015 A 
ATOM     15  C   UNL     1     -76.634 -17.149  86.167  1.00  0.00     0.008 A 
ATOM     16  C   UNL     1     -77.093 -19.077  87.564  1.00  0.00     0.008 A 
ATOM     17  C   UNL     1     -76.092 -16.482  87.269  1.00  0.00     0.016 A 
ATOM     18  C   UNL     1     -76.550 -18.407  88.664  1.00  0.00     0.016 A 
ATOM     19  C   UNL     1     -76.050 -17.109  88.519  1.00  0.00     0.017 A 
ATOM     20  Br  UNL     1     -75.307 -16.197  90.023  1.00  0.00    -0.051 Br
ENDBRANCH   7  14
ENDBRANCH   6   7
ENDBRANCH   1   6
TORSDOF 6
ENDMDL
MODEL 4
REMARK VINA RESULT:    -7.112      3.034      5.038
REMARK INTER + INTRA:         -10.133
REMARK INTER:                  -9.353
REMARK INTRA:                  -0.780
REMARK UNBOUND:                -0.527
REMARK SMILES CN(C)CCOC(c1ccccc1)c1ccc(Br)cc1
REMARK SMILES IDX 5 1 4 2 2 3 1 4 3 5 6 6 7 7 8 8 9 9 13 10 10 11 12 12 11 13
REMARK SMILES IDX 14 14 15 15 20 16 16 17 19 18 17 19 18 20
REMARK H PARENT
REMARK Flexibility Score: inf
ROOT
ATOM      1  C   UNL     1     -79.526 -21.137  89.151  1.00  0.00     0.177 C 
ENDROOT
BRANCH   1   2
ATOM      2  C   UNL     1     -78.000 -21.215  89.110  1.00  0.00     0.112 C 
BRANCH   2   3
ATOM      3  N   UNL     1     -77.401 -20.390  90.182  1.00  0.00    -0.307 NA
ATOM      4  C   UNL     1     -76.065 -19.924  89.778  1.00  0.00     0.105 C 
ATOM      5  C   UNL     1     -77.293 -21.151  91.439  1.00  0.00     0.105 C 
ENDBRANCH   2   3
ENDBRANCH   1   2
BRANCH   1   6
ATOM      6  O   UNL     1     -80.043 -21.614  87.924  1.00  0.00    -0.367 OA
BRANCH   6   7
ATOM      7  C   UNL     1     -81.081 -20.768  87.450  1.00  0.00     0.178 C 
BRANCH   7   8
ATOM      8  C   UNL     1     -82.352 -21.569  87.287  1.00  0.00    -0.015 A 
ATOM      9  C   UNL     1     -82.423 -22.637  86.370  1.00  0.00     0.007 A 
ATOM     10  C   UNL     1     -83.507 -21.210  88.005  1.00  0.00     0.007 A 
ATOM     11  C   UNL     1     -83.617 -23.343  86.200  1.00  0.00     0.000 A 
ATOM     12  C   UNL     1     -84.699 -21.921  87.830  1.00  0.00     0.000 A 
ATOM     13  C   UNL     1     -84.754 -22.988  86.930  1.00  0.00     0.000 A 
ENDBRANCH   7   8
BRANCH   7  14
ATOM     14  C   UNL     1     -80.713 -20.151  86.115  1.00  0.00    -0.015 A 
ATOM     15  C   UNL     1     -79.379 -20.183  85.673  1.00  0.00     0.008 A 
ATOM     16  C   UNL     1     -81.679 -19.493  85.331  1.00  0.00     0.008 A 
ATOM     17  C   UNL     1     -79.024 -19.590  84.458  1.00  0.00     0.016 A 
ATOM     18  C   UNL     1     -81.320 -18.903  84.117  1.00  0.00     0.016 A 
ATOM     19  C   UNL     1     -79.993 -18.951  83.678  1.00  0.00     0.017 A 
ATOM     20  Br  UNL     1     -79.505 -18.141  82.019  1.00  0.00    -0.051 Br
ENDBRANCH   7  14
ENDBRANCH   6   7
ENDBRANCH   1   6
TORSDOF 6
ENDMDL
MODEL 5
REMARK VINA RESULT:    -6.968      2.150      5.651
REMARK INTER + INTRA:          -9.940
REMARK INTER:                  -9.556
REMARK INTRA:                  -0.383
REMARK UNBOUND:                -0.527
REMARK SMILES CN(C)CCOC(c1ccccc1)c1ccc(Br)cc1
REMARK SMILES IDX 5 1 4 2 2 3 1 4 3 5 6 6 7 7 8 8 9 9 13 10 10 11 12 12 11 13
REMARK SMILES IDX 14 14 15 15 20 16 16 17 19 18 17 19 18 20
REMARK H PARENT
REMARK Flexibility Score: inf
ROOT
ATOM      1  C   UNL     1     -81.467 -20.822  86.223  1.00  0.00     0.177 C 
ENDROOT
BRANCH   1   2
ATOM      2  C   UNL     1     -81.628 -21.487  87.590  1.00  0.00     0.112 C 
BRANCH   2   3
ATOM      3  N   UNL     1     -82.674 -22.534  87.546  1.00  0.00    -0.307 NA
ATOM      4  C   UNL     1     -82.922 -22.946  86.156  1.00  0.00     0.105 C 
ATOM      5  C   UNL     1     -83.932 -22.052  88.144  1.00  0.00     0.105 C 
ENDBRANCH   2   3
ENDBRANCH   1   2
BRANCH   1   6
ATOM      6  O   UNL     1     -80.107 -20.887  85.839  1.00  0.00    -0.367 OA
BRANCH   6   7
ATOM      7  C   UNL     1     -79.478 -19.624  85.994  1.00  0.00     0.178 C 
BRANCH   7   8
ATOM      8  C   UNL     1     -79.008 -19.124  84.647  1.00  0.00    -0.015 A 
ATOM      9  C   UNL     1     -77.635 -18.974  84.369  1.00  0.00     0.007 A 
ATOM     10  C   UNL     1     -79.947 -18.735  83.674  1.00  0.00     0.007 A 
ATOM     11  C   UNL     1     -77.216 -18.472  83.133  1.00  0.00     0.000 A 
ATOM     12  C   UNL     1     -79.521 -18.234  82.441  1.00  0.00     0.000 A 
ATOM     13  C   UNL     1     -78.157 -18.104  82.169  1.00  0.00     0.000 A 
ENDBRANCH   7   8
BRANCH   7  14
ATOM     14  C   UNL     1     -78.286 -19.721  86.926  1.00  0.00    -0.015 A 
ATOM     15  C   UNL     1     -77.917 -20.966  87.464  1.00  0.00     0.008 A 
ATOM     16  C   UNL     1     -77.570 -18.572  87.309  1.00  0.00     0.008 A 
ATOM     17  C   UNL     1     -76.838 -21.062  88.348  1.00  0.00     0.016 A 
ATOM     18  C   UNL     1     -76.493 -18.672  88.192  1.00  0.00     0.016 A 
ATOM     19  C   UNL     1     -76.125 -19.916  88.712  1.00  0.00     0.017 A 
ATOM     20  Br  UNL     1     -74.652 -20.050  89.921  1.00  0.00    -0.051 Br
ENDBRANCH   7  14
ENDBRANCH   6   7
ENDBRANCH   1   6
TORSDOF 6
ENDMDL
MODEL 6
REMARK VINA RESULT:    -6.953      1.591      2.573
REMARK INTER + INTRA:          -9.919
REMARK INTER:                  -9.482
REMARK INTRA:                  -0.438
REMARK UNBOUND:                -0.527
REMARK SMILES CN(C)CCOC(c1ccccc1)c1ccc(Br)cc1
REMARK SMILES IDX 5 1 4 2 2 3 1 4 3 5 6 6 7 7 8 8 9 9 13 10 10 11 12 12 11 13
REMARK SMILES IDX 14 14 15 15 20 16 16 17 19 18 17 19 18 20
REMARK H PARENT
REMARK Flexibility Score: inf
ROOT
ATOM      1  C   UNL     1     -78.980 -19.613  83.794  1.00  0.00     0.177 C 
ENDROOT
BRANCH   1   2
ATOM      2  C   UNL     1     -77.523 -19.178  83.638  1.00  0.00     0.112 C 
BRANCH   2   3
ATOM      3  N   UNL     1     -77.433 -17.887  82.920  1.00  0.00    -0.307 NA
ATOM      4  C   UNL     1     -78.525 -17.773  81.940  1.00  0.00     0.105 C 
ATOM      5  C   UNL     1     -76.140 -17.756  82.225  1.00  0.00     0.105 C 
ENDBRANCH   2   3
ENDBRANCH   1   2
BRANCH   1   6
ATOM      6  O   UNL     1     -79.425 -19.271  85.093  1.00  0.00    -0.367 OA
BRANCH   6   7
ATOM      7  C   UNL     1     -79.399 -20.402  85.950  1.00  0.00     0.178 C 
BRANCH   7   8
ATOM      8  C   UNL     1     -80.760 -20.591  86.580  1.00  0.00    -0.015 A 
ATOM      9  C   UNL     1     -80.893 -21.176  87.855  1.00  0.00     0.007 A 
ATOM     10  C   UNL     1     -81.921 -20.244  85.865  1.00  0.00     0.007 A 
ATOM     11  C   UNL     1     -82.160 -21.381  88.409  1.00  0.00     0.000 A 
ATOM     12  C   UNL     1     -83.185 -20.452  86.424  1.00  0.00     0.000 A 
ATOM     13  C   UNL     1     -83.305 -21.018  87.696  1.00  0.00     0.000 A 
ENDBRANCH   7   8
BRANCH   7  14
ATOM     14  C   UNL     1     -78.368 -20.230  87.048  1.00  0.00    -0.015 A 
ATOM     15  C   UNL     1     -77.852 -18.953  87.329  1.00  0.00     0.008 A 
ATOM     16  C   UNL     1     -77.873 -21.339  87.758  1.00  0.00     0.008 A 
ATOM     17  C   UNL     1     -76.879 -18.787  88.319  1.00  0.00     0.016 A 
ATOM     18  C   UNL     1     -76.901 -21.169  88.746  1.00  0.00     0.016 A 
ATOM     19  C   UNL     1     -76.403 -19.894  89.029  1.00  0.00     0.017 A 
ATOM     20  Br  UNL     1     -75.072 -19.664  90.380  1.00  0.00    -0.051 Br
ENDBRANCH   7  14
ENDBRANCH   6   7
ENDBRANCH   1   6
TORSDOF 6
ENDMDL
MODEL 7
REMARK VINA RESULT:    -6.939      3.774      6.578
REMARK INTER + INTRA:          -9.900
REMARK INTER:                  -9.508
REMARK INTRA:                  -0.392
REMARK UNBOUND:                -0.527
REMARK SMILES CN(C)CCOC(c1ccccc1)c1ccc(Br)cc1
REMARK SMILES IDX 5 1 4 2 2 3 1 4 3 5 6 6 7 7 8 8 9 9 13 10 10 11 12 12 11 13
REMARK SMILES IDX 14 14 15 15 20 16 16 17 19 18 17 19 18 20
REMARK H PARENT
REMARK Flexibility Score: inf
ROOT
ATOM      1  C   UNL     1     -77.591 -21.513  88.101  1.00  0.00     0.177 C 
ENDROOT
BRANCH   1   2
ATOM      2  C   UNL     1     -78.996 -20.969  88.360  1.00  0.00     0.112 C 
BRANCH   2   3
ATOM      3  N   UNL     1     -79.271 -20.888  89.812  1.00  0.00    -0.307 NA
ATOM      4  C   UNL     1     -78.228 -21.601  90.567  1.00  0.00     0.105 C 
ATOM      5  C   UNL     1     -80.588 -21.465  90.135  1.00  0.00     0.105 C 
ENDBRANCH   2   3
ENDBRANCH   1   2
BRANCH   1   6
ATOM      6  O   UNL     1     -76.911 -20.630  87.231  1.00  0.00    -0.367 OA
BRANCH   6   7
ATOM      7  C   UNL     1     -77.598 -19.392  87.129  1.00  0.00     0.178 C 
BRANCH   7   8
ATOM      8  C   UNL     1     -77.830 -19.060  85.672  1.00  0.00    -0.015 A 
ATOM      9  C   UNL     1     -79.127 -18.810  85.184  1.00  0.00     0.007 A 
ATOM     10  C   UNL     1     -76.750 -19.064  84.770  1.00  0.00     0.007 A 
ATOM     11  C   UNL     1     -79.331 -18.544  83.826  1.00  0.00     0.000 A 
ATOM     12  C   UNL     1     -76.961 -18.797  83.414  1.00  0.00     0.000 A 
ATOM     13  C   UNL     1     -78.250 -18.535  82.942  1.00  0.00     0.000 A 
ENDBRANCH   7   8
BRANCH   7  14
ATOM     14  C   UNL     1     -76.800 -18.272  87.768  1.00  0.00    -0.015 A 
ATOM     15  C   UNL     1     -76.444 -18.352  89.125  1.00  0.00     0.008 A 
ATOM     16  C   UNL     1     -76.455 -17.120  87.037  1.00  0.00     0.008 A 
ATOM     17  C   UNL     1     -75.735 -17.312  89.732  1.00  0.00     0.016 A 
ATOM     18  C   UNL     1     -75.746 -16.083  87.647  1.00  0.00     0.016 A 
ATOM     19  C   UNL     1     -75.384 -16.177  88.994  1.00  0.00     0.017 A 
ATOM     20  Br  UNL     1     -74.416 -14.756  89.826  1.00  0.00    -0.051 Br
ENDBRANCH   7  14
ENDBRANCH   6   7
ENDBRANCH   1   6
TORSDOF 6
ENDMDL
MODEL 8
REMARK VINA RESULT:    -6.915      3.687      5.447
REMARK INTER + INTRA:          -9.867
REMARK INTER:                  -9.121
REMARK INTRA:                  -0.746
REMARK UNBOUND:                -0.527
REMARK SMILES CN(C)CCOC(c1ccccc1)c1ccc(Br)cc1
REMARK SMILES IDX 5 1 4 2 2 3 1 4 3 5 6 6 7 7 8 8 9 9 13 10 10 11 12 12 11 13
REMARK SMILES IDX 14 14 15 15 20 16 16 17 19 18 17 19 18 20
REMARK H PARENT
REMARK Flexibility Score: inf
ROOT
ATOM      1  C   UNL     1     -74.690 -19.390  84.599  1.00  0.00     0.177 C 
ENDROOT
BRANCH   1   2
ATOM      2  C   UNL     1     -74.902 -19.874  83.164  1.00  0.00     0.112 C 
BRANCH   2   3
ATOM      3  N   UNL     1     -74.311 -18.925  82.195  1.00  0.00    -0.307 NA
ATOM      4  C   UNL     1     -73.060 -18.364  82.730  1.00  0.00     0.105 C 
ATOM      5  C   UNL     1     -75.246 -17.826  81.891  1.00  0.00     0.105 C 
ENDBRANCH   2   3
ENDBRANCH   1   2
BRANCH   1   6
ATOM      6  O   UNL     1     -75.789 -18.586  84.979  1.00  0.00    -0.367 OA
BRANCH   6   7
ATOM      7  C   UNL     1     -76.480 -19.162  86.077  1.00  0.00     0.178 C 
BRANCH   7   8
ATOM      8  C   UNL     1     -77.953 -19.263  85.752  1.00  0.00    -0.015 A 
ATOM      9  C   UNL     1     -78.779 -20.192  86.413  1.00  0.00     0.007 A 
ATOM     10  C   UNL     1     -78.503 -18.469  84.728  1.00  0.00     0.007 A 
ATOM     11  C   UNL     1     -80.131 -20.302  86.074  1.00  0.00     0.000 A 
ATOM     12  C   UNL     1     -79.856 -18.585  84.394  1.00  0.00     0.000 A 
ATOM     13  C   UNL     1     -80.670 -19.498  85.067  1.00  0.00     0.000 A 
ENDBRANCH   7   8
BRANCH   7  14
ATOM     14  C   UNL     1     -76.309 -18.323  87.329  1.00  0.00    -0.015 A 
ATOM     15  C   UNL     1     -75.949 -16.969  87.220  1.00  0.00     0.008 A 
ATOM     16  C   UNL     1     -76.451 -18.893  88.607  1.00  0.00     0.008 A 
ATOM     17  C   UNL     1     -75.759 -16.194  88.368  1.00  0.00     0.016 A 
ATOM     18  C   UNL     1     -76.261 -18.115  89.752  1.00  0.00     0.016 A 
ATOM     19  C   UNL     1     -75.916 -16.766  89.634  1.00  0.00     0.017 A 
ATOM     20  Br  UNL     1     -75.655 -15.705  91.202  1.00  0.00    -0.051 Br
ENDBRANCH   7  14
ENDBRANCH   6   7
ENDBRANCH   1   6
TORSDOF 6
ENDMDL
MODEL 9
REMARK VINA RESULT:    -6.894      3.508      6.504
REMARK INTER + INTRA:          -9.838
REMARK INTER:                  -9.741
REMARK INTRA:                  -0.097
REMARK UNBOUND:                -0.527
REMARK SMILES CN(C)CCOC(c1ccccc1)c1ccc(Br)cc1
REMARK SMILES IDX 5 1 4 2 2 3 1 4 3 5 6 6 7 7 8 8 9 9 13 10 10 11 12 12 11 13
REMARK SMILES IDX 14 14 15 15 20 16 16 17 19 18 17 19 18 20
REMARK H PARENT
REMARK Flexibility Score: inf
ROOT
ATOM      1  C   UNL     1     -77.779 -21.789  90.213  1.00  0.00     0.177 C 
ENDROOT
BRANCH   1   2
ATOM      2  C   UNL     1     -77.125 -21.298  91.504  1.00  0.00     0.112 C 
BRANCH   2   3
ATOM      3  N   UNL     1     -76.477 -19.984  91.299  1.00  0.00    -0.307 NA
ATOM      4  C   UNL     1     -75.140 -20.161  90.711  1.00  0.00     0.105 C 
ATOM      5  C   UNL     1     -76.356 -19.248  92.570  1.00  0.00     0.105 C 
ENDBRANCH   2   3
ENDBRANCH   1   2
BRANCH   1   6
ATOM      6  O   UNL     1     -78.482 -20.716  89.617  1.00  0.00    -0.367 OA
BRANCH   6   7
ATOM      7  C   UNL     1     -78.979 -21.085  88.340  1.00  0.00     0.178 C 
BRANCH   7   8
ATOM      8  C   UNL     1     -78.598 -20.032  87.325  1.00  0.00    -0.015 A 
ATOM      9  C   UNL     1     -79.172 -20.024  86.038  1.00  0.00     0.007 A 
ATOM     10  C   UNL     1     -77.608 -19.082  87.635  1.00  0.00     0.007 A 
ATOM     11  C   UNL     1     -78.781 -19.068  85.096  1.00  0.00     0.000 A 
ATOM     12  C   UNL     1     -77.221 -18.129  86.688  1.00  0.00     0.000 A 
ATOM     13  C   UNL     1     -77.808 -18.120  85.421  1.00  0.00     0.000 A 
ENDBRANCH   7   8
BRANCH   7  14
ATOM     14  C   UNL     1     -80.489 -21.223  88.362  1.00  0.00    -0.015 A 
ATOM     15  C   UNL     1     -81.186 -21.095  89.576  1.00  0.00     0.008 A 
ATOM     16  C   UNL     1     -81.205 -21.536  87.192  1.00  0.00     0.008 A 
ATOM     17  C   UNL     1     -82.575 -21.251  89.613  1.00  0.00     0.016 A 
ATOM     18  C   UNL     1     -82.593 -21.690  87.233  1.00  0.00     0.016 A 
ATOM     19  C   UNL     1     -83.279 -21.547  88.442  1.00  0.00     0.017 A 
ATOM     20  Br  UNL     1     -85.177 -21.760  88.495  1.00  0.00    -0.051 Br
ENDBRANCH   7  14
ENDBRANCH   6   7
ENDBRANCH   1   6
TORSDOF 6
ENDMDL
MODEL 10
REMARK VINA RESULT:    -6.836      2.742      5.518
REMARK INTER + INTRA:          -9.761
REMARK INTER:                  -9.427
REMARK INTRA:                  -0.334
REMARK UNBOUND:                -0.527
REMARK SMILES CN(C)CCOC(c1ccccc1)c1ccc(Br)cc1
REMARK SMILES IDX 5 1 4 2 2 3 1 4 3 5 6 6 7 7 8 8 9 9 13 10 10 11 12 12 11 13
REMARK SMILES IDX 14 14 15 15 20 16 16 17 19 18 17 19 18 20
REMARK H PARENT
REMARK Flexibility Score: inf
ROOT
ATOM      1  C   UNL     1     -82.238 -20.999  86.157  1.00  0.00     0.177 C 
ENDROOT
BRANCH   1   2
ATOM      2  C   UNL     1     -83.618 -20.547  86.635  1.00  0.00     0.112 C 
BRANCH   2   3
ATOM      3  N   UNL     1     -83.529 -19.893  87.958  1.00  0.00    -0.307 NA
ATOM      4  C   UNL     1     -83.917 -20.836  89.019  1.00  0.00     0.105 C 
ATOM      5  C   UNL     1     -84.398 -18.704  88.022  1.00  0.00     0.105 C 
ENDBRANCH   2   3
ENDBRANCH   1   2
BRANCH   1   6
ATOM      6  O   UNL     1     -81.253 -20.181  86.757  1.00  0.00    -0.367 OA
BRANCH   6   7
ATOM      7  C   UNL     1     -79.960 -20.743  86.594  1.00  0.00     0.178 C 
BRANCH   7   8
ATOM      8  C   UNL     1     -79.377 -21.075  87.948  1.00  0.00    -0.015 A 
ATOM      9  C   UNL     1     -78.023 -21.438  88.085  1.00  0.00     0.007 A 
ATOM     10  C   UNL     1     -80.205 -21.092  89.086  1.00  0.00     0.007 A 
ATOM     11  C   UNL     1     -77.507 -21.782  89.338  1.00  0.00     0.000 A 
ATOM     12  C   UNL     1     -79.683 -21.437  90.336  1.00  0.00     0.000 A 
ATOM     13  C   UNL     1     -78.335 -21.779  90.463  1.00  0.00     0.000 A 
ENDBRANCH   7   8
BRANCH   7  14
ATOM     14  C   UNL     1     -79.033 -19.777  85.882  1.00  0.00    -0.015 A 
ATOM     15  C   UNL     1     -79.061 -19.684  84.480  1.00  0.00     0.008 A 
ATOM     16  C   UNL     1     -78.099 -19.008  86.601  1.00  0.00     0.008 A 
ATOM     17  C   UNL     1     -78.189 -18.819  83.812  1.00  0.00     0.016 A 
ATOM     18  C   UNL     1     -77.230 -18.145  85.930  1.00  0.00     0.016 A 
ATOM     19  C   UNL     1     -77.274 -18.048  84.536  1.00  0.00     0.017 A 
ATOM     20  Br  UNL     1     -76.083 -16.868  83.621  1.00  0.00    -0.051 Br
ENDBRANCH   7  14
ENDBRANCH   6   7
ENDBRANCH   1   6
TORSDOF 6
ENDMDL
MODEL 11
REMARK VINA RESULT:    -6.726      3.880      6.947
REMARK INTER + INTRA:          -9.612
REMARK INTER:                  -8.730
REMARK INTRA:                  -0.882
REMARK UNBOUND:                -0.527
REMARK SMILES CN(C)CCOC(c1ccccc1)c1ccc(Br)cc1
REMARK SMILES IDX 5 1 4 2 2 3 1 4 3 5 6 6 7 7 8 8 9 9 13 10 10 11 12 12 11 13
REMARK SMILES IDX 14 14 15 15 20 16 16 17 19 18 17 19 18 20
REMARK H PARENT
REMARK Flexibility Score: inf
ROOT
ATOM      1  C   UNL     1     -75.326 -19.344  89.682  1.00  0.00     0.177 C 
ENDROOT
BRANCH   1   2
ATOM      2  C   UNL     1     -74.785 -18.025  90.234  1.00  0.00     0.112 C 
BRANCH   2   3
ATOM      3  N   UNL     1     -75.802 -16.954  90.132  1.00  0.00    -0.307 NA
ATOM      4  C   UNL     1     -75.302 -15.858  89.287  1.00  0.00     0.105 C 
ATOM      5  C   UNL     1     -76.150 -16.425  91.462  1.00  0.00     0.105 C 
ENDBRANCH   2   3
ENDBRANCH   1   2
BRANCH   1   6
ATOM      6  O   UNL     1     -76.654 -19.145  89.236  1.00  0.00    -0.367 OA
BRANCH   6   7
ATOM      7  C   UNL     1     -76.915 -19.912  88.071  1.00  0.00     0.178 C 
BRANCH   7   8
ATOM      8  C   UNL     1     -76.648 -19.073  86.842  1.00  0.00    -0.015 A 
ATOM      9  C   UNL     1     -75.886 -19.578  85.771  1.00  0.00     0.007 A 
ATOM     10  C   UNL     1     -77.105 -17.743  86.785  1.00  0.00     0.007 A 
ATOM     11  C   UNL     1     -75.612 -18.777  84.658  1.00  0.00     0.000 A 
ATOM     12  C   UNL     1     -76.829 -16.947  85.670  1.00  0.00     0.000 A 
ATOM     13  C   UNL     1     -76.085 -17.464  84.606  1.00  0.00     0.000 A 
ENDBRANCH   7   8
BRANCH   7  14
ATOM     14  C   UNL     1     -78.356 -20.383  88.041  1.00  0.00    -0.015 A 
ATOM     15  C   UNL     1     -78.969 -20.835  89.222  1.00  0.00     0.008 A 
ATOM     16  C   UNL     1     -79.078 -20.428  86.834  1.00  0.00     0.008 A 
ATOM     17  C   UNL     1     -80.287 -21.300  89.200  1.00  0.00     0.016 A 
ATOM     18  C   UNL     1     -80.395 -20.893  86.817  1.00  0.00     0.016 A 
ATOM     19  C   UNL     1     -81.002 -21.328  87.999  1.00  0.00     0.017 A 
ATOM     20  Br  UNL     1     -82.803 -21.965  87.971  1.00  0.00    -0.051 Br
ENDBRANCH   7  14
ENDBRANCH   6   7
ENDBRANCH   1   6
TORSDOF 6
ENDMDL
MODEL 12
REMARK VINA RESULT:    -6.706      4.530      6.273
REMARK INTER + INTRA:          -9.585
REMARK INTER:                  -9.104
REMARK INTRA:                  -0.481
REMARK UNBOUND:                -0.527
REMARK SMILES CN(C)CCOC(c1ccccc1)c1ccc(Br)cc1
REMARK SMILES IDX 5 1 4 2 2 3 1 4 3 5 6 6 7 7 8 8 9 9 13 10 10 11 12 12 11 13
REMARK SMILES IDX 14 14 15 15 20 16 16 17 19 18 17 19 18 20
REMARK H PARENT
REMARK Flexibility Score: inf
ROOT
ATOM      1  C   UNL     1     -74.277 -17.664  84.842  1.00  0.00     0.177 C 
ENDROOT
BRANCH   1   2
ATOM      2  C   UNL     1     -73.895 -16.669  83.746  1.00  0.00     0.112 C 
BRANCH   2   3
ATOM      3  N   UNL     1     -73.384 -15.410  84.332  1.00  0.00    -0.307 NA
ATOM      4  C   UNL     1     -72.409 -14.786  83.423  1.00  0.00     0.105 C 
ATOM      5  C   UNL     1     -72.745 -15.654  85.638  1.00  0.00     0.105 C 
ENDBRANCH   2   3
ENDBRANCH   1   2
BRANCH   1   6
ATOM      6  O   UNL     1     -75.611 -17.418  85.241  1.00  0.00    -0.367 OA
BRANCH   6   7
ATOM      7  C   UNL     1     -76.012 -18.331  86.251  1.00  0.00     0.178 C 
BRANCH   7   8
ATOM      8  C   UNL     1     -77.422 -18.804  85.976  1.00  0.00    -0.015 A 
ATOM      9  C   UNL     1     -77.968 -19.898  86.674  1.00  0.00     0.007 A 
ATOM     10  C   UNL     1     -78.183 -18.193  84.962  1.00  0.00     0.007 A 
ATOM     11  C   UNL     1     -79.258 -20.350  86.381  1.00  0.00     0.000 A 
ATOM     12  C   UNL     1     -79.472 -18.650  84.673  1.00  0.00     0.000 A 
ATOM     13  C   UNL     1     -80.011 -19.726  85.383  1.00  0.00     0.000 A 
ENDBRANCH   7   8
BRANCH   7  14
ATOM     14  C   UNL     1     -75.971 -17.681  87.620  1.00  0.00    -0.015 A 
ATOM     15  C   UNL     1     -75.710 -16.305  87.734  1.00  0.00     0.008 A 
ATOM     16  C   UNL     1     -76.134 -18.446  88.790  1.00  0.00     0.008 A 
ATOM     17  C   UNL     1     -75.639 -15.701  88.993  1.00  0.00     0.016 A 
ATOM     18  C   UNL     1     -76.063 -17.838  90.047  1.00  0.00     0.016 A 
ATOM     19  C   UNL     1     -75.817 -16.466  90.150  1.00  0.00     0.017 A 
ATOM     20  Br  UNL     1     -75.718 -15.639  91.869  1.00  0.00    -0.051 Br
ENDBRANCH   7  14
ENDBRANCH   6   7
ENDBRANCH   1   6
TORSDOF 6
ENDMDL
MODEL 13
REMARK VINA RESULT:    -6.703      4.002      6.932
REMARK INTER + INTRA:          -9.580
REMARK INTER:                  -8.835
REMARK INTRA:                  -0.745
REMARK UNBOUND:                -0.527
REMARK SMILES CN(C)CCOC(c1ccccc1)c1ccc(Br)cc1
REMARK SMILES IDX 5 1 4 2 2 3 1 4 3 5 6 6 7 7 8 8 9 9 13 10 10 11 12 12 11 13
REMARK SMILES IDX 14 14 15 15 20 16 16 17 19 18 17 19 18 20
REMARK H PARENT
REMARK Flexibility Score: inf
ROOT
ATOM      1  C   UNL     1     -75.787 -18.837  90.353  1.00  0.00     0.177 C 
ENDROOT
BRANCH   1   2
ATOM      2  C   UNL     1     -74.909 -17.588  90.439  1.00  0.00     0.112 C 
BRANCH   2   3
ATOM      3  N   UNL     1     -75.707 -16.366  90.202  1.00  0.00    -0.307 NA
ATOM      4  C   UNL     1     -75.104 -15.566  89.124  1.00  0.00     0.105 C 
ATOM      5  C   UNL     1     -75.799 -15.546  91.423  1.00  0.00     0.105 C 
ENDBRANCH   2   3
ENDBRANCH   1   2
BRANCH   1   6
ATOM      6  O   UNL     1     -76.832 -18.600  89.431  1.00  0.00    -0.367 OA
BRANCH   6   7
ATOM      7  C   UNL     1     -76.883 -19.626  88.451  1.00  0.00     0.178 C 
BRANCH   7   8
ATOM      8  C   UNL     1     -76.585 -19.040  87.089  1.00  0.00    -0.015 A 
ATOM      9  C   UNL     1     -75.818 -19.752  86.146  1.00  0.00     0.007 A 
ATOM     10  C   UNL     1     -77.018 -17.739  86.773  1.00  0.00     0.007 A 
ATOM     11  C   UNL     1     -75.516 -19.182  84.906  1.00  0.00     0.000 A 
ATOM     12  C   UNL     1     -76.713 -17.175  85.531  1.00  0.00     0.000 A 
ATOM     13  C   UNL     1     -75.965 -17.896  84.597  1.00  0.00     0.000 A 
ENDBRANCH   7   8
BRANCH   7  14
ATOM     14  C   UNL     1     -78.250 -20.279  88.417  1.00  0.00    -0.015 A 
ATOM     15  C   UNL     1     -78.963 -20.351  87.207  1.00  0.00     0.008 A 
ATOM     16  C   UNL     1     -78.848 -20.769  89.593  1.00  0.00     0.008 A 
ATOM     17  C   UNL     1     -80.237 -20.924  87.171  1.00  0.00     0.016 A 
ATOM     18  C   UNL     1     -80.122 -21.341  89.552  1.00  0.00     0.016 A 
ATOM     19  C   UNL     1     -80.818 -21.420  88.342  1.00  0.00     0.017 A 
ATOM     20  Br  UNL     1     -82.560 -22.202  88.290  1.00  0.00    -0.051 Br
ENDBRANCH   7  14
ENDBRANCH   6   7
ENDBRANCH   1   6
TORSDOF 6
ENDMDL
MODEL 14
REMARK VINA RESULT:    -6.672      2.933      5.913
REMARK INTER + INTRA:          -9.539
REMARK INTER:                  -9.070
REMARK INTRA:                  -0.470
REMARK UNBOUND:                -0.527
REMARK SMILES CN(C)CCOC(c1ccccc1)c1ccc(Br)cc1
REMARK SMILES IDX 5 1 4 2 2 3 1 4 3 5 6 6 7 7 8 8 9 9 13 10 10 11 12 12 11 13
REMARK SMILES IDX 14 14 15 15 20 16 16 17 19 18 17 19 18 20
REMARK H PARENT
REMARK Flexibility Score: inf
ROOT
ATOM      1  C   UNL     1     -79.934 -20.921  87.376  1.00  0.00     0.177 C 
ENDROOT
BRANCH   1   2
ATOM      2  C   UNL     1     -81.364 -20.984  86.841  1.00  0.00     0.112 C 
BRANCH   2   3
ATOM      3  N   UNL     1     -82.119 -22.082  87.484  1.00  0.00    -0.307 NA
ATOM      4  C   UNL     1     -82.820 -22.881  86.466  1.00  0.00     0.105 C 
ATOM      5  C   UNL     1     -83.100 -21.558  88.450  1.00  0.00     0.105 C 
ENDBRANCH   2   3
ENDBRANCH   1   2
BRANCH   1   6
ATOM      6  O   UNL     1     -79.051 -20.683  86.297  1.00  0.00    -0.367 OA
BRANCH   6   7
ATOM      7  C   UNL     1     -78.781 -19.296  86.163  1.00  0.00     0.178 C 
BRANCH   7   8
ATOM      8  C   UNL     1     -78.985 -18.877  84.724  1.00  0.00    -0.015 A 
ATOM      9  C   UNL     1     -80.264 -18.909  84.135  1.00  0.00     0.007 A 
ATOM     10  C   UNL     1     -77.879 -18.513  83.934  1.00  0.00     0.007 A 
ATOM     11  C   UNL     1     -80.432 -18.557  82.793  1.00  0.00     0.000 A 
ATOM     12  C   UNL     1     -78.054 -18.163  82.592  1.00  0.00     0.000 A 
ATOM     13  C   UNL     1     -79.329 -18.183  82.022  1.00  0.00     0.000 A 
ENDBRANCH   7   8
BRANCH   7  14
ATOM     14  C   UNL     1     -77.355 -18.977  86.570  1.00  0.00    -0.015 A 
ATOM     15  C   UNL     1     -76.996 -17.655  86.884  1.00  0.00     0.008 A 
ATOM     16  C   UNL     1     -76.366 -19.978  86.586  1.00  0.00     0.008 A 
ATOM     17  C   UNL     1     -75.677 -17.345  87.231  1.00  0.00     0.016 A 
ATOM     18  C   UNL     1     -75.050 -19.664  86.934  1.00  0.00     0.016 A 
ATOM     19  C   UNL     1     -74.704 -18.349  87.258  1.00  0.00     0.017 A 
ATOM     20  Br  UNL     1     -72.903 -17.923  87.732  1.00  0.00    -0.051 Br
ENDBRANCH   7  14
ENDBRANCH   6   7
ENDBRANCH   1   6
TORSDOF 6
ENDMDL
MODEL 15
REMARK VINA RESULT:    -6.616      3.766      6.424
REMARK INTER + INTRA:          -9.464
REMARK INTER:                  -8.859
REMARK INTRA:                  -0.605
REMARK UNBOUND:                -0.527
REMARK SMILES CN(C)CCOC(c1ccccc1)c1ccc(Br)cc1
REMARK SMILES IDX 5 1 4 2 2 3 1 4 3 5 6 6 7 7 8 8 9 9 13 10 10 11 12 12 11 13
REMARK SMILES IDX 14 14 15 15 20 16 16 17 19 18 17 19 18 20
REMARK H PARENT
REMARK Flexibility Score: inf
ROOT
ATOM      1  C   UNL     1     -74.568 -19.652  85.197  1.00  0.00     0.177 C 
ENDROOT
BRANCH   1   2
ATOM      2  C   UNL     1     -75.062 -19.785  83.757  1.00  0.00     0.112 C 
BRANCH   2   3
ATOM      3  N   UNL     1     -74.713 -18.584  82.967  1.00  0.00    -0.307 NA
ATOM      4  C   UNL     1     -73.954 -17.634  83.795  1.00  0.00     0.105 C 
ATOM      5  C   UNL     1     -75.922 -17.921  82.448  1.00  0.00     0.105 C 
ENDBRANCH   2   3
ENDBRANCH   1   2
BRANCH   1   6
ATOM      6  O   UNL     1     -75.638 -19.937  86.078  1.00  0.00    -0.367 OA
BRANCH   6   7
ATOM      7  C   UNL     1     -76.560 -18.858  86.116  1.00  0.00     0.178 C 
BRANCH   7   8
ATOM      8  C   UNL     1     -76.302 -18.015  87.344  1.00  0.00    -0.015 A 
ATOM      9  C   UNL     1     -75.964 -16.652  87.229  1.00  0.00     0.007 A 
ATOM     10  C   UNL     1     -76.331 -18.605  88.621  1.00  0.00     0.007 A 
ATOM     11  C   UNL     1     -75.689 -15.894  88.371  1.00  0.00     0.000 A 
ATOM     12  C   UNL     1     -76.055 -17.841  89.759  1.00  0.00     0.000 A 
ATOM     13  C   UNL     1     -75.736 -16.487  89.635  1.00  0.00     0.000 A 
ENDBRANCH   7   8
BRANCH   7  14
ATOM     14  C   UNL     1     -77.989 -19.365  86.159  1.00  0.00    -0.015 A 
ATOM     15  C   UNL     1     -78.387 -20.252  87.173  1.00  0.00     0.008 A 
ATOM     16  C   UNL     1     -78.915 -19.004  85.163  1.00  0.00     0.008 A 
ATOM     17  C   UNL     1     -79.693 -20.750  87.205  1.00  0.00     0.016 A 
ATOM     18  C   UNL     1     -80.220 -19.503  85.198  1.00  0.00     0.016 A 
ATOM     19  C   UNL     1     -80.611 -20.375  86.218  1.00  0.00     0.017 A 
ATOM     20  Br  UNL     1     -82.395 -21.057  86.263  1.00  0.00    -0.051 Br
ENDBRANCH   7  14
ENDBRANCH   6   7
ENDBRANCH   1   6
TORSDOF 6
ENDMDL
