MODEL 1
REMARK VINA RESULT:    -8.318      0.000      0.000
REMARK INTER + INTRA:         -12.152
REMARK INTER:                 -11.236
REMARK INTRA:                  -0.916
REMARK UNBOUND:                -0.916
REMARK SMILES Clc1ccc(COC(Cn2ccnc2)c2ccc(Cl)cc2Cl)cc1
REMARK SMILES IDX 8 1 7 2 6 3 5 4 1 5 2 6 3 7 24 8 4 9 23 10 9 11 10 12 11 13
REMARK SMILES IDX 14 14 12 15 13 16 15 17 21 18 16 19 22 20 20 21 17 22 18 23
REMARK SMILES IDX 19 24
REMARK H PARENT
REMARK Flexibility Score: inf
ROOT
ATOM      1  C   UNL     1       9.251  77.028  -1.726  1.00  0.00     0.170 C 
ENDROOT
BRANCH   1   2
ATOM      2  O   UNL     1      10.028  77.808  -2.619  1.00  0.00    -0.367 OA
BRANCH   2   3
ATOM      3  C   UNL     1      11.178  78.315  -1.970  1.00  0.00     0.196 C 
BRANCH   3   4
ATOM      4  C   UNL     1      12.243  78.552  -2.999  1.00  0.00    -0.022 A 
ATOM      5  Cl  UNL     1      15.387  79.266  -6.225  1.00  0.00    -0.084 Cl
ATOM      6  C   UNL     1      14.176  78.992  -4.987  1.00  0.00     0.041 A 
ATOM      7  C   UNL     1      13.717  77.696  -4.732  1.00  0.00     0.021 A 
ATOM      8  C   UNL     1      13.663  80.070  -4.258  1.00  0.00     0.021 A 
ATOM      9  C   UNL     1      12.751  77.476  -3.745  1.00  0.00     0.007 A 
ATOM     10  C   UNL     1      12.696  79.854  -3.272  1.00  0.00     0.007 A 
ENDBRANCH   3   4
ENDBRANCH   2   3
ENDBRANCH   1   2
BRANCH   1  11
ATOM     11  C   UNL     1       7.780  77.443  -1.880  1.00  0.00     0.160 C 
BRANCH  11  12
ATOM     12  N   UNL     1       7.176  77.739  -0.581  1.00  0.00    -0.335 N 
ATOM     13  C   UNL     1       6.794  78.942  -0.122  1.00  0.00     0.107 A 
ATOM     14  C   UNL     1       6.816  76.852   0.366  1.00  0.00     0.199 A 
ATOM     15  C   UNL     1       6.212  78.756   1.112  1.00  0.00     0.130 A 
ATOM     16  N   UNL     1       6.223  77.442   1.424  1.00  0.00    -0.245 NA
ENDBRANCH  11  12
ENDBRANCH   1  11
BRANCH   1  17
ATOM     17  C   UNL     1       9.418  75.548  -2.042  1.00  0.00     0.001 A 
ATOM     18  C   UNL     1      10.127  74.670  -1.187  1.00  0.00     0.048 A 
ATOM     19  C   UNL     1       8.819  75.025  -3.206  1.00  0.00     0.009 A 
ATOM     20  Cl  UNL     1      10.895  75.217   0.300  1.00  0.00    -0.084 Cl
ATOM     21  C   UNL     1      10.230  73.311  -1.510  1.00  0.00     0.041 A 
ATOM     22  C   UNL     1       8.931  73.669  -3.517  1.00  0.00     0.021 A 
ATOM     23  C   UNL     1       9.635  72.812  -2.671  1.00  0.00     0.042 A 
ATOM     24  Cl  UNL     1       9.771  71.107  -3.063  1.00  0.00    -0.084 Cl
ENDBRANCH   1  17
TORSDOF 6
ENDMDL
MODEL 2
REMARK VINA RESULT:    -8.249      3.906      5.649
REMARK INTER + INTRA:         -12.059
REMARK INTER:                 -11.109
REMARK INTRA:                  -0.950
REMARK UNBOUND:                -0.916
REMARK SMILES Clc1ccc(COC(Cn2ccnc2)c2ccc(Cl)cc2Cl)cc1
REMARK SMILES IDX 8 1 7 2 6 3 5 4 1 5 2 6 3 7 24 8 4 9 23 10 9 11 10 12 11 13
REMARK SMILES IDX 14 14 12 15 13 16 15 17 21 18 16 19 22 20 20 21 17 22 18 23
REMARK SMILES IDX 19 24
REMARK H PARENT
REMARK Flexibility Score: inf
ROOT
ATOM      1  C   UNL     1      13.076  79.594  -1.905  1.00  0.00     0.170 C 
ENDROOT
BRANCH   1   2
ATOM      2  O   UNL     1      13.369  80.604  -2.855  1.00  0.00    -0.367 OA
BRANCH   2   3
ATOM      3  C   UNL     1      12.874  80.250  -4.131  1.00  0.00     0.196 C 
BRANCH   3   4
ATOM      4  C   UNL     1      14.027  79.834  -4.995  1.00  0.00    -0.022 A 
ATOM      5  Cl  UNL     1      17.606  78.536  -7.508  1.00  0.00    -0.084 Cl
ATOM      6  C   UNL     1      16.231  79.034  -6.539  1.00  0.00     0.041 A 
ATOM      7  C   UNL     1      16.216  80.300  -5.944  1.00  0.00     0.021 A 
ATOM      8  C   UNL     1      15.152  78.164  -6.355  1.00  0.00     0.021 A 
ATOM      9  C   UNL     1      15.121  80.698  -5.170  1.00  0.00     0.007 A 
ATOM     10  C   UNL     1      14.056  78.558  -5.582  1.00  0.00     0.007 A 
ENDBRANCH   3   4
ENDBRANCH   2   3
ENDBRANCH   1   2
BRANCH   1  11
ATOM     11  C   UNL     1      13.920  79.854  -0.648  1.00  0.00     0.160 C 
BRANCH  11  12
ATOM     12  N   UNL     1      13.820  78.741   0.295  1.00  0.00    -0.335 N 
ATOM     13  C   UNL     1      14.103  77.450   0.057  1.00  0.00     0.107 A 
ATOM     14  C   UNL     1      13.503  78.813   1.602  1.00  0.00     0.199 A 
ATOM     15  C   UNL     1      13.941  76.759   1.235  1.00  0.00     0.130 A 
ATOM     16  N   UNL     1      13.563  77.611   2.212  1.00  0.00    -0.245 NA
ENDBRANCH  11  12
ENDBRANCH   1  11
BRANCH   1  17
ATOM     17  C   UNL     1      11.593  79.615  -1.559  1.00  0.00     0.001 A 
ATOM     18  C   UNL     1      10.704  78.599  -1.985  1.00  0.00     0.048 A 
ATOM     19  C   UNL     1      11.093  80.662  -0.758  1.00  0.00     0.009 A 
ATOM     20  Cl  UNL     1      11.231  77.238  -2.970  1.00  0.00    -0.084 Cl
ATOM     21  C   UNL     1       9.354  78.652  -1.618  1.00  0.00     0.041 A 
ATOM     22  C   UNL     1       9.744  80.704  -0.401  1.00  0.00     0.021 A 
ATOM     23  C   UNL     1       8.875  79.701  -0.830  1.00  0.00     0.042 A 
ATOM     24  Cl  UNL     1       7.180  79.754  -0.377  1.00  0.00    -0.084 Cl
ENDBRANCH   1  17
TORSDOF 6
ENDMDL
MODEL 3
REMARK VINA RESULT:    -8.158      3.468      4.347
REMARK INTER + INTRA:         -11.936
REMARK INTER:                 -11.230
REMARK INTRA:                  -0.706
REMARK UNBOUND:                -0.916
REMARK SMILES Clc1ccc(COC(Cn2ccnc2)c2ccc(Cl)cc2Cl)cc1
REMARK SMILES IDX 8 1 7 2 6 3 5 4 1 5 2 6 3 7 24 8 4 9 23 10 9 11 10 12 11 13
REMARK SMILES IDX 14 14 12 15 13 16 15 17 21 18 16 19 22 20 20 21 17 22 18 23
REMARK SMILES IDX 19 24
REMARK H PARENT
REMARK Flexibility Score: inf
ROOT
ATOM      1  C   UNL     1      11.922  79.622  -1.436  1.00  0.00     0.170 C 
ENDROOT
BRANCH   1   2
ATOM      2  O   UNL     1      12.865  80.128  -2.366  1.00  0.00    -0.367 OA
BRANCH   2   3
ATOM      3  C   UNL     1      12.460  79.851  -3.692  1.00  0.00     0.196 C 
BRANCH   3   4
ATOM      4  C   UNL     1      13.661  79.929  -4.586  1.00  0.00    -0.022 A 
ATOM      5  Cl  UNL     1      17.229  80.164  -7.418  1.00  0.00    -0.084 Cl
ATOM      6  C   UNL     1      15.855  80.075  -6.332  1.00  0.00     0.041 A 
ATOM      7  C   UNL     1      15.244  78.842  -6.077  1.00  0.00     0.021 A 
ATOM      8  C   UNL     1      15.366  81.235  -5.725  1.00  0.00     0.021 A 
ATOM      9  C   UNL     1      14.148  78.769  -5.211  1.00  0.00     0.007 A 
ATOM     10  C   UNL     1      14.269  81.166  -4.860  1.00  0.00     0.007 A 
ENDBRANCH   3   4
ENDBRANCH   2   3
ENDBRANCH   1   2
BRANCH   1  11
ATOM     11  C   UNL     1      10.766  78.985  -2.222  1.00  0.00     0.160 C 
BRANCH  11  12
ATOM     12  N   UNL     1       9.470  79.415  -1.697  1.00  0.00    -0.335 N 
ATOM     13  C   UNL     1       9.251  80.287  -0.698  1.00  0.00     0.107 A 
ATOM     14  C   UNL     1       8.254  79.081  -2.167  1.00  0.00     0.199 A 
ATOM     15  C   UNL     1       7.891  80.456  -0.579  1.00  0.00     0.130 A 
ATOM     16  N   UNL     1       7.257  79.700  -1.501  1.00  0.00    -0.245 NA
ENDBRANCH  11  12
ENDBRANCH   1  11
BRANCH   1  17
ATOM     17  C   UNL     1      12.580  78.588  -0.533  1.00  0.00     0.001 A 
ATOM     18  C   UNL     1      13.722  78.887   0.249  1.00  0.00     0.048 A 
ATOM     19  C   UNL     1      12.016  77.300  -0.443  1.00  0.00     0.009 A 
ATOM     20  Cl  UNL     1      14.493  80.471   0.225  1.00  0.00    -0.084 Cl
ATOM     21  C   UNL     1      14.275  77.908   1.083  1.00  0.00     0.041 A 
ATOM     22  C   UNL     1      12.577  76.332   0.391  1.00  0.00     0.021 A 
ATOM     23  C   UNL     1      13.705  76.634   1.154  1.00  0.00     0.042 A 
ATOM     24  Cl  UNL     1      14.407  75.417   2.205  1.00  0.00    -0.084 Cl
ENDBRANCH   1  17
TORSDOF 6
ENDMDL
MODEL 4
REMARK VINA RESULT:    -8.132      2.594      6.479
REMARK INTER + INTRA:         -11.900
REMARK INTER:                 -10.975
REMARK INTRA:                  -0.925
REMARK UNBOUND:                -0.916
REMARK SMILES Clc1ccc(COC(Cn2ccnc2)c2ccc(Cl)cc2Cl)cc1
REMARK SMILES IDX 8 1 7 2 6 3 5 4 1 5 2 6 3 7 24 8 4 9 23 10 9 11 10 12 11 13
REMARK SMILES IDX 14 14 12 15 13 16 15 17 21 18 16 19 22 20 20 21 17 22 18 23
REMARK SMILES IDX 19 24
REMARK H PARENT
REMARK Flexibility Score: inf
ROOT
ATOM      1  C   UNL     1      11.331  79.116  -2.642  1.00  0.00     0.170 C 
ENDROOT
BRANCH   1   2
ATOM      2  O   UNL     1      11.408  77.857  -1.995  1.00  0.00    -0.367 OA
BRANCH   2   3
ATOM      3  C   UNL     1      10.786  76.855  -2.775  1.00  0.00     0.196 C 
BRANCH   3   4
ATOM      4  C   UNL     1       9.538  76.407  -2.074  1.00  0.00    -0.022 A 
ATOM      5  Cl  UNL     1       5.736  75.168   0.120  1.00  0.00    -0.084 Cl
ATOM      6  C   UNL     1       7.197  75.648  -0.723  1.00  0.00     0.041 A 
ATOM      7  C   UNL     1       8.428  75.627  -0.057  1.00  0.00     0.021 A 
ATOM      8  C   UNL     1       7.133  76.057  -2.058  1.00  0.00     0.021 A 
ATOM      9  C   UNL     1       9.594  76.009  -0.728  1.00  0.00     0.007 A 
ATOM     10  C   UNL     1       8.297  76.442  -2.731  1.00  0.00     0.007 A 
ENDBRANCH   3   4
ENDBRANCH   2   3
ENDBRANCH   1   2
BRANCH   1  11
ATOM     11  C   UNL     1      10.792  80.143  -1.634  1.00  0.00     0.160 C 
BRANCH  11  12
ATOM     12  N   UNL     1       9.353  79.981  -1.434  1.00  0.00    -0.335 N 
ATOM     13  C   UNL     1       8.730  79.600  -0.305  1.00  0.00     0.107 A 
ATOM     14  C   UNL     1       8.375  80.261  -2.316  1.00  0.00     0.199 A 
ATOM     15  C   UNL     1       7.375  79.649  -0.536  1.00  0.00     0.130 A 
ATOM     16  N   UNL     1       7.144  80.065  -1.800  1.00  0.00    -0.245 NA
ENDBRANCH  11  12
ENDBRANCH   1  11
BRANCH   1  17
ATOM     17  C   UNL     1      12.708  79.535  -3.138  1.00  0.00     0.001 A 
ATOM     18  C   UNL     1      13.885  79.290  -2.391  1.00  0.00     0.048 A 
ATOM     19  C   UNL     1      12.821  80.155  -4.399  1.00  0.00     0.009 A 
ATOM     20  Cl  UNL     1      13.856  78.504  -0.815  1.00  0.00    -0.084 Cl
ATOM     21  C   UNL     1      15.131  79.673  -2.904  1.00  0.00     0.041 A 
ATOM     22  C   UNL     1      14.069  80.533  -4.898  1.00  0.00     0.021 A 
ATOM     23  C   UNL     1      15.223  80.292  -4.152  1.00  0.00     0.042 A 
ATOM     24  Cl  UNL     1      16.791  80.765  -4.783  1.00  0.00    -0.084 Cl
ENDBRANCH   1  17
TORSDOF 6
ENDMDL
MODEL 5
REMARK VINA RESULT:    -8.079      3.242      5.253
REMARK INTER + INTRA:         -11.829
REMARK INTER:                 -11.128
REMARK INTRA:                  -0.701
REMARK UNBOUND:                -0.916
REMARK SMILES Clc1ccc(COC(Cn2ccnc2)c2ccc(Cl)cc2Cl)cc1
REMARK SMILES IDX 8 1 7 2 6 3 5 4 1 5 2 6 3 7 24 8 4 9 23 10 9 11 10 12 11 13
REMARK SMILES IDX 14 14 12 15 13 16 15 17 21 18 16 19 22 20 20 21 17 22 18 23
REMARK SMILES IDX 19 24
REMARK H PARENT
REMARK Flexibility Score: inf
ROOT
ATOM      1  C   UNL     1      11.876  78.497  -2.057  1.00  0.00     0.170 C 
ENDROOT
BRANCH   1   2
ATOM      2  O   UNL     1      12.014  79.047  -3.356  1.00  0.00    -0.367 OA
BRANCH   2   3
ATOM      3  C   UNL     1      13.003  80.058  -3.369  1.00  0.00     0.196 C 
BRANCH   3   4
ATOM      4  C   UNL     1      14.031  79.709  -4.403  1.00  0.00    -0.022 A 
ATOM      5  Cl  UNL     1      17.238  78.590  -7.449  1.00  0.00    -0.084 Cl
ATOM      6  C   UNL     1      16.006  79.018  -6.275  1.00  0.00     0.041 A 
ATOM      7  C   UNL     1      16.175  80.145  -5.463  1.00  0.00     0.021 A 
ATOM      8  C   UNL     1      14.858  78.231  -6.146  1.00  0.00     0.021 A 
ATOM      9  C   UNL     1      15.194  80.487  -4.527  1.00  0.00     0.007 A 
ATOM     10  C   UNL     1      13.876  78.570  -5.210  1.00  0.00     0.007 A 
ENDBRANCH   3   4
ENDBRANCH   2   3
ENDBRANCH   1   2
BRANCH   1  11
ATOM     11  C   UNL     1      12.873  79.204  -1.125  1.00  0.00     0.160 C 
BRANCH  11  12
ATOM     12  N   UNL     1      13.356  78.298  -0.084  1.00  0.00    -0.335 N 
ATOM     13  C   UNL     1      12.858  77.092   0.234  1.00  0.00     0.107 A 
ATOM     14  C   UNL     1      14.439  78.467   0.698  1.00  0.00     0.199 A 
ATOM     15  C   UNL     1      13.655  76.554   1.219  1.00  0.00     0.130 A 
ATOM     16  N   UNL     1      14.652  77.415   1.515  1.00  0.00    -0.245 NA
ENDBRANCH  11  12
ENDBRANCH   1  11
BRANCH   1  17
ATOM     17  C   UNL     1      10.452  78.693  -1.554  1.00  0.00     0.001 A 
ATOM     18  C   UNL     1       9.443  77.719  -1.749  1.00  0.00     0.048 A 
ATOM     19  C   UNL     1      10.135  79.865  -0.839  1.00  0.00     0.009 A 
ATOM     20  Cl  UNL     1       9.741  76.211  -2.610  1.00  0.00    -0.084 Cl
ATOM     21  C   UNL     1       8.155  77.936  -1.245  1.00  0.00     0.041 A 
ATOM     22  C   UNL     1       8.846  80.070  -0.343  1.00  0.00     0.021 A 
ATOM     23  C   UNL     1       7.857  79.107  -0.545  1.00  0.00     0.042 A 
ATOM     24  Cl  UNL     1       6.239  79.366   0.083  1.00  0.00    -0.084 Cl
ENDBRANCH   1  17
TORSDOF 6
ENDMDL
MODEL 6
REMARK VINA RESULT:    -8.005      2.192      5.574
REMARK INTER + INTRA:         -11.729
REMARK INTER:                 -10.742
REMARK INTRA:                  -0.987
REMARK UNBOUND:                -0.916
REMARK SMILES Clc1ccc(COC(Cn2ccnc2)c2ccc(Cl)cc2Cl)cc1
REMARK SMILES IDX 8 1 7 2 6 3 5 4 1 5 2 6 3 7 24 8 4 9 23 10 9 11 10 12 11 13
REMARK SMILES IDX 14 14 12 15 13 16 15 17 21 18 16 19 22 20 20 21 17 22 18 23
REMARK SMILES IDX 19 24
REMARK H PARENT
REMARK Flexibility Score: inf
ROOT
ATOM      1  C   UNL     1       8.219  77.712  -2.062  1.00  0.00     0.170 C 
ENDROOT
BRANCH   1   2
ATOM      2  O   UNL     1       7.892  76.829  -3.122  1.00  0.00    -0.367 OA
BRANCH   2   3
ATOM      3  C   UNL     1       7.446  75.585  -2.619  1.00  0.00     0.196 C 
BRANCH   3   4
ATOM      4  C   UNL     1       8.109  74.488  -3.397  1.00  0.00    -0.022 A 
ATOM      5  Cl  UNL     1      10.033  71.059  -5.710  1.00  0.00    -0.084 Cl
ATOM      6  C   UNL     1       9.290  72.375  -4.820  1.00  0.00     0.041 A 
ATOM      7  C   UNL     1       9.606  72.575  -3.472  1.00  0.00     0.021 A 
ATOM      8  C   UNL     1       8.377  73.223  -5.455  1.00  0.00     0.021 A 
ATOM      9  C   UNL     1       9.015  73.624  -2.761  1.00  0.00     0.007 A 
ATOM     10  C   UNL     1       7.783  74.272  -4.747  1.00  0.00     0.007 A 
ENDBRANCH   3   4
ENDBRANCH   2   3
ENDBRANCH   1   2
BRANCH   1  11
ATOM     11  C   UNL     1       8.079  76.946  -0.737  1.00  0.00     0.160 C 
BRANCH  11  12
ATOM     12  N   UNL     1       7.082  77.572   0.131  1.00  0.00    -0.335 N 
ATOM     13  C   UNL     1       6.363  76.978   1.097  1.00  0.00     0.107 A 
ATOM     14  C   UNL     1       6.756  78.878   0.180  1.00  0.00     0.199 A 
ATOM     15  C   UNL     1       5.601  77.946   1.711  1.00  0.00     0.130 A 
ATOM     16  N   UNL     1       5.845  79.145   1.139  1.00  0.00    -0.245 NA
ENDBRANCH  11  12
ENDBRANCH   1  11
BRANCH   1  17
ATOM     17  C   UNL     1       9.643  78.225  -2.228  1.00  0.00     0.001 A 
ATOM     18  C   UNL     1       9.958  79.604  -2.180  1.00  0.00     0.048 A 
ATOM     19  C   UNL     1      10.689  77.296  -2.400  1.00  0.00     0.009 A 
ATOM     20  Cl  UNL     1       8.729  80.845  -1.949  1.00  0.00    -0.084 Cl
ATOM     21  C   UNL     1      11.287  80.023  -2.312  1.00  0.00     0.041 A 
ATOM     22  C   UNL     1      12.010  77.727  -2.532  1.00  0.00     0.021 A 
ATOM     23  C   UNL     1      12.310  79.088  -2.488  1.00  0.00     0.042 A 
ATOM     24  Cl  UNL     1      13.972  79.627  -2.652  1.00  0.00    -0.084 Cl
ENDBRANCH   1  17
TORSDOF 6
ENDMDL
MODEL 7
REMARK VINA RESULT:    -7.993      1.366      1.703
REMARK INTER + INTRA:         -11.713
REMARK INTER:                 -11.937
REMARK INTRA:                   0.224
REMARK UNBOUND:                -0.916
REMARK SMILES Clc1ccc(COC(Cn2ccnc2)c2ccc(Cl)cc2Cl)cc1
REMARK SMILES IDX 8 1 7 2 6 3 5 4 1 5 2 6 3 7 24 8 4 9 23 10 9 11 10 12 11 13
REMARK SMILES IDX 14 14 12 15 13 16 15 17 21 18 16 19 22 20 20 21 17 22 18 23
REMARK SMILES IDX 19 24
REMARK H PARENT
REMARK Flexibility Score: inf
ROOT
ATOM      1  C   UNL     1       9.227  76.351  -0.932  1.00  0.00     0.170 C 
ENDROOT
BRANCH   1   2
ATOM      2  O   UNL     1      10.403  77.114  -1.144  1.00  0.00    -0.367 OA
BRANCH   2   3
ATOM      3  C   UNL     1      10.212  78.049  -2.187  1.00  0.00     0.196 C 
BRANCH   3   4
ATOM      4  C   UNL     1      11.555  78.508  -2.672  1.00  0.00    -0.022 A 
ATOM      5  Cl  UNL     1      15.583  79.926  -4.273  1.00  0.00    -0.084 Cl
ATOM      6  C   UNL     1      14.032  79.382  -3.660  1.00  0.00     0.041 A 
ATOM      7  C   UNL     1      13.587  78.085  -3.937  1.00  0.00     0.021 A 
ATOM      8  C   UNL     1      13.238  80.245  -2.900  1.00  0.00     0.021 A 
ATOM      9  C   UNL     1      12.350  77.650  -3.449  1.00  0.00     0.007 A 
ATOM     10  C   UNL     1      12.001  79.814  -2.413  1.00  0.00     0.007 A 
ENDBRANCH   3   4
ENDBRANCH   2   3
ENDBRANCH   1   2
BRANCH   1  11
ATOM     11  C   UNL     1       8.022  77.184  -1.395  1.00  0.00     0.160 C 
BRANCH  11  12
ATOM     12  N   UNL     1       7.224  77.637  -0.256  1.00  0.00    -0.335 N 
ATOM     13  C   UNL     1       6.797  78.887  -0.013  1.00  0.00     0.107 A 
ATOM     14  C   UNL     1       6.700  76.872   0.721  1.00  0.00     0.199 A 
ATOM     15  C   UNL     1       6.022  78.853   1.124  1.00  0.00     0.130 A 
ATOM     16  N   UNL     1       5.957  77.588   1.590  1.00  0.00    -0.245 NA
ENDBRANCH  11  12
ENDBRANCH   1  11
BRANCH   1  17
ATOM     17  C   UNL     1       9.301  75.047  -1.716  1.00  0.00     0.001 A 
ATOM     18  C   UNL     1       8.585  74.850  -2.921  1.00  0.00     0.048 A 
ATOM     19  C   UNL     1      10.136  74.014  -1.246  1.00  0.00     0.009 A 
ATOM     20  Cl  UNL     1       7.530  76.085  -3.604  1.00  0.00    -0.084 Cl
ATOM     21  C   UNL     1       8.706  73.642  -3.617  1.00  0.00     0.041 A 
ATOM     22  C   UNL     1      10.248  72.812  -1.949  1.00  0.00     0.021 A 
ATOM     23  C   UNL     1       9.534  72.626  -3.133  1.00  0.00     0.042 A 
ATOM     24  Cl  UNL     1       9.678  71.116  -4.016  1.00  0.00    -0.084 Cl
ENDBRANCH   1  17
TORSDOF 6
ENDMDL
MODEL 8
REMARK VINA RESULT:    -7.968      2.703      3.688
REMARK INTER + INTRA:         -11.679
REMARK INTER:                 -10.832
REMARK INTRA:                  -0.848
REMARK UNBOUND:                -0.916
REMARK SMILES Clc1ccc(COC(Cn2ccnc2)c2ccc(Cl)cc2Cl)cc1
REMARK SMILES IDX 8 1 7 2 6 3 5 4 1 5 2 6 3 7 24 8 4 9 23 10 9 11 10 12 11 13
REMARK SMILES IDX 14 14 12 15 13 16 15 17 21 18 16 19 22 20 20 21 17 22 18 23
REMARK SMILES IDX 19 24
REMARK H PARENT
REMARK Flexibility Score: inf
ROOT
ATOM      1  C   UNL     1      11.567  78.350  -1.785  1.00  0.00     0.170 C 
ENDROOT
BRANCH   1   2
ATOM      2  O   UNL     1      12.149  78.351  -3.078  1.00  0.00    -0.367 OA
BRANCH   2   3
ATOM      3  C   UNL     1      12.372  79.674  -3.526  1.00  0.00     0.196 C 
BRANCH   3   4
ATOM      4  C   UNL     1      13.535  79.669  -4.473  1.00  0.00    -0.022 A 
ATOM      5  Cl  UNL     1      17.158  79.639  -7.244  1.00  0.00    -0.084 Cl
ATOM      6  C   UNL     1      15.767  79.649  -6.176  1.00  0.00     0.041 A 
ATOM      7  C   UNL     1      15.440  80.808  -5.464  1.00  0.00     0.021 A 
ATOM      8  C   UNL     1      14.987  78.498  -6.030  1.00  0.00     0.021 A 
ATOM      9  C   UNL     1      14.332  80.818  -4.611  1.00  0.00     0.007 A 
ATOM     10  C   UNL     1      13.879  78.504  -5.178  1.00  0.00     0.007 A 
ENDBRANCH   3   4
ENDBRANCH   2   3
ENDBRANCH   1   2
BRANCH   1  11
ATOM     11  C   UNL     1      11.052  79.767  -1.487  1.00  0.00     0.160 C 
BRANCH  11  12
ATOM     12  N   UNL     1      11.392  80.176  -0.125  1.00  0.00    -0.335 N 
ATOM     13  C   UNL     1      12.501  79.856   0.564  1.00  0.00     0.107 A 
ATOM     14  C   UNL     1      10.698  81.017   0.665  1.00  0.00     0.199 A 
ATOM     15  C   UNL     1      12.447  80.509   1.773  1.00  0.00     0.130 A 
ATOM     16  N   UNL     1      11.315  81.242   1.843  1.00  0.00    -0.245 NA
ENDBRANCH  11  12
ENDBRANCH   1  11
BRANCH   1  17
ATOM     17  C   UNL     1      10.422  77.348  -1.727  1.00  0.00     0.001 A 
ATOM     18  C   UNL     1      10.411  76.268  -0.813  1.00  0.00     0.048 A 
ATOM     19  C   UNL     1       9.319  77.520  -2.587  1.00  0.00     0.009 A 
ATOM     20  Cl  UNL     1      11.730  75.976   0.318  1.00  0.00    -0.084 Cl
ATOM     21  C   UNL     1       9.322  75.389  -0.782  1.00  0.00     0.041 A 
ATOM     22  C   UNL     1       8.239  76.636  -2.548  1.00  0.00     0.021 A 
ATOM     23  C   UNL     1       8.240  75.571  -1.646  1.00  0.00     0.042 A 
ATOM     24  Cl  UNL     1       6.880  74.463  -1.596  1.00  0.00    -0.084 Cl
ENDBRANCH   1  17
TORSDOF 6
ENDMDL
MODEL 9
REMARK VINA RESULT:    -7.942      3.145      4.527
REMARK INTER + INTRA:         -11.643
REMARK INTER:                 -11.212
REMARK INTRA:                  -0.431
REMARK UNBOUND:                -0.916
REMARK SMILES Clc1ccc(COC(Cn2ccnc2)c2ccc(Cl)cc2Cl)cc1
REMARK SMILES IDX 8 1 7 2 6 3 5 4 1 5 2 6 3 7 24 8 4 9 23 10 9 11 10 12 11 13
REMARK SMILES IDX 14 14 12 15 13 16 15 17 21 18 16 19 22 20 20 21 17 22 18 23
REMARK SMILES IDX 19 24
REMARK H PARENT
REMARK Flexibility Score: inf
ROOT
ATOM      1  C   UNL     1      12.045  78.152  -2.313  1.00  0.00     0.170 C 
ENDROOT
BRANCH   1   2
ATOM      2  O   UNL     1      12.178  79.087  -3.370  1.00  0.00    -0.367 OA
BRANCH   2   3
ATOM      3  C   UNL     1      13.279  79.945  -3.144  1.00  0.00     0.196 C 
BRANCH   3   4
ATOM      4  C   UNL     1      14.284  79.733  -4.236  1.00  0.00    -0.022 A 
ATOM      5  Cl  UNL     1      17.413  79.000  -7.474  1.00  0.00    -0.084 Cl
ATOM      6  C   UNL     1      16.211  79.279  -6.227  1.00  0.00     0.041 A 
ATOM      7  C   UNL     1      16.476  80.178  -5.188  1.00  0.00     0.021 A 
ATOM      8  C   UNL     1      14.989  78.600  -6.267  1.00  0.00     0.021 A 
ATOM      9  C   UNL     1      15.519  80.401  -4.193  1.00  0.00     0.007 A 
ATOM     10  C   UNL     1      14.031  78.819  -5.273  1.00  0.00     0.007 A 
ENDBRANCH   3   4
ENDBRANCH   2   3
ENDBRANCH   1   2
BRANCH   1  11
ATOM     11  C   UNL     1      12.166  78.909  -0.981  1.00  0.00     0.160 C 
BRANCH  11  12
ATOM     12  N   UNL     1      12.964  78.154  -0.016  1.00  0.00    -0.335 N 
ATOM     13  C   UNL     1      12.777  76.881   0.370  1.00  0.00     0.107 A 
ATOM     14  C   UNL     1      14.084  78.567   0.608  1.00  0.00     0.199 A 
ATOM     15  C   UNL     1      13.794  76.550   1.236  1.00  0.00     0.130 A 
ATOM     16  N   UNL     1      14.620  77.607   1.389  1.00  0.00    -0.245 NA
ENDBRANCH  11  12
ENDBRANCH   1  11
BRANCH   1  17
ATOM     17  C   UNL     1      10.697  77.449  -2.402  1.00  0.00     0.001 A 
ATOM     18  C   UNL     1       9.473  78.150  -2.288  1.00  0.00     0.048 A 
ATOM     19  C   UNL     1      10.664  76.061  -2.640  1.00  0.00     0.009 A 
ATOM     20  Cl  UNL     1       9.403  79.888  -2.010  1.00  0.00    -0.084 Cl
ATOM     21  C   UNL     1       8.259  77.461  -2.401  1.00  0.00     0.041 A 
ATOM     22  C   UNL     1       9.447  75.385  -2.750  1.00  0.00     0.021 A 
ATOM     23  C   UNL     1       8.246  76.084  -2.631  1.00  0.00     0.042 A 
ATOM     24  Cl  UNL     1       6.718  75.233  -2.773  1.00  0.00    -0.084 Cl
ENDBRANCH   1  17
TORSDOF 6
ENDMDL
MODEL 10
REMARK VINA RESULT:    -7.858      3.758      5.625
REMARK INTER + INTRA:         -11.530
REMARK INTER:                 -10.322
REMARK INTRA:                  -1.208
REMARK UNBOUND:                -0.916
REMARK SMILES Clc1ccc(COC(Cn2ccnc2)c2ccc(Cl)cc2Cl)cc1
REMARK SMILES IDX 8 1 7 2 6 3 5 4 1 5 2 6 3 7 24 8 4 9 23 10 9 11 10 12 11 13
REMARK SMILES IDX 14 14 12 15 13 16 15 17 21 18 16 19 22 20 20 21 17 22 18 23
REMARK SMILES IDX 19 24
REMARK H PARENT
REMARK Flexibility Score: inf
ROOT
ATOM      1  C   UNL     1       9.991  75.189  -2.555  1.00  0.00     0.170 C 
ENDROOT
BRANCH   1   2
ATOM      2  O   UNL     1      10.837  76.230  -2.098  1.00  0.00    -0.367 OA
BRANCH   2   3
ATOM      3  C   UNL     1      10.560  77.436  -2.782  1.00  0.00     0.196 C 
BRANCH   3   4
ATOM      4  C   UNL     1      10.642  78.571  -1.804  1.00  0.00    -0.022 A 
ATOM      5  Cl  UNL     1      10.899  82.111   1.061  1.00  0.00    -0.084 Cl
ATOM      6  C   UNL     1      10.800  80.752  -0.044  1.00  0.00     0.041 A 
ATOM      7  C   UNL     1      11.959  80.256  -0.648  1.00  0.00     0.021 A 
ATOM      8  C   UNL     1       9.561  80.167  -0.325  1.00  0.00     0.021 A 
ATOM      9  C   UNL     1      11.882  79.173  -1.530  1.00  0.00     0.007 A 
ATOM     10  C   UNL     1       9.480  79.085  -1.207  1.00  0.00     0.007 A 
ENDBRANCH   3   4
ENDBRANCH   2   3
ENDBRANCH   1   2
BRANCH   1  11
ATOM     11  C   UNL     1      10.717  73.851  -2.345  1.00  0.00     0.160 C 
BRANCH  11  12
ATOM     12  N   UNL     1      10.387  72.899  -3.405  1.00  0.00    -0.335 N 
ATOM     13  C   UNL     1      10.782  72.947  -4.688  1.00  0.00     0.107 A 
ATOM     14  C   UNL     1       9.692  71.753  -3.277  1.00  0.00     0.199 A 
ATOM     15  C   UNL     1      10.304  71.821  -5.318  1.00  0.00     0.130 A 
ATOM     16  N   UNL     1       9.618  71.065  -4.435  1.00  0.00    -0.245 NA
ENDBRANCH  11  12
ENDBRANCH   1  11
BRANCH   1  17
ATOM     17  C   UNL     1       8.678  75.204  -1.783  1.00  0.00     0.001 A 
ATOM     18  C   UNL     1       7.439  74.900  -2.397  1.00  0.00     0.048 A 
ATOM     19  C   UNL     1       8.699  75.496  -0.405  1.00  0.00     0.009 A 
ATOM     20  Cl  UNL     1       7.306  74.502  -4.108  1.00  0.00    -0.084 Cl
ATOM     21  C   UNL     1       6.263  74.903  -1.637  1.00  0.00     0.041 A 
ATOM     22  C   UNL     1       7.519  75.497   0.341  1.00  0.00     0.021 A 
ATOM     23  C   UNL     1       6.302  75.201  -0.273  1.00  0.00     0.042 A 
ATOM     24  Cl  UNL     1       4.821  75.200   0.668  1.00  0.00    -0.084 Cl
ENDBRANCH   1  17
TORSDOF 6
ENDMDL
MODEL 11
REMARK VINA RESULT:    -7.843      2.152      2.824
REMARK INTER + INTRA:         -11.509
REMARK INTER:                 -10.672
REMARK INTRA:                  -0.837
REMARK UNBOUND:                -0.916
REMARK SMILES Clc1ccc(COC(Cn2ccnc2)c2ccc(Cl)cc2Cl)cc1
REMARK SMILES IDX 8 1 7 2 6 3 5 4 1 5 2 6 3 7 24 8 4 9 23 10 9 11 10 12 11 13
REMARK SMILES IDX 14 14 12 15 13 16 15 17 21 18 16 19 22 20 20 21 17 22 18 23
REMARK SMILES IDX 19 24
REMARK H PARENT
REMARK Flexibility Score: inf
ROOT
ATOM      1  C   UNL     1       9.129  74.659  -1.837  1.00  0.00     0.170 C 
ENDROOT
BRANCH   1   2
ATOM      2  O   UNL     1      10.335  75.399  -1.763  1.00  0.00    -0.367 OA
BRANCH   2   3
ATOM      3  C   UNL     1      10.214  76.625  -2.456  1.00  0.00     0.196 C 
BRANCH   3   4
ATOM      4  C   UNL     1      11.340  77.525  -2.041  1.00  0.00    -0.022 A 
ATOM      5  Cl  UNL     1      14.851  80.152  -0.786  1.00  0.00    -0.084 Cl
ATOM      6  C   UNL     1      13.503  79.139  -1.270  1.00  0.00     0.041 A 
ATOM      7  C   UNL     1      12.870  78.321  -0.328  1.00  0.00     0.021 A 
ATOM      8  C   UNL     1      13.064  79.144  -2.597  1.00  0.00     0.021 A 
ATOM      9  C   UNL     1      11.795  77.512  -0.712  1.00  0.00     0.007 A 
ATOM     10  C   UNL     1      11.991  78.336  -2.985  1.00  0.00     0.007 A 
ENDBRANCH   3   4
ENDBRANCH   2   3
ENDBRANCH   1   2
BRANCH   1  11
ATOM     11  C   UNL     1       7.974  75.642  -2.083  1.00  0.00     0.160 C 
BRANCH  11  12
ATOM     12  N   UNL     1       7.080  75.705  -0.927  1.00  0.00    -0.335 N 
ATOM     13  C   UNL     1       7.043  76.660   0.017  1.00  0.00     0.107 A 
ATOM     14  C   UNL     1       6.071  74.861  -0.637  1.00  0.00     0.199 A 
ATOM     15  C   UNL     1       6.007  76.365   0.873  1.00  0.00     0.130 A 
ATOM     16  N   UNL     1       5.391  75.234   0.467  1.00  0.00    -0.245 NA
ENDBRANCH  11  12
ENDBRANCH   1  11
BRANCH   1  17
ATOM     17  C   UNL     1       9.207  73.642  -2.968  1.00  0.00     0.001 A 
ATOM     18  C   UNL     1       9.889  72.410  -2.827  1.00  0.00     0.048 A 
ATOM     19  C   UNL     1       8.549  73.919  -4.183  1.00  0.00     0.009 A 
ATOM     20  Cl  UNL     1      10.726  71.957  -1.345  1.00  0.00    -0.084 Cl
ATOM     21  C   UNL     1       9.910  71.497  -3.889  1.00  0.00     0.041 A 
ATOM     22  C   UNL     1       8.579  73.001  -5.234  1.00  0.00     0.021 A 
ATOM     23  C   UNL     1       9.258  71.792  -5.089  1.00  0.00     0.042 A 
ATOM     24  Cl  UNL     1       9.290  70.639  -6.411  1.00  0.00    -0.084 Cl
ENDBRANCH   1  17
TORSDOF 6
ENDMDL
MODEL 12
REMARK VINA RESULT:    -7.812      2.570      4.847
REMARK INTER + INTRA:         -11.468
REMARK INTER:                 -10.864
REMARK INTRA:                  -0.603
REMARK UNBOUND:                -0.916
REMARK SMILES Clc1ccc(COC(Cn2ccnc2)c2ccc(Cl)cc2Cl)cc1
REMARK SMILES IDX 8 1 7 2 6 3 5 4 1 5 2 6 3 7 24 8 4 9 23 10 9 11 10 12 11 13
REMARK SMILES IDX 14 14 12 15 13 16 15 17 21 18 16 19 22 20 20 21 17 22 18 23
REMARK SMILES IDX 19 24
REMARK H PARENT
REMARK Flexibility Score: inf
ROOT
ATOM      1  C   UNL     1       9.033  76.113  -2.386  1.00  0.00     0.170 C 
ENDROOT
BRANCH   1   2
ATOM      2  O   UNL     1       9.887  77.072  -2.986  1.00  0.00    -0.367 OA
BRANCH   2   3
ATOM      3  C   UNL     1      11.184  77.008  -2.427  1.00  0.00     0.196 C 
BRANCH   3   4
ATOM      4  C   UNL     1      12.076  77.953  -3.176  1.00  0.00    -0.022 A 
ATOM      5  Cl  UNL     1      14.873  80.834  -5.340  1.00  0.00    -0.084 Cl
ATOM      6  C   UNL     1      13.800  79.726  -4.505  1.00  0.00     0.041 A 
ATOM      7  C   UNL     1      12.866  80.215  -3.585  1.00  0.00     0.021 A 
ATOM      8  C   UNL     1      13.881  78.352  -4.754  1.00  0.00     0.021 A 
ATOM      9  C   UNL     1      12.010  79.332  -2.919  1.00  0.00     0.007 A 
ATOM     10  C   UNL     1      13.027  77.467  -4.088  1.00  0.00     0.007 A 
ENDBRANCH   3   4
ENDBRANCH   2   3
ENDBRANCH   1   2
BRANCH   1  11
ATOM     11  C   UNL     1       9.908  75.051  -1.702  1.00  0.00     0.160 C 
BRANCH  11  12
ATOM     12  N   UNL     1       9.775  73.753  -2.363  1.00  0.00    -0.335 N 
ATOM     13  C   UNL     1       9.338  73.521  -3.612  1.00  0.00     0.107 A 
ATOM     14  C   UNL     1      10.143  72.553  -1.873  1.00  0.00     0.199 A 
ATOM     15  C   UNL     1       9.443  72.170  -3.850  1.00  0.00     0.130 A 
ATOM     16  N   UNL     1       9.949  71.555  -2.760  1.00  0.00    -0.245 NA
ENDBRANCH  11  12
ENDBRANCH   1  11
BRANCH   1  17
ATOM     17  C   UNL     1       8.124  76.786  -1.367  1.00  0.00     0.001 A 
ATOM     18  C   UNL     1       7.091  76.085  -0.699  1.00  0.00     0.048 A 
ATOM     19  C   UNL     1       8.338  78.142  -1.049  1.00  0.00     0.009 A 
ATOM     20  Cl  UNL     1       6.753  74.384  -1.007  1.00  0.00    -0.084 Cl
ATOM     21  C   UNL     1       6.299  76.743   0.249  1.00  0.00     0.041 A 
ATOM     22  C   UNL     1       7.540  78.788  -0.103  1.00  0.00     0.021 A 
ATOM     23  C   UNL     1       6.522  78.090   0.546  1.00  0.00     0.042 A 
ATOM     24  Cl  UNL     1       5.522  78.903   1.737  1.00  0.00    -0.084 Cl
ENDBRANCH   1  17
TORSDOF 6
ENDMDL
MODEL 13
REMARK VINA RESULT:    -7.778      3.285      5.217
REMARK INTER + INTRA:         -11.422
REMARK INTER:                 -10.475
REMARK INTRA:                  -0.947
REMARK UNBOUND:                -0.916
REMARK SMILES Clc1ccc(COC(Cn2ccnc2)c2ccc(Cl)cc2Cl)cc1
REMARK SMILES IDX 8 1 7 2 6 3 5 4 1 5 2 6 3 7 24 8 4 9 23 10 9 11 10 12 11 13
REMARK SMILES IDX 14 14 12 15 13 16 15 17 21 18 16 19 22 20 20 21 17 22 18 23
REMARK SMILES IDX 19 24
REMARK H PARENT
REMARK Flexibility Score: inf
ROOT
ATOM      1  C   UNL     1       8.798  76.303  -2.605  1.00  0.00     0.170 C 
ENDROOT
BRANCH   1   2
ATOM      2  O   UNL     1      10.167  76.160  -2.267  1.00  0.00    -0.367 OA
BRANCH   2   3
ATOM      3  C   UNL     1      10.970  77.017  -3.054  1.00  0.00     0.196 C 
BRANCH   3   4
ATOM      4  C   UNL     1      11.761  77.905  -2.141  1.00  0.00    -0.022 A 
ATOM      5  Cl  UNL     1      14.277  80.524   0.619  1.00  0.00    -0.084 Cl
ATOM      6  C   UNL     1      13.312  79.515  -0.444  1.00  0.00     0.041 A 
ATOM      7  C   UNL     1      12.731  78.340   0.045  1.00  0.00     0.021 A 
ATOM      8  C   UNL     1      13.128  79.882  -1.780  1.00  0.00     0.021 A 
ATOM      9  C   UNL     1      11.962  77.534  -0.802  1.00  0.00     0.007 A 
ATOM     10  C   UNL     1      12.361  79.078  -2.629  1.00  0.00     0.007 A 
ENDBRANCH   3   4
ENDBRANCH   2   3
ENDBRANCH   1   2
BRANCH   1  11
ATOM     11  C   UNL     1       8.264  74.932  -3.047  1.00  0.00     0.160 C 
BRANCH  11  12
ATOM     12  N   UNL     1       9.299  73.905  -2.944  1.00  0.00    -0.335 N 
ATOM     13  C   UNL     1       9.663  73.229  -1.842  1.00  0.00     0.107 A 
ATOM     14  C   UNL     1      10.028  73.385  -3.951  1.00  0.00     0.199 A 
ATOM     15  C   UNL     1      10.620  72.311  -2.207  1.00  0.00     0.130 A 
ATOM     16  N   UNL     1      10.854  72.403  -3.534  1.00  0.00    -0.245 NA
ENDBRANCH  11  12
ENDBRANCH   1  11
BRANCH   1  17
ATOM     17  C   UNL     1       8.013  76.814  -1.404  1.00  0.00     0.001 A 
ATOM     18  C   UNL     1       7.840  78.195  -1.147  1.00  0.00     0.048 A 
ATOM     19  C   UNL     1       7.407  75.882  -0.537  1.00  0.00     0.009 A 
ATOM     20  Cl  UNL     1       8.538  79.440  -2.179  1.00  0.00    -0.084 Cl
ATOM     21  C   UNL     1       7.088  78.613  -0.043  1.00  0.00     0.041 A 
ATOM     22  C   UNL     1       6.661  76.311   0.562  1.00  0.00     0.021 A 
ATOM     23  C   UNL     1       6.500  77.675   0.809  1.00  0.00     0.042 A 
ATOM     24  Cl  UNL     1       5.559  78.212   2.189  1.00  0.00    -0.084 Cl
ENDBRANCH   1  17
TORSDOF 6
ENDMDL
MODEL 14
REMARK VINA RESULT:    -7.753      3.262      5.249
REMARK INTER + INTRA:         -11.389
REMARK INTER:                 -10.789
REMARK INTRA:                  -0.600
REMARK UNBOUND:                -0.916
REMARK SMILES Clc1ccc(COC(Cn2ccnc2)c2ccc(Cl)cc2Cl)cc1
REMARK SMILES IDX 8 1 7 2 6 3 5 4 1 5 2 6 3 7 24 8 4 9 23 10 9 11 10 12 11 13
REMARK SMILES IDX 14 14 12 15 13 16 15 17 21 18 16 19 22 20 20 21 17 22 18 23
REMARK SMILES IDX 19 24
REMARK H PARENT
REMARK Flexibility Score: inf
ROOT
ATOM      1  C   UNL     1      11.189  78.066  -2.672  1.00  0.00     0.170 C 
ENDROOT
BRANCH   1   2
ATOM      2  O   UNL     1      12.343  78.083  -3.495  1.00  0.00    -0.367 OA
BRANCH   2   3
ATOM      3  C   UNL     1      12.760  79.411  -3.745  1.00  0.00     0.196 C 
BRANCH   3   4
ATOM      4  C   UNL     1      13.936  79.377  -4.674  1.00  0.00    -0.022 A 
ATOM      5  Cl  UNL     1      17.592  79.225  -7.399  1.00  0.00    -0.084 Cl
ATOM      6  C   UNL     1      16.188  79.281  -6.349  1.00  0.00     0.041 A 
ATOM      7  C   UNL     1      16.026  80.344  -5.453  1.00  0.00     0.021 A 
ATOM      8  C   UNL     1      15.232  78.262  -6.401  1.00  0.00     0.021 A 
ATOM      9  C   UNL     1      14.907  80.390  -4.615  1.00  0.00     0.007 A 
ATOM     10  C   UNL     1      14.114  78.304  -5.564  1.00  0.00     0.007 A 
ENDBRANCH   3   4
ENDBRANCH   2   3
ENDBRANCH   1   2
BRANCH   1  11
ATOM     11  C   UNL     1      10.912  76.612  -2.261  1.00  0.00     0.160 C 
BRANCH  11  12
ATOM     12  N   UNL     1       9.569  76.196  -2.664  1.00  0.00    -0.335 N 
ATOM     13  C   UNL     1       9.110  74.938  -2.774  1.00  0.00     0.107 A 
ATOM     14  C   UNL     1       8.517  76.995  -2.922  1.00  0.00     0.199 A 
ATOM     15  C   UNL     1       7.777  75.004  -3.110  1.00  0.00     0.130 A 
ATOM     16  N   UNL     1       7.397  76.297  -3.203  1.00  0.00    -0.245 NA
ENDBRANCH  11  12
ENDBRANCH   1  11
BRANCH   1  17
ATOM     17  C   UNL     1      11.412  78.931  -1.438  1.00  0.00     0.001 A 
ATOM     18  C   UNL     1      10.591  80.044  -1.139  1.00  0.00     0.048 A 
ATOM     19  C   UNL     1      12.448  78.592  -0.545  1.00  0.00     0.009 A 
ATOM     20  Cl  UNL     1       9.258  80.540  -2.178  1.00  0.00    -0.084 Cl
ATOM     21  C   UNL     1      10.823  80.792   0.022  1.00  0.00     0.041 A 
ATOM     22  C   UNL     1      12.670  79.347   0.609  1.00  0.00     0.021 A 
ATOM     23  C   UNL     1      11.858  80.445   0.892  1.00  0.00     0.042 A 
ATOM     24  Cl  UNL     1      12.137  81.390   2.345  1.00  0.00    -0.084 Cl
ENDBRANCH   1  17
TORSDOF 6
ENDMDL
MODEL 15
REMARK VINA RESULT:    -7.676      2.980      4.843
REMARK INTER + INTRA:         -11.285
REMARK INTER:                 -10.445
REMARK INTRA:                  -0.840
REMARK UNBOUND:                -0.916
REMARK SMILES Clc1ccc(COC(Cn2ccnc2)c2ccc(Cl)cc2Cl)cc1
REMARK SMILES IDX 8 1 7 2 6 3 5 4 1 5 2 6 3 7 24 8 4 9 23 10 9 11 10 12 11 13
REMARK SMILES IDX 14 14 12 15 13 16 15 17 21 18 16 19 22 20 20 21 17 22 18 23
REMARK SMILES IDX 19 24
REMARK H PARENT
REMARK Flexibility Score: inf
ROOT
ATOM      1  C   UNL     1      10.046  75.153  -2.507  1.00  0.00     0.170 C 
ENDROOT
BRANCH   1   2
ATOM      2  O   UNL     1      10.896  76.177  -2.020  1.00  0.00    -0.367 OA
BRANCH   2   3
ATOM      3  C   UNL     1      10.545  77.428  -2.578  1.00  0.00     0.196 C 
BRANCH   3   4
ATOM      4  C   UNL     1      11.796  78.116  -3.039  1.00  0.00    -0.022 A 
ATOM      5  Cl  UNL     1      15.541  80.224  -4.566  1.00  0.00    -0.084 Cl
ATOM      6  C   UNL     1      14.099  79.415  -3.982  1.00  0.00     0.041 A 
ATOM      7  C   UNL     1      13.884  78.065  -4.282  1.00  0.00     0.021 A 
ATOM      8  C   UNL     1      13.161  80.118  -3.221  1.00  0.00     0.021 A 
ATOM      9  C   UNL     1      12.734  77.419  -3.817  1.00  0.00     0.007 A 
ATOM     10  C   UNL     1      12.010  79.475  -2.756  1.00  0.00     0.007 A 
ENDBRANCH   3   4
ENDBRANCH   2   3
ENDBRANCH   1   2
BRANCH   1  11
ATOM     11  C   UNL     1      10.738  73.801  -2.275  1.00  0.00     0.160 C 
BRANCH  11  12
ATOM     12  N   UNL     1      10.431  72.860  -3.352  1.00  0.00    -0.335 N 
ATOM     13  C   UNL     1      10.869  72.911  -4.621  1.00  0.00     0.107 A 
ATOM     14  C   UNL     1       9.719  71.721  -3.253  1.00  0.00     0.199 A 
ATOM     15  C   UNL     1      10.399  71.794  -5.273  1.00  0.00     0.130 A 
ATOM     16  N   UNL     1       9.674  71.041  -4.417  1.00  0.00    -0.245 NA
ENDBRANCH  11  12
ENDBRANCH   1  11
BRANCH   1  17
ATOM     17  C   UNL     1       8.708  75.194  -1.781  1.00  0.00     0.001 A 
ATOM     18  C   UNL     1       7.489  74.882  -2.429  1.00  0.00     0.048 A 
ATOM     19  C   UNL     1       8.685  75.517  -0.409  1.00  0.00     0.009 A 
ATOM     20  Cl  UNL     1       7.411  74.446  -4.134  1.00  0.00    -0.084 Cl
ATOM     21  C   UNL     1       6.288  74.910  -1.709  1.00  0.00     0.041 A 
ATOM     22  C   UNL     1       7.480  75.542   0.296  1.00  0.00     0.021 A 
ATOM     23  C   UNL     1       6.283  75.239  -0.352  1.00  0.00     0.042 A 
ATOM     24  Cl  UNL     1       4.771  75.268   0.538  1.00  0.00    -0.084 Cl
ENDBRANCH   1  17
TORSDOF 6
ENDMDL
