MODEL 1
REMARK VINA RESULT:    -6.666      0.000      0.000
REMARK INTER + INTRA:         -11.236
REMARK INTER:                 -10.368
REMARK INTRA:                  -0.867
REMARK UNBOUND:                -0.867
REMARK SMILES C=CCOc1ccccc1OCC(O)CNC(C)C
REMARK SMILES IDX 12 1 13 2 15 3 16 4 17 6 18 7 19 8 14 9 11 11 10 12 9 13
REMARK SMILES IDX 5 14 8 15 6 16 7 17 4 18 3 19 2 20 1 21
REMARK H PARENT 16 5 14 10
REMARK Flexibility Score: inf
ROOT
ATOM      1  C   UNL     1     -82.254 -22.610  86.421  1.00  0.00     0.262 C 
ENDROOT
BRANCH   1   2
ATOM      2  C   UNL     1     -83.785 -22.588  86.309  1.00  0.00     0.165 C 
BRANCH   2   3
ATOM      3  C   UNL     1     -84.441 -22.536  87.709  1.00  0.00     0.116 C 
BRANCH   3   4
ATOM      4  N   UNL     1     -85.357 -21.390  87.861  1.00  0.00    -0.312 NA
ATOM      5  H   UNL     1     -85.528 -20.958  86.923  1.00  0.00     0.123 HD
BRANCH   4   6
ATOM      6  C   UNL     1     -84.865 -20.389  88.832  1.00  0.00     0.047 C 
ATOM      7  C   UNL     1     -83.843 -21.019  89.790  1.00  0.00     0.024 C 
ATOM      8  C   UNL     1     -84.214 -19.223  88.080  1.00  0.00     0.024 C 
ENDBRANCH   4   6
ENDBRANCH   3   4
ENDBRANCH   2   3
BRANCH   2   9
ATOM      9  O   UNL     1     -84.239 -23.703  85.581  1.00  0.00    -0.388 OA
ATOM     10  H   UNL     1     -85.231 -23.660  85.553  1.00  0.00     0.211 HD
ENDBRANCH   2   9
ENDBRANCH   1   2
BRANCH   1  11
ATOM     11  O   UNL     1     -81.783 -21.311  86.775  1.00  0.00    -0.487 OA
BRANCH  11  12
ATOM     12  C   UNL     1     -80.586 -21.058  87.461  1.00  0.00     0.161 A 
ATOM     13  C   UNL     1     -80.460 -21.267  88.849  1.00  0.00     0.050 A 
ATOM     14  C   UNL     1     -79.486 -20.581  86.728  1.00  0.00     0.161 A 
ATOM     15  C   UNL     1     -79.250 -21.003  89.495  1.00  0.00     0.004 A 
ATOM     16  C   UNL     1     -78.270 -20.319  87.392  1.00  0.00     0.050 A 
ATOM     17  C   UNL     1     -78.158 -20.530  88.768  1.00  0.00     0.004 A 
BRANCH  14  18
ATOM     18  O   UNL     1     -79.644 -20.384  85.345  1.00  0.00    -0.486 OA
BRANCH  18  19
ATOM     19  C   UNL     1     -79.790 -19.117  84.703  1.00  0.00     0.257 C 
BRANCH  19  20
ATOM     20  C   UNL     1     -79.277 -19.174  83.293  1.00  0.00     0.006 C 
ATOM     21  C   UNL     1     -79.855 -18.465  82.321  1.00  0.00     0.007 C 
ENDBRANCH  19  20
ENDBRANCH  18  19
ENDBRANCH  14  18
ENDBRANCH  11  12
ENDBRANCH   1  11
TORSDOF 10
ENDMDL
MODEL 2
REMARK VINA RESULT:    -6.339      1.227      3.177
REMARK INTER + INTRA:         -10.726
REMARK INTER:                  -9.758
REMARK INTRA:                  -0.969
REMARK UNBOUND:                -0.867
REMARK SMILES C=CCOc1ccccc1OCC(O)CNC(C)C
REMARK SMILES IDX 12 1 13 2 15 3 16 4 17 6 18 7 19 8 14 9 11 11 10 12 9 13
REMARK SMILES IDX 5 14 8 15 6 16 7 17 4 18 3 19 2 20 1 21
REMARK H PARENT 16 5 14 10
REMARK Flexibility Score: inf
ROOT
ATOM      1  C   UNL     1     -82.070 -22.603  86.534  1.00  0.00     0.262 C 
ENDROOT
BRANCH   1   2
ATOM      2  C   UNL     1     -83.596 -22.592  86.375  1.00  0.00     0.165 C 
BRANCH   2   3
ATOM      3  C   UNL     1     -84.295 -22.461  87.749  1.00  0.00     0.116 C 
BRANCH   3   4
ATOM      4  N   UNL     1     -85.183 -21.286  87.821  1.00  0.00    -0.312 NA
ATOM      5  H   UNL     1     -85.293 -20.876  86.864  1.00  0.00     0.123 HD
BRANCH   4   6
ATOM      6  C   UNL     1     -84.712 -20.271  88.789  1.00  0.00     0.047 C 
ATOM      7  C   UNL     1     -83.628 -20.858  89.705  1.00  0.00     0.024 C 
ATOM      8  C   UNL     1     -84.148 -19.064  88.032  1.00  0.00     0.024 C 
ENDBRANCH   4   6
ENDBRANCH   3   4
ENDBRANCH   2   3
BRANCH   2   9
ATOM      9  O   UNL     1     -84.027 -23.749  85.699  1.00  0.00    -0.388 OA
ATOM     10  H   UNL     1     -83.381 -24.475  85.904  1.00  0.00     0.211 HD
ENDBRANCH   2   9
ENDBRANCH   1   2
BRANCH   1  11
ATOM     11  O   UNL     1     -81.620 -21.302  86.905  1.00  0.00    -0.487 OA
BRANCH  11  12
ATOM     12  C   UNL     1     -80.936 -20.423  86.053  1.00  0.00     0.161 A 
ATOM     13  C   UNL     1     -81.605 -19.635  85.095  1.00  0.00     0.050 A 
ATOM     14  C   UNL     1     -79.538 -20.336  86.168  1.00  0.00     0.161 A 
ATOM     15  C   UNL     1     -80.887 -18.772  84.264  1.00  0.00     0.004 A 
ATOM     16  C   UNL     1     -78.825 -19.460  85.324  1.00  0.00     0.050 A 
ATOM     17  C   UNL     1     -79.500 -18.686  84.378  1.00  0.00     0.004 A 
BRANCH  14  18
ATOM     18  O   UNL     1     -78.900 -21.134  87.133  1.00  0.00    -0.486 OA
BRANCH  18  19
ATOM     19  C   UNL     1     -77.585 -20.919  87.645  1.00  0.00     0.257 C 
BRANCH  19  20
ATOM     20  C   UNL     1     -77.608 -19.918  88.765  1.00  0.00     0.006 C 
ATOM     21  C   UNL     1     -76.775 -18.874  88.773  1.00  0.00     0.007 C 
ENDBRANCH  19  20
ENDBRANCH  18  19
ENDBRANCH  14  18
ENDBRANCH  11  12
ENDBRANCH   1  11
TORSDOF 10
ENDMDL
MODEL 3
REMARK VINA RESULT:    -6.289      2.887      5.492
REMARK INTER + INTRA:         -10.649
REMARK INTER:                  -9.654
REMARK INTRA:                  -0.995
REMARK UNBOUND:                -0.867
REMARK SMILES C=CCOc1ccccc1OCC(O)CNC(C)C
REMARK SMILES IDX 12 1 13 2 15 3 16 4 17 6 18 7 19 8 14 9 11 11 10 12 9 13
REMARK SMILES IDX 5 14 8 15 6 16 7 17 4 18 3 19 2 20 1 21
REMARK H PARENT 16 5 14 10
REMARK Flexibility Score: inf
ROOT
ATOM      1  C   UNL     1     -79.349 -21.165  89.899  1.00  0.00     0.262 C 
ENDROOT
BRANCH   1   2
ATOM      2  C   UNL     1     -77.849 -21.470  90.001  1.00  0.00     0.165 C 
BRANCH   2   3
ATOM      3  C   UNL     1     -77.248 -21.763  88.605  1.00  0.00     0.116 C 
BRANCH   3   4
ATOM      4  N   UNL     1     -76.310 -20.715  88.162  1.00  0.00    -0.312 NA
ATOM      5  H   UNL     1     -76.143 -20.046  88.950  1.00  0.00     0.123 HD
BRANCH   4   6
ATOM      6  C   UNL     1     -76.773 -20.009  86.948  1.00  0.00     0.047 C 
ATOM      7  C   UNL     1     -77.397 -18.653  87.314  1.00  0.00     0.024 C 
ATOM      8  C   UNL     1     -75.590 -19.791  85.999  1.00  0.00     0.024 C 
ENDBRANCH   4   6
ENDBRANCH   3   4
ENDBRANCH   2   3
BRANCH   2   9
ATOM      9  O   UNL     1     -77.626 -22.545  90.880  1.00  0.00    -0.388 OA
ATOM     10  H   UNL     1     -76.652 -22.740  90.877  1.00  0.00     0.211 HD
ENDBRANCH   2   9
ENDBRANCH   1   2
BRANCH   1  11
ATOM     11  O   UNL     1     -79.716 -21.031  88.527  1.00  0.00    -0.487 OA
BRANCH  11  12
ATOM     12  C   UNL     1     -81.000 -21.279  88.018  1.00  0.00     0.161 A 
ATOM     13  C   UNL     1     -81.991 -21.935  88.776  1.00  0.00     0.050 A 
ATOM     14  C   UNL     1     -81.292 -20.856  86.711  1.00  0.00     0.161 A 
ATOM     15  C   UNL     1     -83.258 -22.163  88.233  1.00  0.00     0.004 A 
ATOM     16  C   UNL     1     -82.575 -21.093  86.175  1.00  0.00     0.050 A 
ATOM     17  C   UNL     1     -83.548 -21.744  86.935  1.00  0.00     0.004 A 
BRANCH  14  18
ATOM     18  O   UNL     1     -80.282 -20.205  85.982  1.00  0.00    -0.486 OA
BRANCH  18  19
ATOM     19  C   UNL     1     -80.495 -19.333  84.872  1.00  0.00     0.257 C 
BRANCH  19  20
ATOM     20  C   UNL     1     -79.247 -19.209  84.046  1.00  0.00     0.006 C 
ATOM     21  C   UNL     1     -79.255 -18.557  82.881  1.00  0.00     0.007 C 
ENDBRANCH  19  20
ENDBRANCH  18  19
ENDBRANCH  14  18
ENDBRANCH  11  12
ENDBRANCH   1  11
TORSDOF 10
ENDMDL
MODEL 4
REMARK VINA RESULT:    -6.257      1.998      3.534
REMARK INTER + INTRA:         -10.599
REMARK INTER:                  -9.672
REMARK INTRA:                  -0.927
REMARK UNBOUND:                -0.867
REMARK SMILES C=CCOc1ccccc1OCC(O)CNC(C)C
REMARK SMILES IDX 12 1 13 2 15 3 16 4 17 6 18 7 19 8 14 9 11 11 10 12 9 13
REMARK SMILES IDX 5 14 8 15 6 16 7 17 4 18 3 19 2 20 1 21
REMARK H PARENT 16 5 14 10
REMARK Flexibility Score: inf
ROOT
ATOM      1  C   UNL     1     -80.297 -21.444  90.210  1.00  0.00     0.262 C 
ENDROOT
BRANCH   1   2
ATOM      2  C   UNL     1     -81.782 -21.758  90.436  1.00  0.00     0.165 C 
BRANCH   2   3
ATOM      3  C   UNL     1     -82.681 -20.719  89.725  1.00  0.00     0.116 C 
BRANCH   3   4
ATOM      4  N   UNL     1     -84.050 -20.690  90.271  1.00  0.00    -0.312 NA
ATOM      5  H   UNL     1     -84.263 -21.611  90.721  1.00  0.00     0.123 HD
BRANCH   4   6
ATOM      6  C   UNL     1     -85.065 -20.342  89.254  1.00  0.00     0.047 C 
ATOM      7  C   UNL     1     -84.517 -19.288  88.280  1.00  0.00     0.024 C 
ATOM      8  C   UNL     1     -85.464 -21.601  88.477  1.00  0.00     0.024 C 
ENDBRANCH   4   6
ENDBRANCH   3   4
ENDBRANCH   2   3
BRANCH   2   9
ATOM      9  O   UNL     1     -82.067 -21.814  91.812  1.00  0.00    -0.388 OA
ATOM     10  H   UNL     1     -81.648 -21.022  92.239  1.00  0.00     0.211 HD
ENDBRANCH   2   9
ENDBRANCH   1   2
BRANCH   1  11
ATOM     11  O   UNL     1     -79.993 -21.548  88.821  1.00  0.00    -0.487 OA
BRANCH  11  12
ATOM     12  C   UNL     1     -79.130 -20.686  88.127  1.00  0.00     0.161 A 
ATOM     13  C   UNL     1     -78.030 -20.066  88.752  1.00  0.00     0.050 A 
ATOM     14  C   UNL     1     -79.384 -20.442  86.767  1.00  0.00     0.161 A 
ATOM     15  C   UNL     1     -77.194 -19.213  88.027  1.00  0.00     0.004 A 
ATOM     16  C   UNL     1     -78.533 -19.579  86.046  1.00  0.00     0.050 A 
ATOM     17  C   UNL     1     -77.446 -18.971  86.677  1.00  0.00     0.004 A 
BRANCH  14  18
ATOM     18  O   UNL     1     -80.489 -21.075  86.173  1.00  0.00    -0.486 OA
BRANCH  18  19
ATOM     19  C   UNL     1     -81.803 -20.526  86.076  1.00  0.00     0.257 C 
BRANCH  19  20
ATOM     20  C   UNL     1     -82.837 -21.614  86.098  1.00  0.00     0.006 C 
ATOM     21  C   UNL     1     -82.535 -22.843  86.523  1.00  0.00     0.007 C 
ENDBRANCH  19  20
ENDBRANCH  18  19
ENDBRANCH  14  18
ENDBRANCH  11  12
ENDBRANCH   1  11
TORSDOF 10
ENDMDL
MODEL 5
REMARK VINA RESULT:    -6.201      2.215      3.370
REMARK INTER + INTRA:         -10.513
REMARK INTER:                  -9.415
REMARK INTRA:                  -1.098
REMARK UNBOUND:                -0.867
REMARK SMILES C=CCOc1ccccc1OCC(O)CNC(C)C
REMARK SMILES IDX 12 1 13 2 15 3 16 4 17 6 18 7 19 8 14 9 11 11 10 12 9 13
REMARK SMILES IDX 5 14 8 15 6 16 7 17 4 18 3 19 2 20 1 21
REMARK H PARENT 16 5 14 10
REMARK Flexibility Score: inf
ROOT
ATOM      1  C   UNL     1     -79.362 -21.115  89.555  1.00  0.00     0.262 C 
ENDROOT
BRANCH   1   2
ATOM      2  C   UNL     1     -80.799 -21.653  89.573  1.00  0.00     0.165 C 
BRANCH   2   3
ATOM      3  C   UNL     1     -81.656 -20.980  88.476  1.00  0.00     0.116 C 
BRANCH   3   4
ATOM      4  N   UNL     1     -81.463 -21.596  87.150  1.00  0.00    -0.312 NA
ATOM      5  H   UNL     1     -80.609 -21.189  86.701  1.00  0.00     0.123 HD
BRANCH   4   6
ATOM      6  C   UNL     1     -82.647 -21.456  86.275  1.00  0.00     0.047 C 
ATOM      7  C   UNL     1     -83.406 -22.788  86.175  1.00  0.00     0.024 C 
ATOM      8  C   UNL     1     -83.576 -20.376  86.838  1.00  0.00     0.024 C 
ENDBRANCH   4   6
ENDBRANCH   3   4
ENDBRANCH   2   3
BRANCH   2   9
ATOM      9  O   UNL     1     -81.373 -21.472  90.844  1.00  0.00    -0.388 OA
ATOM     10  H   UNL     1     -81.313 -20.505  91.066  1.00  0.00     0.211 HD
ENDBRANCH   2   9
ENDBRANCH   1   2
BRANCH   1  11
ATOM     11  O   UNL     1     -78.961 -20.873  88.207  1.00  0.00    -0.487 OA
BRANCH  11  12
ATOM     12  C   UNL     1     -78.148 -19.805  87.798  1.00  0.00     0.161 A 
ATOM     13  C   UNL     1     -77.179 -19.233  88.646  1.00  0.00     0.050 A 
ATOM     14  C   UNL     1     -78.319 -19.299  86.498  1.00  0.00     0.161 A 
ATOM     15  C   UNL     1     -76.391 -18.170  88.201  1.00  0.00     0.004 A 
ATOM     16  C   UNL     1     -77.516 -18.225  86.060  1.00  0.00     0.050 A 
ATOM     17  C   UNL     1     -76.559 -17.667  86.911  1.00  0.00     0.004 A 
BRANCH  14  18
ATOM     18  O   UNL     1     -79.294 -19.891  85.676  1.00  0.00    -0.486 OA
BRANCH  18  19
ATOM     19  C   UNL     1     -80.086 -19.204  84.708  1.00  0.00     0.257 C 
BRANCH  19  20
ATOM     20  C   UNL     1     -79.417 -19.225  83.363  1.00  0.00     0.006 C 
ATOM     21  C   UNL     1     -79.835 -18.431  82.374  1.00  0.00     0.007 C 
ENDBRANCH  19  20
ENDBRANCH  18  19
ENDBRANCH  14  18
ENDBRANCH  11  12
ENDBRANCH   1  11
TORSDOF 10
ENDMDL
MODEL 6
REMARK VINA RESULT:    -6.148      2.692      5.989
REMARK INTER + INTRA:         -10.430
REMARK INTER:                  -9.472
REMARK INTRA:                  -0.958
REMARK UNBOUND:                -0.867
REMARK SMILES C=CCOc1ccccc1OCC(O)CNC(C)C
REMARK SMILES IDX 12 1 13 2 15 3 16 4 17 6 18 7 19 8 14 9 11 11 10 12 9 13
REMARK SMILES IDX 5 14 8 15 6 16 7 17 4 18 3 19 2 20 1 21
REMARK H PARENT 16 5 14 10
REMARK Flexibility Score: inf
ROOT
ATOM      1  C   UNL     1     -80.295 -19.225  84.733  1.00  0.00     0.262 C 
ENDROOT
BRANCH   1   2
ATOM      2  C   UNL     1     -79.679 -19.156  83.330  1.00  0.00     0.165 C 
BRANCH   2   3
ATOM      3  C   UNL     1     -78.362 -18.344  83.343  1.00  0.00     0.116 C 
BRANCH   3   4
ATOM      4  N   UNL     1     -77.543 -18.614  84.539  1.00  0.00    -0.312 NA
ATOM      5  H   UNL     1     -78.092 -19.204  85.208  1.00  0.00     0.123 HD
BRANCH   4   6
ATOM      6  C   UNL     1     -77.055 -17.379  85.190  1.00  0.00     0.047 C 
ATOM      7  C   UNL     1     -76.756 -17.631  86.675  1.00  0.00     0.024 C 
ATOM      8  C   UNL     1     -75.784 -16.896  84.484  1.00  0.00     0.024 C 
ENDBRANCH   4   6
ENDBRANCH   3   4
ENDBRANCH   2   3
BRANCH   2   9
ATOM      9  O   UNL     1     -80.598 -18.609  82.417  1.00  0.00    -0.388 OA
ATOM     10  H   UNL     1     -81.461 -18.488  82.895  1.00  0.00     0.211 HD
ENDBRANCH   2   9
ENDBRANCH   1   2
BRANCH   1  11
ATOM     11  O   UNL     1     -79.984 -20.484  85.329  1.00  0.00    -0.487 OA
BRANCH  11  12
ATOM     12  C   UNL     1     -79.936 -20.720  86.711  1.00  0.00     0.161 A 
ATOM     13  C   UNL     1     -78.768 -20.501  87.468  1.00  0.00     0.050 A 
ATOM     14  C   UNL     1     -81.098 -21.190  87.347  1.00  0.00     0.161 A 
ATOM     15  C   UNL     1     -78.761 -20.749  88.843  1.00  0.00     0.004 A 
ATOM     16  C   UNL     1     -81.078 -21.435  88.736  1.00  0.00     0.050 A 
ATOM     17  C   UNL     1     -79.914 -21.215  89.474  1.00  0.00     0.004 A 
BRANCH  14  18
ATOM     18  O   UNL     1     -82.247 -21.398  86.564  1.00  0.00    -0.486 OA
BRANCH  18  19
ATOM     19  C   UNL     1     -82.817 -22.669  86.255  1.00  0.00     0.257 C 
BRANCH  19  20
ATOM     20  C   UNL     1     -84.213 -22.772  86.799  1.00  0.00     0.006 C 
ATOM     21  C   UNL     1     -84.647 -21.934  87.743  1.00  0.00     0.007 C 
ENDBRANCH  19  20
ENDBRANCH  18  19
ENDBRANCH  14  18
ENDBRANCH  11  12
ENDBRANCH   1  11
TORSDOF 10
ENDMDL
MODEL 7
REMARK VINA RESULT:    -6.145      2.552      3.297
REMARK INTER + INTRA:         -10.425
REMARK INTER:                  -9.974
REMARK INTRA:                  -0.451
REMARK UNBOUND:                -0.867
REMARK SMILES C=CCOc1ccccc1OCC(O)CNC(C)C
REMARK SMILES IDX 12 1 13 2 15 3 16 4 17 6 18 7 19 8 14 9 11 11 10 12 9 13
REMARK SMILES IDX 5 14 8 15 6 16 7 17 4 18 3 19 2 20 1 21
REMARK H PARENT 16 5 14 10
REMARK Flexibility Score: inf
ROOT
ATOM      1  C   UNL     1     -83.947 -19.550  87.779  1.00  0.00     0.262 C 
ENDROOT
BRANCH   1   2
ATOM      2  C   UNL     1     -85.069 -19.794  88.796  1.00  0.00     0.165 C 
BRANCH   2   3
ATOM      3  C   UNL     1     -85.790 -18.472  89.152  1.00  0.00     0.116 C 
BRANCH   3   4
ATOM      4  N   UNL     1     -86.557 -18.568  90.408  1.00  0.00    -0.312 NA
ATOM      5  H   UNL     1     -87.141 -19.437  90.391  1.00  0.00     0.123 HD
BRANCH   4   6
ATOM      6  C   UNL     1     -87.385 -17.370  90.665  1.00  0.00     0.047 C 
ATOM      7  C   UNL     1     -87.835 -16.728  89.343  1.00  0.00     0.024 C 
ATOM      8  C   UNL     1     -88.615 -17.764  91.489  1.00  0.00     0.024 C 
ENDBRANCH   4   6
ENDBRANCH   3   4
ENDBRANCH   2   3
BRANCH   2   9
ATOM      9  O   UNL     1     -84.557 -20.414  89.950  1.00  0.00    -0.388 OA
ATOM     10  H   UNL     1     -85.271 -20.403  90.641  1.00  0.00     0.211 HD
ENDBRANCH   2   9
ENDBRANCH   1   2
BRANCH   1  11
ATOM     11  O   UNL     1     -83.181 -20.742  87.618  1.00  0.00    -0.487 OA
BRANCH  11  12
ATOM     12  C   UNL     1     -81.812 -20.855  87.905  1.00  0.00     0.161 A 
ATOM     13  C   UNL     1     -81.339 -21.104  89.208  1.00  0.00     0.050 A 
ATOM     14  C   UNL     1     -80.896 -20.711  86.849  1.00  0.00     0.161 A 
ATOM     15  C   UNL     1     -79.967 -21.208  89.453  1.00  0.00     0.004 A 
ATOM     16  C   UNL     1     -79.514 -20.820  87.109  1.00  0.00     0.050 A 
ATOM     17  C   UNL     1     -79.058 -21.066  88.405  1.00  0.00     0.004 A 
BRANCH  14  18
ATOM     18  O   UNL     1     -81.400 -20.464  85.560  1.00  0.00    -0.486 OA
BRANCH  18  19
ATOM     19  C   UNL     1     -81.689 -19.175  85.020  1.00  0.00     0.257 C 
BRANCH  19  20
ATOM     20  C   UNL     1     -80.778 -18.866  83.866  1.00  0.00     0.006 C 
ATOM     21  C   UNL     1     -79.453 -18.968  83.988  1.00  0.00     0.007 C 
ENDBRANCH  19  20
ENDBRANCH  18  19
ENDBRANCH  14  18
ENDBRANCH  11  12
ENDBRANCH   1  11
TORSDOF 10
ENDMDL
MODEL 8
REMARK VINA RESULT:    -6.111      2.487      5.127
REMARK INTER + INTRA:         -10.371
REMARK INTER:                  -9.146
REMARK INTRA:                  -1.226
REMARK UNBOUND:                -0.867
REMARK SMILES C=CCOc1ccccc1OCC(O)CNC(C)C
REMARK SMILES IDX 12 1 13 2 15 3 16 4 17 6 18 7 19 8 14 9 11 11 10 12 9 13
REMARK SMILES IDX 5 14 8 15 6 16 7 17 4 18 3 19 2 20 1 21
REMARK H PARENT 16 5 14 10
REMARK Flexibility Score: inf
ROOT
ATOM      1  C   UNL     1     -77.695 -19.954  89.153  1.00  0.00     0.262 C 
ENDROOT
BRANCH   1   2
ATOM      2  C   UNL     1     -77.662 -20.973  90.299  1.00  0.00     0.165 C 
BRANCH   2   3
ATOM      3  C   UNL     1     -78.919 -21.875  90.273  1.00  0.00     0.116 C 
BRANCH   3   4
ATOM      4  N   UNL     1     -80.165 -21.103  90.112  1.00  0.00    -0.312 NA
ATOM      5  H   UNL     1     -80.124 -20.250  90.717  1.00  0.00     0.123 HD
BRANCH   4   6
ATOM      6  C   UNL     1     -81.376 -21.904  90.395  1.00  0.00     0.047 C 
ATOM      7  C   UNL     1     -81.278 -22.560  91.781  1.00  0.00     0.024 C 
ATOM      8  C   UNL     1     -82.612 -21.001  90.340  1.00  0.00     0.024 C 
ENDBRANCH   4   6
ENDBRANCH   3   4
ENDBRANCH   2   3
BRANCH   2   9
ATOM      9  O   UNL     1     -77.539 -20.316  91.536  1.00  0.00    -0.388 OA
ATOM     10  H   UNL     1     -76.646 -19.882  91.559  1.00  0.00     0.211 HD
ENDBRANCH   2   9
ENDBRANCH   1   2
BRANCH   1  11
ATOM     11  O   UNL     1     -78.173 -20.585  87.966  1.00  0.00    -0.487 OA
BRANCH  11  12
ATOM     12  C   UNL     1     -78.534 -19.905  86.793  1.00  0.00     0.161 A 
ATOM     13  C   UNL     1     -77.703 -18.929  86.208  1.00  0.00     0.050 A 
ATOM     14  C   UNL     1     -79.765 -20.218  86.194  1.00  0.00     0.161 A 
ATOM     15  C   UNL     1     -78.098 -18.274  85.039  1.00  0.00     0.004 A 
ATOM     16  C   UNL     1     -80.153 -19.550  85.013  1.00  0.00     0.050 A 
ATOM     17  C   UNL     1     -79.321 -18.584  84.444  1.00  0.00     0.004 A 
BRANCH  14  18
ATOM     18  O   UNL     1     -80.571 -21.197  86.802  1.00  0.00    -0.486 OA
BRANCH  18  19
ATOM     19  C   UNL     1     -81.993 -21.268  86.712  1.00  0.00     0.257 C 
BRANCH  19  20
ATOM     20  C   UNL     1     -82.461 -22.693  86.798  1.00  0.00     0.006 C 
ATOM     21  C   UNL     1     -83.590 -23.084  86.202  1.00  0.00     0.007 C 
ENDBRANCH  19  20
ENDBRANCH  18  19
ENDBRANCH  14  18
ENDBRANCH  11  12
ENDBRANCH   1  11
TORSDOF 10
ENDMDL
MODEL 9
REMARK VINA RESULT:    -6.108      5.213      9.241
REMARK INTER + INTRA:         -10.367
REMARK INTER:                  -9.807
REMARK INTRA:                  -0.560
REMARK UNBOUND:                -0.867
REMARK SMILES C=CCOc1ccccc1OCC(O)CNC(C)C
REMARK SMILES IDX 12 1 13 2 15 3 16 4 17 6 18 7 19 8 14 9 11 11 10 12 9 13
REMARK SMILES IDX 5 14 8 15 6 16 7 17 4 18 3 19 2 20 1 21
REMARK H PARENT 16 5 14 10
REMARK Flexibility Score: inf
ROOT
ATOM      1  C   UNL     1     -85.729 -17.890  88.755  1.00  0.00     0.262 C 
ENDROOT
BRANCH   1   2
ATOM      2  C   UNL     1     -84.714 -19.039  88.807  1.00  0.00     0.165 C 
BRANCH   2   3
ATOM      3  C   UNL     1     -84.655 -19.787  87.454  1.00  0.00     0.116 C 
BRANCH   3   4
ATOM      4  N   UNL     1     -84.612 -21.252  87.619  1.00  0.00    -0.312 NA
ATOM      5  H   UNL     1     -84.792 -21.492  88.622  1.00  0.00     0.123 HD
BRANCH   4   6
ATOM      6  C   UNL     1     -83.342 -21.844  87.145  1.00  0.00     0.047 C 
ATOM      7  C   UNL     1     -82.481 -22.300  88.333  1.00  0.00     0.024 C 
ATOM      8  C   UNL     1     -83.642 -23.041  86.238  1.00  0.00     0.024 C 
ENDBRANCH   4   6
ENDBRANCH   3   4
ENDBRANCH   2   3
BRANCH   2   9
ATOM      9  O   UNL     1     -85.027 -19.922  89.857  1.00  0.00    -0.388 OA
ATOM     10  H   UNL     1     -84.326 -20.625  89.878  1.00  0.00     0.211 HD
ENDBRANCH   2   9
ENDBRANCH   1   2
BRANCH   1  11
ATOM     11  O   UNL     1     -86.567 -17.940  89.909  1.00  0.00    -0.487 OA
BRANCH  11  12
ATOM     12  C   UNL     1     -87.566 -17.002  90.209  1.00  0.00     0.161 A 
ATOM     13  C   UNL     1     -87.891 -15.949  89.332  1.00  0.00     0.050 A 
ATOM     14  C   UNL     1     -88.255 -17.130  91.426  1.00  0.00     0.161 A 
ATOM     15  C   UNL     1     -88.893 -15.035  89.667  1.00  0.00     0.004 A 
ATOM     16  C   UNL     1     -89.265 -16.201  91.753  1.00  0.00     0.050 A 
ATOM     17  C   UNL     1     -89.577 -15.161  90.875  1.00  0.00     0.004 A 
BRANCH  14  18
ATOM     18  O   UNL     1     -87.907 -18.192  92.279  1.00  0.00    -0.486 OA
BRANCH  18  19
ATOM     19  C   UNL     1     -87.734 -18.094  93.692  1.00  0.00     0.257 C 
BRANCH  19  20
ATOM     20  C   UNL     1     -88.443 -19.216  94.394  1.00  0.00     0.006 C 
ATOM     21  C   UNL     1     -89.618 -19.019  94.997  1.00  0.00     0.007 C 
ENDBRANCH  19  20
ENDBRANCH  18  19
ENDBRANCH  14  18
ENDBRANCH  11  12
ENDBRANCH   1  11
TORSDOF 10
ENDMDL
MODEL 10
REMARK VINA RESULT:    -6.043      4.368      7.872
REMARK INTER + INTRA:         -10.267
REMARK INTER:                  -9.475
REMARK INTRA:                  -0.792
REMARK UNBOUND:                -0.867
REMARK SMILES C=CCOc1ccccc1OCC(O)CNC(C)C
REMARK SMILES IDX 12 1 13 2 15 3 16 4 17 6 18 7 19 8 14 9 11 11 10 12 9 13
REMARK SMILES IDX 5 14 8 15 6 16 7 17 4 18 3 19 2 20 1 21
REMARK H PARENT 16 5 14 10
REMARK Flexibility Score: inf
ROOT
ATOM      1  C   UNL     1     -75.946 -17.299  85.638  1.00  0.00     0.262 C 
ENDROOT
BRANCH   1   2
ATOM      2  C   UNL     1     -76.451 -17.010  87.057  1.00  0.00     0.165 C 
BRANCH   2   3
ATOM      3  C   UNL     1     -75.298 -16.518  87.965  1.00  0.00     0.116 C 
BRANCH   3   4
ATOM      4  N   UNL     1     -75.744 -15.518  88.952  1.00  0.00    -0.312 NA
ATOM      5  H   UNL     1     -75.730 -14.568  88.512  1.00  0.00     0.123 HD
BRANCH   4   6
ATOM      6  C   UNL     1     -74.943 -15.545  90.195  1.00  0.00     0.047 C 
ATOM      7  C   UNL     1     -73.950 -14.373  90.225  1.00  0.00     0.024 C 
ATOM      8  C   UNL     1     -75.876 -15.459  91.408  1.00  0.00     0.024 C 
ENDBRANCH   4   6
ENDBRANCH   3   4
ENDBRANCH   2   3
BRANCH   2   9
ATOM      9  O   UNL     1     -77.068 -18.151  87.601  1.00  0.00    -0.388 OA
ATOM     10  H   UNL     1     -78.048 -18.054  87.473  1.00  0.00     0.211 HD
ENDBRANCH   2   9
ENDBRANCH   1   2
BRANCH   1  11
ATOM     11  O   UNL     1     -76.611 -18.451  85.121  1.00  0.00    -0.487 OA
BRANCH  11  12
ATOM     12  C   UNL     1     -77.627 -18.417  84.154  1.00  0.00     0.161 A 
ATOM     13  C   UNL     1     -77.422 -17.872  82.871  1.00  0.00     0.050 A 
ATOM     14  C   UNL     1     -78.884 -18.946  84.491  1.00  0.00     0.161 A 
ATOM     15  C   UNL     1     -78.460 -17.857  81.937  1.00  0.00     0.004 A 
ATOM     16  C   UNL     1     -79.924 -18.925  83.538  1.00  0.00     0.050 A 
ATOM     17  C   UNL     1     -79.708 -18.382  82.270  1.00  0.00     0.004 A 
BRANCH  14  18
ATOM     18  O   UNL     1     -79.057 -19.483  85.779  1.00  0.00    -0.486 OA
BRANCH  18  19
ATOM     19  C   UNL     1     -79.492 -20.810  86.069  1.00  0.00     0.257 C 
BRANCH  19  20
ATOM     20  C   UNL     1     -80.872 -20.800  86.662  1.00  0.00     0.006 C 
ATOM     21  C   UNL     1     -81.083 -21.186  87.923  1.00  0.00     0.007 C 
ENDBRANCH  19  20
ENDBRANCH  18  19
ENDBRANCH  14  18
ENDBRANCH  11  12
ENDBRANCH   1  11
TORSDOF 10
ENDMDL
MODEL 11
REMARK VINA RESULT:    -6.031      1.863      2.981
REMARK INTER + INTRA:         -10.248
REMARK INTER:                  -9.262
REMARK INTRA:                  -0.986
REMARK UNBOUND:                -0.867
REMARK SMILES C=CCOc1ccccc1OCC(O)CNC(C)C
REMARK SMILES IDX 12 1 13 2 15 3 16 4 17 6 18 7 19 8 14 9 11 11 10 12 9 13
REMARK SMILES IDX 5 14 8 15 6 16 7 17 4 18 3 19 2 20 1 21
REMARK H PARENT 16 5 14 10
REMARK Flexibility Score: inf
ROOT
ATOM      1  C   UNL     1     -81.741 -21.818  90.595  1.00  0.00     0.262 C 
ENDROOT
BRANCH   1   2
ATOM      2  C   UNL     1     -83.229 -21.465  90.476  1.00  0.00     0.165 C 
BRANCH   2   3
ATOM      3  C   UNL     1     -83.506 -20.665  89.181  1.00  0.00     0.116 C 
BRANCH   3   4
ATOM      4  N   UNL     1     -84.385 -21.390  88.245  1.00  0.00    -0.312 NA
ATOM      5  H   UNL     1     -84.581 -22.346  88.626  1.00  0.00     0.123 HD
BRANCH   4   6
ATOM      6  C   UNL     1     -83.830 -21.461  86.877  1.00  0.00     0.047 C 
ATOM      7  C   UNL     1     -83.222 -20.111  86.468  1.00  0.00     0.024 C 
ATOM      8  C   UNL     1     -82.753 -22.549  86.816  1.00  0.00     0.024 C 
ENDBRANCH   4   6
ENDBRANCH   3   4
ENDBRANCH   2   3
BRANCH   2   9
ATOM      9  O   UNL     1     -83.656 -20.752  91.610  1.00  0.00    -0.388 OA
ATOM     10  H   UNL     1     -83.196 -19.871  91.603  1.00  0.00     0.211 HD
ENDBRANCH   2   9
ENDBRANCH   1   2
BRANCH   1  11
ATOM     11  O   UNL     1     -81.011 -21.166  89.557  1.00  0.00    -0.487 OA
BRANCH  11  12
ATOM     12  C   UNL     1     -79.614 -21.192  89.428  1.00  0.00     0.161 A 
ATOM     13  C   UNL     1     -78.770 -21.545  90.499  1.00  0.00     0.050 A 
ATOM     14  C   UNL     1     -79.054 -20.853  88.185  1.00  0.00     0.161 A 
ATOM     15  C   UNL     1     -77.384 -21.559  90.330  1.00  0.00     0.004 A 
ATOM     16  C   UNL     1     -77.653 -20.871  88.027  1.00  0.00     0.050 A 
ATOM     17  C   UNL     1     -76.827 -21.222  89.097  1.00  0.00     0.004 A 
BRANCH  14  18
ATOM     18  O   UNL     1     -79.923 -20.506  87.136  1.00  0.00    -0.486 OA
BRANCH  18  19
ATOM     19  C   UNL     1     -79.644 -20.663  85.745  1.00  0.00     0.257 C 
BRANCH  19  20
ATOM     20  C   UNL     1     -79.885 -19.377  85.006  1.00  0.00     0.006 C 
ATOM     21  C   UNL     1     -78.867 -18.620  84.591  1.00  0.00     0.007 C 
ENDBRANCH  19  20
ENDBRANCH  18  19
ENDBRANCH  14  18
ENDBRANCH  11  12
ENDBRANCH   1  11
TORSDOF 10
ENDMDL
MODEL 12
REMARK VINA RESULT:    -6.024      1.902      4.348
REMARK INTER + INTRA:         -10.236
REMARK INTER:                  -9.370
REMARK INTRA:                  -0.866
REMARK UNBOUND:                -0.867
REMARK SMILES C=CCOc1ccccc1OCC(O)CNC(C)C
REMARK SMILES IDX 12 1 13 2 15 3 16 4 17 6 18 7 19 8 14 9 11 11 10 12 9 13
REMARK SMILES IDX 5 14 8 15 6 16 7 17 4 18 3 19 2 20 1 21
REMARK H PARENT 16 5 14 10
REMARK Flexibility Score: inf
ROOT
ATOM      1  C   UNL     1     -80.551 -20.985  85.976  1.00  0.00     0.262 C 
ENDROOT
BRANCH   1   2
ATOM      2  C   UNL     1     -81.911 -20.846  86.671  1.00  0.00     0.165 C 
BRANCH   2   3
ATOM      3  C   UNL     1     -82.419 -22.218  87.174  1.00  0.00     0.116 C 
BRANCH   3   4
ATOM      4  N   UNL     1     -82.049 -22.477  88.577  1.00  0.00    -0.312 NA
ATOM      5  H   UNL     1     -82.802 -23.042  89.034  1.00  0.00     0.123 HD
BRANCH   4   6
ATOM      6  C   UNL     1     -81.775 -21.237  89.335  1.00  0.00     0.047 C 
ATOM      7  C   UNL     1     -82.788 -21.065  90.477  1.00  0.00     0.024 C 
ATOM      8  C   UNL     1     -80.356 -21.291  89.911  1.00  0.00     0.024 C 
ENDBRANCH   4   6
ENDBRANCH   3   4
ENDBRANCH   2   3
BRANCH   2   9
ATOM      9  O   UNL     1     -82.845 -20.250  85.804  1.00  0.00    -0.388 OA
ATOM     10  H   UNL     1     -83.545 -20.927  85.604  1.00  0.00     0.211 HD
ENDBRANCH   2   9
ENDBRANCH   1   2
BRANCH   1  11
ATOM     11  O   UNL     1     -79.961 -19.695  85.818  1.00  0.00    -0.487 OA
BRANCH  11  12
ATOM     12  C   UNL     1     -79.550 -19.152  84.592  1.00  0.00     0.161 A 
ATOM     13  C   UNL     1     -80.452 -18.928  83.533  1.00  0.00     0.050 A 
ATOM     14  C   UNL     1     -78.193 -18.827  84.428  1.00  0.00     0.161 A 
ATOM     15  C   UNL     1     -80.003 -18.385  82.327  1.00  0.00     0.004 A 
ATOM     16  C   UNL     1     -77.752 -18.280  83.206  1.00  0.00     0.050 A 
ATOM     17  C   UNL     1     -78.656 -18.063  82.164  1.00  0.00     0.004 A 
BRANCH  14  18
ATOM     18  O   UNL     1     -77.319 -19.064  85.504  1.00  0.00    -0.486 OA
BRANCH  18  19
ATOM     19  C   UNL     1     -76.967 -18.111  86.507  1.00  0.00     0.257 C 
BRANCH  19  20
ATOM     20  C   UNL     1     -77.197 -18.676  87.880  1.00  0.00     0.006 C 
ATOM     21  C   UNL     1     -77.317 -19.991  88.072  1.00  0.00     0.007 C 
ENDBRANCH  19  20
ENDBRANCH  18  19
ENDBRANCH  14  18
ENDBRANCH  11  12
ENDBRANCH   1  11
TORSDOF 10
ENDMDL
MODEL 13
REMARK VINA RESULT:    -6.010      3.020      4.911
REMARK INTER + INTRA:         -10.216
REMARK INTER:                  -9.017
REMARK INTRA:                  -1.199
REMARK UNBOUND:                -0.867
REMARK SMILES C=CCOc1ccccc1OCC(O)CNC(C)C
REMARK SMILES IDX 12 1 13 2 15 3 16 4 17 6 18 7 19 8 14 9 11 11 10 12 9 13
REMARK SMILES IDX 5 14 8 15 6 16 7 17 4 18 3 19 2 20 1 21
REMARK H PARENT 16 5 14 10
REMARK Flexibility Score: inf
ROOT
ATOM      1  C   UNL     1     -76.822 -20.889  89.289  1.00  0.00     0.262 C 
ENDROOT
BRANCH   1   2
ATOM      2  C   UNL     1     -77.738 -21.859  90.047  1.00  0.00     0.165 C 
BRANCH   2   3
ATOM      3  C   UNL     1     -79.105 -21.203  90.355  1.00  0.00     0.116 C 
BRANCH   3   4
ATOM      4  N   UNL     1     -80.097 -21.438  89.289  1.00  0.00    -0.312 NA
ATOM      5  H   UNL     1     -80.195 -20.571  88.711  1.00  0.00     0.123 HD
BRANCH   4   6
ATOM      6  C   UNL     1     -81.406 -21.884  89.814  1.00  0.00     0.047 C 
ATOM      7  C   UNL     1     -81.282 -22.314  91.283  1.00  0.00     0.024 C 
ATOM      8  C   UNL     1     -82.421 -20.742  89.696  1.00  0.00     0.024 C 
ENDBRANCH   4   6
ENDBRANCH   3   4
ENDBRANCH   2   3
BRANCH   2   9
ATOM      9  O   UNL     1     -77.114 -22.300  91.228  1.00  0.00    -0.388 OA
ATOM     10  H   UNL     1     -76.608 -21.533  91.606  1.00  0.00     0.211 HD
ENDBRANCH   2   9
ENDBRANCH   1   2
BRANCH   1  11
ATOM     11  O   UNL     1     -77.517 -19.668  89.045  1.00  0.00    -0.487 OA
BRANCH  11  12
ATOM     12  C   UNL     1     -77.274 -18.816  87.958  1.00  0.00     0.161 A 
ATOM     13  C   UNL     1     -76.333 -17.769  88.023  1.00  0.00     0.050 A 
ATOM     14  C   UNL     1     -77.999 -19.025  86.772  1.00  0.00     0.161 A 
ATOM     15  C   UNL     1     -76.120 -16.942  86.918  1.00  0.00     0.004 A 
ATOM     16  C   UNL     1     -77.774 -18.184  85.663  1.00  0.00     0.050 A 
ATOM     17  C   UNL     1     -76.839 -17.149  85.741  1.00  0.00     0.004 A 
BRANCH  14  18
ATOM     18  O   UNL     1     -78.930 -20.078  86.739  1.00  0.00    -0.486 OA
BRANCH  18  19
ATOM     19  C   UNL     1     -79.812 -20.367  85.656  1.00  0.00     0.257 C 
BRANCH  19  20
ATOM     20  C   UNL     1     -81.151 -20.818  86.166  1.00  0.00     0.006 C 
ATOM     21  C   UNL     1     -82.246 -20.079  85.972  1.00  0.00     0.007 C 
ENDBRANCH  19  20
ENDBRANCH  18  19
ENDBRANCH  14  18
ENDBRANCH  11  12
ENDBRANCH   1  11
TORSDOF 10
ENDMDL
MODEL 14
REMARK VINA RESULT:    -5.989      1.893      3.755
REMARK INTER + INTRA:         -10.183
REMARK INTER:                  -9.306
REMARK INTRA:                  -0.877
REMARK UNBOUND:                -0.867
REMARK SMILES C=CCOc1ccccc1OCC(O)CNC(C)C
REMARK SMILES IDX 12 1 13 2 15 3 16 4 17 6 18 7 19 8 14 9 11 11 10 12 9 13
REMARK SMILES IDX 5 14 8 15 6 16 7 17 4 18 3 19 2 20 1 21
REMARK H PARENT 16 5 14 10
REMARK Flexibility Score: inf
ROOT
ATOM      1  C   UNL     1     -80.543 -21.127  89.401  1.00  0.00     0.262 C 
ENDROOT
BRANCH   1   2
ATOM      2  C   UNL     1     -81.775 -21.671  90.136  1.00  0.00     0.165 C 
BRANCH   2   3
ATOM      3  C   UNL     1     -82.995 -20.741  89.933  1.00  0.00     0.116 C 
BRANCH   3   4
ATOM      4  N   UNL     1     -84.270 -21.481  89.903  1.00  0.00    -0.312 NA
ATOM      5  H   UNL     1     -84.080 -22.502  90.031  1.00  0.00     0.123 HD
BRANCH   4   6
ATOM      6  C   UNL     1     -85.050 -21.230  88.672  1.00  0.00     0.047 C 
ATOM      7  C   UNL     1     -84.752 -19.827  88.119  1.00  0.00     0.024 C 
ATOM      8  C   UNL     1     -84.695 -22.283  87.617  1.00  0.00     0.024 C 
ENDBRANCH   4   6
ENDBRANCH   3   4
ENDBRANCH   2   3
BRANCH   2   9
ATOM      9  O   UNL     1     -81.494 -21.841  91.503  1.00  0.00    -0.388 OA
ATOM     10  H   UNL     1     -81.159 -20.974  91.853  1.00  0.00     0.211 HD
ENDBRANCH   2   9
ENDBRANCH   1   2
BRANCH   1  11
ATOM     11  O   UNL     1     -80.531 -21.618  88.062  1.00  0.00    -0.487 OA
BRANCH  11  12
ATOM     12  C   UNL     1     -80.532 -20.807  86.916  1.00  0.00     0.161 A 
ATOM     13  C   UNL     1     -81.725 -20.411  86.281  1.00  0.00     0.050 A 
ATOM     14  C   UNL     1     -79.296 -20.386  86.398  1.00  0.00     0.161 A 
ATOM     15  C   UNL     1     -81.684 -19.604  85.142  1.00  0.00     0.004 A 
ATOM     16  C   UNL     1     -79.268 -19.570  85.247  1.00  0.00     0.050 A 
ATOM     17  C   UNL     1     -80.458 -19.185  84.627  1.00  0.00     0.004 A 
BRANCH  14  18
ATOM     18  O   UNL     1     -78.124 -20.798  87.055  1.00  0.00    -0.486 OA
BRANCH  18  19
ATOM     19  C   UNL     1     -76.891 -20.079  87.073  1.00  0.00     0.257 C 
BRANCH  19  20
ATOM     20  C   UNL     1     -76.985 -18.884  87.977  1.00  0.00     0.006 C 
ATOM     21  C   UNL     1     -76.525 -17.691  87.592  1.00  0.00     0.007 C 
ENDBRANCH  19  20
ENDBRANCH  18  19
ENDBRANCH  14  18
ENDBRANCH  11  12
ENDBRANCH   1  11
TORSDOF 10
ENDMDL
MODEL 15
REMARK VINA RESULT:    -5.849      4.926      7.632
REMARK INTER + INTRA:          -9.965
REMARK INTER:                  -9.037
REMARK INTRA:                  -0.928
REMARK UNBOUND:                -0.867
REMARK SMILES C=CCOc1ccccc1OCC(O)CNC(C)C
REMARK SMILES IDX 12 1 13 2 15 3 16 4 17 6 18 7 19 8 14 9 11 11 10 12 9 13
REMARK SMILES IDX 5 14 8 15 6 16 7 17 4 18 3 19 2 20 1 21
REMARK H PARENT 16 5 14 10
REMARK Flexibility Score: inf
ROOT
ATOM      1  C   UNL     1     -75.001 -17.220  87.181  1.00  0.00     0.262 C 
ENDROOT
BRANCH   1   2
ATOM      2  C   UNL     1     -74.268 -16.848  88.477  1.00  0.00     0.165 C 
BRANCH   2   3
ATOM      3  C   UNL     1     -74.675 -15.435  88.957  1.00  0.00     0.116 C 
BRANCH   3   4
ATOM      4  N   UNL     1     -75.855 -15.457  89.841  1.00  0.00    -0.312 NA
ATOM      5  H   UNL     1     -76.334 -14.527  89.801  1.00  0.00     0.123 HD
BRANCH   4   6
ATOM      6  C   UNL     1     -75.520 -15.829  91.233  1.00  0.00     0.047 C 
ATOM      7  C   UNL     1     -74.264 -15.081  91.706  1.00  0.00     0.024 C 
ATOM      8  C   UNL     1     -76.697 -15.488  92.152  1.00  0.00     0.024 C 
ENDBRANCH   4   6
ENDBRANCH   3   4
ENDBRANCH   2   3
BRANCH   2   9
ATOM      9  O   UNL     1     -72.876 -16.937  88.294  1.00  0.00    -0.388 OA
ATOM     10  H   UNL     1     -72.490 -17.344  89.114  1.00  0.00     0.211 HD
ENDBRANCH   2   9
ENDBRANCH   1   2
BRANCH   1  11
ATOM     11  O   UNL     1     -76.407 -17.254  87.421  1.00  0.00    -0.487 OA
BRANCH  11  12
ATOM     12  C   UNL     1     -77.159 -18.427  87.586  1.00  0.00     0.161 A 
ATOM     13  C   UNL     1     -77.132 -19.171  88.782  1.00  0.00     0.050 A 
ATOM     14  C   UNL     1     -77.958 -18.861  86.515  1.00  0.00     0.161 A 
ATOM     15  C   UNL     1     -77.895 -20.335  88.906  1.00  0.00     0.004 A 
ATOM     16  C   UNL     1     -78.724 -20.038  86.653  1.00  0.00     0.050 A 
ATOM     17  C   UNL     1     -78.688 -20.766  87.844  1.00  0.00     0.004 A 
BRANCH  14  18
ATOM     18  O   UNL     1     -77.963 -18.097  85.336  1.00  0.00    -0.486 OA
BRANCH  18  19
ATOM     19  C   UNL     1     -77.456 -18.524  84.072  1.00  0.00     0.257 C 
BRANCH  19  20
ATOM     20  C   UNL     1     -78.547 -19.135  83.240  1.00  0.00     0.006 C 
ATOM     21  C   UNL     1     -79.792 -18.655  83.279  1.00  0.00     0.007 C 
ENDBRANCH  19  20
ENDBRANCH  18  19
ENDBRANCH  14  18
ENDBRANCH  11  12
ENDBRANCH   1  11
TORSDOF 10
ENDMDL
