MODEL 1
REMARK VINA RESULT:    -8.068      0.000      0.000
REMARK INTER + INTRA:         -11.424
REMARK INTER:                 -10.897
REMARK INTRA:                  -0.526
REMARK UNBOUND:                -0.526
REMARK SMILES COC(=O)C1=C(C)NC(C)=C(C(=O)OC)C1c1ccccc1[N+](=O)[O-]
REMARK SMILES IDX 5 1 6 2 7 3 8 4 9 5 10 6 11 7 16 8 3 10 4 11 2 12 1 13 17 14
REMARK SMILES IDX 18 15 22 16 19 17 21 18 20 19 23 20 25 21 24 22 12 23 13 24
REMARK SMILES IDX 14 25 15 26
REMARK H PARENT 8 9
REMARK Flexibility Score: inf
ROOT
ATOM      1  C   UNL     1      12.174  79.043  -3.022  1.00  0.00     0.069 C 
ATOM      2  C   UNL     1      12.392  77.812  -3.537  1.00  0.00     0.023 C 
ATOM      3  C   UNL     1      13.617  77.483  -4.353  1.00  0.00     0.065 C 
ATOM      4  N   UNL     1      11.438  76.766  -3.316  1.00  0.00    -0.362 N 
ATOM      5  C   UNL     1      10.188  76.982  -2.645  1.00  0.00     0.023 C 
ATOM      6  C   UNL     1       9.221  75.828  -2.574  1.00  0.00     0.065 C 
ATOM      7  C   UNL     1       9.919  78.187  -2.095  1.00  0.00     0.069 C 
ATOM      8  C   UNL     1      10.897  79.346  -2.248  1.00  0.00     0.105 C 
ATOM      9  H   UNL     1      11.653  75.809  -3.674  1.00  0.00     0.166 HD
ENDROOT
BRANCH   1  10
ATOM     10  C   UNL     1      13.137  80.163  -3.208  1.00  0.00     0.336 C 
ATOM     11  O   UNL     1      14.017  80.377  -2.329  1.00  0.00    -0.246 OA
BRANCH  10  12
ATOM     12  O   UNL     1      13.109  80.939  -4.370  1.00  0.00    -0.466 OA
ATOM     13  C   UNL     1      14.241  81.098  -5.217  1.00  0.00     0.282 C 
ENDBRANCH  10  12
ENDBRANCH   1  10
BRANCH   8  14
ATOM     14  C   UNL     1      11.229  79.949  -0.886  1.00  0.00     0.042 A 
ATOM     15  C   UNL     1      10.705  81.217  -0.562  1.00  0.00     0.012 A 
ATOM     16  C   UNL     1      12.079  79.304   0.054  1.00  0.00     0.273 A 
ATOM     17  C   UNL     1      11.024  81.835   0.650  1.00  0.00     0.001 A 
ATOM     18  C   UNL     1      12.403  79.948   1.258  1.00  0.00     0.086 A 
ATOM     19  C   UNL     1      11.874  81.203   1.556  1.00  0.00     0.007 A 
BRANCH  16  20
ATOM     20  N   UNL     1      12.637  78.013  -0.204  1.00  0.00     0.063 N 
ATOM     21  O   UNL     1      14.001  77.885  -0.344  1.00  0.00    -0.258 OA
ATOM     22  O   UNL     1      11.952  76.991   0.002  1.00  0.00    -0.258 OA
ENDBRANCH  16  20
ENDBRANCH   8  14
BRANCH   7  23
ATOM     23  C   UNL     1       8.645  78.458  -1.376  1.00  0.00     0.336 C 
ATOM     24  O   UNL     1       8.510  78.068  -0.185  1.00  0.00    -0.246 OA
BRANCH  23  25
ATOM     25  O   UNL     1       7.584  79.098  -2.026  1.00  0.00    -0.466 OA
ATOM     26  C   UNL     1       7.522  80.509  -2.185  1.00  0.00     0.282 C 
ENDBRANCH  23  25
ENDBRANCH   7  23
TORSDOF 6
ENDMDL
MODEL 2
REMARK VINA RESULT:    -8.015      2.196      4.190
REMARK INTER + INTRA:         -11.353
REMARK INTER:                  -9.901
REMARK INTRA:                  -1.452
REMARK UNBOUND:                -0.526
REMARK SMILES COC(=O)C1=C(C)NC(C)=C(C(=O)OC)C1c1ccccc1[N+](=O)[O-]
REMARK SMILES IDX 5 1 6 2 7 3 8 4 9 5 10 6 11 7 16 8 3 10 4 11 2 12 1 13 17 14
REMARK SMILES IDX 18 15 22 16 19 17 21 18 20 19 23 20 25 21 24 22 12 23 13 24
REMARK SMILES IDX 14 25 15 26
REMARK H PARENT 8 9
REMARK Flexibility Score: inf
ROOT
ATOM      1  C   UNL     1       9.346  79.395  -1.025  1.00  0.00     0.069 C 
ATOM      2  C   UNL     1       8.138  79.533  -1.618  1.00  0.00     0.023 C 
ATOM      3  C   UNL     1       7.289  80.767  -1.444  1.00  0.00     0.065 C 
ATOM      4  N   UNL     1       7.625  78.482  -2.444  1.00  0.00    -0.362 N 
ATOM      5  C   UNL     1       8.291  77.221  -2.603  1.00  0.00     0.023 C 
ATOM      6  C   UNL     1       7.593  76.155  -3.409  1.00  0.00     0.065 C 
ATOM      7  C   UNL     1       9.508  77.028  -2.047  1.00  0.00     0.069 C 
ATOM      8  C   UNL     1      10.147  78.109  -1.185  1.00  0.00     0.105 C 
ATOM      9  H   UNL     1       6.718  78.632  -2.939  1.00  0.00     0.166 HD
ENDROOT
BRANCH   1  10
ATOM     10  C   UNL     1       9.934  80.460  -0.167  1.00  0.00     0.336 C 
ATOM     11  O   UNL     1       9.740  80.430   1.080  1.00  0.00    -0.246 OA
BRANCH  10  12
ATOM     12  O   UNL     1      10.743  81.456  -0.723  1.00  0.00    -0.466 OA
ATOM     13  C   UNL     1      12.089  81.670  -0.315  1.00  0.00     0.282 C 
ENDBRANCH  10  12
ENDBRANCH   1  10
BRANCH   8  14
ATOM     14  C   UNL     1      11.560  78.418  -1.674  1.00  0.00     0.042 A 
ATOM     15  C   UNL     1      11.731  78.903  -2.985  1.00  0.00     0.012 A 
ATOM     16  C   UNL     1      12.715  78.196  -0.875  1.00  0.00     0.273 A 
ATOM     17  C   UNL     1      13.007  79.149  -3.498  1.00  0.00     0.001 A 
ATOM     18  C   UNL     1      13.990  78.431  -1.412  1.00  0.00     0.086 A 
ATOM     19  C   UNL     1      14.134  78.910  -2.713  1.00  0.00     0.007 A 
BRANCH  16  20
ATOM     20  N   UNL     1      12.616  77.714   0.468  1.00  0.00     0.063 N 
ATOM     21  O   UNL     1      12.421  76.369   0.688  1.00  0.00    -0.258 OA
ATOM     22  O   UNL     1      13.006  78.431   1.411  1.00  0.00    -0.258 OA
ENDBRANCH  16  20
ENDBRANCH   8  14
BRANCH   7  23
ATOM     23  C   UNL     1      10.247  75.745  -2.195  1.00  0.00     0.336 C 
ATOM     24  O   UNL     1      10.940  75.544  -3.229  1.00  0.00    -0.246 OA
BRANCH  23  25
ATOM     25  O   UNL     1      10.140  74.747  -1.221  1.00  0.00    -0.466 OA
ATOM     26  C   UNL     1      10.149  73.361  -1.538  1.00  0.00     0.282 C 
ENDBRANCH  23  25
ENDBRANCH   7  23
TORSDOF 6
ENDMDL
MODEL 3
REMARK VINA RESULT:    -7.035      2.212      5.254
REMARK INTER + INTRA:         -10.029
REMARK INTER:                  -9.111
REMARK INTRA:                  -0.918
REMARK UNBOUND:                -0.526
REMARK SMILES COC(=O)C1=C(C)NC(C)=C(C(=O)OC)C1c1ccccc1[N+](=O)[O-]
REMARK SMILES IDX 5 1 6 2 7 3 8 4 9 5 10 6 11 7 16 8 3 10 4 11 2 12 1 13 17 14
REMARK SMILES IDX 18 15 22 16 19 17 21 18 20 19 23 20 25 21 24 22 12 23 13 24
REMARK SMILES IDX 14 25 15 26
REMARK H PARENT 8 9
REMARK Flexibility Score: inf
ROOT
ATOM      1  C   UNL     1      10.648  77.066  -0.959  1.00  0.00     0.069 C 
ATOM      2  C   UNL     1      10.823  75.858  -0.378  1.00  0.00     0.023 C 
ATOM      3  C   UNL     1       9.851  74.721  -0.568  1.00  0.00     0.065 C 
ATOM      4  N   UNL     1      11.965  75.626   0.456  1.00  0.00    -0.362 N 
ATOM      5  C   UNL     1      12.903  76.657   0.795  1.00  0.00     0.023 C 
ATOM      6  C   UNL     1      14.000  76.315   1.771  1.00  0.00     0.065 C 
ATOM      7  C   UNL     1      12.790  77.881   0.233  1.00  0.00     0.069 C 
ATOM      8  C   UNL     1      11.628  78.204  -0.697  1.00  0.00     0.105 C 
ATOM      9  H   UNL     1      12.112  74.669   0.848  1.00  0.00     0.166 HD
ENDROOT
BRANCH   1  10
ATOM     10  C   UNL     1       9.488  77.359  -1.845  1.00  0.00     0.336 C 
ATOM     11  O   UNL     1       9.460  76.875  -3.010  1.00  0.00    -0.246 OA
BRANCH  10  12
ATOM     12  O   UNL     1       8.410  78.116  -1.379  1.00  0.00    -0.466 OA
ATOM     13  C   UNL     1       7.513  77.645  -0.380  1.00  0.00     0.282 C 
ENDBRANCH  10  12
ENDBRANCH   1  10
BRANCH   8  14
ATOM     14  C   UNL     1      12.140  78.781  -2.014  1.00  0.00     0.042 A 
ATOM     15  C   UNL     1      13.178  78.108  -2.689  1.00  0.00     0.012 A 
ATOM     16  C   UNL     1      11.643  79.992  -2.567  1.00  0.00     0.273 A 
ATOM     17  C   UNL     1      13.718  78.624  -3.868  1.00  0.00     0.001 A 
ATOM     18  C   UNL     1      12.210  80.506  -3.743  1.00  0.00     0.086 A 
ATOM     19  C   UNL     1      13.238  79.824  -4.393  1.00  0.00     0.007 A 
BRANCH  16  20
ATOM     20  N   UNL     1      10.584  80.723  -1.941  1.00  0.00     0.063 N 
ATOM     21  O   UNL     1      10.866  81.516  -0.852  1.00  0.00    -0.258 OA
ATOM     22  O   UNL     1       9.506  80.887  -2.546  1.00  0.00    -0.258 OA
ENDBRANCH  16  20
ENDBRANCH   8  14
BRANCH   7  23
ATOM     23  C   UNL     1      13.745  78.980   0.540  1.00  0.00     0.336 C 
ATOM     24  O   UNL     1      14.985  78.773   0.433  1.00  0.00    -0.246 OA
BRANCH  23  25
ATOM     25  O   UNL     1      13.282  80.221   0.989  1.00  0.00    -0.466 OA
ATOM     26  C   UNL     1      12.337  80.351   2.043  1.00  0.00     0.282 C 
ENDBRANCH  23  25
ENDBRANCH   7  23
TORSDOF 6
ENDMDL
MODEL 4
REMARK VINA RESULT:    -6.928      2.352      4.697
REMARK INTER + INTRA:          -9.884
REMARK INTER:                  -8.578
REMARK INTRA:                  -1.306
REMARK UNBOUND:                -0.526
REMARK SMILES COC(=O)C1=C(C)NC(C)=C(C(=O)OC)C1c1ccccc1[N+](=O)[O-]
REMARK SMILES IDX 5 1 6 2 7 3 8 4 9 5 10 6 11 7 16 8 3 10 4 11 2 12 1 13 17 14
REMARK SMILES IDX 18 15 22 16 19 17 21 18 20 19 23 20 25 21 24 22 12 23 13 24
REMARK SMILES IDX 14 25 15 26
REMARK H PARENT 8 9
REMARK Flexibility Score: inf
ROOT
ATOM      1  C   UNL     1       9.552  76.693  -1.292  1.00  0.00     0.069 C 
ATOM      2  C   UNL     1       8.358  76.708  -0.658  1.00  0.00     0.023 C 
ATOM      3  C   UNL     1       7.628  75.444  -0.280  1.00  0.00     0.065 C 
ATOM      4  N   UNL     1       7.743  77.959  -0.325  1.00  0.00    -0.362 N 
ATOM      5  C   UNL     1       8.288  79.224  -0.722  1.00  0.00     0.023 C 
ATOM      6  C   UNL     1       7.488  80.463  -0.407  1.00  0.00     0.065 C 
ATOM      7  C   UNL     1       9.486  79.275  -1.345  1.00  0.00     0.069 C 
ATOM      8  C   UNL     1      10.230  77.995  -1.703  1.00  0.00     0.105 C 
ATOM      9  H   UNL     1       6.849  77.948   0.216  1.00  0.00     0.166 HD
ENDROOT
BRANCH   1  10
ATOM     10  C   UNL     1      10.244  75.425  -1.650  1.00  0.00     0.336 C 
ATOM     11  O   UNL     1      10.805  74.747  -0.745  1.00  0.00    -0.246 OA
BRANCH  10  12
ATOM     12  O   UNL     1      10.229  74.953  -2.966  1.00  0.00    -0.466 OA
ATOM     13  C   UNL     1       9.600  73.733  -3.339  1.00  0.00     0.282 C 
ENDBRANCH  10  12
ENDBRANCH   1  10
BRANCH   8  14
ATOM     14  C   UNL     1      11.661  78.042  -1.174  1.00  0.00     0.042 A 
ATOM     15  C   UNL     1      11.876  77.886   0.210  1.00  0.00     0.012 A 
ATOM     16  C   UNL     1      12.783  78.278  -2.014  1.00  0.00     0.273 A 
ATOM     17  C   UNL     1      13.161  77.975   0.749  1.00  0.00     0.001 A 
ATOM     18  C   UNL     1      14.065  78.383  -1.453  1.00  0.00     0.086 A 
ATOM     19  C   UNL     1      14.254  78.227  -0.080  1.00  0.00     0.007 A 
BRANCH  16  20
ATOM     20  N   UNL     1      12.641  78.437  -3.428  1.00  0.00     0.063 N 
ATOM     21  O   UNL     1      12.678  79.701  -3.972  1.00  0.00    -0.258 OA
ATOM     22  O   UNL     1      12.792  77.451  -4.178  1.00  0.00    -0.258 OA
ENDBRANCH  16  20
ENDBRANCH   8  14
BRANCH   7  23
ATOM     23  C   UNL     1      10.102  80.563  -1.764  1.00  0.00     0.336 C 
ATOM     24  O   UNL     1       9.755  81.092  -2.855  1.00  0.00    -0.246 OA
BRANCH  23  25
ATOM     25  O   UNL     1      11.093  81.165  -0.981  1.00  0.00    -0.466 OA
ATOM     26  C   UNL     1      10.914  81.446   0.401  1.00  0.00     0.282 C 
ENDBRANCH  23  25
ENDBRANCH   7  23
TORSDOF 6
ENDMDL
MODEL 5
REMARK VINA RESULT:    -6.908      2.904      5.489
REMARK INTER + INTRA:          -9.858
REMARK INTER:                  -9.849
REMARK INTRA:                  -0.009
REMARK UNBOUND:                -0.526
REMARK SMILES COC(=O)C1=C(C)NC(C)=C(C(=O)OC)C1c1ccccc1[N+](=O)[O-]
REMARK SMILES IDX 5 1 6 2 7 3 8 4 9 5 10 6 11 7 16 8 3 10 4 11 2 12 1 13 17 14
REMARK SMILES IDX 18 15 22 16 19 17 21 18 20 19 23 20 25 21 24 22 12 23 13 24
REMARK SMILES IDX 14 25 15 26
REMARK H PARENT 8 9
REMARK Flexibility Score: inf
ROOT
ATOM      1  C   UNL     1       9.529  78.074  -1.100  1.00  0.00     0.069 C 
ATOM      2  C   UNL     1       9.117  79.323  -0.782  1.00  0.00     0.023 C 
ATOM      3  C   UNL     1       9.950  80.546  -1.073  1.00  0.00     0.065 C 
ATOM      4  N   UNL     1       7.849  79.515  -0.144  1.00  0.00    -0.362 N 
ATOM      5  C   UNL     1       7.015  78.426   0.276  1.00  0.00     0.023 C 
ATOM      6  C   UNL     1       5.757  78.758   1.037  1.00  0.00     0.065 C 
ATOM      7  C   UNL     1       7.365  77.156  -0.026  1.00  0.00     0.069 C 
ATOM      8  C   UNL     1       8.679  76.861  -0.739  1.00  0.00     0.105 C 
ATOM      9  H   UNL     1       7.525  80.491   0.040  1.00  0.00     0.166 HD
ENDROOT
BRANCH   1  10
ATOM     10  C   UNL     1      10.830  77.815  -1.775  1.00  0.00     0.336 C 
ATOM     11  O   UNL     1      10.877  77.779  -3.036  1.00  0.00    -0.246 OA
BRANCH  10  12
ATOM     12  O   UNL     1      12.002  77.668  -1.029  1.00  0.00    -0.466 OA
ATOM     13  C   UNL     1      13.117  78.541  -1.168  1.00  0.00     0.282 C 
ENDBRANCH  10  12
ENDBRANCH   1  10
BRANCH   8  14
ATOM     14  C   UNL     1       8.435  75.995  -1.972  1.00  0.00     0.042 A 
ATOM     15  C   UNL     1       7.609  76.495  -2.998  1.00  0.00     0.012 A 
ATOM     16  C   UNL     1       8.974  74.687  -2.110  1.00  0.00     0.273 A 
ATOM     17  C   UNL     1       7.312  75.719  -4.121  1.00  0.00     0.001 A 
ATOM     18  C   UNL     1       8.650  73.914  -3.236  1.00  0.00     0.086 A 
ATOM     19  C   UNL     1       7.829  74.430  -4.238  1.00  0.00     0.007 A 
BRANCH  16  20
ATOM     20  N   UNL     1       9.828  74.119  -1.113  1.00  0.00     0.063 N 
ATOM     21  O   UNL     1      10.121  72.775  -1.164  1.00  0.00    -0.258 OA
ATOM     22  O   UNL     1      10.535  74.866  -0.408  1.00  0.00    -0.258 OA
ENDBRANCH  16  20
ENDBRANCH   8  14
BRANCH   7  23
ATOM     23  C   UNL     1       6.528  75.993   0.373  1.00  0.00     0.336 C 
ATOM     24  O   UNL     1       7.085  74.919   0.729  1.00  0.00    -0.246 OA
BRANCH  23  25
ATOM     25  O   UNL     1       5.132  76.067   0.311  1.00  0.00    -0.466 OA
ATOM     26  C   UNL     1       4.346  75.140  -0.427  1.00  0.00     0.282 C 
ENDBRANCH  23  25
ENDBRANCH   7  23
TORSDOF 6
ENDMDL
MODEL 6
REMARK VINA RESULT:    -6.376      2.337      3.987
REMARK INTER + INTRA:          -9.139
REMARK INTER:                  -8.276
REMARK INTRA:                  -0.863
REMARK UNBOUND:                -0.526
REMARK SMILES COC(=O)C1=C(C)NC(C)=C(C(=O)OC)C1c1ccccc1[N+](=O)[O-]
REMARK SMILES IDX 5 1 6 2 7 3 8 4 9 5 10 6 11 7 16 8 3 10 4 11 2 12 1 13 17 14
REMARK SMILES IDX 18 15 22 16 19 17 21 18 20 19 23 20 25 21 24 22 12 23 13 24
REMARK SMILES IDX 14 25 15 26
REMARK H PARENT 8 9
REMARK Flexibility Score: inf
ROOT
ATOM      1  C   UNL     1      10.495  77.820  -2.297  1.00  0.00     0.069 C 
ATOM      2  C   UNL     1       9.180  77.511  -2.233  1.00  0.00     0.023 C 
ATOM      3  C   UNL     1       8.561  76.436  -3.090  1.00  0.00     0.065 C 
ATOM      4  N   UNL     1       8.324  78.218  -1.328  1.00  0.00    -0.362 N 
ATOM      5  C   UNL     1       8.774  79.327  -0.537  1.00  0.00     0.023 C 
ATOM      6  C   UNL     1       7.750  80.058   0.294  1.00  0.00     0.065 C 
ATOM      7  C   UNL     1      10.080  79.674  -0.547  1.00  0.00     0.069 C 
ATOM      8  C   UNL     1      11.069  78.950  -1.451  1.00  0.00     0.105 C 
ATOM      9  H   UNL     1       7.324  77.924  -1.252  1.00  0.00     0.166 HD
ENDROOT
BRANCH   1  10
ATOM     10  C   UNL     1      11.433  77.111  -3.210  1.00  0.00     0.336 C 
ATOM     11  O   UNL     1      11.303  75.868  -3.389  1.00  0.00    -0.246 OA
BRANCH  10  12
ATOM     12  O   UNL     1      12.417  77.816  -3.908  1.00  0.00    -0.466 OA
ATOM     13  C   UNL     1      13.488  77.174  -4.588  1.00  0.00     0.282 C 
ENDBRANCH  10  12
ENDBRANCH   1  10
BRANCH   8  14
ATOM     14  C   UNL     1      12.269  78.457  -0.646  1.00  0.00     0.042 A 
ATOM     15  C   UNL     1      12.114  77.319   0.170  1.00  0.00     0.012 A 
ATOM     16  C   UNL     1      13.524  79.124  -0.652  1.00  0.00     0.273 A 
ATOM     17  C   UNL     1      13.165  76.861   0.967  1.00  0.00     0.001 A 
ATOM     18  C   UNL     1      14.564  78.661   0.169  1.00  0.00     0.086 A 
ATOM     19  C   UNL     1      14.387  77.533   0.970  1.00  0.00     0.007 A 
BRANCH  16  20
ATOM     20  N   UNL     1      13.756  80.279  -1.463  1.00  0.00     0.063 N 
ATOM     21  O   UNL     1      13.897  81.508  -0.859  1.00  0.00    -0.258 OA
ATOM     22  O   UNL     1      14.130  80.139  -2.644  1.00  0.00    -0.258 OA
ENDBRANCH  16  20
ENDBRANCH   8  14
BRANCH   7  23
ATOM     23  C   UNL     1      10.600  80.807   0.267  1.00  0.00     0.336 C 
ATOM     24  O   UNL     1      10.910  81.889  -0.302  1.00  0.00    -0.246 OA
BRANCH  23  25
ATOM     25  O   UNL     1      10.788  80.664   1.646  1.00  0.00    -0.466 OA
ATOM     26  C   UNL     1      12.065  80.775   2.261  1.00  0.00     0.282 C 
ENDBRANCH  23  25
ENDBRANCH   7  23
TORSDOF 6
ENDMDL
MODEL 7
REMARK VINA RESULT:    -6.275      1.574      2.314
REMARK INTER + INTRA:          -9.002
REMARK INTER:                  -8.032
REMARK INTRA:                  -0.970
REMARK UNBOUND:                -0.526
REMARK SMILES COC(=O)C1=C(C)NC(C)=C(C(=O)OC)C1c1ccccc1[N+](=O)[O-]
REMARK SMILES IDX 5 1 6 2 7 3 8 4 9 5 10 6 11 7 16 8 3 10 4 11 2 12 1 13 17 14
REMARK SMILES IDX 18 15 22 16 19 17 21 18 20 19 23 20 25 21 24 22 12 23 13 24
REMARK SMILES IDX 14 25 15 26
REMARK H PARENT 8 9
REMARK Flexibility Score: inf
ROOT
ATOM      1  C   UNL     1      12.758  78.613  -3.154  1.00  0.00     0.069 C 
ATOM      2  C   UNL     1      12.861  77.546  -3.979  1.00  0.00     0.023 C 
ATOM      3  C   UNL     1      13.919  77.453  -5.050  1.00  0.00     0.065 C 
ATOM      4  N   UNL     1      11.943  76.454  -3.851  1.00  0.00    -0.362 N 
ATOM      5  C   UNL     1      10.834  76.472  -2.941  1.00  0.00     0.023 C 
ATOM      6  C   UNL     1       9.874  75.310  -2.981  1.00  0.00     0.065 C 
ATOM      7  C   UNL     1      10.686  77.505  -2.081  1.00  0.00     0.069 C 
ATOM      8  C   UNL     1      11.641  78.691  -2.120  1.00  0.00     0.105 C 
ATOM      9  H   UNL     1      12.076  75.615  -4.458  1.00  0.00     0.166 HD
ENDROOT
BRANCH   1  10
ATOM     10  C   UNL     1      13.692  79.770  -3.233  1.00  0.00     0.336 C 
ATOM     11  O   UNL     1      14.754  79.757  -2.550  1.00  0.00    -0.246 OA
BRANCH  10  12
ATOM     12  O   UNL     1      13.431  80.838  -4.095  1.00  0.00    -0.466 OA
ATOM     13  C   UNL     1      14.251  81.139  -5.217  1.00  0.00     0.282 C 
ENDBRANCH  10  12
ENDBRANCH   1  10
BRANCH   8  14
ATOM     14  C   UNL     1      12.216  78.961  -0.733  1.00  0.00     0.042 A 
ATOM     15  C   UNL     1      12.991  77.959  -0.115  1.00  0.00     0.012 A 
ATOM     16  C   UNL     1      11.967  80.165  -0.019  1.00  0.00     0.273 A 
ATOM     17  C   UNL     1      13.493  78.137   1.176  1.00  0.00     0.001 A 
ATOM     18  C   UNL     1      12.465  80.319   1.284  1.00  0.00     0.086 A 
ATOM     19  C   UNL     1      13.228  79.313   1.876  1.00  0.00     0.007 A 
BRANCH  16  20
ATOM     20  N   UNL     1      11.198  81.228  -0.588  1.00  0.00     0.063 N 
ATOM     21  O   UNL     1       9.905  80.982  -0.991  1.00  0.00    -0.258 OA
ATOM     22  O   UNL     1      11.570  82.409  -0.437  1.00  0.00    -0.258 OA
ENDBRANCH  16  20
ENDBRANCH   8  14
BRANCH   7  23
ATOM     23  C   UNL     1       9.562  77.563  -1.108  1.00  0.00     0.336 C 
ATOM     24  O   UNL     1       9.635  76.906  -0.035  1.00  0.00    -0.246 OA
BRANCH  23  25
ATOM     25  O   UNL     1       8.410  78.303  -1.396  1.00  0.00    -0.466 OA
ATOM     26  C   UNL     1       7.430  78.611  -0.414  1.00  0.00     0.282 C 
ENDBRANCH  23  25
ENDBRANCH   7  23
TORSDOF 6
ENDMDL
MODEL 8
REMARK VINA RESULT:    -6.275      1.649      5.120
REMARK INTER + INTRA:          -9.002
REMARK INTER:                  -8.535
REMARK INTRA:                  -0.467
REMARK UNBOUND:                -0.526
REMARK SMILES COC(=O)C1=C(C)NC(C)=C(C(=O)OC)C1c1ccccc1[N+](=O)[O-]
REMARK SMILES IDX 5 1 6 2 7 3 8 4 9 5 10 6 11 7 16 8 3 10 4 11 2 12 1 13 17 14
REMARK SMILES IDX 18 15 22 16 19 17 21 18 20 19 23 20 25 21 24 22 12 23 13 24
REMARK SMILES IDX 14 25 15 26
REMARK H PARENT 8 9
REMARK Flexibility Score: inf
ROOT
ATOM      1  C   UNL     1      10.781  80.373  -0.995  1.00  0.00     0.069 C 
ATOM      2  C   UNL     1      11.664  81.203  -0.395  1.00  0.00     0.023 C 
ATOM      3  C   UNL     1      11.256  82.171   0.687  1.00  0.00     0.065 C 
ATOM      4  N   UNL     1      13.042  81.182  -0.786  1.00  0.00    -0.362 N 
ATOM      5  C   UNL     1      13.532  80.382  -1.871  1.00  0.00     0.023 C 
ATOM      6  C   UNL     1      14.981  80.533  -2.257  1.00  0.00     0.065 C 
ATOM      7  C   UNL     1      12.701  79.521  -2.500  1.00  0.00     0.069 C 
ATOM      8  C   UNL     1      11.227  79.448  -2.122  1.00  0.00     0.105 C 
ATOM      9  H   UNL     1      13.718  81.790  -0.270  1.00  0.00     0.166 HD
ENDROOT
BRANCH   1  10
ATOM     10  C   UNL     1       9.341  80.342  -0.620  1.00  0.00     0.336 C 
ATOM     11  O   UNL     1       8.998  79.838   0.485  1.00  0.00    -0.246 OA
BRANCH  10  12
ATOM     12  O   UNL     1       8.376  80.914  -1.454  1.00  0.00    -0.466 OA
ATOM     13  C   UNL     1       7.405  80.142  -2.149  1.00  0.00     0.282 C 
ENDBRANCH  10  12
ENDBRANCH   1  10
BRANCH   8  14
ATOM     14  C   UNL     1      10.822  78.008  -1.821  1.00  0.00     0.042 A 
ATOM     15  C   UNL     1       9.780  77.427  -2.572  1.00  0.00     0.012 A 
ATOM     16  C   UNL     1      11.423  77.241  -0.786  1.00  0.00     0.273 A 
ATOM     17  C   UNL     1       9.336  76.132  -2.299  1.00  0.00     0.001 A 
ATOM     18  C   UNL     1      10.952  75.947  -0.513  1.00  0.00     0.086 A 
ATOM     19  C   UNL     1       9.919  75.394  -1.269  1.00  0.00     0.007 A 
BRANCH  16  20
ATOM     20  N   UNL     1      12.491  77.762   0.009  1.00  0.00     0.063 N 
ATOM     21  O   UNL     1      12.197  78.542   1.104  1.00  0.00    -0.258 OA
ATOM     22  O   UNL     1      13.634  77.274  -0.096  1.00  0.00    -0.258 OA
ENDBRANCH  16  20
ENDBRANCH   8  14
BRANCH   7  23
ATOM     23  C   UNL     1      13.162  78.658  -3.621  1.00  0.00     0.336 C 
ATOM     24  O   UNL     1      13.409  77.440  -3.405  1.00  0.00    -0.246 OA
BRANCH  23  25
ATOM     25  O   UNL     1      13.368  79.197  -4.895  1.00  0.00    -0.466 OA
ATOM     26  C   UNL     1      14.219  78.588  -5.857  1.00  0.00     0.282 C 
ENDBRANCH  23  25
ENDBRANCH   7  23
TORSDOF 6
ENDMDL
MODEL 9
REMARK VINA RESULT:    -6.130      2.156      3.449
REMARK INTER + INTRA:          -8.807
REMARK INTER:                  -7.340
REMARK INTRA:                  -1.467
REMARK UNBOUND:                -0.526
REMARK SMILES COC(=O)C1=C(C)NC(C)=C(C(=O)OC)C1c1ccccc1[N+](=O)[O-]
REMARK SMILES IDX 5 1 6 2 7 3 8 4 9 5 10 6 11 7 16 8 3 10 4 11 2 12 1 13 17 14
REMARK SMILES IDX 18 15 22 16 19 17 21 18 20 19 23 20 25 21 24 22 12 23 13 24
REMARK SMILES IDX 14 25 15 26
REMARK H PARENT 8 9
REMARK Flexibility Score: inf
ROOT
ATOM      1  C   UNL     1      13.323  77.564   0.150  1.00  0.00     0.069 C 
ATOM      2  C   UNL     1      13.199  76.411   0.847  1.00  0.00     0.023 C 
ATOM      3  C   UNL     1      14.300  75.877   1.728  1.00  0.00     0.065 C 
ATOM      4  N   UNL     1      11.987  75.653   0.761  1.00  0.00    -0.362 N 
ATOM      5  C   UNL     1      10.910  76.003  -0.120  1.00  0.00     0.023 C 
ATOM      6  C   UNL     1       9.735  75.062  -0.202  1.00  0.00     0.065 C 
ATOM      7  C   UNL     1      10.969  77.151  -0.831  1.00  0.00     0.069 C 
ATOM      8  C   UNL     1      12.205  78.040  -0.769  1.00  0.00     0.105 C 
ATOM      9  H   UNL     1      11.889  74.796   1.351  1.00  0.00     0.166 HD
ENDROOT
BRANCH   1  10
ATOM     10  C   UNL     1      14.554  78.400   0.213  1.00  0.00     0.336 C 
ATOM     11  O   UNL     1      15.505  78.164  -0.583  1.00  0.00    -0.246 OA
BRANCH  10  12
ATOM     12  O   UNL     1      14.640  79.474   1.103  1.00  0.00    -0.466 OA
ATOM     13  C   UNL     1      14.753  80.824   0.671  1.00  0.00     0.282 C 
ENDBRANCH  10  12
ENDBRANCH   1  10
BRANCH   8  14
ATOM     14  C   UNL     1      11.814  79.477  -0.433  1.00  0.00     0.042 A 
ATOM     15  C   UNL     1      11.188  79.736   0.802  1.00  0.00     0.012 A 
ATOM     16  C   UNL     1      12.017  80.558  -1.334  1.00  0.00     0.273 A 
ATOM     17  C   UNL     1      10.762  81.025   1.132  1.00  0.00     0.001 A 
ATOM     18  C   UNL     1      11.566  81.843  -0.993  1.00  0.00     0.086 A 
ATOM     19  C   UNL     1      10.948  82.076   0.234  1.00  0.00     0.007 A 
BRANCH  16  20
ATOM     20  N   UNL     1      12.654  80.370  -2.600  1.00  0.00     0.063 N 
ATOM     21  O   UNL     1      14.029  80.358  -2.667  1.00  0.00    -0.258 OA
ATOM     22  O   UNL     1      11.998  79.918  -3.560  1.00  0.00    -0.258 OA
ENDBRANCH  16  20
ENDBRANCH   8  14
BRANCH   7  23
ATOM     23  C   UNL     1       9.873  77.567  -1.747  1.00  0.00     0.336 C 
ATOM     24  O   UNL     1       9.944  77.279  -2.973  1.00  0.00    -0.246 OA
BRANCH  23  25
ATOM     25  O   UNL     1       8.791  78.313  -1.267  1.00  0.00    -0.466 OA
ATOM     26  C   UNL     1       8.399  79.553  -1.841  1.00  0.00     0.282 C 
ENDBRANCH  23  25
ENDBRANCH   7  23
TORSDOF 6
ENDMDL
MODEL 10
REMARK VINA RESULT:    -6.027      2.077      4.983
REMARK INTER + INTRA:          -8.667
REMARK INTER:                  -7.933
REMARK INTRA:                  -0.734
REMARK UNBOUND:                -0.526
REMARK SMILES COC(=O)C1=C(C)NC(C)=C(C(=O)OC)C1c1ccccc1[N+](=O)[O-]
REMARK SMILES IDX 5 1 6 2 7 3 8 4 9 5 10 6 11 7 16 8 3 10 4 11 2 12 1 13 17 14
REMARK SMILES IDX 18 15 22 16 19 17 21 18 20 19 23 20 25 21 24 22 12 23 13 24
REMARK SMILES IDX 14 25 15 26
REMARK H PARENT 8 9
REMARK Flexibility Score: inf
ROOT
ATOM      1  C   UNL     1      10.331  79.174  -1.903  1.00  0.00     0.069 C 
ATOM      2  C   UNL     1      10.043  80.315  -2.569  1.00  0.00     0.023 C 
ATOM      3  C   UNL     1       8.724  81.030  -2.415  1.00  0.00     0.065 C 
ATOM      4  N   UNL     1      11.010  80.884  -3.460  1.00  0.00    -0.362 N 
ATOM      5  C   UNL     1      12.256  80.244  -3.768  1.00  0.00     0.023 C 
ATOM      6  C   UNL     1      13.138  80.889  -4.808  1.00  0.00     0.065 C 
ATOM      7  C   UNL     1      12.607  79.109  -3.124  1.00  0.00     0.069 C 
ATOM      8  C   UNL     1      11.656  78.456  -2.129  1.00  0.00     0.105 C 
ATOM      9  H   UNL     1      10.790  81.796  -3.920  1.00  0.00     0.166 HD
ENDROOT
BRANCH   1  10
ATOM     10  C   UNL     1       9.371  78.545  -0.955  1.00  0.00     0.336 C 
ATOM     11  O   UNL     1       9.044  79.162   0.097  1.00  0.00    -0.246 OA
BRANCH  10  12
ATOM     12  O   UNL     1       8.788  77.309  -1.247  1.00  0.00    -0.466 OA
ATOM     13  C   UNL     1       8.222  77.005  -2.516  1.00  0.00     0.282 C 
ENDBRANCH  10  12
ENDBRANCH   1  10
BRANCH   8  14
ATOM     14  C   UNL     1      12.361  78.207  -0.799  1.00  0.00     0.042 A 
ATOM     15  C   UNL     1      12.533  76.878  -0.363  1.00  0.00     0.012 A 
ATOM     16  C   UNL     1      12.815  79.262   0.039  1.00  0.00     0.273 A 
ATOM     17  C   UNL     1      13.124  76.600   0.872  1.00  0.00     0.001 A 
ATOM     18  C   UNL     1      13.389  78.965   1.285  1.00  0.00     0.086 A 
ATOM     19  C   UNL     1      13.548  77.642   1.696  1.00  0.00     0.007 A 
BRANCH  16  20
ATOM     20  N   UNL     1      12.682  80.633  -0.343  1.00  0.00     0.063 N 
ATOM     21  O   UNL     1      11.642  81.377   0.167  1.00  0.00    -0.258 OA
ATOM     22  O   UNL     1      13.647  81.223  -0.869  1.00  0.00    -0.258 OA
ENDBRANCH  16  20
ENDBRANCH   8  14
BRANCH   7  23
ATOM     23  C   UNL     1      13.894  78.415  -3.396  1.00  0.00     0.336 C 
ATOM     24  O   UNL     1      14.925  78.743  -2.748  1.00  0.00    -0.246 OA
BRANCH  23  25
ATOM     25  O   UNL     1      13.979  77.439  -4.394  1.00  0.00    -0.466 OA
ATOM     26  C   UNL     1      14.255  77.752  -5.753  1.00  0.00     0.282 C 
ENDBRANCH  23  25
ENDBRANCH   7  23
TORSDOF 6
ENDMDL
MODEL 11
REMARK VINA RESULT:    -5.921      1.535      4.499
REMARK INTER + INTRA:          -8.525
REMARK INTER:                  -7.573
REMARK INTRA:                  -0.951
REMARK UNBOUND:                -0.526
REMARK SMILES COC(=O)C1=C(C)NC(C)=C(C(=O)OC)C1c1ccccc1[N+](=O)[O-]
REMARK SMILES IDX 5 1 6 2 7 3 8 4 9 5 10 6 11 7 16 8 3 10 4 11 2 12 1 13 17 14
REMARK SMILES IDX 18 15 22 16 19 17 21 18 20 19 23 20 25 21 24 22 12 23 13 24
REMARK SMILES IDX 14 25 15 26
REMARK H PARENT 8 9
REMARK Flexibility Score: inf
ROOT
ATOM      1  C   UNL     1      11.015  76.775  -1.464  1.00  0.00     0.069 C 
ATOM      2  C   UNL     1      10.842  76.167  -2.659  1.00  0.00     0.023 C 
ATOM      3  C   UNL     1       9.824  75.075  -2.870  1.00  0.00     0.065 C 
ATOM      4  N   UNL     1      11.645  76.555  -3.780  1.00  0.00    -0.362 N 
ATOM      5  C   UNL     1      12.714  77.507  -3.679  1.00  0.00     0.023 C 
ATOM      6  C   UNL     1      13.558  77.748  -4.905  1.00  0.00     0.065 C 
ATOM      7  C   UNL     1      12.926  78.160  -2.515  1.00  0.00     0.069 C 
ATOM      8  C   UNL     1      12.092  77.838  -1.281  1.00  0.00     0.105 C 
ATOM      9  H   UNL     1      11.456  76.114  -4.708  1.00  0.00     0.166 HD
ENDROOT
BRANCH   1  10
ATOM     10  C   UNL     1      10.200  76.422  -0.269  1.00  0.00     0.336 C 
ATOM     11  O   UNL     1      10.708  75.706   0.639  1.00  0.00    -0.246 OA
BRANCH  10  12
ATOM     12  O   UNL     1       8.903  76.920  -0.119  1.00  0.00    -0.466 OA
ATOM     13  C   UNL     1       7.767  76.077   0.033  1.00  0.00     0.282 C 
ENDBRANCH  10  12
ENDBRANCH   1  10
BRANCH   8  14
ATOM     14  C   UNL     1      11.490  79.112  -0.695  1.00  0.00     0.042 A 
ATOM     15  C   UNL     1      10.332  79.650  -1.290  1.00  0.00     0.012 A 
ATOM     16  C   UNL     1      12.074  79.802   0.403  1.00  0.00     0.273 A 
ATOM     17  C   UNL     1       9.776  80.843  -0.824  1.00  0.00     0.001 A 
ATOM     18  C   UNL     1      11.512  81.009   0.846  1.00  0.00     0.086 A 
ATOM     19  C   UNL     1      10.367  81.524   0.240  1.00  0.00     0.007 A 
BRANCH  16  20
ATOM     20  N   UNL     1      13.244  79.309   1.062  1.00  0.00     0.063 N 
ATOM     21  O   UNL     1      14.381  80.084   1.083  1.00  0.00    -0.258 OA
ATOM     22  O   UNL     1      13.147  78.355   1.858  1.00  0.00    -0.258 OA
ENDBRANCH  16  20
ENDBRANCH   8  14
BRANCH   7  23
ATOM     23  C   UNL     1      14.011  79.167  -2.363  1.00  0.00     0.336 C 
ATOM     24  O   UNL     1      15.082  78.842  -1.783  1.00  0.00    -0.246 OA
BRANCH  23  25
ATOM     25  O   UNL     1      13.832  80.478  -2.816  1.00  0.00    -0.466 OA
ATOM     26  C   UNL     1      14.234  80.904  -4.111  1.00  0.00     0.282 C 
ENDBRANCH  23  25
ENDBRANCH   7  23
TORSDOF 6
ENDMDL
MODEL 12
REMARK VINA RESULT:    -5.868      2.413      4.768
REMARK INTER + INTRA:          -8.453
REMARK INTER:                  -7.478
REMARK INTRA:                  -0.975
REMARK UNBOUND:                -0.526
REMARK SMILES COC(=O)C1=C(C)NC(C)=C(C(=O)OC)C1c1ccccc1[N+](=O)[O-]
REMARK SMILES IDX 5 1 6 2 7 3 8 4 9 5 10 6 11 7 16 8 3 10 4 11 2 12 1 13 17 14
REMARK SMILES IDX 18 15 22 16 19 17 21 18 20 19 23 20 25 21 24 22 12 23 13 24
REMARK SMILES IDX 14 25 15 26
REMARK H PARENT 8 9
REMARK Flexibility Score: inf
ROOT
ATOM      1  C   UNL     1      11.576  78.623  -0.856  1.00  0.00     0.069 C 
ATOM      2  C   UNL     1      11.685  79.906  -1.271  1.00  0.00     0.023 C 
ATOM      3  C   UNL     1      12.977  80.678  -1.179  1.00  0.00     0.065 C 
ATOM      4  N   UNL     1      10.544  80.578  -1.817  1.00  0.00    -0.362 N 
ATOM      5  C   UNL     1       9.238  79.986  -1.861  1.00  0.00     0.023 C 
ATOM      6  C   UNL     1       8.097  80.837  -2.357  1.00  0.00     0.065 C 
ATOM      7  C   UNL     1       9.069  78.701  -1.475  1.00  0.00     0.069 C 
ATOM      8  C   UNL     1      10.237  77.898  -0.918  1.00  0.00     0.105 C 
ATOM      9  H   UNL     1      10.663  81.549  -2.184  1.00  0.00     0.166 HD
ENDROOT
BRANCH   1  10
ATOM     10  C   UNL     1      12.731  77.871  -0.293  1.00  0.00     0.336 C 
ATOM     11  O   UNL     1      13.796  77.777  -0.964  1.00  0.00    -0.246 OA
BRANCH  10  12
ATOM     12  O   UNL     1      12.664  77.320   0.990  1.00  0.00    -0.466 OA
ATOM     13  C   UNL     1      13.542  76.293   1.433  1.00  0.00     0.282 C 
ENDBRANCH  10  12
ENDBRANCH   1  10
BRANCH   8  14
ATOM     14  C   UNL     1      10.381  76.574  -1.664  1.00  0.00     0.042 A 
ATOM     15  C   UNL     1      10.974  76.580  -2.943  1.00  0.00     0.012 A 
ATOM     16  C   UNL     1       9.903  75.342  -1.141  1.00  0.00     0.273 A 
ATOM     17  C   UNL     1      11.080  75.404  -3.688  1.00  0.00     0.001 A 
ATOM     18  C   UNL     1      10.000  74.173  -1.912  1.00  0.00     0.086 A 
ATOM     19  C   UNL     1      10.590  74.203  -3.175  1.00  0.00     0.007 A 
BRANCH  16  20
ATOM     20  N   UNL     1       9.299  75.260   0.152  1.00  0.00     0.063 N 
ATOM     21  O   UNL     1       7.939  75.075   0.249  1.00  0.00    -0.258 OA
ATOM     22  O   UNL     1      10.012  75.048   1.154  1.00  0.00    -0.258 OA
ENDBRANCH  16  20
ENDBRANCH   8  14
BRANCH   7  23
ATOM     23  C   UNL     1       7.739  78.036  -1.516  1.00  0.00     0.336 C 
ATOM     24  O   UNL     1       7.304  77.583  -2.610  1.00  0.00    -0.246 OA
BRANCH  23  25
ATOM     25  O   UNL     1       6.951  77.950  -0.363  1.00  0.00    -0.466 OA
ATOM     26  C   UNL     1       6.666  79.076   0.457  1.00  0.00     0.282 C 
ENDBRANCH  23  25
ENDBRANCH   7  23
TORSDOF 6
ENDMDL
MODEL 13
REMARK VINA RESULT:    -5.812      2.076      4.127
REMARK INTER + INTRA:          -8.377
REMARK INTER:                  -8.185
REMARK INTRA:                  -0.192
REMARK UNBOUND:                -0.526
REMARK SMILES COC(=O)C1=C(C)NC(C)=C(C(=O)OC)C1c1ccccc1[N+](=O)[O-]
REMARK SMILES IDX 5 1 6 2 7 3 8 4 9 5 10 6 11 7 16 8 3 10 4 11 2 12 1 13 17 14
REMARK SMILES IDX 18 15 22 16 19 17 21 18 20 19 23 20 25 21 24 22 12 23 13 24
REMARK SMILES IDX 14 25 15 26
REMARK H PARENT 8 9
REMARK Flexibility Score: inf
ROOT
ATOM      1  C   UNL     1      13.738  78.930  -2.950  1.00  0.00     0.069 C 
ATOM      2  C   UNL     1      14.816  79.747  -2.922  1.00  0.00     0.023 C 
ATOM      3  C   UNL     1      15.673  79.996  -4.137  1.00  0.00     0.065 C 
ATOM      4  N   UNL     1      15.177  80.408  -1.703  1.00  0.00    -0.362 N 
ATOM      5  C   UNL     1      14.503  80.172  -0.460  1.00  0.00     0.023 C 
ATOM      6  C   UNL     1      15.050  80.845   0.774  1.00  0.00     0.065 C 
ATOM      7  C   UNL     1      13.410  79.378  -0.427  1.00  0.00     0.069 C 
ATOM      8  C   UNL     1      12.931  78.665  -1.685  1.00  0.00     0.105 C 
ATOM      9  H   UNL     1      15.978  81.079  -1.717  1.00  0.00     0.166 HD
ENDROOT
BRANCH   1  10
ATOM     10  C   UNL     1      13.308  78.228  -4.190  1.00  0.00     0.336 C 
ATOM     11  O   UNL     1      12.714  77.118  -4.100  1.00  0.00    -0.246 OA
BRANCH  10  12
ATOM     12  O   UNL     1      13.507  78.812  -5.445  1.00  0.00    -0.466 OA
ATOM     13  C   UNL     1      14.249  78.179  -6.479  1.00  0.00     0.282 C 
ENDBRANCH  10  12
ENDBRANCH   1  10
BRANCH   8  14
ATOM     14  C   UNL     1      11.450  78.946  -1.929  1.00  0.00     0.042 A 
ATOM     15  C   UNL     1      11.053  80.264  -2.230  1.00  0.00     0.012 A 
ATOM     16  C   UNL     1      10.450  77.942  -1.821  1.00  0.00     0.273 A 
ATOM     17  C   UNL     1       9.704  80.582  -2.408  1.00  0.00     0.001 A 
ATOM     18  C   UNL     1       9.099  78.283  -1.984  1.00  0.00     0.086 A 
ATOM     19  C   UNL     1       8.729  79.594  -2.282  1.00  0.00     0.007 A 
BRANCH  16  20
ATOM     20  N   UNL     1      10.782  76.582  -1.527  1.00  0.00     0.063 N 
ATOM     21  O   UNL     1      11.150  76.241  -0.245  1.00  0.00    -0.258 OA
ATOM     22  O   UNL     1      10.448  75.680  -2.321  1.00  0.00    -0.258 OA
ENDBRANCH  16  20
ENDBRANCH   8  14
BRANCH   7  23
ATOM     23  C   UNL     1      12.666  79.113   0.834  1.00  0.00     0.336 C 
ATOM     24  O   UNL     1      13.014  78.149   1.569  1.00  0.00    -0.246 OA
BRANCH  23  25
ATOM     25  O   UNL     1      11.560  79.895   1.185  1.00  0.00    -0.466 OA
ATOM     26  C   UNL     1      11.680  81.112   1.909  1.00  0.00     0.282 C 
ENDBRANCH  23  25
ENDBRANCH   7  23
TORSDOF 6
ENDMDL
MODEL 14
REMARK VINA RESULT:    -5.714      2.398      4.143
REMARK INTER + INTRA:          -8.244
REMARK INTER:                  -7.578
REMARK INTRA:                  -0.666
REMARK UNBOUND:                -0.526
REMARK SMILES COC(=O)C1=C(C)NC(C)=C(C(=O)OC)C1c1ccccc1[N+](=O)[O-]
REMARK SMILES IDX 5 1 6 2 7 3 8 4 9 5 10 6 11 7 16 8 3 10 4 11 2 12 1 13 17 14
REMARK SMILES IDX 18 15 22 16 19 17 21 18 20 19 23 20 25 21 24 22 12 23 13 24
REMARK SMILES IDX 14 25 15 26
REMARK H PARENT 8 9
REMARK Flexibility Score: inf
ROOT
ATOM      1  C   UNL     1       9.645  79.366  -0.868  1.00  0.00     0.069 C 
ATOM      2  C   UNL     1       8.738  79.472  -1.865  1.00  0.00     0.023 C 
ATOM      3  C   UNL     1       8.130  80.792  -2.267  1.00  0.00     0.065 C 
ATOM      4  N   UNL     1       8.322  78.301  -2.579  1.00  0.00    -0.362 N 
ATOM      5  C   UNL     1       8.750  76.980  -2.222  1.00  0.00     0.023 C 
ATOM      6  C   UNL     1       8.154  75.820  -2.980  1.00  0.00     0.065 C 
ATOM      7  C   UNL     1       9.668  76.810  -1.244  1.00  0.00     0.069 C 
ATOM      8  C   UNL     1      10.195  78.005  -0.459  1.00  0.00     0.105 C 
ATOM      9  H   UNL     1       7.665  78.413  -3.383  1.00  0.00     0.166 HD
ENDROOT
BRANCH   1  10
ATOM     10  C   UNL     1      10.124  80.550  -0.102  1.00  0.00     0.336 C 
ATOM     11  O   UNL     1       9.770  80.694   1.101  1.00  0.00    -0.246 OA
BRANCH  10  12
ATOM     12  O   UNL     1      11.003  81.467  -0.686  1.00  0.00    -0.466 OA
ATOM     13  C   UNL     1      12.381  81.537  -0.343  1.00  0.00     0.282 C 
ENDBRANCH  10  12
ENDBRANCH   1  10
BRANCH   8  14
ATOM     14  C   UNL     1      11.721  78.020  -0.469  1.00  0.00     0.042 A 
ATOM     15  C   UNL     1      12.408  77.833   0.747  1.00  0.00     0.012 A 
ATOM     16  C   UNL     1      12.479  78.258  -1.649  1.00  0.00     0.273 A 
ATOM     17  C   UNL     1      13.802  77.893   0.799  1.00  0.00     0.001 A 
ATOM     18  C   UNL     1      13.878  78.333  -1.575  1.00  0.00     0.086 A 
ATOM     19  C   UNL     1      14.536  78.146  -0.359  1.00  0.00     0.007 A 
BRANCH  16  20
ATOM     20  N   UNL     1      11.850  78.447  -2.919  1.00  0.00     0.063 N 
ATOM     21  O   UNL     1      11.741  79.718  -3.434  1.00  0.00    -0.258 OA
ATOM     22  O   UNL     1      11.687  77.471  -3.678  1.00  0.00    -0.258 OA
ENDBRANCH  16  20
ENDBRANCH   8  14
BRANCH   7  23
ATOM     23  C   UNL     1      10.155  75.462  -0.847  1.00  0.00     0.336 C 
ATOM     24  O   UNL     1      10.165  75.139   0.372  1.00  0.00    -0.246 OA
BRANCH  23  25
ATOM     25  O   UNL     1      10.645  74.572  -1.808  1.00  0.00    -0.466 OA
ATOM     26  C   UNL     1      10.283  73.197  -1.837  1.00  0.00     0.282 C 
ENDBRANCH  23  25
ENDBRANCH   7  23
TORSDOF 6
ENDMDL
MODEL 15
REMARK VINA RESULT:    -5.576      2.254      3.628
REMARK INTER + INTRA:          -8.059
REMARK INTER:                  -8.248
REMARK INTRA:                   0.189
REMARK UNBOUND:                -0.526
REMARK SMILES COC(=O)C1=C(C)NC(C)=C(C(=O)OC)C1c1ccccc1[N+](=O)[O-]
REMARK SMILES IDX 5 1 6 2 7 3 8 4 9 5 10 6 11 7 16 8 3 10 4 11 2 12 1 13 17 14
REMARK SMILES IDX 18 15 22 16 19 17 21 18 20 19 23 20 25 21 24 22 12 23 13 24
REMARK SMILES IDX 14 25 15 26
REMARK H PARENT 8 9
REMARK Flexibility Score: inf
ROOT
ATOM      1  C   UNL     1      12.656  78.777  -2.142  1.00  0.00     0.069 C 
ATOM      2  C   UNL     1      13.810  78.823  -1.439  1.00  0.00     0.023 C 
ATOM      3  C   UNL     1      14.958  79.721  -1.827  1.00  0.00     0.065 C 
ATOM      4  N   UNL     1      13.973  77.996  -0.280  1.00  0.00    -0.362 N 
ATOM      5  C   UNL     1      12.996  77.029   0.129  1.00  0.00     0.023 C 
ATOM      6  C   UNL     1      13.334  76.142   1.300  1.00  0.00     0.065 C 
ATOM      7  C   UNL     1      11.816  76.946  -0.526  1.00  0.00     0.069 C 
ATOM      8  C   UNL     1      11.542  77.816  -1.745  1.00  0.00     0.105 C 
ATOM      9  H   UNL     1      14.848  78.090   0.282  1.00  0.00     0.166 HD
ENDROOT
BRANCH   1  10
ATOM     10  C   UNL     1      12.427  79.623  -3.346  1.00  0.00     0.336 C 
ATOM     11  O   UNL     1      11.494  80.473  -3.338  1.00  0.00    -0.246 OA
BRANCH  10  12
ATOM     12  O   UNL     1      13.268  79.522  -4.457  1.00  0.00    -0.466 OA
ATOM     13  C   UNL     1      13.629  80.645  -5.253  1.00  0.00     0.282 C 
ENDBRANCH  10  12
ENDBRANCH   1  10
BRANCH   8  14
ATOM     14  C   UNL     1      10.223  78.566  -1.582  1.00  0.00     0.042 A 
ATOM     15  C   UNL     1       9.094  78.112  -2.293  1.00  0.00     0.012 A 
ATOM     16  C   UNL     1      10.096  79.730  -0.776  1.00  0.00     0.273 A 
ATOM     17  C   UNL     1       7.879  78.796  -2.219  1.00  0.00     0.001 A 
ATOM     18  C   UNL     1       8.872  80.416  -0.729  1.00  0.00     0.086 A 
ATOM     19  C   UNL     1       7.769  79.948  -1.441  1.00  0.00     0.007 A 
BRANCH  16  20
ATOM     20  N   UNL     1      11.197  80.243  -0.021  1.00  0.00     0.063 N 
ATOM     21  O   UNL     1      11.731  81.466  -0.354  1.00  0.00    -0.258 OA
ATOM     22  O   UNL     1      11.463  79.750   1.094  1.00  0.00    -0.258 OA
ENDBRANCH  16  20
ENDBRANCH   8  14
BRANCH   7  23
ATOM     23  C   UNL     1      10.765  75.970  -0.132  1.00  0.00     0.336 C 
ATOM     24  O   UNL     1       9.939  76.277   0.771  1.00  0.00    -0.246 OA
BRANCH  23  25
ATOM     25  O   UNL     1      10.715  74.702  -0.720  1.00  0.00    -0.466 OA
ATOM     26  C   UNL     1       9.804  74.375  -1.762  1.00  0.00     0.282 C 
ENDBRANCH  23  25
ENDBRANCH   7  23
TORSDOF 6
ENDMDL
