MODEL 1
REMARK VINA RESULT:    -8.695      0.000      0.000
REMARK INTER + INTRA:         -13.383
REMARK INTER:                 -12.508
REMARK INTRA:                  -0.875
REMARK UNBOUND:                -0.875
REMARK SMILES Cc1nc(Nc2ncc(C(=O)Nc3c(C)cccc3Cl)s2)cc(N2CCN(CCO)CC2)n1
REMARK SMILES IDX 1 1 2 2 3 3 4 4 22 5 23 6 33 7 5 8 6 10 7 11 21 12 8 13 9 14
REMARK SMILES IDX 10 15 11 16 12 17 13 19 14 20 19 21 15 22 16 23 18 24 20 25
REMARK SMILES IDX 17 26 24 27 25 28 32 29 26 30 31 31 27 32 28 33 29 34 30 35
REMARK H PARENT 5 9 12 18 30 36
REMARK Flexibility Score: inf
ROOT
ATOM      1  C   UNL     1     -79.619 -18.644  83.610  1.00  0.00     0.090 C 
ATOM      2  C   UNL     1     -79.492 -19.360  84.912  1.00  0.00     0.130 A 
ATOM      3  N   UNL     1     -78.323 -19.315  85.603  1.00  0.00    -0.216 NA
ATOM      4  C   UNL     1     -78.186 -19.942  86.803  1.00  0.00     0.137 A 
ATOM      5  C   UNL     1     -79.275 -20.638  87.342  1.00  0.00     0.094 A 
ATOM      6  C   UNL     1     -80.473 -20.690  86.615  1.00  0.00     0.134 A 
ATOM      7  N   UNL     1     -80.557 -20.030  85.426  1.00  0.00    -0.216 NA
ENDROOT
BRANCH   4   8
ATOM      8  N   UNL     1     -76.950 -19.862  87.532  1.00  0.00    -0.316 N 
ATOM      9  H   UNL     1     -76.298 -20.676  87.504  1.00  0.00     0.170 HD
BRANCH   8  10
ATOM     10  C   UNL     1     -76.518 -18.689  88.234  1.00  0.00     0.189 A 
ATOM     11  N   UNL     1     -76.122 -17.548  87.627  1.00  0.00    -0.228 NA
ATOM     12  S   UNL     1     -76.340 -18.606  89.905  1.00  0.00    -0.091 S 
ATOM     13  C   UNL     1     -75.695 -16.621  88.526  1.00  0.00     0.139 A 
ATOM     14  C   UNL     1     -75.745 -17.029  89.856  1.00  0.00     0.114 A 
BRANCH  14  15
ATOM     15  C   UNL     1     -75.314 -16.228  91.016  1.00  0.00     0.267 C 
ATOM     16  O   UNL     1     -76.126 -15.420  91.549  1.00  0.00    -0.268 OA
ATOM     17  N   UNL     1     -73.989 -16.366  91.548  1.00  0.00    -0.320 N 
ATOM     18  H   UNL     1     -73.412 -17.195  91.281  1.00  0.00     0.170 HD
BRANCH  17  19
ATOM     19  C   UNL     1     -73.511 -15.514  92.601  1.00  0.00     0.063 A 
ATOM     20  C   UNL     1     -72.814 -14.323  92.289  1.00  0.00    -0.026 A 
ATOM     21  C   UNL     1     -73.748 -15.850  93.952  1.00  0.00     0.064 A 
ATOM     22  C   UNL     1     -72.569 -13.930  90.856  1.00  0.00     0.046 C 
ATOM     23  C   UNL     1     -72.350 -13.501  93.331  1.00  0.00     0.005 A 
ATOM     24  C   UNL     1     -73.281 -15.019  94.976  1.00  0.00     0.023 A 
ATOM     25  Cl  UNL     1     -74.674 -17.286  94.388  1.00  0.00    -0.082 Cl
ATOM     26  C   UNL     1     -72.578 -13.852  94.667  1.00  0.00     0.002 A 
ENDBRANCH  17  19
ENDBRANCH  14  15
ENDBRANCH   8  10
ENDBRANCH   4   8
BRANCH   6  27
ATOM     27  N   UNL     1     -81.625 -21.382  87.130  1.00  0.00    -0.354 N 
ATOM     28  C   UNL     1     -82.662 -21.844  86.202  1.00  0.00     0.133 C 
ATOM     29  C   UNL     1     -81.714 -21.785  88.538  1.00  0.00     0.133 C 
ATOM     30  C   UNL     1     -83.886 -22.371  86.972  1.00  0.00     0.106 C 
ATOM     31  C   UNL     1     -83.095 -21.417  89.114  1.00  0.00     0.106 C 
ATOM     32  N   UNL     1     -84.209 -21.502  88.125  1.00  0.00    -0.298 NA
BRANCH  32  33
ATOM     33  C   UNL     1     -84.705 -20.167  87.699  1.00  0.00     0.112 C 
BRANCH  33  34
ATOM     34  C   UNL     1     -85.095 -19.319  88.915  1.00  0.00     0.171 C 
BRANCH  34  35
ATOM     35  O   UNL     1     -84.732 -17.978  88.727  1.00  0.00    -0.395 OA
ATOM     36  H   UNL     1     -83.931 -17.975  88.132  1.00  0.00     0.210 HD
ENDBRANCH  34  35
ENDBRANCH  33  34
ENDBRANCH  32  33
ENDBRANCH   6  27
TORSDOF 8
ENDMDL
MODEL 2
REMARK VINA RESULT:    -8.641      1.030      1.585
REMARK INTER + INTRA:         -13.305
REMARK INTER:                 -12.355
REMARK INTRA:                  -0.950
REMARK UNBOUND:                -0.875
REMARK SMILES Cc1nc(Nc2ncc(C(=O)Nc3c(C)cccc3Cl)s2)cc(N2CCN(CCO)CC2)n1
REMARK SMILES IDX 1 1 2 2 3 3 4 4 22 5 23 6 33 7 5 8 6 10 7 11 21 12 8 13 9 14
REMARK SMILES IDX 10 15 11 16 12 17 13 19 14 20 19 21 15 22 16 23 18 24 20 25
REMARK SMILES IDX 17 26 24 27 25 28 32 29 26 30 31 31 27 32 28 33 29 34 30 35
REMARK H PARENT 5 9 12 18 30 36
REMARK Flexibility Score: inf
ROOT
ATOM      1  C   UNL     1     -79.427 -18.913  83.696  1.00  0.00     0.090 C 
ATOM      2  C   UNL     1     -79.368 -19.537  85.049  1.00  0.00     0.130 A 
ATOM      3  N   UNL     1     -78.223 -19.475  85.778  1.00  0.00    -0.216 NA
ATOM      4  C   UNL     1     -78.148 -20.018  87.024  1.00  0.00     0.137 A 
ATOM      5  C   UNL     1     -79.275 -20.644  87.569  1.00  0.00     0.094 A 
ATOM      6  C   UNL     1     -80.448 -20.715  86.803  1.00  0.00     0.134 A 
ATOM      7  N   UNL     1     -80.469 -20.139  85.568  1.00  0.00    -0.216 NA
ENDROOT
BRANCH   4   8
ATOM      8  N   UNL     1     -76.936 -19.921  87.791  1.00  0.00    -0.316 N 
ATOM      9  H   UNL     1     -76.296 -20.744  87.823  1.00  0.00     0.170 HD
BRANCH   8  10
ATOM     10  C   UNL     1     -76.511 -18.723  88.452  1.00  0.00     0.189 A 
ATOM     11  N   UNL     1     -76.141 -17.594  87.807  1.00  0.00    -0.228 NA
ATOM     12  S   UNL     1     -76.308 -18.588  90.117  1.00  0.00    -0.091 S 
ATOM     13  C   UNL     1     -75.714 -16.635  88.671  1.00  0.00     0.139 A 
ATOM     14  C   UNL     1     -75.738 -17.005  90.013  1.00  0.00     0.114 A 
BRANCH  14  15
ATOM     15  C   UNL     1     -75.300 -16.165  91.143  1.00  0.00     0.267 C 
ATOM     16  O   UNL     1     -76.073 -15.270  91.586  1.00  0.00    -0.268 OA
ATOM     17  N   UNL     1     -74.014 -16.362  91.747  1.00  0.00    -0.320 N 
ATOM     18  H   UNL     1     -73.488 -17.246  91.558  1.00  0.00     0.170 HD
BRANCH  17  19
ATOM     19  C   UNL     1     -73.521 -15.482  92.769  1.00  0.00     0.063 A 
ATOM     20  C   UNL     1     -73.729 -15.792  94.133  1.00  0.00    -0.026 A 
ATOM     21  C   UNL     1     -72.813 -14.311  92.419  1.00  0.00     0.064 A 
ATOM     22  C   UNL     1     -74.461 -17.047  94.532  1.00  0.00     0.046 C 
ATOM     23  C   UNL     1     -73.243 -14.918  95.122  1.00  0.00     0.005 A 
ATOM     24  C   UNL     1     -72.335 -13.454  93.417  1.00  0.00     0.023 A 
ATOM     25  Cl  UNL     1     -72.467 -13.920  90.735  1.00  0.00    -0.082 Cl
ATOM     26  C   UNL     1     -72.556 -13.754  94.764  1.00  0.00     0.002 A 
ENDBRANCH  17  19
ENDBRANCH  14  15
ENDBRANCH   8  10
ENDBRANCH   4   8
BRANCH   6  27
ATOM     27  N   UNL     1     -81.638 -21.337  87.322  1.00  0.00    -0.354 N 
ATOM     28  C   UNL     1     -82.645 -21.852  86.390  1.00  0.00     0.133 C 
ATOM     29  C   UNL     1     -81.796 -21.618  88.753  1.00  0.00     0.133 C 
ATOM     30  C   UNL     1     -83.914 -22.286  87.146  1.00  0.00     0.106 C 
ATOM     31  C   UNL     1     -83.191 -21.174  89.235  1.00  0.00     0.106 C 
ATOM     32  N   UNL     1     -84.264 -21.317  88.208  1.00  0.00    -0.298 NA
BRANCH  32  33
ATOM     33  C   UNL     1     -84.707 -20.012  87.651  1.00  0.00     0.112 C 
BRANCH  33  34
ATOM     34  C   UNL     1     -84.084 -18.849  88.432  1.00  0.00     0.171 C 
BRANCH  34  35
ATOM     35  O   UNL     1     -85.055 -17.894  88.766  1.00  0.00    -0.395 OA
ATOM     36  H   UNL     1     -84.566 -17.085  89.089  1.00  0.00     0.210 HD
ENDBRANCH  34  35
ENDBRANCH  33  34
ENDBRANCH  32  33
ENDBRANCH   6  27
TORSDOF 8
ENDMDL
MODEL 3
REMARK VINA RESULT:    -8.630      2.199      2.548
REMARK INTER + INTRA:         -13.290
REMARK INTER:                 -12.196
REMARK INTRA:                  -1.093
REMARK UNBOUND:                -0.875
REMARK SMILES Cc1nc(Nc2ncc(C(=O)Nc3c(C)cccc3Cl)s2)cc(N2CCN(CCO)CC2)n1
REMARK SMILES IDX 1 1 2 2 3 3 4 4 22 5 23 6 33 7 5 8 6 10 7 11 21 12 8 13 9 14
REMARK SMILES IDX 10 15 11 16 12 17 13 19 14 20 19 21 15 22 16 23 18 24 20 25
REMARK SMILES IDX 17 26 24 27 25 28 32 29 26 30 31 31 27 32 28 33 29 34 30 35
REMARK H PARENT 5 9 12 18 30 36
REMARK Flexibility Score: inf
ROOT
ATOM      1  C   UNL     1     -80.579 -18.375  82.635  1.00  0.00     0.090 C 
ATOM      2  C   UNL     1     -80.418 -19.084  83.936  1.00  0.00     0.130 A 
ATOM      3  N   UNL     1     -79.183 -19.232  84.484  1.00  0.00    -0.216 NA
ATOM      4  C   UNL     1     -79.010 -19.857  85.681  1.00  0.00     0.137 A 
ATOM      5  C   UNL     1     -80.127 -20.349  86.366  1.00  0.00     0.094 A 
ATOM      6  C   UNL     1     -81.396 -20.204  85.786  1.00  0.00     0.134 A 
ATOM      7  N   UNL     1     -81.510 -19.555  84.594  1.00  0.00    -0.216 NA
ENDROOT
BRANCH   4   8
ATOM      8  N   UNL     1     -77.699 -19.982  86.257  1.00  0.00    -0.316 N 
ATOM      9  H   UNL     1     -77.095 -20.779  85.961  1.00  0.00     0.170 HD
BRANCH   8  10
ATOM     10  C   UNL     1     -77.136 -19.021  87.159  1.00  0.00     0.189 A 
ATOM     11  N   UNL     1     -76.617 -17.834  86.773  1.00  0.00    -0.228 NA
ATOM     12  S   UNL     1     -76.943 -19.282  88.810  1.00  0.00    -0.091 S 
ATOM     13  C   UNL     1     -76.085 -17.151  87.821  1.00  0.00     0.139 A 
ATOM     14  C   UNL     1     -76.175 -17.800  89.049  1.00  0.00     0.114 A 
BRANCH  14  15
ATOM     15  C   UNL     1     -75.652 -17.291  90.330  1.00  0.00     0.267 C 
ATOM     16  O   UNL     1     -74.717 -16.440  90.323  1.00  0.00    -0.268 OA
ATOM     17  N   UNL     1     -76.200 -17.743  91.576  1.00  0.00    -0.320 N 
ATOM     18  H   UNL     1     -77.120 -18.237  91.583  1.00  0.00     0.170 HD
BRANCH  17  19
ATOM     19  C   UNL     1     -75.628 -17.349  92.834  1.00  0.00     0.063 A 
ATOM     20  C   UNL     1     -76.120 -16.207  93.510  1.00  0.00    -0.026 A 
ATOM     21  C   UNL     1     -74.586 -18.107  93.410  1.00  0.00     0.064 A 
ATOM     22  C   UNL     1     -77.247 -15.396  92.927  1.00  0.00     0.046 C 
ATOM     23  C   UNL     1     -75.548 -15.834  94.739  1.00  0.00     0.005 A 
ATOM     24  C   UNL     1     -74.031 -17.721  94.635  1.00  0.00     0.023 A 
ATOM     25  Cl  UNL     1     -73.990 -19.577  92.641  1.00  0.00    -0.082 Cl
ATOM     26  C   UNL     1     -74.506 -16.584  95.294  1.00  0.00     0.002 A 
ENDBRANCH  17  19
ENDBRANCH  14  15
ENDBRANCH   8  10
ENDBRANCH   4   8
BRANCH   6  27
ATOM     27  N   UNL     1     -82.578 -20.681  86.456  1.00  0.00    -0.354 N 
ATOM     28  C   UNL     1     -83.575 -19.717  86.930  1.00  0.00     0.133 C 
ATOM     29  C   UNL     1     -82.893 -22.112  86.531  1.00  0.00     0.133 C 
ATOM     30  C   UNL     1     -84.644 -20.418  87.788  1.00  0.00     0.106 C 
ATOM     31  C   UNL     1     -83.310 -22.493  87.965  1.00  0.00     0.106 C 
ATOM     32  N   UNL     1     -84.036 -21.415  88.696  1.00  0.00    -0.298 NA
BRANCH  32  33
ATOM     33  C   UNL     1     -83.210 -20.777  89.754  1.00  0.00     0.112 C 
BRANCH  33  34
ATOM     34  C   UNL     1     -81.928 -21.581  90.000  1.00  0.00     0.171 C 
BRANCH  34  35
ATOM     35  O   UNL     1     -81.662 -21.691  91.372  1.00  0.00    -0.395 OA
ATOM     36  H   UNL     1     -82.342 -22.316  91.750  1.00  0.00     0.210 HD
ENDBRANCH  34  35
ENDBRANCH  33  34
ENDBRANCH  32  33
ENDBRANCH   6  27
TORSDOF 8
ENDMDL
MODEL 4
REMARK VINA RESULT:    -8.580      4.473     11.719
REMARK INTER + INTRA:         -13.218
REMARK INTER:                 -12.176
REMARK INTRA:                  -1.042
REMARK UNBOUND:                -0.875
REMARK SMILES Cc1nc(Nc2ncc(C(=O)Nc3c(C)cccc3Cl)s2)cc(N2CCN(CCO)CC2)n1
REMARK SMILES IDX 1 1 2 2 3 3 4 4 22 5 23 6 33 7 5 8 6 10 7 11 21 12 8 13 9 14
REMARK SMILES IDX 10 15 11 16 12 17 13 19 14 20 19 21 15 22 16 23 18 24 20 25
REMARK SMILES IDX 17 26 24 27 25 28 32 29 26 30 31 31 27 32 28 33 29 34 30 35
REMARK H PARENT 5 9 12 18 30 36
REMARK Flexibility Score: inf
ROOT
ATOM      1  C   UNL     1     -72.385  -9.191  94.106  1.00  0.00     0.090 C 
ATOM      2  C   UNL     1     -72.383 -10.594  94.611  1.00  0.00     0.130 A 
ATOM      3  N   UNL     1     -72.061 -11.618  93.779  1.00  0.00    -0.216 NA
ATOM      4  C   UNL     1     -72.031 -12.906  94.219  1.00  0.00     0.137 A 
ATOM      5  C   UNL     1     -72.330 -13.180  95.559  1.00  0.00     0.094 A 
ATOM      6  C   UNL     1     -72.675 -12.118  96.407  1.00  0.00     0.134 A 
ATOM      7  N   UNL     1     -72.672 -10.848  95.915  1.00  0.00    -0.216 NA
ENDROOT
BRANCH   4   8
ATOM      8  N   UNL     1     -71.662 -13.973  93.330  1.00  0.00    -0.316 N 
ATOM      9  H   UNL     1     -70.764 -14.478  93.496  1.00  0.00     0.170 HD
BRANCH   8  10
ATOM     10  C   UNL     1     -72.501 -14.445  92.268  1.00  0.00     0.189 A 
ATOM     11  N   UNL     1     -72.517 -13.916  91.024  1.00  0.00    -0.228 NA
ATOM     12  S   UNL     1     -73.661 -15.651  92.451  1.00  0.00    -0.091 S 
ATOM     13  C   UNL     1     -73.457 -14.504  90.237  1.00  0.00     0.139 A 
ATOM     14  C   UNL     1     -74.199 -15.504  90.860  1.00  0.00     0.114 A 
BRANCH  14  15
ATOM     15  C   UNL     1     -75.293 -16.273  90.240  1.00  0.00     0.267 C 
ATOM     16  O   UNL     1     -76.480 -16.089  90.632  1.00  0.00    -0.268 OA
ATOM     17  N   UNL     1     -75.023 -17.216  89.193  1.00  0.00    -0.320 N 
ATOM     18  H   UNL     1     -74.102 -17.187  88.700  1.00  0.00     0.170 HD
BRANCH  17  19
ATOM     19  C   UNL     1     -76.057 -18.058  88.657  1.00  0.00     0.063 A 
ATOM     20  C   UNL     1     -76.616 -17.775  87.388  1.00  0.00    -0.026 A 
ATOM     21  C   UNL     1     -76.507 -19.182  89.384  1.00  0.00     0.064 A 
ATOM     22  C   UNL     1     -76.135 -16.597  86.583  1.00  0.00     0.046 C 
ATOM     23  C   UNL     1     -77.628 -18.607  86.879  1.00  0.00     0.005 A 
ATOM     24  C   UNL     1     -77.515 -20.000  88.859  1.00  0.00     0.023 A 
ATOM     25  Cl  UNL     1     -75.791 -19.616  90.935  1.00  0.00    -0.082 Cl
ATOM     26  C   UNL     1     -78.078 -19.709  87.614  1.00  0.00     0.002 A 
ENDBRANCH  17  19
ENDBRANCH  14  15
ENDBRANCH   8  10
ENDBRANCH   4   8
BRANCH   6  27
ATOM     27  N   UNL     1     -72.979 -12.345  97.796  1.00  0.00    -0.354 N 
ATOM     28  C   UNL     1     -72.313 -13.440  98.508  1.00  0.00     0.133 C 
ATOM     29  C   UNL     1     -73.810 -11.412  98.564  1.00  0.00     0.133 C 
ATOM     30  C   UNL     1     -72.927 -13.633  99.907  1.00  0.00     0.106 C 
ATOM     31  C   UNL     1     -74.862 -12.182  99.384  1.00  0.00     0.106 C 
ATOM     32  N   UNL     1     -74.401 -13.517  99.866  1.00  0.00    -0.298 NA
BRANCH  32  33
ATOM     33  C   UNL     1     -75.032 -14.645  99.132  1.00  0.00     0.112 C 
BRANCH  33  34
ATOM     34  C   UNL     1     -76.274 -14.170  98.370  1.00  0.00     0.171 C 
BRANCH  34  35
ATOM     35  O   UNL     1     -76.125 -14.378  96.991  1.00  0.00    -0.395 OA
ATOM     36  H   UNL     1     -75.887 -15.339  96.867  1.00  0.00     0.210 HD
ENDBRANCH  34  35
ENDBRANCH  33  34
ENDBRANCH  32  33
ENDBRANCH   6  27
TORSDOF 8
ENDMDL
MODEL 5
REMARK VINA RESULT:    -8.470      3.850      9.656
REMARK INTER + INTRA:         -13.059
REMARK INTER:                 -12.318
REMARK INTRA:                  -0.742
REMARK UNBOUND:                -0.875
REMARK SMILES Cc1nc(Nc2ncc(C(=O)Nc3c(C)cccc3Cl)s2)cc(N2CCN(CCO)CC2)n1
REMARK SMILES IDX 1 1 2 2 3 3 4 4 22 5 23 6 33 7 5 8 6 10 7 11 21 12 8 13 9 14
REMARK SMILES IDX 10 15 11 16 12 17 13 19 14 20 19 21 15 22 16 23 18 24 20 25
REMARK SMILES IDX 17 26 24 27 25 28 32 29 26 30 31 31 27 32 28 33 29 34 30 35
REMARK H PARENT 5 9 12 18 30 36
REMARK Flexibility Score: inf
ROOT
ATOM      1  C   UNL     1     -73.472 -22.851  93.275  1.00  0.00     0.090 C 
ATOM      2  C   UNL     1     -74.435 -21.833  92.765  1.00  0.00     0.130 A 
ATOM      3  N   UNL     1     -75.688 -22.206  92.393  1.00  0.00    -0.216 NA
ATOM      4  C   UNL     1     -76.593 -21.294  91.944  1.00  0.00     0.137 A 
ATOM      5  C   UNL     1     -76.229 -19.945  91.870  1.00  0.00     0.094 A 
ATOM      6  C   UNL     1     -74.929 -19.571  92.242  1.00  0.00     0.134 A 
ATOM      7  N   UNL     1     -74.071 -20.525  92.701  1.00  0.00    -0.216 NA
ENDROOT
BRANCH   4   8
ATOM      8  N   UNL     1     -77.922 -21.703  91.580  1.00  0.00    -0.316 N 
ATOM      9  H   UNL     1     -78.492 -22.233  92.275  1.00  0.00     0.170 HD
BRANCH   8  10
ATOM     10  C   UNL     1     -78.547 -21.351  90.339  1.00  0.00     0.189 A 
ATOM     11  N   UNL     1     -79.881 -21.387  90.127  1.00  0.00    -0.228 NA
ATOM     12  S   UNL     1     -77.701 -20.950  88.940  1.00  0.00    -0.091 S 
ATOM     13  C   UNL     1     -80.197 -21.076  88.842  1.00  0.00     0.139 A 
ATOM     14  C   UNL     1     -79.107 -20.796  88.023  1.00  0.00     0.114 A 
BRANCH  14  15
ATOM     15  C   UNL     1     -79.175 -20.462  86.589  1.00  0.00     0.267 C 
ATOM     16  O   UNL     1     -79.450 -21.369  85.753  1.00  0.00    -0.268 OA
ATOM     17  N   UNL     1     -78.943 -19.120  86.138  1.00  0.00    -0.320 N 
ATOM     18  H   UNL     1     -78.969 -18.336  86.827  1.00  0.00     0.170 HD
BRANCH  17  19
ATOM     19  C   UNL     1     -78.890 -18.797  84.739  1.00  0.00     0.063 A 
ATOM     20  C   UNL     1     -77.644 -18.554  84.115  1.00  0.00    -0.026 A 
ATOM     21  C   UNL     1     -80.077 -18.738  83.977  1.00  0.00     0.064 A 
ATOM     22  C   UNL     1     -76.362 -18.635  84.901  1.00  0.00     0.046 C 
ATOM     23  C   UNL     1     -77.608 -18.236  82.746  1.00  0.00     0.005 A 
ATOM     24  C   UNL     1     -80.021 -18.422  82.614  1.00  0.00     0.023 A 
ATOM     25  Cl  UNL     1     -81.645 -19.104  84.694  1.00  0.00    -0.082 Cl
ATOM     26  C   UNL     1     -78.792 -18.165  82.003  1.00  0.00     0.002 A 
ENDBRANCH  17  19
ENDBRANCH  14  15
ENDBRANCH   8  10
ENDBRANCH   4   8
BRANCH   6  27
ATOM     27  N   UNL     1     -74.509 -18.195  92.197  1.00  0.00    -0.354 N 
ATOM     28  C   UNL     1     -73.714 -17.650  93.301  1.00  0.00     0.133 C 
ATOM     29  C   UNL     1     -74.714 -17.368  91.003  1.00  0.00     0.133 C 
ATOM     30  C   UNL     1     -73.549 -16.126  93.152  1.00  0.00     0.106 C 
ATOM     31  C   UNL     1     -75.287 -15.993  91.396  1.00  0.00     0.106 C 
ATOM     32  N   UNL     1     -74.812 -15.490  92.717  1.00  0.00    -0.298 NA
BRANCH  32  33
ATOM     33  C   UNL     1     -75.860 -15.552  93.769  1.00  0.00     0.112 C 
BRANCH  33  34
ATOM     34  C   UNL     1     -77.259 -15.453  93.148  1.00  0.00     0.171 C 
BRANCH  34  35
ATOM     35  O   UNL     1     -78.167 -14.877  94.048  1.00  0.00    -0.395 OA
ATOM     36  H   UNL     1     -77.648 -14.630  94.865  1.00  0.00     0.210 HD
ENDBRANCH  34  35
ENDBRANCH  33  34
ENDBRANCH  32  33
ENDBRANCH   6  27
TORSDOF 8
ENDMDL
MODEL 6
REMARK VINA RESULT:    -8.392      3.781      9.773
REMARK INTER + INTRA:         -12.947
REMARK INTER:                 -12.288
REMARK INTRA:                  -0.659
REMARK UNBOUND:                -0.875
REMARK SMILES Cc1nc(Nc2ncc(C(=O)Nc3c(C)cccc3Cl)s2)cc(N2CCN(CCO)CC2)n1
REMARK SMILES IDX 1 1 2 2 3 3 4 4 22 5 23 6 33 7 5 8 6 10 7 11 21 12 8 13 9 14
REMARK SMILES IDX 10 15 11 16 12 17 13 19 14 20 19 21 15 22 16 23 18 24 20 25
REMARK SMILES IDX 17 26 24 27 25 28 32 29 26 30 31 31 27 32 28 33 29 34 30 35
REMARK H PARENT 5 9 12 18 30 36
REMARK Flexibility Score: inf
ROOT
ATOM      1  C   UNL     1     -73.540 -22.587  92.908  1.00  0.00     0.090 C 
ATOM      2  C   UNL     1     -74.611 -21.596  92.601  1.00  0.00     0.130 A 
ATOM      3  N   UNL     1     -75.842 -22.021  92.215  1.00  0.00    -0.216 NA
ATOM      4  C   UNL     1     -76.844 -21.139  91.949  1.00  0.00     0.137 A 
ATOM      5  C   UNL     1     -76.603 -19.766  92.083  1.00  0.00     0.094 A 
ATOM      6  C   UNL     1     -75.325 -19.337  92.467  1.00  0.00     0.134 A 
ATOM      7  N   UNL     1     -74.366 -20.266  92.737  1.00  0.00    -0.216 NA
ENDROOT
BRANCH   4   8
ATOM      8  N   UNL     1     -78.148 -21.608  91.568  1.00  0.00    -0.316 N 
ATOM      9  H   UNL     1     -78.718 -22.131  92.268  1.00  0.00     0.170 HD
BRANCH   8  10
ATOM     10  C   UNL     1     -78.751 -21.325  90.299  1.00  0.00     0.189 A 
ATOM     11  N   UNL     1     -80.056 -21.541  90.017  1.00  0.00    -0.228 NA
ATOM     12  S   UNL     1     -77.899 -20.789  88.950  1.00  0.00    -0.091 S 
ATOM     13  C   UNL     1     -80.346 -21.255  88.720  1.00  0.00     0.139 A 
ATOM     14  C   UNL     1     -79.265 -20.815  87.961  1.00  0.00     0.114 A 
BRANCH  14  15
ATOM     15  C   UNL     1     -79.305 -20.471  86.529  1.00  0.00     0.267 C 
ATOM     16  O   UNL     1     -79.654 -21.348  85.689  1.00  0.00    -0.268 OA
ATOM     17  N   UNL     1     -78.963 -19.150  86.084  1.00  0.00    -0.320 N 
ATOM     18  H   UNL     1     -78.924 -18.369  86.776  1.00  0.00     0.170 HD
BRANCH  17  19
ATOM     19  C   UNL     1     -78.883 -18.827  84.686  1.00  0.00     0.063 A 
ATOM     20  C   UNL     1     -77.622 -18.649  84.070  1.00  0.00    -0.026 A 
ATOM     21  C   UNL     1     -80.060 -18.701  83.917  1.00  0.00     0.064 A 
ATOM     22  C   UNL     1     -76.351 -18.802  84.865  1.00  0.00     0.046 C 
ATOM     23  C   UNL     1     -77.561 -18.330  82.703  1.00  0.00     0.005 A 
ATOM     24  C   UNL     1     -79.979 -18.385  82.556  1.00  0.00     0.023 A 
ATOM     25  Cl  UNL     1     -81.650 -18.984  84.623  1.00  0.00    -0.082 Cl
ATOM     26  C   UNL     1     -78.733 -18.193  81.952  1.00  0.00     0.002 A 
ENDBRANCH  17  19
ENDBRANCH  14  15
ENDBRANCH   8  10
ENDBRANCH   4   8
BRANCH   6  27
ATOM     27  N   UNL     1     -75.029 -17.938  92.632  1.00  0.00    -0.354 N 
ATOM     28  C   UNL     1     -76.131 -16.977  92.732  1.00  0.00     0.133 C 
ATOM     29  C   UNL     1     -73.660 -17.464  92.867  1.00  0.00     0.133 C 
ATOM     30  C   UNL     1     -75.599 -15.532  92.697  1.00  0.00     0.106 C 
ATOM     31  C   UNL     1     -73.350 -16.256  91.963  1.00  0.00     0.106 C 
ATOM     32  N   UNL     1     -74.526 -15.380  91.690  1.00  0.00    -0.298 NA
BRANCH  32  33
ATOM     33  C   UNL     1     -75.038 -15.517  90.302  1.00  0.00     0.112 C 
BRANCH  33  34
ATOM     34  C   UNL     1     -74.149 -14.749  89.317  1.00  0.00     0.171 C 
BRANCH  34  35
ATOM     35  O   UNL     1     -73.606 -13.605  89.919  1.00  0.00    -0.395 OA
ATOM     36  H   UNL     1     -74.244 -12.857  89.746  1.00  0.00     0.210 HD
ENDBRANCH  34  35
ENDBRANCH  33  34
ENDBRANCH  32  33
ENDBRANCH   6  27
TORSDOF 8
ENDMDL
MODEL 7
REMARK VINA RESULT:    -8.283      3.490      9.673
REMARK INTER + INTRA:         -12.790
REMARK INTER:                 -12.452
REMARK INTRA:                  -0.338
REMARK UNBOUND:                -0.875
REMARK SMILES Cc1nc(Nc2ncc(C(=O)Nc3c(C)cccc3Cl)s2)cc(N2CCN(CCO)CC2)n1
REMARK SMILES IDX 1 1 2 2 3 3 4 4 22 5 23 6 33 7 5 8 6 10 7 11 21 12 8 13 9 14
REMARK SMILES IDX 10 15 11 16 12 17 13 19 14 20 19 21 15 22 16 23 18 24 20 25
REMARK SMILES IDX 17 26 24 27 25 28 32 29 26 30 31 31 27 32 28 33 29 34 30 35
REMARK H PARENT 5 9 12 18 30 36
REMARK Flexibility Score: inf
ROOT
ATOM      1  C   UNL     1     -73.227 -15.386  84.288  1.00  0.00     0.090 C 
ATOM      2  C   UNL     1     -74.153 -16.377  84.907  1.00  0.00     0.130 A 
ATOM      3  N   UNL     1     -75.075 -17.019  84.142  1.00  0.00    -0.216 NA
ATOM      4  C   UNL     1     -75.918 -17.943  84.677  1.00  0.00     0.137 A 
ATOM      5  C   UNL     1     -75.828 -18.247  86.040  1.00  0.00     0.094 A 
ATOM      6  C   UNL     1     -74.883 -17.569  86.825  1.00  0.00     0.134 A 
ATOM      7  N   UNL     1     -74.054 -16.666  86.232  1.00  0.00    -0.216 NA
ENDROOT
BRANCH   4   8
ATOM      8  N   UNL     1     -76.869 -18.630  83.847  1.00  0.00    -0.316 N 
ATOM      9  H   UNL     1     -76.580 -18.924  82.889  1.00  0.00     0.170 HD
BRANCH   8  10
ATOM     10  C   UNL     1     -78.177 -19.013  84.292  1.00  0.00     0.189 A 
ATOM     11  N   UNL     1     -79.318 -18.710  83.633  1.00  0.00    -0.228 NA
ATOM     12  S   UNL     1     -78.484 -19.796  85.749  1.00  0.00    -0.091 S 
ATOM     13  C   UNL     1     -80.419 -19.130  84.312  1.00  0.00     0.139 A 
ATOM     14  C   UNL     1     -80.154 -19.765  85.522  1.00  0.00     0.114 A 
BRANCH  14  15
ATOM     15  C   UNL     1     -81.167 -20.284  86.459  1.00  0.00     0.267 C 
ATOM     16  O   UNL     1     -80.793 -20.847  87.526  1.00  0.00    -0.268 OA
ATOM     17  N   UNL     1     -82.566 -20.146  86.174  1.00  0.00    -0.320 N 
ATOM     18  H   UNL     1     -82.876 -19.472  85.438  1.00  0.00     0.170 HD
BRANCH  17  19
ATOM     19  C   UNL     1     -83.565 -20.746  87.014  1.00  0.00     0.063 A 
ATOM     20  C   UNL     1     -84.321 -19.945  87.902  1.00  0.00    -0.026 A 
ATOM     21  C   UNL     1     -83.812 -22.135  86.945  1.00  0.00     0.064 A 
ATOM     22  C   UNL     1     -84.093 -18.458  87.976  1.00  0.00     0.046 C 
ATOM     23  C   UNL     1     -85.293 -20.548  88.719  1.00  0.00     0.005 A 
ATOM     24  C   UNL     1     -84.785 -22.717  87.765  1.00  0.00     0.023 A 
ATOM     25  Cl  UNL     1     -82.947 -23.163  85.804  1.00  0.00    -0.082 Cl
ATOM     26  C   UNL     1     -85.519 -21.927  88.654  1.00  0.00     0.002 A 
ENDBRANCH  17  19
ENDBRANCH  14  15
ENDBRANCH   8  10
ENDBRANCH   4   8
BRANCH   6  27
ATOM     27  N   UNL     1     -74.742 -17.853  88.229  1.00  0.00    -0.354 N 
ATOM     28  C   UNL     1     -75.803 -18.588  88.924  1.00  0.00     0.133 C 
ATOM     29  C   UNL     1     -73.494 -17.574  88.948  1.00  0.00     0.133 C 
ATOM     30  C   UNL     1     -75.548 -18.604  90.443  1.00  0.00     0.106 C 
ATOM     31  C   UNL     1     -73.793 -16.868  90.284  1.00  0.00     0.106 C 
ATOM     32  N   UNL     1     -75.075 -17.287  90.922  1.00  0.00    -0.298 NA
BRANCH  32  33
ATOM     33  C   UNL     1     -76.131 -16.246  90.831  1.00  0.00     0.112 C 
BRANCH  33  34
ATOM     34  C   UNL     1     -76.367 -15.591  92.197  1.00  0.00     0.171 C 
BRANCH  34  35
ATOM     35  O   UNL     1     -77.552 -14.841  92.196  1.00  0.00    -0.395 OA
ATOM     36  H   UNL     1     -78.245 -15.396  91.738  1.00  0.00     0.210 HD
ENDBRANCH  34  35
ENDBRANCH  33  34
ENDBRANCH  32  33
ENDBRANCH   6  27
TORSDOF 8
ENDMDL
MODEL 8
REMARK VINA RESULT:    -8.260      2.050      3.153
REMARK INTER + INTRA:         -12.756
REMARK INTER:                 -11.826
REMARK INTRA:                  -0.930
REMARK UNBOUND:                -0.875
REMARK SMILES Cc1nc(Nc2ncc(C(=O)Nc3c(C)cccc3Cl)s2)cc(N2CCN(CCO)CC2)n1
REMARK SMILES IDX 1 1 2 2 3 3 4 4 22 5 23 6 33 7 5 8 6 10 7 11 21 12 8 13 9 14
REMARK SMILES IDX 10 15 11 16 12 17 13 19 14 20 19 21 15 22 16 23 18 24 20 25
REMARK SMILES IDX 17 26 24 27 25 28 32 29 26 30 31 31 27 32 28 33 29 34 30 35
REMARK H PARENT 5 9 12 18 30 36
REMARK Flexibility Score: inf
ROOT
ATOM      1  C   UNL     1     -81.023 -22.712  92.791  1.00  0.00     0.090 C 
ATOM      2  C   UNL     1     -80.743 -22.179  91.427  1.00  0.00     0.130 A 
ATOM      3  N   UNL     1     -79.461 -21.976  91.024  1.00  0.00    -0.216 NA
ATOM      4  C   UNL     1     -79.176 -21.511  89.778  1.00  0.00     0.137 A 
ATOM      5  C   UNL     1     -80.224 -21.243  88.889  1.00  0.00     0.094 A 
ATOM      6  C   UNL     1     -81.545 -21.442  89.318  1.00  0.00     0.134 A 
ATOM      7  N   UNL     1     -81.769 -21.926  90.572  1.00  0.00    -0.216 NA
ENDROOT
BRANCH   4   8
ATOM      8  N   UNL     1     -77.814 -21.327  89.361  1.00  0.00    -0.316 N 
ATOM      9  H   UNL     1     -77.353 -22.080  88.803  1.00  0.00     0.170 HD
BRANCH   8  10
ATOM     10  C   UNL     1     -77.068 -20.125  89.596  1.00  0.00     0.189 A 
ATOM     11  N   UNL     1     -76.999 -19.096  88.723  1.00  0.00    -0.228 NA
ATOM     12  S   UNL     1     -76.088 -19.875  90.940  1.00  0.00    -0.091 S 
ATOM     13  C   UNL     1     -76.166 -18.116  89.164  1.00  0.00     0.139 A 
ATOM     14  C   UNL     1     -75.562 -18.369  90.392  1.00  0.00     0.114 A 
BRANCH  14  15
ATOM     15  C   UNL     1     -74.599 -17.486  91.074  1.00  0.00     0.267 C 
ATOM     16  O   UNL     1     -73.401 -17.864  91.212  1.00  0.00    -0.268 OA
ATOM     17  N   UNL     1     -75.006 -16.203  91.569  1.00  0.00    -0.320 N 
ATOM     18  H   UNL     1     -75.906 -15.787  91.240  1.00  0.00     0.170 HD
BRANCH  17  19
ATOM     19  C   UNL     1     -74.115 -15.378  92.337  1.00  0.00     0.063 A 
ATOM     20  C   UNL     1     -73.350 -14.374  91.699  1.00  0.00    -0.026 A 
ATOM     21  C   UNL     1     -74.011 -15.552  93.735  1.00  0.00     0.064 A 
ATOM     22  C   UNL     1     -73.461 -14.153  90.213  1.00  0.00     0.046 C 
ATOM     23  C   UNL     1     -72.481 -13.577  92.464  1.00  0.00     0.005 A 
ATOM     24  C   UNL     1     -73.142 -14.747  94.480  1.00  0.00     0.023 A 
ATOM     25  Cl  UNL     1     -74.997 -16.740  94.585  1.00  0.00    -0.082 Cl
ATOM     26  C   UNL     1     -72.374 -13.768  93.846  1.00  0.00     0.002 A 
ENDBRANCH  17  19
ENDBRANCH  14  15
ENDBRANCH   8  10
ENDBRANCH   4   8
BRANCH   6  27
ATOM     27  N   UNL     1     -82.657 -21.194  88.439  1.00  0.00    -0.354 N 
ATOM     28  C   UNL     1     -82.449 -20.409  87.219  1.00  0.00     0.133 C 
ATOM     29  C   UNL     1     -83.957 -21.843  88.643  1.00  0.00     0.133 C 
ATOM     30  C   UNL     1     -83.793 -20.094  86.538  1.00  0.00     0.106 C 
ATOM     31  C   UNL     1     -85.095 -20.812  88.516  1.00  0.00     0.106 C 
ATOM     32  N   UNL     1     -84.824 -19.724  87.532  1.00  0.00    -0.298 NA
BRANCH  32  33
ATOM     33  C   UNL     1     -84.533 -18.419  88.182  1.00  0.00     0.112 C 
BRANCH  33  34
ATOM     34  C   UNL     1     -85.832 -17.679  88.521  1.00  0.00     0.171 C 
BRANCH  34  35
ATOM     35  O   UNL     1     -86.074 -17.701  89.902  1.00  0.00    -0.395 OA
ATOM     36  H   UNL     1     -86.844 -18.320  90.051  1.00  0.00     0.210 HD
ENDBRANCH  34  35
ENDBRANCH  33  34
ENDBRANCH  32  33
ENDBRANCH   6  27
TORSDOF 8
ENDMDL
MODEL 9
REMARK VINA RESULT:    -8.213      2.205      2.697
REMARK INTER + INTRA:         -12.689
REMARK INTER:                 -11.796
REMARK INTRA:                  -0.892
REMARK UNBOUND:                -0.875
REMARK SMILES Cc1nc(Nc2ncc(C(=O)Nc3c(C)cccc3Cl)s2)cc(N2CCN(CCO)CC2)n1
REMARK SMILES IDX 1 1 2 2 3 3 4 4 22 5 23 6 33 7 5 8 6 10 7 11 21 12 8 13 9 14
REMARK SMILES IDX 10 15 11 16 12 17 13 19 14 20 19 21 15 22 16 23 18 24 20 25
REMARK SMILES IDX 17 26 24 27 25 28 32 29 26 30 31 31 27 32 28 33 29 34 30 35
REMARK H PARENT 5 9 12 18 30 36
REMARK Flexibility Score: inf
ROOT
ATOM      1  C   UNL     1     -78.202 -20.171  86.641  1.00  0.00     0.090 C 
ATOM      2  C   UNL     1     -78.903 -20.672  87.858  1.00  0.00     0.130 A 
ATOM      3  N   UNL     1     -78.213 -20.857  89.014  1.00  0.00    -0.216 NA
ATOM      4  C   UNL     1     -78.831 -21.293  90.145  1.00  0.00     0.137 A 
ATOM      5  C   UNL     1     -80.207 -21.548  90.120  1.00  0.00     0.094 A 
ATOM      6  C   UNL     1     -80.909 -21.367  88.919  1.00  0.00     0.134 A 
ATOM      7  N   UNL     1     -80.240 -20.913  87.823  1.00  0.00    -0.216 NA
ENDROOT
BRANCH   4   8
ATOM      8  N   UNL     1     -78.090 -21.459  91.365  1.00  0.00    -0.316 N 
ATOM      9  H   UNL     1     -78.423 -22.159  92.064  1.00  0.00     0.170 HD
BRANCH   8  10
ATOM     10  C   UNL     1     -76.863 -20.773  91.646  1.00  0.00     0.189 A 
ATOM     11  N   UNL     1     -75.727 -21.388  92.046  1.00  0.00    -0.228 NA
ATOM     12  S   UNL     1     -76.694 -19.099  91.622  1.00  0.00    -0.091 S 
ATOM     13  C   UNL     1     -74.737 -20.496  92.313  1.00  0.00     0.139 A 
ATOM     14  C   UNL     1     -75.087 -19.161  92.130  1.00  0.00     0.114 A 
BRANCH  14  15
ATOM     15  C   UNL     1     -74.211 -18.002  92.378  1.00  0.00     0.267 C 
ATOM     16  O   UNL     1     -72.957 -18.152  92.333  1.00  0.00    -0.268 OA
ATOM     17  N   UNL     1     -74.768 -16.709  92.657  1.00  0.00    -0.320 N 
ATOM     18  H   UNL     1     -75.775 -16.528  92.447  1.00  0.00     0.170 HD
BRANCH  17  19
ATOM     19  C   UNL     1     -73.935 -15.595  93.015  1.00  0.00     0.063 A 
ATOM     20  C   UNL     1     -73.521 -14.672  92.027  1.00  0.00    -0.026 A 
ATOM     21  C   UNL     1     -73.540 -15.405  94.357  1.00  0.00     0.064 A 
ATOM     22  C   UNL     1     -73.950 -14.839  90.592  1.00  0.00     0.046 C 
ATOM     23  C   UNL     1     -72.704 -13.588  92.393  1.00  0.00     0.005 A 
ATOM     24  C   UNL     1     -72.727 -14.319  94.704  1.00  0.00     0.023 A 
ATOM     25  Cl  UNL     1     -74.089 -16.488  95.635  1.00  0.00    -0.082 Cl
ATOM     26  C   UNL     1     -72.306 -13.417  93.723  1.00  0.00     0.002 A 
ENDBRANCH  17  19
ENDBRANCH  14  15
ENDBRANCH   8  10
ENDBRANCH   4   8
BRANCH   6  27
ATOM     27  N   UNL     1     -82.327 -21.603  88.844  1.00  0.00    -0.354 N 
ATOM     28  C   UNL     1     -82.901 -22.148  87.610  1.00  0.00     0.133 C 
ATOM     29  C   UNL     1     -83.192 -21.468  90.022  1.00  0.00     0.133 C 
ATOM     30  C   UNL     1     -84.439 -22.129  87.672  1.00  0.00     0.106 C 
ATOM     31  C   UNL     1     -84.458 -20.666  89.667  1.00  0.00     0.106 C 
ATOM     32  N   UNL     1     -84.937 -20.870  88.269  1.00  0.00    -0.298 NA
BRANCH  32  33
ATOM     33  C   UNL     1     -84.682 -19.696  87.394  1.00  0.00     0.112 C 
BRANCH  33  34
ATOM     34  C   UNL     1     -84.322 -18.463  88.231  1.00  0.00     0.171 C 
BRANCH  34  35
ATOM     35  O   UNL     1     -85.432 -17.620  88.385  1.00  0.00    -0.395 OA
ATOM     36  H   UNL     1     -86.032 -18.052  89.056  1.00  0.00     0.210 HD
ENDBRANCH  34  35
ENDBRANCH  33  34
ENDBRANCH  32  33
ENDBRANCH   6  27
TORSDOF 8
ENDMDL
MODEL 10
REMARK VINA RESULT:    -8.207      2.218      2.398
REMARK INTER + INTRA:         -12.680
REMARK INTER:                 -11.807
REMARK INTRA:                  -0.873
REMARK UNBOUND:                -0.875
REMARK SMILES Cc1nc(Nc2ncc(C(=O)Nc3c(C)cccc3Cl)s2)cc(N2CCN(CCO)CC2)n1
REMARK SMILES IDX 1 1 2 2 3 3 4 4 22 5 23 6 33 7 5 8 6 10 7 11 21 12 8 13 9 14
REMARK SMILES IDX 10 15 11 16 12 17 13 19 14 20 19 21 15 22 16 23 18 24 20 25
REMARK SMILES IDX 17 26 24 27 25 28 32 29 26 30 31 31 27 32 28 33 29 34 30 35
REMARK H PARENT 5 9 12 18 30 36
REMARK Flexibility Score: inf
ROOT
ATOM      1  C   UNL     1     -79.673 -18.538  83.724  1.00  0.00     0.090 C 
ATOM      2  C   UNL     1     -79.555 -19.353  84.966  1.00  0.00     0.130 A 
ATOM      3  N   UNL     1     -78.350 -19.492  85.579  1.00  0.00    -0.216 NA
ATOM      4  C   UNL     1     -78.218 -20.213  86.726  1.00  0.00     0.137 A 
ATOM      5  C   UNL     1     -79.347 -20.817  87.291  1.00  0.00     0.094 A 
ATOM      6  C   UNL     1     -80.584 -20.680  86.644  1.00  0.00     0.134 A 
ATOM      7  N   UNL     1     -80.659 -19.933  85.507  1.00  0.00    -0.216 NA
ENDROOT
BRANCH   4   8
ATOM      8  N   UNL     1     -76.940 -20.327  87.373  1.00  0.00    -0.316 N 
ATOM      9  H   UNL     1     -76.082 -20.390  86.783  1.00  0.00     0.170 HD
BRANCH   8  10
ATOM     10  C   UNL     1     -76.765 -20.275  88.795  1.00  0.00     0.189 A 
ATOM     11  N   UNL     1     -77.060 -21.296  89.631  1.00  0.00    -0.228 NA
ATOM     12  S   UNL     1     -76.273 -18.901  89.633  1.00  0.00    -0.091 S 
ATOM     13  C   UNL     1     -76.869 -20.954  90.933  1.00  0.00     0.139 A 
ATOM     14  C   UNL     1     -76.425 -19.650  91.136  1.00  0.00     0.114 A 
BRANCH  14  15
ATOM     15  C   UNL     1     -76.172 -19.025  92.447  1.00  0.00     0.267 C 
ATOM     16  O   UNL     1     -76.791 -19.445  93.464  1.00  0.00    -0.268 OA
ATOM     17  N   UNL     1     -75.224 -17.955  92.576  1.00  0.00    -0.320 N 
ATOM     18  H   UNL     1     -74.539 -17.781  91.807  1.00  0.00     0.170 HD
BRANCH  17  19
ATOM     19  C   UNL     1     -75.048 -17.255  93.818  1.00  0.00     0.063 A 
ATOM     20  C   UNL     1     -75.826 -16.109  94.103  1.00  0.00    -0.026 A 
ATOM     21  C   UNL     1     -74.110 -17.717  94.768  1.00  0.00     0.064 A 
ATOM     22  C   UNL     1     -76.850 -15.612  93.117  1.00  0.00     0.046 C 
ATOM     23  C   UNL     1     -75.639 -15.434  95.322  1.00  0.00     0.005 A 
ATOM     24  C   UNL     1     -73.939 -17.032  95.976  1.00  0.00     0.023 A 
ATOM     25  Cl  UNL     1     -73.169 -19.181  94.488  1.00  0.00    -0.082 Cl
ATOM     26  C   UNL     1     -74.697 -15.890  96.250  1.00  0.00     0.002 A 
ENDBRANCH  17  19
ENDBRANCH  14  15
ENDBRANCH   8  10
ENDBRANCH   4   8
BRANCH   6  27
ATOM     27  N   UNL     1     -81.778 -21.271  87.190  1.00  0.00    -0.354 N 
ATOM     28  C   UNL     1     -82.834 -21.728  86.283  1.00  0.00     0.133 C 
ATOM     29  C   UNL     1     -81.897 -21.580  88.619  1.00  0.00     0.133 C 
ATOM     30  C   UNL     1     -84.092 -22.134  87.072  1.00  0.00     0.106 C 
ATOM     31  C   UNL     1     -83.258 -21.098  89.159  1.00  0.00     0.106 C 
ATOM     32  N   UNL     1     -84.370 -21.178  88.167  1.00  0.00    -0.298 NA
BRANCH  32  33
ATOM     33  C   UNL     1     -84.784 -19.846  87.655  1.00  0.00     0.112 C 
BRANCH  33  34
ATOM     34  C   UNL     1     -84.138 -18.724  88.476  1.00  0.00     0.171 C 
BRANCH  34  35
ATOM     35  O   UNL     1     -85.076 -17.730  88.792  1.00  0.00    -0.395 OA
ATOM     36  H   UNL     1     -85.865 -18.194  89.192  1.00  0.00     0.210 HD
ENDBRANCH  34  35
ENDBRANCH  33  34
ENDBRANCH  32  33
ENDBRANCH   6  27
TORSDOF 8
ENDMDL
MODEL 11
REMARK VINA RESULT:    -8.059      3.836      9.852
REMARK INTER + INTRA:         -12.468
REMARK INTER:                 -11.911
REMARK INTRA:                  -0.557
REMARK UNBOUND:                -0.875
REMARK SMILES Cc1nc(Nc2ncc(C(=O)Nc3c(C)cccc3Cl)s2)cc(N2CCN(CCO)CC2)n1
REMARK SMILES IDX 1 1 2 2 3 3 4 4 22 5 23 6 33 7 5 8 6 10 7 11 21 12 8 13 9 14
REMARK SMILES IDX 10 15 11 16 12 17 13 19 14 20 19 21 15 22 16 23 18 24 20 25
REMARK SMILES IDX 17 26 24 27 25 28 32 29 26 30 31 31 27 32 28 33 29 34 30 35
REMARK H PARENT 5 9 12 18 30 36
REMARK Flexibility Score: inf
ROOT
ATOM      1  C   UNL     1     -73.098 -20.328  82.920  1.00  0.00     0.090 C 
ATOM      2  C   UNL     1     -74.114 -19.489  83.618  1.00  0.00     0.130 A 
ATOM      3  N   UNL     1     -75.327 -19.272  83.047  1.00  0.00    -0.216 NA
ATOM      4  C   UNL     1     -76.280 -18.528  83.672  1.00  0.00     0.137 A 
ATOM      5  C   UNL     1     -76.009 -17.983  84.933  1.00  0.00     0.094 A 
ATOM      6  C   UNL     1     -74.748 -18.202  85.509  1.00  0.00     0.134 A 
ATOM      7  N   UNL     1     -73.839 -18.969  84.844  1.00  0.00    -0.216 NA
ENDROOT
BRANCH   4   8
ATOM      8  N   UNL     1     -77.567 -18.330  83.064  1.00  0.00    -0.316 N 
ATOM      9  H   UNL     1     -77.614 -17.879  82.124  1.00  0.00     0.170 HD
BRANCH   8  10
ATOM     10  C   UNL     1     -78.795 -18.793  83.640  1.00  0.00     0.189 A 
ATOM     11  N   UNL     1     -80.010 -18.615  83.074  1.00  0.00    -0.228 NA
ATOM     12  S   UNL     1     -78.908 -19.524  85.151  1.00  0.00    -0.091 S 
ATOM     13  C   UNL     1     -81.009 -19.087  83.866  1.00  0.00     0.139 A 
ATOM     14  C   UNL     1     -80.589 -19.638  85.073  1.00  0.00     0.114 A 
BRANCH  14  15
ATOM     15  C   UNL     1     -81.470 -20.189  86.118  1.00  0.00     0.267 C 
ATOM     16  O   UNL     1     -80.960 -20.682  87.164  1.00  0.00    -0.268 OA
ATOM     17  N   UNL     1     -82.896 -20.160  85.963  1.00  0.00    -0.320 N 
ATOM     18  H   UNL     1     -83.321 -19.539  85.239  1.00  0.00     0.170 HD
BRANCH  17  19
ATOM     19  C   UNL     1     -83.767 -20.795  86.913  1.00  0.00     0.063 A 
ATOM     20  C   UNL     1     -83.932 -22.200  86.896  1.00  0.00    -0.026 A 
ATOM     21  C   UNL     1     -84.449 -20.023  87.879  1.00  0.00     0.064 A 
ATOM     22  C   UNL     1     -83.197 -23.047  85.891  1.00  0.00     0.046 C 
ATOM     23  C   UNL     1     -84.790 -22.805  87.831  1.00  0.00     0.005 A 
ATOM     24  C   UNL     1     -85.298 -20.644  88.803  1.00  0.00     0.023 A 
ATOM     25  Cl  UNL     1     -84.220 -18.279  87.986  1.00  0.00    -0.082 Cl
ATOM     26  C   UNL     1     -85.473 -22.030  88.774  1.00  0.00     0.002 A 
ENDBRANCH  17  19
ENDBRANCH  14  15
ENDBRANCH   8  10
ENDBRANCH   4   8
BRANCH   6  27
ATOM     27  N   UNL     1     -74.424 -17.675  86.808  1.00  0.00    -0.354 N 
ATOM     28  C   UNL     1     -73.726 -18.527  87.776  1.00  0.00     0.133 C 
ATOM     29  C   UNL     1     -74.623 -16.258  87.135  1.00  0.00     0.133 C 
ATOM     30  C   UNL     1     -73.660 -17.843  89.154  1.00  0.00     0.106 C 
ATOM     31  C   UNL     1     -75.310 -16.118  88.506  1.00  0.00     0.106 C 
ATOM     32  N   UNL     1     -74.940 -17.180  89.486  1.00  0.00    -0.298 NA
BRANCH  32  33
ATOM     33  C   UNL     1     -76.034 -18.159  89.716  1.00  0.00     0.112 C 
BRANCH  33  34
ATOM     34  C   UNL     1     -76.021 -18.658  91.166  1.00  0.00     0.171 C 
BRANCH  34  35
ATOM     35  O   UNL     1     -75.715 -17.615  92.051  1.00  0.00    -0.395 OA
ATOM     36  H   UNL     1     -74.794 -17.788  92.396  1.00  0.00     0.210 HD
ENDBRANCH  34  35
ENDBRANCH  33  34
ENDBRANCH  32  33
ENDBRANCH   6  27
TORSDOF 8
ENDMDL
MODEL 12
REMARK VINA RESULT:    -7.982      3.940     11.219
REMARK INTER + INTRA:         -12.356
REMARK INTER:                 -11.701
REMARK INTRA:                  -0.656
REMARK UNBOUND:                -0.875
REMARK SMILES Cc1nc(Nc2ncc(C(=O)Nc3c(C)cccc3Cl)s2)cc(N2CCN(CCO)CC2)n1
REMARK SMILES IDX 1 1 2 2 3 3 4 4 22 5 23 6 33 7 5 8 6 10 7 11 21 12 8 13 9 14
REMARK SMILES IDX 10 15 11 16 12 17 13 19 14 20 19 21 15 22 16 23 18 24 20 25
REMARK SMILES IDX 17 26 24 27 25 28 32 29 26 30 31 31 27 32 28 33 29 34 30 35
REMARK H PARENT 5 9 12 18 30 36
REMARK Flexibility Score: inf
ROOT
ATOM      1  C   UNL     1     -77.355 -15.244  93.004  1.00  0.00     0.090 C 
ATOM      2  C   UNL     1     -76.279 -16.038  93.664  1.00  0.00     0.130 A 
ATOM      3  N   UNL     1     -75.923 -17.250  93.164  1.00  0.00    -0.216 NA
ATOM      4  C   UNL     1     -74.930 -17.987  93.734  1.00  0.00     0.137 A 
ATOM      5  C   UNL     1     -74.257 -17.482  94.852  1.00  0.00     0.094 A 
ATOM      6  C   UNL     1     -74.641 -16.237  95.370  1.00  0.00     0.134 A 
ATOM      7  N   UNL     1     -75.631 -15.537  94.748  1.00  0.00    -0.216 NA
ENDROOT
BRANCH   4   8
ATOM      8  N   UNL     1     -74.549 -19.255  93.175  1.00  0.00    -0.316 N 
ATOM      9  H   UNL     1     -73.822 -19.821  93.665  1.00  0.00     0.170 HD
BRANCH   8  10
ATOM     10  C   UNL     1     -75.173 -19.832  92.021  1.00  0.00     0.189 A 
ATOM     11  N   UNL     1     -74.578 -19.936  90.812  1.00  0.00    -0.228 NA
ATOM     12  S   UNL     1     -76.770 -20.360  91.980  1.00  0.00    -0.091 S 
ATOM     13  C   UNL     1     -75.419 -20.454  89.878  1.00  0.00     0.139 A 
ATOM     14  C   UNL     1     -76.695 -20.759  90.344  1.00  0.00     0.114 A 
BRANCH  14  15
ATOM     15  C   UNL     1     -77.799 -21.301  89.531  1.00  0.00     0.267 C 
ATOM     16  O   UNL     1     -77.591 -22.308  88.797  1.00  0.00    -0.268 OA
ATOM     17  N   UNL     1     -79.102 -20.704  89.576  1.00  0.00    -0.320 N 
ATOM     18  H   UNL     1     -79.340 -20.048  90.354  1.00  0.00     0.170 HD
BRANCH  17  19
ATOM     19  C   UNL     1     -80.159 -21.142  88.707  1.00  0.00     0.063 A 
ATOM     20  C   UNL     1     -81.273 -21.833  89.237  1.00  0.00    -0.026 A 
ATOM     21  C   UNL     1     -80.099 -20.871  87.322  1.00  0.00     0.064 A 
ATOM     22  C   UNL     1     -81.371 -22.112  90.714  1.00  0.00     0.046 C 
ATOM     23  C   UNL     1     -82.298 -22.257  88.373  1.00  0.00     0.005 A 
ATOM     24  C   UNL     1     -81.129 -21.301  86.477  1.00  0.00     0.023 A 
ATOM     25  Cl  UNL     1     -78.766 -19.952  86.625  1.00  0.00    -0.082 Cl
ATOM     26  C   UNL     1     -82.222 -21.997  87.001  1.00  0.00     0.002 A 
ENDBRANCH  17  19
ENDBRANCH  14  15
ENDBRANCH   8  10
ENDBRANCH   4   8
BRANCH   6  27
ATOM     27  N   UNL     1     -73.973 -15.668  96.511  1.00  0.00    -0.354 N 
ATOM     28  C   UNL     1     -73.692 -16.513  97.675  1.00  0.00     0.133 C 
ATOM     29  C   UNL     1     -73.416 -14.311  96.477  1.00  0.00     0.133 C 
ATOM     30  C   UNL     1     -73.163 -15.666  98.847  1.00  0.00     0.106 C 
ATOM     31  C   UNL     1     -73.806 -13.541  97.754  1.00  0.00     0.106 C 
ATOM     32  N   UNL     1     -73.911 -14.396  98.972  1.00  0.00    -0.298 NA
BRANCH  32  33
ATOM     33  C   UNL     1     -75.316 -14.615  99.404  1.00  0.00     0.112 C 
BRANCH  33  34
ATOM     34  C   UNL     1     -76.130 -13.321  99.280  1.00  0.00     0.171 C 
BRANCH  34  35
ATOM     35  O   UNL     1     -77.321 -13.545  98.574  1.00  0.00    -0.395 OA
ATOM     36  H   UNL     1     -78.053 -13.112  99.098  1.00  0.00     0.210 HD
ENDBRANCH  34  35
ENDBRANCH  33  34
ENDBRANCH  32  33
ENDBRANCH   6  27
TORSDOF 8
ENDMDL
MODEL 13
REMARK VINA RESULT:    -7.912      5.645     11.994
REMARK INTER + INTRA:         -12.256
REMARK INTER:                 -11.292
REMARK INTRA:                  -0.964
REMARK UNBOUND:                -0.875
REMARK SMILES Cc1nc(Nc2ncc(C(=O)Nc3c(C)cccc3Cl)s2)cc(N2CCN(CCO)CC2)n1
REMARK SMILES IDX 1 1 2 2 3 3 4 4 22 5 23 6 33 7 5 8 6 10 7 11 21 12 8 13 9 14
REMARK SMILES IDX 10 15 11 16 12 17 13 19 14 20 19 21 15 22 16 23 18 24 20 25
REMARK SMILES IDX 17 26 24 27 25 28 32 29 26 30 31 31 27 32 28 33 29 34 30 35
REMARK H PARENT 5 9 12 18 30 36
REMARK Flexibility Score: inf
ROOT
ATOM      1  C   UNL     1     -72.843  -9.079  93.606  1.00  0.00     0.090 C 
ATOM      2  C   UNL     1     -72.606 -10.447  94.149  1.00  0.00     0.130 A 
ATOM      3  N   UNL     1     -72.191 -11.445  93.325  1.00  0.00    -0.216 NA
ATOM      4  C   UNL     1     -71.948 -12.698  93.798  1.00  0.00     0.137 A 
ATOM      5  C   UNL     1     -72.120 -12.962  95.162  1.00  0.00     0.094 A 
ATOM      6  C   UNL     1     -72.562 -11.930  96.002  1.00  0.00     0.134 A 
ATOM      7  N   UNL     1     -72.774 -10.691  95.476  1.00  0.00    -0.216 NA
ENDROOT
BRANCH   4   8
ATOM      8  N   UNL     1     -71.484 -13.734  92.916  1.00  0.00    -0.316 N 
ATOM      9  H   UNL     1     -70.493 -14.051  92.992  1.00  0.00     0.170 HD
BRANCH   8  10
ATOM     10  C   UNL     1     -72.332 -14.420  91.986  1.00  0.00     0.189 A 
ATOM     11  N   UNL     1     -73.609 -14.777  92.248  1.00  0.00    -0.228 NA
ATOM     12  S   UNL     1     -71.822 -14.975  90.482  1.00  0.00    -0.091 S 
ATOM     13  C   UNL     1     -74.157 -15.480  91.222  1.00  0.00     0.139 A 
ATOM     14  C   UNL     1     -73.309 -15.690  90.138  1.00  0.00     0.114 A 
BRANCH  14  15
ATOM     15  C   UNL     1     -73.648 -16.444  88.917  1.00  0.00     0.267 C 
ATOM     16  O   UNL     1     -73.028 -17.514  88.658  1.00  0.00    -0.268 OA
ATOM     17  N   UNL     1     -74.677 -15.980  88.032  1.00  0.00    -0.320 N 
ATOM     18  H   UNL     1     -75.351 -15.254  88.364  1.00  0.00     0.170 HD
BRANCH  17  19
ATOM     19  C   UNL     1     -74.942 -16.635  86.781  1.00  0.00     0.063 A 
ATOM     20  C   UNL     1     -75.955 -17.619  86.696  1.00  0.00    -0.026 A 
ATOM     21  C   UNL     1     -74.206 -16.289  85.627  1.00  0.00     0.064 A 
ATOM     22  C   UNL     1     -76.770 -17.988  87.907  1.00  0.00     0.046 C 
ATOM     23  C   UNL     1     -76.201 -18.252  85.465  1.00  0.00     0.005 A 
ATOM     24  C   UNL     1     -74.466 -16.929  84.409  1.00  0.00     0.023 A 
ATOM     25  Cl  UNL     1     -72.984 -15.019  85.667  1.00  0.00    -0.082 Cl
ATOM     26  C   UNL     1     -75.455 -17.912  84.331  1.00  0.00     0.002 A 
ENDBRANCH  17  19
ENDBRANCH  14  15
ENDBRANCH   8  10
ENDBRANCH   4   8
BRANCH   6  27
ATOM     27  N   UNL     1     -72.743 -12.147  97.413  1.00  0.00    -0.354 N 
ATOM     28  C   UNL     1     -72.282 -13.402  98.013  1.00  0.00     0.133 C 
ATOM     29  C   UNL     1     -73.224 -11.081  98.299  1.00  0.00     0.133 C 
ATOM     30  C   UNL     1     -72.751 -13.511  99.475  1.00  0.00     0.106 C 
ATOM     31  C   UNL     1     -74.325 -11.618  99.233  1.00  0.00     0.106 C 
ATOM     32  N   UNL     1     -74.147 -13.046  99.627  1.00  0.00    -0.298 NA
BRANCH  32  33
ATOM     33  C   UNL     1     -75.116 -13.954  98.958  1.00  0.00     0.112 C 
BRANCH  33  34
ATOM     34  C   UNL     1     -76.557 -13.511  99.237  1.00  0.00     0.171 C 
BRANCH  34  35
ATOM     35  O   UNL     1     -77.364 -13.693  98.105  1.00  0.00    -0.395 OA
ATOM     36  H   UNL     1     -78.206 -14.131  98.417  1.00  0.00     0.210 HD
ENDBRANCH  34  35
ENDBRANCH  33  34
ENDBRANCH  32  33
ENDBRANCH   6  27
TORSDOF 8
ENDMDL
MODEL 14
REMARK VINA RESULT:    -7.890      4.156     12.210
REMARK INTER + INTRA:         -12.225
REMARK INTER:                 -11.327
REMARK INTRA:                  -0.899
REMARK UNBOUND:                -0.875
REMARK SMILES Cc1nc(Nc2ncc(C(=O)Nc3c(C)cccc3Cl)s2)cc(N2CCN(CCO)CC2)n1
REMARK SMILES IDX 1 1 2 2 3 3 4 4 22 5 23 6 33 7 5 8 6 10 7 11 21 12 8 13 9 14
REMARK SMILES IDX 10 15 11 16 12 17 13 19 14 20 19 21 15 22 16 23 18 24 20 25
REMARK SMILES IDX 17 26 24 27 25 28 32 29 26 30 31 31 27 32 28 33 29 34 30 35
REMARK H PARENT 5 9 12 18 30 36
REMARK Flexibility Score: inf
ROOT
ATOM      1  C   UNL     1     -74.379 -16.628  95.090  1.00  0.00     0.090 C 
ATOM      2  C   UNL     1     -73.667 -15.511  94.405  1.00  0.00     0.130 A 
ATOM      3  N   UNL     1     -73.664 -15.435  93.048  1.00  0.00    -0.216 NA
ATOM      4  C   UNL     1     -73.040 -14.416  92.398  1.00  0.00     0.137 A 
ATOM      5  C   UNL     1     -72.396 -13.420  93.141  1.00  0.00     0.094 A 
ATOM      6  C   UNL     1     -72.392 -13.514  94.541  1.00  0.00     0.134 A 
ATOM      7  N   UNL     1     -73.048 -14.549  95.137  1.00  0.00    -0.216 NA
ENDROOT
BRANCH   4   8
ATOM      8  N   UNL     1     -73.069 -14.338  90.963  1.00  0.00    -0.316 N 
ATOM      9  H   UNL     1     -72.787 -13.444  90.503  1.00  0.00     0.170 HD
BRANCH   8  10
ATOM     10  C   UNL     1     -73.386 -15.450  90.116  1.00  0.00     0.189 A 
ATOM     11  N   UNL     1     -72.460 -16.227  89.510  1.00  0.00    -0.228 NA
ATOM     12  S   UNL     1     -74.951 -15.876  89.669  1.00  0.00    -0.091 S 
ATOM     13  C   UNL     1     -73.033 -17.162  88.707  1.00  0.00     0.139 A 
ATOM     14  C   UNL     1     -74.424 -17.126  88.667  1.00  0.00     0.114 A 
BRANCH  14  15
ATOM     15  C   UNL     1     -75.282 -18.007  87.855  1.00  0.00     0.267 C 
ATOM     16  O   UNL     1     -74.753 -18.922  87.162  1.00  0.00    -0.268 OA
ATOM     17  N   UNL     1     -76.707 -17.842  87.853  1.00  0.00    -0.320 N 
ATOM     18  H   UNL     1     -77.159 -17.270  88.602  1.00  0.00     0.170 HD
BRANCH  17  19
ATOM     19  C   UNL     1     -77.551 -18.612  86.982  1.00  0.00     0.063 A 
ATOM     20  C   UNL     1     -78.209 -19.766  87.469  1.00  0.00    -0.026 A 
ATOM     21  C   UNL     1     -77.742 -18.212  85.641  1.00  0.00     0.064 A 
ATOM     22  C   UNL     1     -78.040 -20.199  88.902  1.00  0.00     0.046 C 
ATOM     23  C   UNL     1     -79.029 -20.510  86.603  1.00  0.00     0.005 A 
ATOM     24  C   UNL     1     -78.564 -18.965  84.794  1.00  0.00     0.023 A 
ATOM     25  Cl  UNL     1     -77.001 -16.743  85.010  1.00  0.00    -0.082 Cl
ATOM     26  C   UNL     1     -79.200 -20.114  85.272  1.00  0.00     0.002 A 
ENDBRANCH  17  19
ENDBRANCH  14  15
ENDBRANCH   8  10
ENDBRANCH   4   8
BRANCH   6  27
ATOM     27  N   UNL     1     -71.755 -12.510  95.351  1.00  0.00    -0.354 N 
ATOM     28  C   UNL     1     -71.153 -12.894  96.631  1.00  0.00     0.133 C 
ATOM     29  C   UNL     1     -71.546 -11.143  94.859  1.00  0.00     0.133 C 
ATOM     30  C   UNL     1     -70.713 -11.648  97.422  1.00  0.00     0.106 C 
ATOM     31  C   UNL     1     -71.962 -10.119  95.931  1.00  0.00     0.106 C 
ATOM     32  N   UNL     1     -71.724 -10.572  97.333  1.00  0.00    -0.298 NA
BRANCH  32  33
ATOM     33  C   UNL     1     -72.979 -10.922  98.047  1.00  0.00     0.112 C 
BRANCH  33  34
ATOM     34  C   UNL     1     -72.858 -10.609  99.543  1.00  0.00     0.171 C 
BRANCH  34  35
ATOM     35  O   UNL     1     -72.144  -9.419  99.749  1.00  0.00    -0.395 OA
ATOM     36  H   UNL     1     -72.495  -9.014 100.592  1.00  0.00     0.210 HD
ENDBRANCH  34  35
ENDBRANCH  33  34
ENDBRANCH  32  33
ENDBRANCH   6  27
TORSDOF 8
ENDMDL
MODEL 15
REMARK VINA RESULT:    -7.814      4.084     10.824
REMARK INTER + INTRA:         -12.115
REMARK INTER:                 -11.308
REMARK INTRA:                  -0.807
REMARK UNBOUND:                -0.875
REMARK SMILES Cc1nc(Nc2ncc(C(=O)Nc3c(C)cccc3Cl)s2)cc(N2CCN(CCO)CC2)n1
REMARK SMILES IDX 1 1 2 2 3 3 4 4 22 5 23 6 33 7 5 8 6 10 7 11 21 12 8 13 9 14
REMARK SMILES IDX 10 15 11 16 12 17 13 19 14 20 19 21 15 22 16 23 18 24 20 25
REMARK SMILES IDX 17 26 24 27 25 28 32 29 26 30 31 31 27 32 28 33 29 34 30 35
REMARK H PARENT 5 9 12 18 30 36
REMARK Flexibility Score: inf
ROOT
ATOM      1  C   UNL     1     -72.634 -13.991  91.054  1.00  0.00     0.090 C 
ATOM      2  C   UNL     1     -73.193 -14.972  92.027  1.00  0.00     0.130 A 
ATOM      3  N   UNL     1     -73.754 -16.127  91.585  1.00  0.00    -0.216 NA
ATOM      4  C   UNL     1     -74.253 -17.050  92.452  1.00  0.00     0.137 A 
ATOM      5  C   UNL     1     -74.177 -16.808  93.829  1.00  0.00     0.094 A 
ATOM      6  C   UNL     1     -73.608 -15.607  94.277  1.00  0.00     0.134 A 
ATOM      7  N   UNL     1     -73.111 -14.728  93.362  1.00  0.00    -0.216 NA
ENDROOT
BRANCH   4   8
ATOM      8  N   UNL     1     -74.820 -18.278  91.967  1.00  0.00    -0.316 N 
ATOM      9  H   UNL     1     -75.283 -18.920  92.646  1.00  0.00     0.170 HD
BRANCH   8  10
ATOM     10  C   UNL     1     -74.860 -18.638  90.580  1.00  0.00     0.189 A 
ATOM     11  N   UNL     1     -73.773 -18.991  89.858  1.00  0.00    -0.228 NA
ATOM     12  S   UNL     1     -76.247 -18.565  89.630  1.00  0.00    -0.091 S 
ATOM     13  C   UNL     1     -74.084 -19.211  88.553  1.00  0.00     0.139 A 
ATOM     14  C   UNL     1     -75.425 -19.025  88.231  1.00  0.00     0.114 A 
BRANCH  14  15
ATOM     15  C   UNL     1     -76.013 -19.170  86.887  1.00  0.00     0.267 C 
ATOM     16  O   UNL     1     -75.544 -20.034  86.094  1.00  0.00    -0.268 OA
ATOM     17  N   UNL     1     -77.116 -18.348  86.478  1.00  0.00    -0.320 N 
ATOM     18  H   UNL     1     -77.660 -17.824  87.200  1.00  0.00     0.170 HD
BRANCH  17  19
ATOM     19  C   UNL     1     -77.627 -18.391  85.137  1.00  0.00     0.063 A 
ATOM     20  C   UNL     1     -78.777 -19.160  84.840  1.00  0.00    -0.026 A 
ATOM     21  C   UNL     1     -76.997 -17.653  84.111  1.00  0.00     0.064 A 
ATOM     22  C   UNL     1     -79.481 -19.936  85.922  1.00  0.00     0.046 C 
ATOM     23  C   UNL     1     -79.263 -19.194  83.521  1.00  0.00     0.005 A 
ATOM     24  C   UNL     1     -77.496 -17.698  82.805  1.00  0.00     0.023 A 
ATOM     25  Cl  UNL     1     -75.605 -16.624  84.447  1.00  0.00    -0.082 Cl
ATOM     26  C   UNL     1     -78.622 -18.471  82.509  1.00  0.00     0.002 A 
ENDBRANCH  17  19
ENDBRANCH  14  15
ENDBRANCH   8  10
ENDBRANCH   4   8
BRANCH   6  27
ATOM     27  N   UNL     1     -73.495 -15.316  95.681  1.00  0.00    -0.354 N 
ATOM     28  C   UNL     1     -73.870 -16.341  96.661  1.00  0.00     0.133 C 
ATOM     29  C   UNL     1     -72.861 -14.083  96.163  1.00  0.00     0.133 C 
ATOM     30  C   UNL     1     -73.868 -15.758  98.086  1.00  0.00     0.106 C 
ATOM     31  C   UNL     1     -73.724 -13.431  97.259  1.00  0.00     0.106 C 
ATOM     32  N   UNL     1     -74.464 -14.405  98.113  1.00  0.00    -0.298 NA
BRANCH  32  33
ATOM     33  C   UNL     1     -75.923 -14.430  97.829  1.00  0.00     0.112 C 
BRANCH  33  34
ATOM     34  C   UNL     1     -76.707 -13.748  98.955  1.00  0.00     0.171 C 
BRANCH  34  35
ATOM     35  O   UNL     1     -77.965 -13.324  98.503  1.00  0.00    -0.395 OA
ATOM     36  H   UNL     1     -78.642 -13.704  99.131  1.00  0.00     0.210 HD
ENDBRANCH  34  35
ENDBRANCH  33  34
ENDBRANCH  32  33
ENDBRANCH   6  27
TORSDOF 8
ENDMDL
