MODEL 1
REMARK VINA RESULT:    -9.085      0.000      0.000
REMARK INTER + INTRA:         -13.986
REMARK INTER:                 -12.803
REMARK INTRA:                  -1.183
REMARK UNBOUND:                -1.183
REMARK SMILES CCN(CC)CCNC(=O)c1c(C)[nH]c(/C=C2\C(=O)Nc3ccc(F)cc32)c1C
REMARK SMILES IDX 7 1 6 2 3 3 2 4 1 5 4 6 5 7 8 8 9 9 10 11 11 12 12 13 28 14
REMARK SMILES IDX 13 15 14 16 15 17 29 18 16 20 17 21 18 22 27 23 19 24 20 25
REMARK SMILES IDX 21 26 26 27 22 29 24 30 23 31 25 32
REMARK H PARENT 8 10 14 19 20 28
REMARK Flexibility Score: inf
ROOT
ATOM      1  C   UNL     1      26.154  23.100  36.032  1.00  0.00     0.131 C 
ENDROOT
BRANCH   1   2
ATOM      2  C   UNL     1      25.840  23.431  34.558  1.00  0.00     0.105 C 
BRANCH   2   3
ATOM      3  N   UNL     1      25.920  22.277  33.626  1.00  0.00    -0.302 NA
BRANCH   3   4
ATOM      4  C   UNL     1      26.197  22.580  32.204  1.00  0.00     0.081 C 
ATOM      5  C   UNL     1      26.341  24.084  31.984  1.00  0.00     0.021 C 
ENDBRANCH   3   4
BRANCH   3   6
ATOM      6  C   UNL     1      26.653  21.103  34.149  1.00  0.00     0.081 C 
ATOM      7  C   UNL     1      28.069  20.960  33.587  1.00  0.00     0.021 C 
ENDBRANCH   3   6
ENDBRANCH   2   3
ENDBRANCH   1   2
BRANCH   1   8
ATOM      8  N   UNL     1      25.130  23.669  36.904  1.00  0.00    -0.351 N 
ATOM      9  C   UNL     1      24.074  22.879  37.469  1.00  0.00     0.253 C 
ATOM     10  H   UNL     1      25.132  24.702  37.058  1.00  0.00     0.163 HD
ATOM     11  O   UNL     1      23.862  21.714  37.036  1.00  0.00    -0.269 OA
BRANCH   9  12
ATOM     12  C   UNL     1      23.211  23.426  38.537  1.00  0.00     0.063 A 
ATOM     13  C   UNL     1      23.565  23.691  39.856  1.00  0.00     0.025 A 
ATOM     14  C   UNL     1      21.856  23.719  38.434  1.00  0.00    -0.013 A 
ATOM     15  C   UNL     1      24.906  23.480  40.487  1.00  0.00     0.065 C 
ATOM     16  N   UNL     1      22.497  24.146  40.540  1.00  0.00    -0.358 N 
ATOM     17  C   UNL     1      21.460  24.180  39.684  1.00  0.00     0.043 A 
ATOM     18  C   UNL     1      20.983  23.483  37.237  1.00  0.00     0.047 C 
ATOM     19  H   UNL     1      22.475  24.411  41.550  1.00  0.00     0.166 HD
BRANCH  17  20
ATOM     20  C   UNL     1      20.102  24.571  40.093  1.00  0.00     0.041 C 
ATOM     21  C   UNL     1      19.695  25.845  40.172  1.00  0.00     0.051 C 
ATOM     22  C   UNL     1      20.463  27.083  39.964  1.00  0.00     0.256 C 
ATOM     23  C   UNL     1      18.363  26.318  40.555  1.00  0.00     0.014 A 
ATOM     24  O   UNL     1      21.687  27.156  39.682  1.00  0.00    -0.269 OA
ATOM     25  N   UNL     1      19.644  28.229  40.183  1.00  0.00    -0.321 N 
ATOM     26  C   UNL     1      18.373  27.702  40.545  1.00  0.00     0.049 A 
ATOM     27  C   UNL     1      17.208  25.605  40.886  1.00  0.00     0.050 A 
ATOM     28  H   UNL     1      19.925  29.233  40.125  1.00  0.00     0.170 HD
ATOM     29  C   UNL     1      17.235  28.439  40.868  1.00  0.00     0.030 A 
ATOM     30  C   UNL     1      16.050  26.330  41.214  1.00  0.00     0.123 A 
ATOM     31  C   UNL     1      16.063  27.740  41.206  1.00  0.00     0.041 A 
ATOM     32  F   UNL     1      14.911  25.670  41.540  1.00  0.00    -0.207 F 
ENDBRANCH  17  20
ENDBRANCH   9  12
ENDBRANCH   1   8
TORSDOF 7
ENDMDL
MODEL 2
REMARK VINA RESULT:    -7.981      5.291     12.054
REMARK INTER + INTRA:         -12.429
REMARK INTER:                 -12.096
REMARK INTRA:                  -0.333
REMARK UNBOUND:                -1.183
REMARK SMILES CCN(CC)CCNC(=O)c1c(C)[nH]c(/C=C2\C(=O)Nc3ccc(F)cc32)c1C
REMARK SMILES IDX 7 1 6 2 3 3 2 4 1 5 4 6 5 7 8 8 9 9 10 11 11 12 12 13 28 14
REMARK SMILES IDX 13 15 14 16 15 17 29 18 16 20 17 21 18 22 27 23 19 24 20 25
REMARK SMILES IDX 21 26 26 27 22 29 24 30 23 31 25 32
REMARK H PARENT 8 10 14 19 20 28
REMARK Flexibility Score: inf
ROOT
ATOM      1  C   UNL     1      10.256  28.381  39.967  1.00  0.00     0.131 C 
ENDROOT
BRANCH   1   2
ATOM      2  C   UNL     1       9.603  29.660  40.532  1.00  0.00     0.105 C 
BRANCH   2   3
ATOM      3  N   UNL     1       8.743  30.400  39.572  1.00  0.00    -0.302 NA
BRANCH   3   4
ATOM      4  C   UNL     1       8.866  31.874  39.559  1.00  0.00     0.081 C 
ATOM      5  C   UNL     1      10.038  32.333  40.424  1.00  0.00     0.021 C 
ENDBRANCH   3   4
BRANCH   3   6
ATOM      6  C   UNL     1       8.639  29.788  38.230  1.00  0.00     0.081 C 
ATOM      7  C   UNL     1       7.203  29.678  37.713  1.00  0.00     0.021 C 
ENDBRANCH   3   6
ENDBRANCH   2   3
ENDBRANCH   1   2
BRANCH   1   8
ATOM      8  N   UNL     1      11.673  28.343  40.319  1.00  0.00    -0.351 N 
ATOM      9  C   UNL     1      12.233  27.311  41.145  1.00  0.00     0.253 C 
ATOM     10  H   UNL     1      12.278  29.137  40.014  1.00  0.00     0.163 HD
ATOM     11  O   UNL     1      11.471  26.541  41.788  1.00  0.00    -0.269 OA
BRANCH   9  12
ATOM     12  C   UNL     1      13.698  27.160  41.273  1.00  0.00     0.063 A 
ATOM     13  C   UNL     1      14.570  27.969  41.994  1.00  0.00     0.025 A 
ATOM     14  C   UNL     1      14.489  26.209  40.639  1.00  0.00    -0.013 A 
ATOM     15  C   UNL     1      14.214  29.177  42.804  1.00  0.00     0.065 C 
ATOM     16  N   UNL     1      15.837  27.538  41.840  1.00  0.00    -0.358 N 
ATOM     17  C   UNL     1      15.797  26.464  41.031  1.00  0.00     0.043 A 
ATOM     18  C   UNL     1      14.023  25.182  39.649  1.00  0.00     0.047 C 
ATOM     19  H   UNL     1      16.693  27.967  42.259  1.00  0.00     0.166 HD
BRANCH  17  20
ATOM     20  C   UNL     1      17.008  25.756  40.587  1.00  0.00     0.041 C 
ATOM     21  C   UNL     1      18.169  26.374  40.332  1.00  0.00     0.051 C 
ATOM     22  C   UNL     1      18.485  27.812  40.353  1.00  0.00     0.256 C 
ATOM     23  C   UNL     1      19.420  25.747  39.901  1.00  0.00     0.014 A 
ATOM     24  O   UNL     1      17.677  28.743  40.608  1.00  0.00    -0.269 OA
ATOM     25  N   UNL     1      19.842  28.038  39.983  1.00  0.00    -0.321 N 
ATOM     26  C   UNL     1      20.364  26.741  39.714  1.00  0.00     0.049 A 
ATOM     27  C   UNL     1      19.734  24.402  39.688  1.00  0.00     0.050 A 
ATOM     28  H   UNL     1      20.334  28.953  39.894  1.00  0.00     0.170 HD
ATOM     29  C   UNL     1      21.662  26.443  39.302  1.00  0.00     0.030 A 
ATOM     30  C   UNL     1      21.037  24.080  39.273  1.00  0.00     0.123 A 
ATOM     31  C   UNL     1      21.997  25.095  39.081  1.00  0.00     0.041 A 
ATOM     32  F   UNL     1      21.375  22.785  39.058  1.00  0.00    -0.207 F 
ENDBRANCH  17  20
ENDBRANCH   9  12
ENDBRANCH   1   8
TORSDOF 7
ENDMDL
MODEL 3
REMARK VINA RESULT:    -7.906      6.330     12.268
REMARK INTER + INTRA:         -12.324
REMARK INTER:                 -11.226
REMARK INTRA:                  -1.099
REMARK UNBOUND:                -1.183
REMARK SMILES CCN(CC)CCNC(=O)c1c(C)[nH]c(/C=C2\C(=O)Nc3ccc(F)cc32)c1C
REMARK SMILES IDX 7 1 6 2 3 3 2 4 1 5 4 6 5 7 8 8 9 9 10 11 11 12 12 13 28 14
REMARK SMILES IDX 13 15 14 16 15 17 29 18 16 20 17 21 18 22 27 23 19 24 20 25
REMARK SMILES IDX 21 26 26 27 22 29 24 30 23 31 25 32
REMARK H PARENT 8 10 14 19 20 28
REMARK Flexibility Score: inf
ROOT
ATOM      1  C   UNL     1       8.937  26.886  39.714  1.00  0.00     0.131 C 
ENDROOT
BRANCH   1   2
ATOM      2  C   UNL     1       8.207  28.238  39.854  1.00  0.00     0.105 C 
BRANCH   2   3
ATOM      3  N   UNL     1       8.955  29.410  39.330  1.00  0.00    -0.302 NA
BRANCH   3   4
ATOM      4  C   UNL     1       8.620  29.865  37.963  1.00  0.00     0.081 C 
ATOM      5  C   UNL     1       7.119  29.756  37.703  1.00  0.00     0.021 C 
ENDBRANCH   3   4
BRANCH   3   6
ATOM      6  C   UNL     1       9.151  30.508  40.303  1.00  0.00     0.081 C 
ATOM      7  C   UNL     1       9.551  31.837  39.658  1.00  0.00     0.021 C 
ENDBRANCH   3   6
ENDBRANCH   2   3
ENDBRANCH   1   2
BRANCH   1   8
ATOM      8  N   UNL     1      10.242  26.949  40.366  1.00  0.00    -0.351 N 
ATOM      9  C   UNL     1      10.974  25.772  40.738  1.00  0.00     0.253 C 
ATOM     10  H   UNL     1      10.615  27.887  40.632  1.00  0.00     0.163 HD
ATOM     11  O   UNL     1      10.402  24.649  40.728  1.00  0.00    -0.269 OA
BRANCH   9  12
ATOM     12  C   UNL     1      12.387  25.865  41.162  1.00  0.00     0.063 A 
ATOM     13  C   UNL     1      12.877  26.373  42.361  1.00  0.00     0.025 A 
ATOM     14  C   UNL     1      13.501  25.517  40.406  1.00  0.00    -0.013 A 
ATOM     15  C   UNL     1      12.076  26.938  43.493  1.00  0.00     0.065 C 
ATOM     16  N   UNL     1      14.223  26.327  42.369  1.00  0.00    -0.358 N 
ATOM     17  C   UNL     1      14.611  25.798  41.194  1.00  0.00     0.043 A 
ATOM     18  C   UNL     1      13.497  25.034  38.986  1.00  0.00     0.047 C 
ATOM     19  H   UNL     1      14.851  26.653  43.138  1.00  0.00     0.166 HD
BRANCH  17  20
ATOM     20  C   UNL     1      16.025  25.647  40.816  1.00  0.00     0.041 C 
ATOM     21  C   UNL     1      16.891  26.668  40.788  1.00  0.00     0.051 C 
ATOM     22  C   UNL     1      16.654  28.100  41.032  1.00  0.00     0.256 C 
ATOM     23  C   UNL     1      18.312  26.603  40.439  1.00  0.00     0.014 A 
ATOM     24  O   UNL     1      15.545  28.631  41.301  1.00  0.00    -0.269 OA
ATOM     25  N   UNL     1      17.855  28.848  40.864  1.00  0.00    -0.321 N 
ATOM     26  C   UNL     1      18.835  27.882  40.499  1.00  0.00     0.049 A 
ATOM     27  C   UNL     1      19.113  25.510  40.097  1.00  0.00     0.050 A 
ATOM     28  H   UNL     1      17.980  29.880  40.954  1.00  0.00     0.170 HD
ATOM     29  C   UNL     1      20.176  28.134  40.217  1.00  0.00     0.030 A 
ATOM     30  C   UNL     1      20.469  25.742  39.809  1.00  0.00     0.123 A 
ATOM     31  C   UNL     1      20.998  27.048  39.868  1.00  0.00     0.041 A 
ATOM     32  F   UNL     1      21.274  24.704  39.474  1.00  0.00    -0.207 F 
ENDBRANCH  17  20
ENDBRANCH   9  12
ENDBRANCH   1   8
TORSDOF 7
ENDMDL
MODEL 4
REMARK VINA RESULT:    -7.782      6.875     12.780
REMARK INTER + INTRA:         -12.150
REMARK INTER:                 -10.848
REMARK INTRA:                  -1.302
REMARK UNBOUND:                -1.183
REMARK SMILES CCN(CC)CCNC(=O)c1c(C)[nH]c(/C=C2\C(=O)Nc3ccc(F)cc32)c1C
REMARK SMILES IDX 7 1 6 2 3 3 2 4 1 5 4 6 5 7 8 8 9 9 10 11 11 12 12 13 28 14
REMARK SMILES IDX 13 15 14 16 15 17 29 18 16 20 17 21 18 22 27 23 19 24 20 25
REMARK SMILES IDX 21 26 26 27 22 29 24 30 23 31 25 32
REMARK H PARENT 8 10 14 19 20 28
REMARK Flexibility Score: inf
ROOT
ATOM      1  C   UNL     1       8.184  27.806  40.651  1.00  0.00     0.131 C 
ENDROOT
BRANCH   1   2
ATOM      2  C   UNL     1       7.815  29.297  40.798  1.00  0.00     0.105 C 
BRANCH   2   3
ATOM      3  N   UNL     1       8.360  30.185  39.739  1.00  0.00    -0.302 NA
BRANCH   3   4
ATOM      4  C   UNL     1       9.525  31.023  40.098  1.00  0.00     0.081 C 
ATOM      5  C   UNL     1       9.375  32.436  39.536  1.00  0.00     0.021 C 
ENDBRANCH   3   4
BRANCH   3   6
ATOM      6  C   UNL     1       8.446  29.571  38.395  1.00  0.00     0.081 C 
ATOM      7  C   UNL     1       7.129  29.604  37.618  1.00  0.00     0.021 C 
ENDBRANCH   3   6
ENDBRANCH   2   3
ENDBRANCH   1   2
BRANCH   1   8
ATOM      8  N   UNL     1       9.484  27.548  41.265  1.00  0.00    -0.351 N 
ATOM      9  C   UNL     1      10.097  26.250  41.251  1.00  0.00     0.253 C 
ATOM     10  H   UNL     1       9.943  28.323  41.792  1.00  0.00     0.163 HD
ATOM     11  O   UNL     1       9.420  25.241  40.916  1.00  0.00    -0.269 OA
BRANCH   9  12
ATOM     12  C   UNL     1      11.509  26.079  41.654  1.00  0.00     0.063 A 
ATOM     13  C   UNL     1      12.031  26.125  42.943  1.00  0.00     0.025 A 
ATOM     14  C   UNL     1      12.594  25.900  40.804  1.00  0.00    -0.013 A 
ATOM     15  C   UNL     1      11.272  26.359  44.212  1.00  0.00     0.065 C 
ATOM     16  N   UNL     1      13.367  25.963  42.908  1.00  0.00    -0.358 N 
ATOM     17  C   UNL     1      13.718  25.813  41.617  1.00  0.00     0.043 A 
ATOM     18  C   UNL     1      12.560  25.907  39.304  1.00  0.00     0.047 C 
ATOM     19  H   UNL     1      14.014  25.967  43.728  1.00  0.00     0.166 HD
BRANCH  17  20
ATOM     20  C   UNL     1      15.116  25.672  41.183  1.00  0.00     0.041 C 
ATOM     21  C   UNL     1      15.980  26.694  41.142  1.00  0.00     0.051 C 
ATOM     22  C   UNL     1      15.751  28.121  41.423  1.00  0.00     0.256 C 
ATOM     23  C   UNL     1      17.387  26.638  40.738  1.00  0.00     0.014 A 
ATOM     24  O   UNL     1      14.653  28.644  41.746  1.00  0.00    -0.269 OA
ATOM     25  N   UNL     1      16.945  28.874  41.226  1.00  0.00    -0.321 N 
ATOM     26  C   UNL     1      17.911  27.917  40.803  1.00  0.00     0.049 A 
ATOM     27  C   UNL     1      18.174  25.554  40.343  1.00  0.00     0.050 A 
ATOM     28  H   UNL     1      17.072  29.904  41.331  1.00  0.00     0.170 HD
ATOM     29  C   UNL     1      19.240  28.176  40.475  1.00  0.00     0.030 A 
ATOM     30  C   UNL     1      19.518  25.794  40.008  1.00  0.00     0.123 A 
ATOM     31  C   UNL     1      20.048  27.098  40.074  1.00  0.00     0.041 A 
ATOM     32  F   UNL     1      20.310  24.763  39.621  1.00  0.00    -0.207 F 
ENDBRANCH  17  20
ENDBRANCH   9  12
ENDBRANCH   1   8
TORSDOF 7
ENDMDL
MODEL 5
REMARK VINA RESULT:    -7.364      3.134      5.908
REMARK INTER + INTRA:         -11.560
REMARK INTER:                 -11.094
REMARK INTRA:                  -0.466
REMARK UNBOUND:                -1.183
REMARK SMILES CCN(CC)CCNC(=O)c1c(C)[nH]c(/C=C2\C(=O)Nc3ccc(F)cc32)c1C
REMARK SMILES IDX 7 1 6 2 3 3 2 4 1 5 4 6 5 7 8 8 9 9 10 11 11 12 12 13 28 14
REMARK SMILES IDX 13 15 14 16 15 17 29 18 16 20 17 21 18 22 27 23 19 24 20 25
REMARK SMILES IDX 21 26 26 27 22 29 24 30 23 31 25 32
REMARK H PARENT 8 10 14 19 20 28
REMARK Flexibility Score: inf
ROOT
ATOM      1  C   UNL     1      21.444  24.199  37.938  1.00  0.00     0.131 C 
ENDROOT
BRANCH   1   2
ATOM      2  C   UNL     1      22.118  23.210  38.912  1.00  0.00     0.105 C 
BRANCH   2   3
ATOM      3  N   UNL     1      23.554  22.944  38.639  1.00  0.00    -0.302 NA
BRANCH   3   4
ATOM      4  C   UNL     1      24.090  23.414  37.342  1.00  0.00     0.081 C 
ATOM      5  C   UNL     1      25.605  23.593  37.410  1.00  0.00     0.021 C 
ENDBRANCH   3   4
BRANCH   3   6
ATOM      6  C   UNL     1      24.459  23.172  39.787  1.00  0.00     0.081 C 
ATOM      7  C   UNL     1      23.731  23.540  41.081  1.00  0.00     0.021 C 
ENDBRANCH   3   6
ENDBRANCH   2   3
ENDBRANCH   1   2
BRANCH   1   8
ATOM      8  N   UNL     1      20.218  24.729  38.530  1.00  0.00    -0.351 N 
ATOM      9  C   UNL     1      20.219  25.512  39.732  1.00  0.00     0.253 C 
ATOM     10  H   UNL     1      19.306  24.463  38.095  1.00  0.00     0.163 HD
ATOM     11  O   UNL     1      21.258  25.564  40.445  1.00  0.00    -0.269 OA
BRANCH   9  12
ATOM     12  C   UNL     1      19.005  26.238  40.162  1.00  0.00     0.063 A 
ATOM     13  C   UNL     1      18.806  27.614  40.179  1.00  0.00     0.025 A 
ATOM     14  C   UNL     1      17.850  25.673  40.692  1.00  0.00    -0.013 A 
ATOM     15  C   UNL     1      19.784  28.669  39.764  1.00  0.00     0.065 C 
ATOM     16  N   UNL     1      17.586  27.900  40.673  1.00  0.00    -0.358 N 
ATOM     17  C   UNL     1      16.993  26.730  40.974  1.00  0.00     0.043 A 
ATOM     18  C   UNL     1      17.626  24.220  40.991  1.00  0.00     0.047 C 
ATOM     19  H   UNL     1      17.179  28.853  40.810  1.00  0.00     0.166 HD
BRANCH  17  20
ATOM     20  C   UNL     1      15.663  26.648  41.597  1.00  0.00     0.041 C 
ATOM     21  C   UNL     1      14.581  26.179  40.960  1.00  0.00     0.051 C 
ATOM     22  C   UNL     1      14.438  25.736  39.564  1.00  0.00     0.256 C 
ATOM     23  C   UNL     1      13.229  26.050  41.509  1.00  0.00     0.014 A 
ATOM     24  O   UNL     1      15.345  25.740  38.691  1.00  0.00    -0.269 OA
ATOM     25  N   UNL     1      13.096  25.343  39.292  1.00  0.00    -0.321 N 
ATOM     26  C   UNL     1      12.400  25.560  40.515  1.00  0.00     0.049 A 
ATOM     27  C   UNL     1      12.738  26.330  42.786  1.00  0.00     0.050 A 
ATOM     28  H   UNL     1      12.703  25.006  38.386  1.00  0.00     0.170 HD
ATOM     29  C   UNL     1      11.046  25.330  40.745  1.00  0.00     0.030 A 
ATOM     30  C   UNL     1      11.374  26.105  43.039  1.00  0.00     0.123 A 
ATOM     31  C   UNL     1      10.532  25.607  42.024  1.00  0.00     0.041 A 
ATOM     32  F   UNL     1      10.864  26.366  44.269  1.00  0.00    -0.207 F 
ENDBRANCH  17  20
ENDBRANCH   9  12
ENDBRANCH   1   8
TORSDOF 7
ENDMDL
MODEL 6
REMARK VINA RESULT:    -7.290      6.404     10.728
REMARK INTER + INTRA:         -11.456
REMARK INTER:                 -10.758
REMARK INTRA:                  -0.698
REMARK UNBOUND:                -1.183
REMARK SMILES CCN(CC)CCNC(=O)c1c(C)[nH]c(/C=C2\C(=O)Nc3ccc(F)cc32)c1C
REMARK SMILES IDX 7 1 6 2 3 3 2 4 1 5 4 6 5 7 8 8 9 9 10 11 11 12 12 13 28 14
REMARK SMILES IDX 13 15 14 16 15 17 29 18 16 20 17 21 18 22 27 23 19 24 20 25
REMARK SMILES IDX 21 26 26 27 22 29 24 30 23 31 25 32
REMARK H PARENT 8 10 14 19 20 28
REMARK Flexibility Score: inf
ROOT
ATOM      1  C   UNL     1       9.507  23.213  39.098  1.00  0.00     0.131 C 
ENDROOT
BRANCH   1   2
ATOM      2  C   UNL     1       9.508  21.751  38.606  1.00  0.00     0.105 C 
BRANCH   2   3
ATOM      3  N   UNL     1      10.704  21.357  37.817  1.00  0.00    -0.302 NA
BRANCH   3   4
ATOM      4  C   UNL     1      11.546  20.273  38.369  1.00  0.00     0.081 C 
ATOM      5  C   UNL     1      12.749  20.844  39.118  1.00  0.00     0.021 C 
ENDBRANCH   3   4
BRANCH   3   6
ATOM      6  C   UNL     1      10.485  21.270  36.356  1.00  0.00     0.081 C 
ATOM      7  C   UNL     1      11.747  20.918  35.565  1.00  0.00     0.021 C 
ENDBRANCH   3   6
ENDBRANCH   2   3
ENDBRANCH   1   2
BRANCH   1   8
ATOM      8  N   UNL     1      10.868  23.639  39.413  1.00  0.00    -0.351 N 
ATOM      9  C   UNL     1      11.149  24.857  40.117  1.00  0.00     0.253 C 
ATOM     10  H   UNL     1      11.660  23.067  39.046  1.00  0.00     0.163 HD
ATOM     11  O   UNL     1      10.239  25.715  40.274  1.00  0.00    -0.269 OA
BRANCH   9  12
ATOM     12  C   UNL     1      12.506  25.132  40.636  1.00  0.00     0.063 A 
ATOM     13  C   UNL     1      12.842  25.694  41.864  1.00  0.00     0.025 A 
ATOM     14  C   UNL     1      13.705  24.936  39.960  1.00  0.00    -0.013 A 
ATOM     15  C   UNL     1      11.898  26.144  42.935  1.00  0.00     0.065 C 
ATOM     16  N   UNL     1      14.179  25.824  41.963  1.00  0.00    -0.358 N 
ATOM     17  C   UNL     1      14.712  25.356  40.820  1.00  0.00     0.043 A 
ATOM     18  C   UNL     1      13.860  24.463  38.544  1.00  0.00     0.047 C 
ATOM     19  H   UNL     1      14.704  26.227  42.772  1.00  0.00     0.166 HD
BRANCH  17  20
ATOM     20  C   UNL     1      16.155  25.393  40.540  1.00  0.00     0.041 C 
ATOM     21  C   UNL     1      16.895  26.506  40.635  1.00  0.00     0.051 C 
ATOM     22  C   UNL     1      16.473  27.883  40.941  1.00  0.00     0.256 C 
ATOM     23  C   UNL     1      18.333  26.627  40.389  1.00  0.00     0.014 A 
ATOM     24  O   UNL     1      15.293  28.264  41.156  1.00  0.00    -0.269 OA
ATOM     25  N   UNL     1      17.585  28.773  40.906  1.00  0.00    -0.321 N 
ATOM     26  C   UNL     1      18.695  27.951  40.560  1.00  0.00     0.049 A 
ATOM     27  C   UNL     1      19.279  25.658  40.046  1.00  0.00     0.050 A 
ATOM     28  H   UNL     1      17.580  29.804  41.063  1.00  0.00     0.170 HD
ATOM     29  C   UNL     1      20.013  28.373  40.393  1.00  0.00     0.030 A 
ATOM     30  C   UNL     1      20.614  26.062  39.873  1.00  0.00     0.123 A 
ATOM     31  C   UNL     1      20.979  27.413  40.046  1.00  0.00     0.041 A 
ATOM     32  F   UNL     1      21.558  25.146  39.540  1.00  0.00    -0.207 F 
ENDBRANCH  17  20
ENDBRANCH   9  12
ENDBRANCH   1   8
TORSDOF 7
ENDMDL
MODEL 7
REMARK VINA RESULT:    -7.243      8.931     12.036
REMARK INTER + INTRA:         -11.390
REMARK INTER:                 -10.035
REMARK INTRA:                  -1.355
REMARK UNBOUND:                -1.183
REMARK SMILES CCN(CC)CCNC(=O)c1c(C)[nH]c(/C=C2\C(=O)Nc3ccc(F)cc32)c1C
REMARK SMILES IDX 7 1 6 2 3 3 2 4 1 5 4 6 5 7 8 8 9 9 10 11 11 12 12 13 28 14
REMARK SMILES IDX 13 15 14 16 15 17 29 18 16 20 17 21 18 22 27 23 19 24 20 25
REMARK SMILES IDX 21 26 26 27 22 29 24 30 23 31 25 32
REMARK H PARENT 8 10 14 19 20 28
REMARK Flexibility Score: inf
ROOT
ATOM      1  C   UNL     1      27.717  13.628  31.288  1.00  0.00     0.131 C 
ENDROOT
BRANCH   1   2
ATOM      2  C   UNL     1      26.431  13.636  32.141  1.00  0.00     0.105 C 
BRANCH   2   3
ATOM      3  N   UNL     1      26.348  14.734  33.139  1.00  0.00    -0.302 NA
BRANCH   3   4
ATOM      4  C   UNL     1      25.226  15.687  32.998  1.00  0.00     0.081 C 
ATOM      5  C   UNL     1      25.561  17.026  33.651  1.00  0.00     0.021 C 
ENDBRANCH   3   4
BRANCH   3   6
ATOM      6  C   UNL     1      26.628  14.329  34.534  1.00  0.00     0.081 C 
ATOM      7  C   UNL     1      28.071  14.588  34.972  1.00  0.00     0.021 C 
ENDBRANCH   3   6
ENDBRANCH   2   3
ENDBRANCH   1   2
BRANCH   1   8
ATOM      8  N   UNL     1      28.268  14.978  31.196  1.00  0.00    -0.351 N 
ATOM      9  C   UNL     1      28.529  15.618  29.939  1.00  0.00     0.253 C 
ATOM     10  H   UNL     1      28.545  15.458  32.081  1.00  0.00     0.163 HD
ATOM     11  O   UNL     1      28.515  14.941  28.876  1.00  0.00    -0.269 OA
BRANCH   9  12
ATOM     12  C   UNL     1      28.845  17.061  29.878  1.00  0.00     0.063 A 
ATOM     13  C   UNL     1      30.105  17.648  29.825  1.00  0.00     0.025 A 
ATOM     14  C   UNL     1      27.933  18.109  29.929  1.00  0.00    -0.013 A 
ATOM     15  C   UNL     1      31.426  16.942  29.815  1.00  0.00     0.065 C 
ATOM     16  N   UNL     1      29.992  18.990  29.820  1.00  0.00    -0.358 N 
ATOM     17  C   UNL     1      28.679  19.280  29.869  1.00  0.00     0.043 A 
ATOM     18  C   UNL     1      26.449  17.989  30.115  1.00  0.00     0.047 C 
ATOM     19  H   UNL     1      30.778  19.679  29.796  1.00  0.00     0.166 HD
BRANCH  17  20
ATOM     20  C   UNL     1      28.170  20.658  29.940  1.00  0.00     0.041 C 
ATOM     21  C   UNL     1      27.799  21.247  31.084  1.00  0.00     0.051 C 
ATOM     22  C   UNL     1      27.735  20.687  32.444  1.00  0.00     0.256 C 
ATOM     23  C   UNL     1      27.296  22.613  31.245  1.00  0.00     0.014 A 
ATOM     24  O   UNL     1      28.014  19.503  32.770  1.00  0.00    -0.269 OA
ATOM     25  N   UNL     1      27.249  21.655  33.369  1.00  0.00    -0.321 N 
ATOM     26  C   UNL     1      26.994  22.813  32.580  1.00  0.00     0.049 A 
ATOM     27  C   UNL     1      27.115  23.629  30.303  1.00  0.00     0.050 A 
ATOM     28  H   UNL     1      27.083  21.532  34.392  1.00  0.00     0.170 HD
ATOM     29  C   UNL     1      26.494  24.030  33.039  1.00  0.00     0.030 A 
ATOM     30  C   UNL     1      26.612  24.865  30.746  1.00  0.00     0.123 A 
ATOM     31  C   UNL     1      26.303  25.064  32.106  1.00  0.00     0.041 A 
ATOM     32  F   UNL     1      26.425  25.873  29.857  1.00  0.00    -0.207 F 
ENDBRANCH  17  20
ENDBRANCH   9  12
ENDBRANCH   1   8
TORSDOF 7
ENDMDL
MODEL 8
REMARK VINA RESULT:    -7.233      3.941      6.582
REMARK INTER + INTRA:         -11.375
REMARK INTER:                 -10.147
REMARK INTRA:                  -1.228
REMARK UNBOUND:                -1.183
REMARK SMILES CCN(CC)CCNC(=O)c1c(C)[nH]c(/C=C2\C(=O)Nc3ccc(F)cc32)c1C
REMARK SMILES IDX 7 1 6 2 3 3 2 4 1 5 4 6 5 7 8 8 9 9 10 11 11 12 12 13 28 14
REMARK SMILES IDX 13 15 14 16 15 17 29 18 16 20 17 21 18 22 27 23 19 24 20 25
REMARK SMILES IDX 21 26 26 27 22 29 24 30 23 31 25 32
REMARK H PARENT 8 10 14 19 20 28
REMARK Flexibility Score: inf
ROOT
ATOM      1  C   UNL     1      27.654  23.139  29.855  1.00  0.00     0.131 C 
ENDROOT
BRANCH   1   2
ATOM      2  C   UNL     1      27.992  22.002  28.867  1.00  0.00     0.105 C 
BRANCH   2   3
ATOM      3  N   UNL     1      28.258  20.683  29.497  1.00  0.00    -0.302 NA
BRANCH   3   4
ATOM      4  C   UNL     1      27.333  19.579  29.161  1.00  0.00     0.081 C 
ATOM      5  C   UNL     1      26.136  19.561  30.109  1.00  0.00     0.021 C 
ENDBRANCH   3   4
BRANCH   3   6
ATOM      6  C   UNL     1      29.683  20.289  29.538  1.00  0.00     0.081 C 
ATOM      7  C   UNL     1      29.905  18.817  29.895  1.00  0.00     0.021 C 
ENDBRANCH   3   6
ENDBRANCH   2   3
ENDBRANCH   1   2
BRANCH   1   8
ATOM      8  N   UNL     1      26.938  22.605  31.010  1.00  0.00    -0.351 N 
ATOM      9  C   UNL     1      27.587  22.344  32.263  1.00  0.00     0.253 C 
ATOM     10  H   UNL     1      25.936  22.339  30.889  1.00  0.00     0.163 HD
ATOM     11  O   UNL     1      28.846  22.343  32.330  1.00  0.00    -0.269 OA
BRANCH   9  12
ATOM     12  C   UNL     1      26.794  22.045  33.475  1.00  0.00     0.063 A 
ATOM     13  C   UNL     1      26.613  20.807  34.082  1.00  0.00     0.025 A 
ATOM     14  C   UNL     1      26.024  22.947  34.201  1.00  0.00    -0.013 A 
ATOM     15  C   UNL     1      27.187  19.496  33.639  1.00  0.00     0.065 C 
ATOM     16  N   UNL     1      25.793  20.926  35.144  1.00  0.00    -0.358 N 
ATOM     17  C   UNL     1      25.441  22.222  35.233  1.00  0.00     0.043 A 
ATOM     18  C   UNL     1      25.794  24.392  33.866  1.00  0.00     0.047 C 
ATOM     19  H   UNL     1      25.478  20.154  35.774  1.00  0.00     0.166 HD
BRANCH  17  20
ATOM     20  C   UNL     1      24.498  22.723  36.243  1.00  0.00     0.041 C 
ATOM     21  C   UNL     1      24.820  22.888  37.533  1.00  0.00     0.051 C 
ATOM     22  C   UNL     1      26.075  22.562  38.230  1.00  0.00     0.256 C 
ATOM     23  C   UNL     1      23.950  23.394  38.597  1.00  0.00     0.014 A 
ATOM     24  O   UNL     1      27.093  22.034  37.712  1.00  0.00    -0.269 OA
ATOM     25  N   UNL     1      25.979  22.871  39.618  1.00  0.00    -0.321 N 
ATOM     26  C   UNL     1      24.657  23.372  39.786  1.00  0.00     0.049 A 
ATOM     27  C   UNL     1      22.631  23.851  38.549  1.00  0.00     0.050 A 
ATOM     28  H   UNL     1      26.704  22.727  40.354  1.00  0.00     0.170 HD
ATOM     29  C   UNL     1      24.083  23.800  40.981  1.00  0.00     0.030 A 
ATOM     30  C   UNL     1      22.034  24.289  39.744  1.00  0.00     0.123 A 
ATOM     31  C   UNL     1      22.756  24.263  40.954  1.00  0.00     0.041 A 
ATOM     32  F   UNL     1      20.754  24.740  39.732  1.00  0.00    -0.207 F 
ENDBRANCH  17  20
ENDBRANCH   9  12
ENDBRANCH   1   8
TORSDOF 7
ENDMDL
MODEL 9
REMARK VINA RESULT:    -7.204      5.136     11.992
REMARK INTER + INTRA:         -11.335
REMARK INTER:                 -10.621
REMARK INTRA:                  -0.714
REMARK UNBOUND:                -1.183
REMARK SMILES CCN(CC)CCNC(=O)c1c(C)[nH]c(/C=C2\C(=O)Nc3ccc(F)cc32)c1C
REMARK SMILES IDX 7 1 6 2 3 3 2 4 1 5 4 6 5 7 8 8 9 9 10 11 11 12 12 13 28 14
REMARK SMILES IDX 13 15 14 16 15 17 29 18 16 20 17 21 18 22 27 23 19 24 20 25
REMARK SMILES IDX 21 26 26 27 22 29 24 30 23 31 25 32
REMARK H PARENT 8 10 14 19 20 28
REMARK Flexibility Score: inf
ROOT
ATOM      1  C   UNL     1       9.935  26.962  42.123  1.00  0.00     0.131 C 
ENDROOT
BRANCH   1   2
ATOM      2  C   UNL     1       9.602  27.947  43.264  1.00  0.00     0.105 C 
BRANCH   2   3
ATOM      3  N   UNL     1      10.260  29.275  43.157  1.00  0.00    -0.302 NA
BRANCH   3   4
ATOM      4  C   UNL     1       9.752  30.194  42.115  1.00  0.00     0.081 C 
ATOM      5  C   UNL     1      10.878  30.639  41.183  1.00  0.00     0.021 C 
ENDBRANCH   3   4
BRANCH   3   6
ATOM      6  C   UNL     1      10.556  29.928  44.450  1.00  0.00     0.081 C 
ATOM      7  C   UNL     1      11.142  28.981  45.499  1.00  0.00     0.021 C 
ENDBRANCH   3   6
ENDBRANCH   2   3
ENDBRANCH   1   2
BRANCH   1   8
ATOM      8  N   UNL     1      11.361  26.648  42.130  1.00  0.00    -0.351 N 
ATOM      9  C   UNL     1      12.238  27.026  41.059  1.00  0.00     0.253 C 
ATOM     10  H   UNL     1      11.733  26.065  42.913  1.00  0.00     0.163 HD
ATOM     11  O   UNL     1      11.755  27.431  39.968  1.00  0.00    -0.269 OA
BRANCH   9  12
ATOM     12  C   UNL     1      13.704  26.917  41.210  1.00  0.00     0.063 A 
ATOM     13  C   UNL     1      14.542  27.754  41.939  1.00  0.00     0.025 A 
ATOM     14  C   UNL     1      14.531  25.985  40.593  1.00  0.00    -0.013 A 
ATOM     15  C   UNL     1      14.140  28.956  42.737  1.00  0.00     0.065 C 
ATOM     16  N   UNL     1      15.823  27.359  41.806  1.00  0.00    -0.358 N 
ATOM     17  C   UNL     1      15.826  26.279  41.004  1.00  0.00     0.043 A 
ATOM     18  C   UNL     1      14.110  24.940  39.603  1.00  0.00     0.047 C 
ATOM     19  H   UNL     1      16.660  27.814  42.236  1.00  0.00     0.166 HD
BRANCH  17  20
ATOM     20  C   UNL     1      17.062  25.604  40.581  1.00  0.00     0.041 C 
ATOM     21  C   UNL     1      18.211  26.253  40.346  1.00  0.00     0.051 C 
ATOM     22  C   UNL     1      18.488  27.698  40.371  1.00  0.00     0.256 C 
ATOM     23  C   UNL     1      19.486  25.659  39.938  1.00  0.00     0.014 A 
ATOM     24  O   UNL     1      17.651  28.608  40.610  1.00  0.00    -0.269 OA
ATOM     25  N   UNL     1      19.845  27.960  40.025  1.00  0.00    -0.321 N 
ATOM     26  C   UNL     1      20.406  26.677  39.766  1.00  0.00     0.049 A 
ATOM     27  C   UNL     1      19.839  24.323  39.732  1.00  0.00     0.050 A 
ATOM     28  H   UNL     1      20.314  28.889  39.943  1.00  0.00     0.170 HD
ATOM     29  C   UNL     1      21.718  26.414  39.378  1.00  0.00     0.030 A 
ATOM     30  C   UNL     1      21.158  24.036  39.340  1.00  0.00     0.123 A 
ATOM     31  C   UNL     1      22.093  25.076  39.164  1.00  0.00     0.041 A 
ATOM     32  F   UNL     1      21.534  22.749  39.132  1.00  0.00    -0.207 F 
ENDBRANCH  17  20
ENDBRANCH   9  12
ENDBRANCH   1   8
TORSDOF 7
ENDMDL
MODEL 10
REMARK VINA RESULT:    -7.180      6.164     13.167
REMARK INTER + INTRA:         -11.300
REMARK INTER:                 -10.651
REMARK INTRA:                  -0.650
REMARK UNBOUND:                -1.183
REMARK SMILES CCN(CC)CCNC(=O)c1c(C)[nH]c(/C=C2\C(=O)Nc3ccc(F)cc32)c1C
REMARK SMILES IDX 7 1 6 2 3 3 2 4 1 5 4 6 5 7 8 8 9 9 10 11 11 12 12 13 28 14
REMARK SMILES IDX 13 15 14 16 15 17 29 18 16 20 17 21 18 22 27 23 19 24 20 25
REMARK SMILES IDX 21 26 26 27 22 29 24 30 23 31 25 32
REMARK H PARENT 8 10 14 19 20 28
REMARK Flexibility Score: inf
ROOT
ATOM      1  C   UNL     1      25.750  23.158  35.805  1.00  0.00     0.131 C 
ENDROOT
BRANCH   1   2
ATOM      2  C   UNL     1      25.081  22.423  36.986  1.00  0.00     0.105 C 
BRANCH   2   3
ATOM      3  N   UNL     1      24.383  23.305  37.957  1.00  0.00    -0.302 NA
BRANCH   3   4
ATOM      4  C   UNL     1      22.911  23.398  37.844  1.00  0.00     0.081 C 
ATOM      5  C   UNL     1      22.456  24.855  37.828  1.00  0.00     0.021 C 
ENDBRANCH   3   4
BRANCH   3   6
ATOM      6  C   UNL     1      24.880  23.215  39.348  1.00  0.00     0.081 C 
ATOM      7  C   UNL     1      26.238  22.522  39.473  1.00  0.00     0.021 C 
ENDBRANCH   3   6
ENDBRANCH   2   3
ENDBRANCH   1   2
BRANCH   1   8
ATOM      8  N   UNL     1      26.453  22.202  34.953  1.00  0.00    -0.351 N 
ATOM      9  C   UNL     1      26.371  22.244  33.521  1.00  0.00     0.253 C 
ATOM     10  H   UNL     1      26.973  21.422  35.412  1.00  0.00     0.163 HD
ATOM     11  O   UNL     1      25.497  22.960  32.964  1.00  0.00    -0.269 OA
BRANCH   9  12
ATOM     12  C   UNL     1      27.284  21.431  32.689  1.00  0.00     0.063 A 
ATOM     13  C   UNL     1      28.071  21.865  31.628  1.00  0.00     0.025 A 
ATOM     14  C   UNL     1      27.478  20.057  32.777  1.00  0.00    -0.013 A 
ATOM     15  C   UNL     1      28.167  23.260  31.091  1.00  0.00     0.065 C 
ATOM     16  N   UNL     1      28.739  20.826  31.090  1.00  0.00    -0.358 N 
ATOM     17  C   UNL     1      28.397  19.728  31.788  1.00  0.00     0.043 A 
ATOM     18  C   UNL     1      26.754  19.113  33.692  1.00  0.00     0.047 C 
ATOM     19  H   UNL     1      29.391  20.863  30.275  1.00  0.00     0.166 HD
BRANCH  17  20
ATOM     20  C   UNL     1      28.887  18.383  31.448  1.00  0.00     0.041 C 
ATOM     21  C   UNL     1      28.198  17.519  30.690  1.00  0.00     0.051 C 
ATOM     22  C   UNL     1      26.849  17.651  30.116  1.00  0.00     0.256 C 
ATOM     23  C   UNL     1      28.617  16.173  30.294  1.00  0.00     0.014 A 
ATOM     24  O   UNL     1      26.076  18.634  30.261  1.00  0.00    -0.269 OA
ATOM     25  N   UNL     1      26.486  16.474  29.400  1.00  0.00    -0.321 N 
ATOM     26  C   UNL     1      27.602  15.603  29.546  1.00  0.00     0.049 A 
ATOM     27  C   UNL     1      29.801  15.479  30.553  1.00  0.00     0.050 A 
ATOM     28  H   UNL     1      25.586  16.280  28.909  1.00  0.00     0.170 HD
ATOM     29  C   UNL     1      27.718  14.316  29.025  1.00  0.00     0.030 A 
ATOM     30  C   UNL     1      29.938  14.179  30.036  1.00  0.00     0.123 A 
ATOM     31  C   UNL     1      28.901  13.600  29.277  1.00  0.00     0.041 A 
ATOM     32  F   UNL     1      31.075  13.477  30.269  1.00  0.00    -0.207 F 
ENDBRANCH  17  20
ENDBRANCH   9  12
ENDBRANCH   1   8
TORSDOF 7
ENDMDL
MODEL 11
REMARK VINA RESULT:    -7.121      8.472     11.841
REMARK INTER + INTRA:         -11.217
REMARK INTER:                 -10.128
REMARK INTRA:                  -1.089
REMARK UNBOUND:                -1.183
REMARK SMILES CCN(CC)CCNC(=O)c1c(C)[nH]c(/C=C2\C(=O)Nc3ccc(F)cc32)c1C
REMARK SMILES IDX 7 1 6 2 3 3 2 4 1 5 4 6 5 7 8 8 9 9 10 11 11 12 12 13 28 14
REMARK SMILES IDX 13 15 14 16 15 17 29 18 16 20 17 21 18 22 27 23 19 24 20 25
REMARK SMILES IDX 21 26 26 27 22 29 24 30 23 31 25 32
REMARK H PARENT 8 10 14 19 20 28
REMARK Flexibility Score: inf
ROOT
ATOM      1  C   UNL     1      15.703  25.784  39.994  1.00  0.00     0.131 C 
ENDROOT
BRANCH   1   2
ATOM      2  C   UNL     1      16.986  25.444  40.781  1.00  0.00     0.105 C 
BRANCH   2   3
ATOM      3  N   UNL     1      18.179  26.248  40.413  1.00  0.00    -0.302 NA
BRANCH   3   4
ATOM      4  C   UNL     1      18.268  27.615  40.973  1.00  0.00     0.081 C 
ATOM      5  C   UNL     1      19.507  28.339  40.452  1.00  0.00     0.021 C 
ENDBRANCH   3   4
BRANCH   3   6
ATOM      6  C   UNL     1      19.458  25.505  40.423  1.00  0.00     0.081 C 
ATOM      7  C   UNL     1      19.887  25.000  39.044  1.00  0.00     0.021 C 
ENDBRANCH   3   6
ENDBRANCH   2   3
ENDBRANCH   1   2
BRANCH   1   8
ATOM      8  N   UNL     1      14.668  24.791  40.266  1.00  0.00    -0.351 N 
ATOM      9  C   UNL     1      13.512  24.635  39.430  1.00  0.00     0.253 C 
ATOM     10  H   UNL     1      14.743  24.227  41.142  1.00  0.00     0.163 HD
ATOM     11  O   UNL     1      13.239  25.514  38.569  1.00  0.00    -0.269 OA
BRANCH   9  12
ATOM     12  C   UNL     1      12.620  23.467  39.586  1.00  0.00     0.063 A 
ATOM     13  C   UNL     1      11.575  23.317  40.492  1.00  0.00     0.025 A 
ATOM     14  C   UNL     1      12.703  22.265  38.891  1.00  0.00    -0.013 A 
ATOM     15  C   UNL     1      11.121  24.314  41.513  1.00  0.00     0.065 C 
ATOM     16  N   UNL     1      11.018  22.098  40.360  1.00  0.00    -0.358 N 
ATOM     17  C   UNL     1      11.685  21.458  39.384  1.00  0.00     0.043 A 
ATOM     18  C   UNL     1      13.752  21.889  37.886  1.00  0.00     0.047 C 
ATOM     19  H   UNL     1      10.223  21.716  40.921  1.00  0.00     0.166 HD
BRANCH  17  20
ATOM     20  C   UNL     1      11.394  20.068  38.999  1.00  0.00     0.041 C 
ATOM     21  C   UNL     1      10.460  19.735  38.097  1.00  0.00     0.051 C 
ATOM     22  C   UNL     1       9.508  20.597  37.378  1.00  0.00     0.256 C 
ATOM     23  C   UNL     1      10.118  18.384  37.648  1.00  0.00     0.014 A 
ATOM     24  O   UNL     1       9.396  21.844  37.508  1.00  0.00    -0.269 OA
ATOM     25  N   UNL     1       8.662  19.823  36.533  1.00  0.00    -0.321 N 
ATOM     26  C   UNL     1       9.077  18.477  36.741  1.00  0.00     0.049 A 
ATOM     27  C   UNL     1      10.669  17.147  37.991  1.00  0.00     0.050 A 
ATOM     28  H   UNL     1       7.887  20.163  35.923  1.00  0.00     0.170 HD
ATOM     29  C   UNL     1       8.535  17.344  36.137  1.00  0.00     0.030 A 
ATOM     30  C   UNL     1      10.138  15.992  37.393  1.00  0.00     0.123 A 
ATOM     31  C   UNL     1       9.076  16.090  36.471  1.00  0.00     0.041 A 
ATOM     32  F   UNL     1      10.650  14.775  37.703  1.00  0.00    -0.207 F 
ENDBRANCH  17  20
ENDBRANCH   9  12
ENDBRANCH   1   8
TORSDOF 7
ENDMDL
MODEL 12
REMARK VINA RESULT:    -7.120      7.397     14.129
REMARK INTER + INTRA:         -11.216
REMARK INTER:                  -9.504
REMARK INTRA:                  -1.713
REMARK UNBOUND:                -1.183
REMARK SMILES CCN(CC)CCNC(=O)c1c(C)[nH]c(/C=C2\C(=O)Nc3ccc(F)cc32)c1C
REMARK SMILES IDX 7 1 6 2 3 3 2 4 1 5 4 6 5 7 8 8 9 9 10 11 11 12 12 13 28 14
REMARK SMILES IDX 13 15 14 16 15 17 29 18 16 20 17 21 18 22 27 23 19 24 20 25
REMARK SMILES IDX 21 26 26 27 22 29 24 30 23 31 25 32
REMARK H PARENT 8 10 14 19 20 28
REMARK Flexibility Score: inf
ROOT
ATOM      1  C   UNL     1       9.133  29.467  46.300  1.00  0.00     0.131 C 
ENDROOT
BRANCH   1   2
ATOM      2  C   UNL     1       9.910  29.135  47.591  1.00  0.00     0.105 C 
BRANCH   2   3
ATOM      3  N   UNL     1      11.241  29.786  47.706  1.00  0.00    -0.302 NA
BRANCH   3   4
ATOM      4  C   UNL     1      11.260  31.202  48.134  1.00  0.00     0.081 C 
ATOM      5  C   UNL     1      11.783  32.103  47.017  1.00  0.00     0.021 C 
ENDBRANCH   3   4
BRANCH   3   6
ATOM      6  C   UNL     1      12.291  28.951  48.327  1.00  0.00     0.081 C 
ATOM      7  C   UNL     1      12.726  27.765  47.463  1.00  0.00     0.021 C 
ENDBRANCH   3   6
ENDBRANCH   2   3
ENDBRANCH   1   2
BRANCH   1   8
ATOM      8  N   UNL     1       9.941  29.141  45.128  1.00  0.00    -0.351 N 
ATOM      9  C   UNL     1      10.403  30.142  44.209  1.00  0.00     0.253 C 
ATOM     10  H   UNL     1      10.124  28.135  44.920  1.00  0.00     0.163 HD
ATOM     11  O   UNL     1       9.922  31.307  44.257  1.00  0.00    -0.269 OA
BRANCH   9  12
ATOM     12  C   UNL     1      11.417  29.816  43.185  1.00  0.00     0.063 A 
ATOM     13  C   UNL     1      11.197  29.497  41.849  1.00  0.00     0.025 A 
ATOM     14  C   UNL     1      12.789  29.705  43.387  1.00  0.00    -0.013 A 
ATOM     15  C   UNL     1       9.875  29.414  41.151  1.00  0.00     0.065 C 
ATOM     16  N   UNL     1      12.365  29.221  41.239  1.00  0.00    -0.358 N 
ATOM     17  C   UNL     1      13.338  29.358  42.159  1.00  0.00     0.043 A 
ATOM     18  C   UNL     1      13.508  29.835  44.698  1.00  0.00     0.047 C 
ATOM     19  H   UNL     1      12.493  28.940  40.241  1.00  0.00     0.166 HD
BRANCH  17  20
ATOM     20  C   UNL     1      14.753  29.076  41.870  1.00  0.00     0.041 C 
ATOM     21  C   UNL     1      15.216  27.852  41.586  1.00  0.00     0.051 C 
ATOM     22  C   UNL     1      14.502  26.565  41.568  1.00  0.00     0.256 C 
ATOM     23  C   UNL     1      16.600  27.489  41.274  1.00  0.00     0.014 A 
ATOM     24  O   UNL     1      13.287  26.390  41.847  1.00  0.00    -0.269 OA
ATOM     25  N   UNL     1      15.388  25.498  41.244  1.00  0.00    -0.321 N 
ATOM     26  C   UNL     1      16.658  26.120  41.079  1.00  0.00     0.049 A 
ATOM     27  C   UNL     1      17.742  28.285  41.157  1.00  0.00     0.050 A 
ATOM     28  H   UNL     1      15.164  24.481  41.178  1.00  0.00     0.170 HD
ATOM     29  C   UNL     1      17.855  25.481  40.763  1.00  0.00     0.030 A 
ATOM     30  C   UNL     1      18.960  27.659  40.839  1.00  0.00     0.123 A 
ATOM     31  C   UNL     1      19.016  26.265  40.643  1.00  0.00     0.041 A 
ATOM     32  F   UNL     1      20.088  28.403  40.718  1.00  0.00    -0.207 F 
ENDBRANCH  17  20
ENDBRANCH   9  12
ENDBRANCH   1   8
TORSDOF 7
ENDMDL
MODEL 13
REMARK VINA RESULT:    -7.099      9.954     12.070
REMARK INTER + INTRA:         -11.187
REMARK INTER:                  -9.980
REMARK INTRA:                  -1.207
REMARK UNBOUND:                -1.183
REMARK SMILES CCN(CC)CCNC(=O)c1c(C)[nH]c(/C=C2\C(=O)Nc3ccc(F)cc32)c1C
REMARK SMILES IDX 7 1 6 2 3 3 2 4 1 5 4 6 5 7 8 8 9 9 10 11 11 12 12 13 28 14
REMARK SMILES IDX 13 15 14 16 15 17 29 18 16 20 17 21 18 22 27 23 19 24 20 25
REMARK SMILES IDX 21 26 26 27 22 29 24 30 23 31 25 32
REMARK H PARENT 8 10 14 19 20 28
REMARK Flexibility Score: inf
ROOT
ATOM      1  C   UNL     1      27.475  13.782  32.434  1.00  0.00     0.131 C 
ENDROOT
BRANCH   1   2
ATOM      2  C   UNL     1      26.026  13.505  32.888  1.00  0.00     0.105 C 
BRANCH   2   3
ATOM      3  N   UNL     1      25.663  14.076  34.211  1.00  0.00    -0.302 NA
BRANCH   3   4
ATOM      4  C   UNL     1      26.746  14.190  35.212  1.00  0.00     0.081 C 
ATOM      5  C   UNL     1      26.260  13.757  36.594  1.00  0.00     0.021 C 
ENDBRANCH   3   4
BRANCH   3   6
ATOM      6  C   UNL     1      24.760  15.246  34.158  1.00  0.00     0.081 C 
ATOM      7  C   UNL     1      25.468  16.581  34.396  1.00  0.00     0.021 C 
ENDBRANCH   3   6
ENDBRANCH   2   3
ENDBRANCH   1   2
BRANCH   1   8
ATOM      8  N   UNL     1      27.585  15.137  31.902  1.00  0.00    -0.351 N 
ATOM      9  C   UNL     1      28.640  16.031  32.285  1.00  0.00     0.253 C 
ATOM     10  H   UNL     1      26.824  15.484  31.276  1.00  0.00     0.163 HD
ATOM     11  O   UNL     1      29.367  15.753  33.277  1.00  0.00    -0.269 OA
BRANCH   9  12
ATOM     12  C   UNL     1      28.866  17.291  31.547  1.00  0.00     0.063 A 
ATOM     13  C   UNL     1      29.457  17.444  30.298  1.00  0.00     0.025 A 
ATOM     14  C   UNL     1      28.583  18.575  32.000  1.00  0.00    -0.013 A 
ATOM     15  C   UNL     1      29.996  16.358  29.420  1.00  0.00     0.065 C 
ATOM     16  N   UNL     1      29.523  18.749  29.972  1.00  0.00    -0.358 N 
ATOM     17  C   UNL     1      28.984  19.443  30.991  1.00  0.00     0.043 A 
ATOM     18  C   UNL     1      28.048  18.944  33.353  1.00  0.00     0.047 C 
ATOM     19  H   UNL     1      29.930  19.151  29.097  1.00  0.00     0.166 HD
BRANCH  17  20
ATOM     20  C   UNL     1      28.937  20.913  31.018  1.00  0.00     0.041 C 
ATOM     21  C   UNL     1      27.797  21.613  30.943  1.00  0.00     0.051 C 
ATOM     22  C   UNL     1      26.419  21.135  30.751  1.00  0.00     0.256 C 
ATOM     23  C   UNL     1      27.661  23.071  30.977  1.00  0.00     0.014 A 
ATOM     24  O   UNL     1      26.066  19.936  30.600  1.00  0.00    -0.269 OA
ATOM     25  N   UNL     1      25.506  22.228  30.696  1.00  0.00    -0.321 N 
ATOM     26  C   UNL     1      26.321  23.387  30.835  1.00  0.00     0.049 A 
ATOM     27  C   UNL     1      28.627  24.069  31.127  1.00  0.00     0.050 A 
ATOM     28  H   UNL     1      24.474  22.189  30.549  1.00  0.00     0.170 HD
ATOM     29  C   UNL     1      25.882  24.709  30.832  1.00  0.00     0.030 A 
ATOM     30  C   UNL     1      28.205  25.410  31.127  1.00  0.00     0.123 A 
ATOM     31  C   UNL     1      26.839  25.728  30.980  1.00  0.00     0.041 A 
ATOM     32  F   UNL     1      29.117  26.403  31.271  1.00  0.00    -0.207 F 
ENDBRANCH  17  20
ENDBRANCH   9  12
ENDBRANCH   1   8
TORSDOF 7
ENDMDL
MODEL 14
REMARK VINA RESULT:    -7.080      9.203     12.063
REMARK INTER + INTRA:         -11.160
REMARK INTER:                 -10.107
REMARK INTRA:                  -1.053
REMARK UNBOUND:                -1.183
REMARK SMILES CCN(CC)CCNC(=O)c1c(C)[nH]c(/C=C2\C(=O)Nc3ccc(F)cc32)c1C
REMARK SMILES IDX 7 1 6 2 3 3 2 4 1 5 4 6 5 7 8 8 9 9 10 11 11 12 12 13 28 14
REMARK SMILES IDX 13 15 14 16 15 17 29 18 16 20 17 21 18 22 27 23 19 24 20 25
REMARK SMILES IDX 21 26 26 27 22 29 24 30 23 31 25 32
REMARK H PARENT 8 10 14 19 20 28
REMARK Flexibility Score: inf
ROOT
ATOM      1  C   UNL     1      10.545  19.519  33.899  1.00  0.00     0.131 C 
ENDROOT
BRANCH   1   2
ATOM      2  C   UNL     1       9.196  18.771  33.865  1.00  0.00     0.105 C 
BRANCH   2   3
ATOM      3  N   UNL     1       8.355  19.050  32.673  1.00  0.00    -0.302 NA
BRANCH   3   4
ATOM      4  C   UNL     1       6.888  19.000  32.859  1.00  0.00     0.081 C 
ATOM      5  C   UNL     1       6.507  19.355  34.294  1.00  0.00     0.021 C 
ENDBRANCH   3   4
BRANCH   3   6
ATOM      6  C   UNL     1       8.821  20.173  31.830  1.00  0.00     0.081 C 
ATOM      7  C   UNL     1       8.138  20.242  30.463  1.00  0.00     0.021 C 
ENDBRANCH   3   6
ENDBRANCH   2   3
ENDBRANCH   1   2
BRANCH   1   8
ATOM      8  N   UNL     1      10.749  20.131  35.209  1.00  0.00    -0.351 N 
ATOM      9  C   UNL     1      11.775  19.693  36.111  1.00  0.00     0.253 C 
ATOM     10  H   UNL     1      10.074  20.863  35.521  1.00  0.00     0.163 HD
ATOM     11  O   UNL     1      12.378  18.607  35.896  1.00  0.00    -0.269 OA
BRANCH   9  12
ATOM     12  C   UNL     1      12.115  20.488  37.311  1.00  0.00     0.063 A 
ATOM     13  C   UNL     1      11.448  20.502  38.531  1.00  0.00     0.025 A 
ATOM     14  C   UNL     1      13.137  21.424  37.418  1.00  0.00    -0.013 A 
ATOM     15  C   UNL     1      10.232  19.709  38.901  1.00  0.00     0.065 C 
ATOM     16  N   UNL     1      12.030  21.382  39.368  1.00  0.00    -0.358 N 
ATOM     17  C   UNL     1      13.063  21.937  38.708  1.00  0.00     0.043 A 
ATOM     18  C   UNL     1      14.063  21.861  36.321  1.00  0.00     0.047 C 
ATOM     19  H   UNL     1      11.729  21.603  40.344  1.00  0.00     0.166 HD
BRANCH  17  20
ATOM     20  C   UNL     1      13.903  22.996  39.288  1.00  0.00     0.041 C 
ATOM     21  C   UNL     1      13.411  24.151  39.756  1.00  0.00     0.051 C 
ATOM     22  C   UNL     1      12.026  24.650  39.739  1.00  0.00     0.256 C 
ATOM     23  C   UNL     1      14.171  25.248  40.359  1.00  0.00     0.014 A 
ATOM     24  O   UNL     1      11.032  24.057  39.244  1.00  0.00    -0.269 OA
ATOM     25  N   UNL     1      11.950  25.951  40.315  1.00  0.00    -0.321 N 
ATOM     26  C   UNL     1      13.291  26.268  40.673  1.00  0.00     0.049 A 
ATOM     27  C   UNL     1      15.537  25.362  40.631  1.00  0.00     0.050 A 
ATOM     28  H   UNL     1      11.104  26.553  40.418  1.00  0.00     0.170 HD
ATOM     29  C   UNL     1      13.729  27.450  41.266  1.00  0.00     0.030 A 
ATOM     30  C   UNL     1      15.999  26.547  41.229  1.00  0.00     0.123 A 
ATOM     31  C   UNL     1      15.100  27.585  41.545  1.00  0.00     0.041 A 
ATOM     32  F   UNL     1      17.319  26.691  41.506  1.00  0.00    -0.207 F 
ENDBRANCH  17  20
ENDBRANCH   9  12
ENDBRANCH   1   8
TORSDOF 7
ENDMDL
MODEL 15
REMARK VINA RESULT:    -7.051      9.224     12.512
REMARK INTER + INTRA:         -11.119
REMARK INTER:                 -10.263
REMARK INTRA:                  -0.856
REMARK UNBOUND:                -1.183
REMARK SMILES CCN(CC)CCNC(=O)c1c(C)[nH]c(/C=C2\C(=O)Nc3ccc(F)cc32)c1C
REMARK SMILES IDX 7 1 6 2 3 3 2 4 1 5 4 6 5 7 8 8 9 9 10 11 11 12 12 13 28 14
REMARK SMILES IDX 13 15 14 16 15 17 29 18 16 20 17 21 18 22 27 23 19 24 20 25
REMARK SMILES IDX 21 26 26 27 22 29 24 30 23 31 25 32
REMARK H PARENT 8 10 14 19 20 28
REMARK Flexibility Score: inf
ROOT
ATOM      1  C   UNL     1      14.527  25.250  40.188  1.00  0.00     0.131 C 
ENDROOT
BRANCH   1   2
ATOM      2  C   UNL     1      15.764  25.434  41.092  1.00  0.00     0.105 C 
BRANCH   2   3
ATOM      3  N   UNL     1      16.901  26.151  40.459  1.00  0.00    -0.302 NA
BRANCH   3   4
ATOM      4  C   UNL     1      16.934  27.623  40.610  1.00  0.00     0.081 C 
ATOM      5  C   UNL     1      16.064  28.071  41.782  1.00  0.00     0.021 C 
ENDBRANCH   3   4
BRANCH   3   6
ATOM      6  C   UNL     1      18.217  25.496  40.618  1.00  0.00     0.081 C 
ATOM      7  C   UNL     1      19.385  26.320  40.072  1.00  0.00     0.021 C 
ENDBRANCH   3   6
ENDBRANCH   2   3
ENDBRANCH   1   2
BRANCH   1   8
ATOM      8  N   UNL     1      14.250  23.828  39.998  1.00  0.00    -0.351 N 
ATOM      9  C   UNL     1      13.119  23.358  39.249  1.00  0.00     0.253 C 
ATOM     10  H   UNL     1      14.860  23.138  40.487  1.00  0.00     0.163 HD
ATOM     11  O   UNL     1      12.198  24.160  38.936  1.00  0.00    -0.269 OA
BRANCH   9  12
ATOM     12  C   UNL     1      13.008  21.935  38.866  1.00  0.00     0.063 A 
ATOM     13  C   UNL     1      13.477  21.335  37.702  1.00  0.00     0.025 A 
ATOM     14  C   UNL     1      12.350  20.938  39.576  1.00  0.00    -0.013 A 
ATOM     15  C   UNL     1      14.205  22.003  36.576  1.00  0.00     0.065 C 
ATOM     16  N   UNL     1      13.152  20.028  37.691  1.00  0.00    -0.358 N 
ATOM     17  C   UNL     1      12.480  19.774  38.829  1.00  0.00     0.043 A 
ATOM     18  C   UNL     1      11.569  21.116  40.845  1.00  0.00     0.047 C 
ATOM     19  H   UNL     1      13.369  19.341  36.934  1.00  0.00     0.166 HD
BRANCH  17  20
ATOM     20  C   UNL     1      11.910  18.454  39.139  1.00  0.00     0.041 C 
ATOM     21  C   UNL     1      11.110  17.783  38.299  1.00  0.00     0.051 C 
ATOM     22  C   UNL     1      10.577  18.193  36.991  1.00  0.00     0.256 C 
ATOM     23  C   UNL     1      10.514  16.464  38.523  1.00  0.00     0.014 A 
ATOM     24  O   UNL     1      10.776  19.299  36.424  1.00  0.00    -0.269 OA
ATOM     25  N   UNL     1       9.733  17.181  36.447  1.00  0.00    -0.321 N 
ATOM     26  C   UNL     1       9.728  16.150  37.429  1.00  0.00     0.049 A 
ATOM     27  C   UNL     1      10.642  15.581  39.598  1.00  0.00     0.050 A 
ATOM     28  H   UNL     1       9.207  17.207  35.547  1.00  0.00     0.170 HD
ATOM     29  C   UNL     1       9.031  14.945  37.356  1.00  0.00     0.030 A 
ATOM     30  C   UNL     1       9.947  14.361  39.544  1.00  0.00     0.123 A 
ATOM     31  C   UNL     1       9.145  14.045  38.429  1.00  0.00     0.041 A 
ATOM     32  F   UNL     1      10.049  13.481  40.571  1.00  0.00    -0.207 F 
ENDBRANCH  17  20
ENDBRANCH   9  12
ENDBRANCH   1   8
TORSDOF 7
ENDMDL
