MODEL 1
REMARK VINA RESULT:    -8.631      0.000      0.000
REMARK INTER + INTRA:         -12.485
REMARK INTER:                 -11.658
REMARK INTRA:                  -0.827
REMARK UNBOUND:                -0.827
REMARK SMILES Clc1ccc(COC(Cn2ccnc2)c2ccc(Cl)cc2Cl)c(Cl)c1
REMARK SMILES IDX 8 1 7 2 6 3 5 4 1 5 2 6 25 7 3 8 23 9 4 10 24 11 9 12 10 13
REMARK SMILES IDX 11 14 14 15 12 16 13 17 15 18 21 19 16 20 22 21 20 22 17 23
REMARK SMILES IDX 18 24 19 25
REMARK H PARENT
REMARK Flexibility Score: inf
ROOT
ATOM      1  C   UNL     1      11.944  79.687  -1.500  1.00  0.00     0.170 C 
ENDROOT
BRANCH   1   2
ATOM      2  O   UNL     1      12.915  80.209  -2.392  1.00  0.00    -0.367 OA
BRANCH   2   3
ATOM      3  C   UNL     1      12.484  80.084  -3.732  1.00  0.00     0.198 C 
BRANCH   3   4
ATOM      4  C   UNL     1      13.691  80.101  -4.629  1.00  0.00    -0.004 A 
ATOM      5  Cl  UNL     1      17.256  80.264  -7.476  1.00  0.00    -0.084 Cl
ATOM      6  C   UNL     1      15.884  80.201  -6.385  1.00  0.00     0.042 A 
ATOM      7  C   UNL     1      15.343  78.967  -6.012  1.00  0.00     0.041 A 
ATOM      8  C   UNL     1      15.326  81.383  -5.895  1.00  0.00     0.021 A 
ATOM      9  C   UNL     1      14.246  78.907  -5.144  1.00  0.00     0.048 A 
ATOM     10  C   UNL     1      14.231  81.335  -5.028  1.00  0.00     0.009 A 
ATOM     11  Cl  UNL     1      13.594  77.325  -4.733  1.00  0.00    -0.084 Cl
ENDBRANCH   3   4
ENDBRANCH   2   3
ENDBRANCH   1   2
BRANCH   1  12
ATOM     12  C   UNL     1      10.807  79.041  -2.305  1.00  0.00     0.160 C 
BRANCH  12  13
ATOM     13  N   UNL     1       9.512  79.500  -1.807  1.00  0.00    -0.335 N 
ATOM     14  C   UNL     1       9.293  80.343  -0.786  1.00  0.00     0.107 A 
ATOM     15  C   UNL     1       8.296  79.077  -2.204  1.00  0.00     0.199 A 
ATOM     16  C   UNL     1       7.931  80.429  -0.596  1.00  0.00     0.130 A 
ATOM     17  N   UNL     1       7.299  79.633  -1.483  1.00  0.00    -0.245 NA
ENDBRANCH  12  13
ENDBRANCH   1  12
BRANCH   1  18
ATOM     18  C   UNL     1      12.575  78.668  -0.563  1.00  0.00     0.001 A 
ATOM     19  C   UNL     1      13.714  78.962   0.230  1.00  0.00     0.048 A 
ATOM     20  C   UNL     1      12.018  77.377  -0.498  1.00  0.00     0.009 A 
ATOM     21  Cl  UNL     1      14.504  80.536   0.214  1.00  0.00    -0.084 Cl
ATOM     22  C   UNL     1      14.249  77.979   1.072  1.00  0.00     0.041 A 
ATOM     23  C   UNL     1      12.564  76.407   0.346  1.00  0.00     0.021 A 
ATOM     24  C   UNL     1      13.676  76.707   1.132  1.00  0.00     0.042 A 
ATOM     25  Cl  UNL     1      14.357  75.487   2.193  1.00  0.00    -0.084 Cl
ENDBRANCH   1  18
TORSDOF 6
ENDMDL
MODEL 2
REMARK VINA RESULT:    -8.579      2.520      4.285
REMARK INTER + INTRA:         -12.416
REMARK INTER:                 -11.474
REMARK INTRA:                  -0.942
REMARK UNBOUND:                -0.827
REMARK SMILES Clc1ccc(COC(Cn2ccnc2)c2ccc(Cl)cc2Cl)c(Cl)c1
REMARK SMILES IDX 8 1 7 2 6 3 5 4 1 5 2 6 25 7 3 8 23 9 4 10 24 11 9 12 10 13
REMARK SMILES IDX 11 14 14 15 12 16 13 17 15 18 21 19 16 20 22 21 20 22 17 23
REMARK SMILES IDX 18 24 19 25
REMARK H PARENT
REMARK Flexibility Score: inf
ROOT
ATOM      1  C   UNL     1      12.914  79.596  -1.764  1.00  0.00     0.170 C 
ENDROOT
BRANCH   1   2
ATOM      2  O   UNL     1      13.193  80.566  -2.760  1.00  0.00    -0.367 OA
BRANCH   2   3
ATOM      3  C   UNL     1      12.851  80.079  -4.042  1.00  0.00     0.198 C 
BRANCH   3   4
ATOM      4  C   UNL     1      14.073  80.129  -4.917  1.00  0.00    -0.004 A 
ATOM      5  Cl  UNL     1      17.686  80.400  -7.695  1.00  0.00    -0.084 Cl
ATOM      6  C   UNL     1      16.295  80.295  -6.631  1.00  0.00     0.042 A 
ATOM      7  C   UNL     1      15.736  79.050  -6.331  1.00  0.00     0.041 A 
ATOM      8  C   UNL     1      15.741  81.457  -6.089  1.00  0.00     0.021 A 
ATOM      9  C   UNL     1      14.624  78.958  -5.485  1.00  0.00     0.048 A 
ATOM     10  C   UNL     1      14.632  81.376  -5.244  1.00  0.00     0.009 A 
ATOM     11  Cl  UNL     1      13.949  77.363  -5.165  1.00  0.00    -0.084 Cl
ENDBRANCH   3   4
ENDBRANCH   2   3
ENDBRANCH   1   2
BRANCH   1  12
ATOM     12  C   UNL     1      13.738  79.906  -0.506  1.00  0.00     0.160 C 
BRANCH  12  13
ATOM     13  N   UNL     1      13.762  78.745   0.382  1.00  0.00    -0.335 N 
ATOM     14  C   UNL     1      13.911  77.460   0.024  1.00  0.00     0.107 A 
ATOM     15  C   UNL     1      13.527  78.735   1.707  1.00  0.00     0.199 A 
ATOM     16  C   UNL     1      13.779  76.690   1.159  1.00  0.00     0.130 A 
ATOM     17  N   UNL     1      13.535  77.486   2.220  1.00  0.00    -0.245 NA
ENDBRANCH  12  13
ENDBRANCH   1  12
BRANCH   1  18
ATOM     18  C   UNL     1      11.430  79.582  -1.434  1.00  0.00     0.001 A 
ATOM     19  C   UNL     1      10.555  78.564  -1.893  1.00  0.00     0.048 A 
ATOM     20  C   UNL     1      10.900  80.633  -0.662  1.00  0.00     0.009 A 
ATOM     21  Cl  UNL     1      11.102  77.213  -2.881  1.00  0.00    -0.084 Cl
ATOM     22  C   UNL     1       9.196  78.609  -1.557  1.00  0.00     0.041 A 
ATOM     23  C   UNL     1       9.543  80.665  -0.335  1.00  0.00     0.021 A 
ATOM     24  C   UNL     1       8.691  79.654  -0.779  1.00  0.00     0.042 A 
ATOM     25  Cl  UNL     1       6.987  79.696  -0.365  1.00  0.00    -0.084 Cl
ENDBRANCH   1  18
TORSDOF 6
ENDMDL
MODEL 3
REMARK VINA RESULT:    -8.521      3.377      4.407
REMARK INTER + INTRA:         -12.337
REMARK INTER:                 -11.461
REMARK INTRA:                  -0.876
REMARK UNBOUND:                -0.827
REMARK SMILES Clc1ccc(COC(Cn2ccnc2)c2ccc(Cl)cc2Cl)c(Cl)c1
REMARK SMILES IDX 8 1 7 2 6 3 5 4 1 5 2 6 25 7 3 8 23 9 4 10 24 11 9 12 10 13
REMARK SMILES IDX 11 14 14 15 12 16 13 17 15 18 21 19 16 20 22 21 20 22 17 23
REMARK SMILES IDX 18 24 19 25
REMARK H PARENT
REMARK Flexibility Score: inf
ROOT
ATOM      1  C   UNL     1       9.659  76.609  -2.205  1.00  0.00     0.170 C 
ENDROOT
BRANCH   1   2
ATOM      2  O   UNL     1      10.659  77.194  -3.022  1.00  0.00    -0.367 OA
BRANCH   2   3
ATOM      3  C   UNL     1      11.639  77.836  -2.234  1.00  0.00     0.198 C 
BRANCH   3   4
ATOM      4  C   UNL     1      12.654  78.467  -3.147  1.00  0.00    -0.004 A 
ATOM      5  Cl  UNL     1      15.850  80.229  -5.890  1.00  0.00    -0.084 Cl
ATOM      6  C   UNL     1      14.624  79.551  -4.833  1.00  0.00     0.042 A 
ATOM      7  C   UNL     1      14.184  80.273  -3.720  1.00  0.00     0.041 A 
ATOM      8  C   UNL     1      14.095  78.287  -5.099  1.00  0.00     0.021 A 
ATOM      9  C   UNL     1      13.208  79.738  -2.870  1.00  0.00     0.048 A 
ATOM     10  C   UNL     1      13.121  77.744  -4.257  1.00  0.00     0.009 A 
ATOM     11  Cl  UNL     1      12.713  80.684  -1.471  1.00  0.00    -0.084 Cl
ENDBRANCH   3   4
ENDBRANCH   2   3
ENDBRANCH   1   2
BRANCH   1  12
ATOM     12  C   UNL     1       8.281  77.138  -2.625  1.00  0.00     0.160 C 
BRANCH  12  13
ATOM     13  N   UNL     1       7.834  78.177  -1.700  1.00  0.00    -0.335 N 
ATOM     14  C   UNL     1       7.811  79.500  -1.923  1.00  0.00     0.107 A 
ATOM     15  C   UNL     1       7.470  78.013  -0.414  1.00  0.00     0.199 A 
ATOM     16  C   UNL     1       7.411  80.117  -0.758  1.00  0.00     0.130 A 
ATOM     17  N   UNL     1       7.197  79.187   0.196  1.00  0.00    -0.245 NA
ENDBRANCH  12  13
ENDBRANCH   1  12
BRANCH   1  18
ATOM     18  C   UNL     1       9.701  75.092  -2.315  1.00  0.00     0.001 A 
ATOM     19  C   UNL     1      10.026  74.255  -1.218  1.00  0.00     0.048 A 
ATOM     20  C   UNL     1       9.427  74.500  -3.562  1.00  0.00     0.009 A 
ATOM     21  Cl  UNL     1      10.405  74.886   0.383  1.00  0.00    -0.084 Cl
ATOM     22  C   UNL     1      10.049  72.864  -1.384  1.00  0.00     0.041 A 
ATOM     23  C   UNL     1       9.456  73.112  -3.714  1.00  0.00     0.021 A 
ATOM     24  C   UNL     1       9.764  72.294  -2.627  1.00  0.00     0.042 A 
ATOM     25  Cl  UNL     1       9.796  70.551  -2.820  1.00  0.00    -0.084 Cl
ENDBRANCH   1  18
TORSDOF 6
ENDMDL
MODEL 4
REMARK VINA RESULT:    -8.497      5.059      7.336
REMARK INTER + INTRA:         -12.304
REMARK INTER:                 -10.816
REMARK INTRA:                  -1.489
REMARK UNBOUND:                -0.827
REMARK SMILES Clc1ccc(COC(Cn2ccnc2)c2ccc(Cl)cc2Cl)c(Cl)c1
REMARK SMILES IDX 8 1 7 2 6 3 5 4 1 5 2 6 25 7 3 8 23 9 4 10 24 11 9 12 10 13
REMARK SMILES IDX 11 14 14 15 12 16 13 17 15 18 21 19 16 20 22 21 20 22 17 23
REMARK SMILES IDX 18 24 19 25
REMARK H PARENT
REMARK Flexibility Score: inf
ROOT
ATOM      1  C   UNL     1      10.022  75.088  -2.543  1.00  0.00     0.170 C 
ENDROOT
BRANCH   1   2
ATOM      2  O   UNL     1      10.876  76.119  -2.075  1.00  0.00    -0.367 OA
BRANCH   2   3
ATOM      3  C   UNL     1      10.695  77.300  -2.829  1.00  0.00     0.198 C 
BRANCH   3   4
ATOM      4  C   UNL     1      10.714  78.477  -1.892  1.00  0.00    -0.004 A 
ATOM      5  Cl  UNL     1      10.854  81.935   1.086  1.00  0.00    -0.084 Cl
ATOM      6  C   UNL     1      10.799  80.604  -0.056  1.00  0.00     0.042 A 
ATOM      7  C   UNL     1       9.579  80.210  -0.613  1.00  0.00     0.041 A 
ATOM      8  C   UNL     1      11.973  79.932  -0.403  1.00  0.00     0.021 A 
ATOM      9  C   UNL     1       9.526  79.146  -1.522  1.00  0.00     0.048 A 
ATOM     10  C   UNL     1      11.931  78.870  -1.310  1.00  0.00     0.009 A 
ATOM     11  Cl  UNL     1       7.956  78.681  -2.169  1.00  0.00    -0.084 Cl
ENDBRANCH   3   4
ENDBRANCH   2   3
ENDBRANCH   1   2
BRANCH   1  12
ATOM     12  C   UNL     1      10.707  73.729  -2.343  1.00  0.00     0.160 C 
BRANCH  12  13
ATOM     13  N   UNL     1      10.358  72.822  -3.435  1.00  0.00    -0.335 N 
ATOM     14  C   UNL     1       9.638  71.692  -3.346  1.00  0.00     0.107 A 
ATOM     15  C   UNL     1      10.786  72.887  -4.710  1.00  0.00     0.199 A 
ATOM     16  C   UNL     1       9.630  71.100  -4.589  1.00  0.00     0.130 A 
ATOM     17  N   UNL     1      10.352  71.846  -5.451  1.00  0.00    -0.245 NA
ENDBRANCH  12  13
ENDBRANCH   1  12
BRANCH   1  18
ATOM     18  C   UNL     1       8.691  75.125  -1.809  1.00  0.00     0.001 A 
ATOM     19  C   UNL     1       7.456  74.854  -2.452  1.00  0.00     0.048 A 
ATOM     20  C   UNL     1       8.684  75.461  -0.442  1.00  0.00     0.009 A 
ATOM     21  Cl  UNL     1       7.342  74.442  -4.160  1.00  0.00    -0.084 Cl
ATOM     22  C   UNL     1       6.263  74.905  -1.720  1.00  0.00     0.041 A 
ATOM     23  C   UNL     1       7.487  75.510   0.275  1.00  0.00     0.021 A 
ATOM     24  C   UNL     1       6.278  75.230  -0.361  1.00  0.00     0.042 A 
ATOM     25  Cl  UNL     1       4.775  75.290   0.543  1.00  0.00    -0.084 Cl
ENDBRANCH   1  18
TORSDOF 6
ENDMDL
MODEL 5
REMARK VINA RESULT:    -8.496      4.109      6.237
REMARK INTER + INTRA:         -12.304
REMARK INTER:                 -11.337
REMARK INTRA:                  -0.966
REMARK UNBOUND:                -0.827
REMARK SMILES Clc1ccc(COC(Cn2ccnc2)c2ccc(Cl)cc2Cl)c(Cl)c1
REMARK SMILES IDX 8 1 7 2 6 3 5 4 1 5 2 6 25 7 3 8 23 9 4 10 24 11 9 12 10 13
REMARK SMILES IDX 11 14 14 15 12 16 13 17 15 18 21 19 16 20 22 21 20 22 17 23
REMARK SMILES IDX 18 24 19 25
REMARK H PARENT
REMARK Flexibility Score: inf
ROOT
ATOM      1  C   UNL     1       8.829  77.946  -2.027  1.00  0.00     0.170 C 
ENDROOT
BRANCH   1   2
ATOM      2  O   UNL     1       8.387  77.040  -3.025  1.00  0.00    -0.367 OA
BRANCH   2   3
ATOM      3  C   UNL     1       7.927  75.838  -2.442  1.00  0.00     0.198 C 
BRANCH   3   4
ATOM      4  C   UNL     1       8.455  74.681  -3.245  1.00  0.00    -0.004 A 
ATOM      5  Cl  UNL     1       9.878  71.096  -5.687  1.00  0.00    -0.084 Cl
ATOM      6  C   UNL     1       9.329  72.472  -4.746  1.00  0.00     0.042 A 
ATOM      7  C   UNL     1       9.905  72.742  -3.501  1.00  0.00     0.041 A 
ATOM      8  C   UNL     1       8.311  73.292  -5.236  1.00  0.00     0.021 A 
ATOM      9  C   UNL     1       9.470  73.836  -2.743  1.00  0.00     0.048 A 
ATOM     10  C   UNL     1       7.870  74.386  -4.487  1.00  0.00     0.009 A 
ATOM     11  Cl  UNL     1      10.217  74.110  -1.172  1.00  0.00    -0.084 Cl
ENDBRANCH   3   4
ENDBRANCH   2   3
ENDBRANCH   1   2
BRANCH   1  12
ATOM     12  C   UNL     1       8.672  77.298  -0.644  1.00  0.00     0.160 C 
BRANCH  12  13
ATOM     13  N   UNL     1       7.442  77.762  -0.005  1.00  0.00    -0.335 N 
ATOM     14  C   UNL     1       6.972  79.019   0.023  1.00  0.00     0.107 A 
ATOM     15  C   UNL     1       6.609  77.039   0.768  1.00  0.00     0.199 A 
ATOM     16  C   UNL     1       5.840  79.027   0.808  1.00  0.00     0.130 A 
ATOM     17  N   UNL     1       5.608  77.785   1.281  1.00  0.00    -0.245 NA
ENDBRANCH  12  13
ENDBRANCH   1  12
BRANCH   1  18
ATOM     18  C   UNL     1      10.279  78.337  -2.268  1.00  0.00     0.001 A 
ATOM     19  C   UNL     1      10.804  79.597  -1.883  1.00  0.00     0.048 A 
ATOM     20  C   UNL     1      11.126  77.420  -2.918  1.00  0.00     0.009 A 
ATOM     21  Cl  UNL     1       9.833  80.829  -1.081  1.00  0.00    -0.084 Cl
ATOM     22  C   UNL     1      12.149  79.898  -2.134  1.00  0.00     0.041 A 
ATOM     23  C   UNL     1      12.464  77.735  -3.163  1.00  0.00     0.021 A 
ATOM     24  C   UNL     1      12.977  78.970  -2.770  1.00  0.00     0.042 A 
ATOM     25  Cl  UNL     1      14.659  79.361  -3.077  1.00  0.00    -0.084 Cl
ENDBRANCH   1  18
TORSDOF 6
ENDMDL
MODEL 6
REMARK VINA RESULT:    -8.438      2.838      6.288
REMARK INTER + INTRA:         -12.224
REMARK INTER:                 -11.307
REMARK INTRA:                  -0.917
REMARK UNBOUND:                -0.827
REMARK SMILES Clc1ccc(COC(Cn2ccnc2)c2ccc(Cl)cc2Cl)c(Cl)c1
REMARK SMILES IDX 8 1 7 2 6 3 5 4 1 5 2 6 25 7 3 8 23 9 4 10 24 11 9 12 10 13
REMARK SMILES IDX 11 14 14 15 12 16 13 17 15 18 21 19 16 20 22 21 20 22 17 23
REMARK SMILES IDX 18 24 19 25
REMARK H PARENT
REMARK Flexibility Score: inf
ROOT
ATOM      1  C   UNL     1      11.337  79.296  -2.665  1.00  0.00     0.170 C 
ENDROOT
BRANCH   1   2
ATOM      2  O   UNL     1      11.384  78.054  -1.982  1.00  0.00    -0.367 OA
BRANCH   2   3
ATOM      3  C   UNL     1      10.865  77.018  -2.789  1.00  0.00     0.198 C 
BRANCH   3   4
ATOM      4  C   UNL     1       9.614  76.486  -2.144  1.00  0.00    -0.004 A 
ATOM      5  Cl  UNL     1       5.740  75.049  -0.202  1.00  0.00    -0.084 Cl
ATOM      6  C   UNL     1       7.229  75.605  -0.947  1.00  0.00     0.042 A 
ATOM      7  C   UNL     1       8.444  75.460  -0.271  1.00  0.00     0.041 A 
ATOM      8  C   UNL     1       7.199  76.199  -2.209  1.00  0.00     0.021 A 
ATOM      9  C   UNL     1       9.636  75.903  -0.857  1.00  0.00     0.048 A 
ATOM     10  C   UNL     1       8.383  76.644  -2.803  1.00  0.00     0.009 A 
ATOM     11  Cl  UNL     1      11.132  75.716   0.054  1.00  0.00    -0.084 Cl
ENDBRANCH   3   4
ENDBRANCH   2   3
ENDBRANCH   1   2
BRANCH   1  12
ATOM     12  C   UNL     1      10.825  80.385  -1.712  1.00  0.00     0.160 C 
BRANCH  12  13
ATOM     13  N   UNL     1       9.397  80.203  -1.458  1.00  0.00    -0.335 N 
ATOM     14  C   UNL     1       8.831  79.737  -0.333  1.00  0.00     0.107 A 
ATOM     15  C   UNL     1       8.392  80.360  -2.339  1.00  0.00     0.199 A 
ATOM     16  C   UNL     1       7.475  79.638  -0.554  1.00  0.00     0.130 A 
ATOM     17  N   UNL     1       7.193  80.027  -1.815  1.00  0.00    -0.245 NA
ENDBRANCH  12  13
ENDBRANCH   1  12
BRANCH   1  18
ATOM     18  C   UNL     1      12.714  79.663  -3.198  1.00  0.00     0.001 A 
ATOM     19  C   UNL     1      13.906  79.410  -2.472  1.00  0.00     0.048 A 
ATOM     20  C   UNL     1      12.805  80.298  -4.450  1.00  0.00     0.009 A 
ATOM     21  Cl  UNL     1      13.911  78.639  -0.888  1.00  0.00    -0.084 Cl
ATOM     22  C   UNL     1      15.145  79.773  -3.016  1.00  0.00     0.041 A 
ATOM     23  C   UNL     1      14.047  80.656  -4.980  1.00  0.00     0.021 A 
ATOM     24  C   UNL     1      15.215  80.393  -4.266  1.00  0.00     0.042 A 
ATOM     25  Cl  UNL     1      16.774  80.841  -4.936  1.00  0.00    -0.084 Cl
ENDBRANCH   1  18
TORSDOF 6
ENDMDL
MODEL 7
REMARK VINA RESULT:    -8.407      3.776      5.194
REMARK INTER + INTRA:         -12.183
REMARK INTER:                 -12.290
REMARK INTRA:                   0.108
REMARK UNBOUND:                -0.827
REMARK SMILES Clc1ccc(COC(Cn2ccnc2)c2ccc(Cl)cc2Cl)c(Cl)c1
REMARK SMILES IDX 8 1 7 2 6 3 5 4 1 5 2 6 25 7 3 8 23 9 4 10 24 11 9 12 10 13
REMARK SMILES IDX 11 14 14 15 12 16 13 17 15 18 21 19 16 20 22 21 20 22 17 23
REMARK SMILES IDX 18 24 19 25
REMARK H PARENT
REMARK Flexibility Score: inf
ROOT
ATOM      1  C   UNL     1       9.175  76.318  -0.976  1.00  0.00     0.170 C 
ENDROOT
BRANCH   1   2
ATOM      2  O   UNL     1      10.356  77.088  -1.127  1.00  0.00    -0.367 OA
BRANCH   2   3
ATOM      3  C   UNL     1      10.150  78.148  -2.038  1.00  0.00     0.198 C 
BRANCH   3   4
ATOM      4  C   UNL     1      11.490  78.648  -2.505  1.00  0.00    -0.004 A 
ATOM      5  Cl  UNL     1      15.635  80.002  -3.859  1.00  0.00    -0.084 Cl
ATOM      6  C   UNL     1      14.043  79.480  -3.336  1.00  0.00     0.042 A 
ATOM      7  C   UNL     1      13.312  80.262  -2.437  1.00  0.00     0.041 A 
ATOM      8  C   UNL     1      13.510  78.280  -3.810  1.00  0.00     0.021 A 
ATOM      9  C   UNL     1      12.042  79.852  -2.012  1.00  0.00     0.048 A 
ATOM     10  C   UNL     1      12.244  77.862  -3.392  1.00  0.00     0.009 A 
ATOM     11  Cl  UNL     1      11.181  80.867  -0.859  1.00  0.00    -0.084 Cl
ENDBRANCH   3   4
ENDBRANCH   2   3
ENDBRANCH   1   2
BRANCH   1  12
ATOM     12  C   UNL     1       7.969  77.132  -1.467  1.00  0.00     0.160 C 
BRANCH  12  13
ATOM     13  N   UNL     1       7.153  77.562  -0.333  1.00  0.00    -0.335 N 
ATOM     14  C   UNL     1       6.811  78.820  -0.018  1.00  0.00     0.107 A 
ATOM     15  C   UNL     1       6.688  76.790   0.667  1.00  0.00     0.199 A 
ATOM     16  C   UNL     1       6.121  78.782   1.174  1.00  0.00     0.130 A 
ATOM     17  N   UNL     1       6.042  77.508   1.611  1.00  0.00    -0.245 NA
ENDBRANCH  12  13
ENDBRANCH   1  12
BRANCH   1  18
ATOM     18  C   UNL     1       9.286  75.014  -1.751  1.00  0.00     0.001 A 
ATOM     19  C   UNL     1       8.574  74.778  -2.955  1.00  0.00     0.048 A 
ATOM     20  C   UNL     1      10.112  73.995  -1.241  1.00  0.00     0.009 A 
ATOM     21  Cl  UNL     1       7.498  75.973  -3.675  1.00  0.00    -0.084 Cl
ATOM     22  C   UNL     1       8.717  73.554  -3.621  1.00  0.00     0.041 A 
ATOM     23  C   UNL     1      10.244  72.780  -1.916  1.00  0.00     0.021 A 
ATOM     24  C   UNL     1       9.550  72.559  -3.105  1.00  0.00     0.042 A 
ATOM     25  Cl  UNL     1       9.721  71.032  -3.951  1.00  0.00    -0.084 Cl
ENDBRANCH   1  18
TORSDOF 6
ENDMDL
MODEL 8
REMARK VINA RESULT:    -8.259      4.316      5.922
REMARK INTER + INTRA:         -11.983
REMARK INTER:                 -11.269
REMARK INTRA:                  -0.714
REMARK UNBOUND:                -0.827
REMARK SMILES Clc1ccc(COC(Cn2ccnc2)c2ccc(Cl)cc2Cl)c(Cl)c1
REMARK SMILES IDX 8 1 7 2 6 3 5 4 1 5 2 6 25 7 3 8 23 9 4 10 24 11 9 12 10 13
REMARK SMILES IDX 11 14 14 15 12 16 13 17 15 18 21 19 16 20 22 21 20 22 17 23
REMARK SMILES IDX 18 24 19 25
REMARK H PARENT
REMARK Flexibility Score: inf
ROOT
ATOM      1  C   UNL     1       9.139  76.112  -2.379  1.00  0.00     0.170 C 
ENDROOT
BRANCH   1   2
ATOM      2  O   UNL     1       9.975  77.075  -2.999  1.00  0.00    -0.367 OA
BRANCH   2   3
ATOM      3  C   UNL     1      11.245  77.109  -2.381  1.00  0.00     0.198 C 
BRANCH   3   4
ATOM      4  C   UNL     1      12.150  77.998  -3.190  1.00  0.00    -0.004 A 
ATOM      5  Cl  UNL     1      15.048  80.591  -5.583  1.00  0.00    -0.084 Cl
ATOM      6  C   UNL     1      13.936  79.594  -4.660  1.00  0.00     0.042 A 
ATOM      7  C   UNL     1      13.092  80.181  -3.713  1.00  0.00     0.041 A 
ATOM      8  C   UNL     1      13.900  78.214  -4.866  1.00  0.00     0.021 A 
ATOM      9  C   UNL     1      12.205  79.393  -2.970  1.00  0.00     0.048 A 
ATOM     10  C   UNL     1      13.018  77.418  -4.130  1.00  0.00     0.009 A 
ATOM     11  Cl  UNL     1      11.186  80.187  -1.774  1.00  0.00    -0.084 Cl
ENDBRANCH   3   4
ENDBRANCH   2   3
ENDBRANCH   1   2
BRANCH   1  12
ATOM     12  C   UNL     1      10.008  75.049  -1.691  1.00  0.00     0.160 C 
BRANCH  12  13
ATOM     13  N   UNL     1       9.830  73.752  -2.341  1.00  0.00    -0.335 N 
ATOM     14  C   UNL     1      10.266  72.562  -1.900  1.00  0.00     0.107 A 
ATOM     15  C   UNL     1       9.296  73.523  -3.555  1.00  0.00     0.199 A 
ATOM     16  C   UNL     1       9.967  71.622  -2.860  1.00  0.00     0.130 A 
ATOM     17  N   UNL     1       9.358  72.220  -3.905  1.00  0.00    -0.245 NA
ENDBRANCH  12  13
ENDBRANCH   1  12
BRANCH   1  18
ATOM     18  C   UNL     1       8.218  76.778  -1.368  1.00  0.00     0.001 A 
ATOM     19  C   UNL     1       7.154  76.087  -0.733  1.00  0.00     0.048 A 
ATOM     20  C   UNL     1       8.416  78.139  -1.070  1.00  0.00     0.009 A 
ATOM     21  Cl  UNL     1       6.801  74.390  -1.044  1.00  0.00    -0.084 Cl
ATOM     22  C   UNL     1       6.339  76.758   0.188  1.00  0.00     0.041 A 
ATOM     23  C   UNL     1       7.595  78.795  -0.150  1.00  0.00     0.021 A 
ATOM     24  C   UNL     1       6.559  78.106   0.480  1.00  0.00     0.042 A 
ATOM     25  Cl  UNL     1       5.531  78.932   1.636  1.00  0.00    -0.084 Cl
ENDBRANCH   1  18
TORSDOF 6
ENDMDL
MODEL 9
REMARK VINA RESULT:    -8.208      2.733      4.012
REMARK INTER + INTRA:         -11.914
REMARK INTER:                 -10.916
REMARK INTRA:                  -0.998
REMARK UNBOUND:                -0.827
REMARK SMILES Clc1ccc(COC(Cn2ccnc2)c2ccc(Cl)cc2Cl)c(Cl)c1
REMARK SMILES IDX 8 1 7 2 6 3 5 4 1 5 2 6 25 7 3 8 23 9 4 10 24 11 9 12 10 13
REMARK SMILES IDX 11 14 14 15 12 16 13 17 15 18 21 19 16 20 22 21 20 22 17 23
REMARK SMILES IDX 18 24 19 25
REMARK H PARENT
REMARK Flexibility Score: inf
ROOT
ATOM      1  C   UNL     1      11.183  78.634  -1.700  1.00  0.00     0.170 C 
ENDROOT
BRANCH   1   2
ATOM      2  O   UNL     1      11.692  78.727  -3.020  1.00  0.00    -0.367 OA
BRANCH   2   3
ATOM      3  C   UNL     1      12.801  77.869  -3.192  1.00  0.00     0.198 C 
BRANCH   3   4
ATOM      4  C   UNL     1      13.799  78.547  -4.089  1.00  0.00    -0.004 A 
ATOM      5  Cl  UNL     1      16.914  80.432  -6.845  1.00  0.00    -0.084 Cl
ATOM      6  C   UNL     1      15.719  79.705  -5.784  1.00  0.00     0.042 A 
ATOM      7  C   UNL     1      15.582  80.161  -4.470  1.00  0.00     0.041 A 
ATOM      8  C   UNL     1      14.911  78.666  -6.250  1.00  0.00     0.021 A 
ATOM      9  C   UNL     1      14.634  79.584  -3.616  1.00  0.00     0.048 A 
ATOM     10  C   UNL     1      13.962  78.085  -5.406  1.00  0.00     0.009 A 
ATOM     11  Cl  UNL     1      14.526  80.184  -1.964  1.00  0.00    -0.084 Cl
ENDBRANCH   3   4
ENDBRANCH   2   3
ENDBRANCH   1   2
BRANCH   1  12
ATOM     12  C   UNL     1      10.621  79.997  -1.272  1.00  0.00     0.160 C 
BRANCH  12  13
ATOM     13  N   UNL     1      11.220  80.416  -0.006  1.00  0.00    -0.335 N 
ATOM     14  C   UNL     1      12.238  79.826   0.639  1.00  0.00     0.107 A 
ATOM     15  C   UNL     1      10.791  81.402   0.804  1.00  0.00     0.199 A 
ATOM     16  C   UNL     1      12.419  80.487   1.833  1.00  0.00     0.130 A 
ATOM     17  N   UNL     1      11.510  81.478   1.944  1.00  0.00    -0.245 NA
ENDBRANCH  12  13
ENDBRANCH   1  12
BRANCH   1  18
ATOM     18  C   UNL     1      10.103  77.566  -1.619  1.00  0.00     0.001 A 
ATOM     19  C   UNL     1      10.241  76.398  -0.827  1.00  0.00     0.048 A 
ATOM     20  C   UNL     1       8.930  77.735  -2.378  1.00  0.00     0.009 A 
ATOM     21  Cl  UNL     1      11.672  76.072   0.147  1.00  0.00    -0.084 Cl
ATOM     22  C   UNL     1       9.210  75.450  -0.796  1.00  0.00     0.041 A 
ATOM     23  C   UNL     1       7.911  76.781  -2.338  1.00  0.00     0.021 A 
ATOM     24  C   UNL     1       8.049  75.641  -1.547  1.00  0.00     0.042 A 
ATOM     25  Cl  UNL     1       6.765  74.446  -1.497  1.00  0.00    -0.084 Cl
ENDBRANCH   1  18
TORSDOF 6
ENDMDL
MODEL 10
REMARK VINA RESULT:    -8.125      2.344      3.244
REMARK INTER + INTRA:         -11.802
REMARK INTER:                 -10.982
REMARK INTRA:                  -0.819
REMARK UNBOUND:                -0.827
REMARK SMILES Clc1ccc(COC(Cn2ccnc2)c2ccc(Cl)cc2Cl)c(Cl)c1
REMARK SMILES IDX 8 1 7 2 6 3 5 4 1 5 2 6 25 7 3 8 23 9 4 10 24 11 9 12 10 13
REMARK SMILES IDX 11 14 14 15 12 16 13 17 15 18 21 19 16 20 22 21 20 22 17 23
REMARK SMILES IDX 18 24 19 25
REMARK H PARENT
REMARK Flexibility Score: inf
ROOT
ATOM      1  C   UNL     1      13.406  78.923  -1.734  1.00  0.00     0.170 C 
ENDROOT
BRANCH   1   2
ATOM      2  O   UNL     1      14.057  78.733  -2.979  1.00  0.00    -0.367 OA
BRANCH   2   3
ATOM      3  C   UNL     1      13.903  79.870  -3.804  1.00  0.00     0.198 C 
BRANCH   3   4
ATOM      4  C   UNL     1      15.117  79.995  -4.683  1.00  0.00    -0.004 A 
ATOM      5  Cl  UNL     1      18.761  80.563  -7.375  1.00  0.00    -0.084 Cl
ATOM      6  C   UNL     1      17.358  80.347  -6.343  1.00  0.00     0.042 A 
ATOM      7  C   UNL     1      16.381  79.405  -6.679  1.00  0.00     0.041 A 
ATOM      8  C   UNL     1      17.213  81.121  -5.190  1.00  0.00     0.021 A 
ATOM      9  C   UNL     1      15.257  79.229  -5.863  1.00  0.00     0.048 A 
ATOM     10  C   UNL     1      16.096  80.952  -4.368  1.00  0.00     0.009 A 
ATOM     11  Cl  UNL     1      14.050  78.045  -6.353  1.00  0.00    -0.084 Cl
ENDBRANCH   3   4
ENDBRANCH   2   3
ENDBRANCH   1   2
BRANCH   1  12
ATOM     12  C   UNL     1      12.976  80.391  -1.602  1.00  0.00     0.160 C 
BRANCH  12  13
ATOM     13  N   UNL     1      12.326  80.613  -0.311  1.00  0.00    -0.335 N 
ATOM     14  C   UNL     1      11.096  81.106  -0.102  1.00  0.00     0.107 A 
ATOM     15  C   UNL     1      12.879  80.471   0.908  1.00  0.00     0.199 A 
ATOM     16  C   UNL     1      10.920  81.237   1.258  1.00  0.00     0.130 A 
ATOM     17  N   UNL     1      12.040  80.841   1.898  1.00  0.00    -0.245 NA
ENDBRANCH  12  13
ENDBRANCH   1  12
BRANCH   1  18
ATOM     18  C   UNL     1      12.199  78.005  -1.619  1.00  0.00     0.001 A 
ATOM     19  C   UNL     1      12.024  77.105  -0.536  1.00  0.00     0.048 A 
ATOM     20  C   UNL     1      11.230  78.034  -2.638  1.00  0.00     0.009 A 
ATOM     21  Cl  UNL     1      13.182  76.969   0.785  1.00  0.00    -0.084 Cl
ATOM     22  C   UNL     1      10.891  76.284  -0.488  1.00  0.00     0.041 A 
ATOM     23  C   UNL     1      10.105  77.208  -2.578  1.00  0.00     0.021 A 
ATOM     24  C   UNL     1       9.934  76.336  -1.504  1.00  0.00     0.042 A 
ATOM     25  Cl  UNL     1       8.519  75.301  -1.429  1.00  0.00    -0.084 Cl
ENDBRANCH   1  18
TORSDOF 6
ENDMDL
MODEL 11
REMARK VINA RESULT:    -8.123      3.597      6.020
REMARK INTER + INTRA:         -11.799
REMARK INTER:                 -10.969
REMARK INTRA:                  -0.830
REMARK UNBOUND:                -0.827
REMARK SMILES Clc1ccc(COC(Cn2ccnc2)c2ccc(Cl)cc2Cl)c(Cl)c1
REMARK SMILES IDX 8 1 7 2 6 3 5 4 1 5 2 6 25 7 3 8 23 9 4 10 24 11 9 12 10 13
REMARK SMILES IDX 11 14 14 15 12 16 13 17 15 18 21 19 16 20 22 21 20 22 17 23
REMARK SMILES IDX 18 24 19 25
REMARK H PARENT
REMARK Flexibility Score: inf
ROOT
ATOM      1  C   UNL     1      10.743  77.583  -1.438  1.00  0.00     0.170 C 
ENDROOT
BRANCH   1   2
ATOM      2  O   UNL     1      10.982  76.327  -0.825  1.00  0.00    -0.367 OA
BRANCH   2   3
ATOM      3  C   UNL     1       9.768  75.639  -0.603  1.00  0.00     0.198 C 
BRANCH   3   4
ATOM      4  C   UNL     1       9.650  74.534  -1.616  1.00  0.00    -0.004 A 
ATOM      5  Cl  UNL     1       9.482  71.182  -4.712  1.00  0.00    -0.084 Cl
ATOM      6  C   UNL     1       9.549  72.472  -3.525  1.00  0.00     0.042 A 
ATOM      7  C   UNL     1       8.828  73.652  -3.732  1.00  0.00     0.041 A 
ATOM      8  C   UNL     1      10.329  72.324  -2.376  1.00  0.00     0.021 A 
ATOM      9  C   UNL     1       8.879  74.687  -2.791  1.00  0.00     0.048 A 
ATOM     10  C   UNL     1      10.385  73.351  -1.430  1.00  0.00     0.009 A 
ATOM     11  Cl  UNL     1       7.969  76.158  -3.121  1.00  0.00    -0.084 Cl
ENDBRANCH   3   4
ENDBRANCH   2   3
ENDBRANCH   1   2
BRANCH   1  12
ATOM     12  C   UNL     1      10.096  78.533  -0.421  1.00  0.00     0.160 C 
BRANCH  12  13
ATOM     13  N   UNL     1       8.905  79.155  -0.997  1.00  0.00    -0.335 N 
ATOM     14  C   UNL     1       8.866  80.050  -1.996  1.00  0.00     0.107 A 
ATOM     15  C   UNL     1       7.637  79.032  -0.560  1.00  0.00     0.199 A 
ATOM     16  C   UNL     1       7.555  80.443  -2.158  1.00  0.00     0.130 A 
ATOM     17  N   UNL     1       6.778  79.807  -1.256  1.00  0.00    -0.245 NA
ENDBRANCH  12  13
ENDBRANCH   1  12
BRANCH   1  18
ATOM     18  C   UNL     1      12.043  78.174  -1.964  1.00  0.00     0.001 A 
ATOM     19  C   UNL     1      13.196  78.328  -1.152  1.00  0.00     0.048 A 
ATOM     20  C   UNL     1      12.094  78.605  -3.303  1.00  0.00     0.009 A 
ATOM     21  Cl  UNL     1      13.240  77.842   0.540  1.00  0.00    -0.084 Cl
ATOM     22  C   UNL     1      14.362  78.882  -1.696  1.00  0.00     0.041 A 
ATOM     23  C   UNL     1      13.263  79.157  -3.830  1.00  0.00     0.021 A 
ATOM     24  C   UNL     1      14.397  79.293  -3.030  1.00  0.00     0.042 A 
ATOM     25  Cl  UNL     1      15.865  79.984  -3.697  1.00  0.00    -0.084 Cl
ENDBRANCH   1  18
TORSDOF 6
ENDMDL
MODEL 12
REMARK VINA RESULT:    -8.107      2.986      4.622
REMARK INTER + INTRA:         -11.778
REMARK INTER:                 -11.085
REMARK INTRA:                  -0.693
REMARK UNBOUND:                -0.827
REMARK SMILES Clc1ccc(COC(Cn2ccnc2)c2ccc(Cl)cc2Cl)c(Cl)c1
REMARK SMILES IDX 8 1 7 2 6 3 5 4 1 5 2 6 25 7 3 8 23 9 4 10 24 11 9 12 10 13
REMARK SMILES IDX 11 14 14 15 12 16 13 17 15 18 21 19 16 20 22 21 20 22 17 23
REMARK SMILES IDX 18 24 19 25
REMARK H PARENT
REMARK Flexibility Score: inf
ROOT
ATOM      1  C   UNL     1      11.646  77.995  -2.084  1.00  0.00     0.170 C 
ENDROOT
BRANCH   1   2
ATOM      2  O   UNL     1      11.804  78.986  -3.085  1.00  0.00    -0.367 OA
BRANCH   2   3
ATOM      3  C   UNL     1      12.579  80.065  -2.604  1.00  0.00     0.198 C 
BRANCH   3   4
ATOM      4  C   UNL     1      13.678  80.345  -3.592  1.00  0.00    -0.004 A 
ATOM      5  Cl  UNL     1      16.911  81.104  -6.726  1.00  0.00    -0.084 Cl
ATOM      6  C   UNL     1      15.668  80.809  -5.523  1.00  0.00     0.042 A 
ATOM      7  C   UNL     1      15.988  80.140  -4.337  1.00  0.00     0.041 A 
ATOM      8  C   UNL     1      14.358  81.233  -5.752  1.00  0.00     0.021 A 
ATOM      9  C   UNL     1      15.001  79.898  -3.373  1.00  0.00     0.048 A 
ATOM     10  C   UNL     1      13.367  80.997  -4.797  1.00  0.00     0.009 A 
ATOM     11  Cl  UNL     1      15.460  79.030  -1.912  1.00  0.00    -0.084 Cl
ENDBRANCH   3   4
ENDBRANCH   2   3
ENDBRANCH   1   2
BRANCH   1  12
ATOM     12  C   UNL     1      11.722  78.651  -0.698  1.00  0.00     0.160 C 
BRANCH  12  13
ATOM     13  N   UNL     1      12.696  77.953   0.139  1.00  0.00    -0.335 N 
ATOM     14  C   UNL     1      12.781  76.630   0.344  1.00  0.00     0.107 A 
ATOM     15  C   UNL     1      13.616  78.512   0.947  1.00  0.00     0.199 A 
ATOM     16  C   UNL     1      13.776  76.410   1.271  1.00  0.00     0.130 A 
ATOM     17  N   UNL     1      14.303  77.591   1.656  1.00  0.00    -0.245 NA
ENDBRANCH  12  13
ENDBRANCH   1  12
BRANCH   1  18
ATOM     18  C   UNL     1      10.318  77.272  -2.255  1.00  0.00     0.001 A 
ATOM     19  C   UNL     1       9.071  77.949  -2.235  1.00  0.00     0.048 A 
ATOM     20  C   UNL     1      10.328  75.874  -2.417  1.00  0.00     0.009 A 
ATOM     21  Cl  UNL     1       8.938  79.692  -2.020  1.00  0.00    -0.084 Cl
ATOM     22  C   UNL     1       7.883  77.226  -2.397  1.00  0.00     0.041 A 
ATOM     23  C   UNL     1       9.134  75.166  -2.575  1.00  0.00     0.021 A 
ATOM     24  C   UNL     1       7.914  75.840  -2.568  1.00  0.00     0.042 A 
ATOM     25  Cl  UNL     1       6.416  74.947  -2.769  1.00  0.00    -0.084 Cl
ENDBRANCH   1  18
TORSDOF 6
ENDMDL
MODEL 13
REMARK VINA RESULT:    -8.105      3.670      5.199
REMARK INTER + INTRA:         -11.775
REMARK INTER:                 -11.502
REMARK INTRA:                  -0.273
REMARK UNBOUND:                -0.827
REMARK SMILES Clc1ccc(COC(Cn2ccnc2)c2ccc(Cl)cc2Cl)c(Cl)c1
REMARK SMILES IDX 8 1 7 2 6 3 5 4 1 5 2 6 25 7 3 8 23 9 4 10 24 11 9 12 10 13
REMARK SMILES IDX 11 14 14 15 12 16 13 17 15 18 21 19 16 20 22 21 20 22 17 23
REMARK SMILES IDX 18 24 19 25
REMARK H PARENT
REMARK Flexibility Score: inf
ROOT
ATOM      1  C   UNL     1       9.621  77.213  -2.155  1.00  0.00     0.170 C 
ENDROOT
BRANCH   1   2
ATOM      2  O   UNL     1      10.518  78.233  -2.560  1.00  0.00    -0.367 OA
BRANCH   2   3
ATOM      3  C   UNL     1      11.821  77.976  -2.079  1.00  0.00     0.198 C 
BRANCH   3   4
ATOM      4  C   UNL     1      12.815  78.512  -3.071  1.00  0.00    -0.004 A 
ATOM      5  Cl  UNL     1      15.935  79.974  -6.068  1.00  0.00    -0.084 Cl
ATOM      6  C   UNL     1      14.739  79.411  -4.914  1.00  0.00     0.042 A 
ATOM      7  C   UNL     1      14.472  80.157  -3.763  1.00  0.00     0.041 A 
ATOM      8  C   UNL     1      14.059  78.212  -5.141  1.00  0.00     0.021 A 
ATOM      9  C   UNL     1      13.521  79.713  -2.835  1.00  0.00     0.048 A 
ATOM     10  C   UNL     1      13.108  77.761  -4.222  1.00  0.00     0.009 A 
ATOM     11  Cl  UNL     1      13.248  80.685  -1.392  1.00  0.00    -0.084 Cl
ENDBRANCH   3   4
ENDBRANCH   2   3
ENDBRANCH   1   2
BRANCH   1  12
ATOM     12  C   UNL     1      10.395  76.124  -1.397  1.00  0.00     0.160 C 
BRANCH  12  13
ATOM     13  N   UNL     1      10.004  74.800  -1.877  1.00  0.00    -0.335 N 
ATOM     14  C   UNL     1       9.365  74.513  -3.021  1.00  0.00     0.107 A 
ATOM     15  C   UNL     1      10.109  73.635  -1.210  1.00  0.00     0.199 A 
ATOM     16  C   UNL     1       9.110  73.159  -3.033  1.00  0.00     0.130 A 
ATOM     17  N   UNL     1       9.574  72.602  -1.895  1.00  0.00    -0.245 NA
ENDBRANCH  12  13
ENDBRANCH   1  12
BRANCH   1  18
ATOM     18  C   UNL     1       8.520  77.788  -1.277  1.00  0.00     0.001 A 
ATOM     19  C   UNL     1       8.199  79.170  -1.262  1.00  0.00     0.048 A 
ATOM     20  C   UNL     1       7.809  76.918  -0.430  1.00  0.00     0.009 A 
ATOM     21  Cl  UNL     1       9.035  80.353  -2.263  1.00  0.00    -0.084 Cl
ATOM     22  C   UNL     1       7.175  79.638  -0.429  1.00  0.00     0.041 A 
ATOM     23  C   UNL     1       6.791  77.399   0.396  1.00  0.00     0.021 A 
ATOM     24  C   UNL     1       6.472  78.757   0.396  1.00  0.00     0.042 A 
ATOM     25  Cl  UNL     1       5.191  79.359   1.433  1.00  0.00    -0.084 Cl
ENDBRANCH   1  18
TORSDOF 6
ENDMDL
MODEL 14
REMARK VINA RESULT:    -8.087      4.032      6.086
REMARK INTER + INTRA:         -11.751
REMARK INTER:                 -10.875
REMARK INTRA:                  -0.876
REMARK UNBOUND:                -0.827
REMARK SMILES Clc1ccc(COC(Cn2ccnc2)c2ccc(Cl)cc2Cl)c(Cl)c1
REMARK SMILES IDX 8 1 7 2 6 3 5 4 1 5 2 6 25 7 3 8 23 9 4 10 24 11 9 12 10 13
REMARK SMILES IDX 11 14 14 15 12 16 13 17 15 18 21 19 16 20 22 21 20 22 17 23
REMARK SMILES IDX 18 24 19 25
REMARK H PARENT
REMARK Flexibility Score: inf
ROOT
ATOM      1  C   UNL     1       8.721  76.504  -2.562  1.00  0.00     0.170 C 
ENDROOT
BRANCH   1   2
ATOM      2  O   UNL     1      10.079  76.332  -2.194  1.00  0.00    -0.367 OA
BRANCH   2   3
ATOM      3  C   UNL     1      10.929  77.057  -3.059  1.00  0.00     0.198 C 
BRANCH   3   4
ATOM      4  C   UNL     1      11.866  77.889  -2.228  1.00  0.00    -0.004 A 
ATOM      5  Cl  UNL     1      14.573  80.548   0.311  1.00  0.00    -0.084 Cl
ATOM      6  C   UNL     1      13.531  79.529  -0.667  1.00  0.00     0.042 A 
ATOM      7  C   UNL     1      13.938  79.137  -1.946  1.00  0.00     0.041 A 
ATOM      8  C   UNL     1      12.293  79.116  -0.171  1.00  0.00     0.021 A 
ATOM      9  C   UNL     1      13.111  78.327  -2.734  1.00  0.00     0.048 A 
ATOM     10  C   UNL     1      11.461  78.307  -0.950  1.00  0.00     0.009 A 
ATOM     11  Cl  UNL     1      13.667  77.888  -4.346  1.00  0.00    -0.084 Cl
ENDBRANCH   3   4
ENDBRANCH   2   3
ENDBRANCH   1   2
BRANCH   1  12
ATOM     12  C   UNL     1       8.142  75.159  -3.024  1.00  0.00     0.160 C 
BRANCH  12  13
ATOM     13  N   UNL     1       9.102  74.085  -2.777  1.00  0.00    -0.335 N 
ATOM     14  C   UNL     1       9.807  73.406  -3.695  1.00  0.00     0.107 A 
ATOM     15  C   UNL     1       9.374  73.499  -1.595  1.00  0.00     0.199 A 
ATOM     16  C   UNL     1      10.514  72.422  -3.040  1.00  0.00     0.130 A 
ATOM     17  N   UNL     1      10.244  72.474  -1.719  1.00  0.00    -0.245 NA
ENDBRANCH  12  13
ENDBRANCH   1  12
BRANCH   1  18
ATOM     18  C   UNL     1       7.918  77.052  -1.392  1.00  0.00     0.001 A 
ATOM     19  C   UNL     1       7.751  78.442  -1.164  1.00  0.00     0.048 A 
ATOM     20  C   UNL     1       7.337  76.143  -0.488  1.00  0.00     0.009 A 
ATOM     21  Cl  UNL     1       8.449  79.670  -2.217  1.00  0.00    -0.084 Cl
ATOM     22  C   UNL     1       7.000  78.884  -0.067  1.00  0.00     0.041 A 
ATOM     23  C   UNL     1       6.592  76.598   0.602  1.00  0.00     0.021 A 
ATOM     24  C   UNL     1       6.422  77.966   0.812  1.00  0.00     0.042 A 
ATOM     25  Cl  UNL     1       5.484  78.535   2.181  1.00  0.00    -0.084 Cl
ENDBRANCH   1  18
TORSDOF 6
ENDMDL
MODEL 15
REMARK VINA RESULT:    -8.043      3.151      6.780
REMARK INTER + INTRA:         -11.691
REMARK INTER:                 -11.105
REMARK INTRA:                  -0.585
REMARK UNBOUND:                -0.827
REMARK SMILES Clc1ccc(COC(Cn2ccnc2)c2ccc(Cl)cc2Cl)c(Cl)c1
REMARK SMILES IDX 8 1 7 2 6 3 5 4 1 5 2 6 25 7 3 8 23 9 4 10 24 11 9 12 10 13
REMARK SMILES IDX 11 14 14 15 12 16 13 17 15 18 21 19 16 20 22 21 20 22 17 23
REMARK SMILES IDX 18 24 19 25
REMARK H PARENT
REMARK Flexibility Score: inf
ROOT
ATOM      1  C   UNL     1      11.858  78.492  -1.810  1.00  0.00     0.170 C 
ENDROOT
BRANCH   1   2
ATOM      2  O   UNL     1      11.159  77.280  -2.038  1.00  0.00    -0.367 OA
BRANCH   2   3
ATOM      3  C   UNL     1       9.905  77.529  -2.639  1.00  0.00     0.198 C 
BRANCH   3   4
ATOM      4  C   UNL     1       8.866  77.637  -1.558  1.00  0.00    -0.004 A 
ATOM      5  Cl  UNL     1       5.614  77.820   1.642  1.00  0.00    -0.084 Cl
ATOM      6  C   UNL     1       6.861  77.749   0.410  1.00  0.00     0.042 A 
ATOM      7  C   UNL     1       7.156  78.884  -0.352  1.00  0.00     0.041 A 
ATOM      8  C   UNL     1       7.553  76.558   0.183  1.00  0.00     0.021 A 
ATOM      9  C   UNL     1       8.148  78.835  -1.339  1.00  0.00     0.048 A 
ATOM     10  C   UNL     1       8.545  76.499  -0.799  1.00  0.00     0.009 A 
ATOM     11  Cl  UNL     1       8.456  80.289  -2.283  1.00  0.00    -0.084 Cl
ENDBRANCH   3   4
ENDBRANCH   2   3
ENDBRANCH   1   2
BRANCH   1  12
ATOM     12  C   UNL     1      12.563  78.427  -0.448  1.00  0.00     0.160 C 
BRANCH  12  13
ATOM     13  N   UNL     1      12.066  79.485   0.430  1.00  0.00    -0.335 N 
ATOM     14  C   UNL     1      10.992  80.262   0.227  1.00  0.00     0.107 A 
ATOM     15  C   UNL     1      12.655  79.952   1.547  1.00  0.00     0.199 A 
ATOM     16  C   UNL     1      10.941  81.185   1.248  1.00  0.00     0.130 A 
ATOM     17  N   UNL     1      11.986  80.996   2.080  1.00  0.00    -0.245 NA
ENDBRANCH  12  13
ENDBRANCH   1  12
BRANCH   1  18
ATOM     18  C   UNL     1      12.869  78.741  -2.919  1.00  0.00     0.001 A 
ATOM     19  C   UNL     1      13.673  79.908  -2.972  1.00  0.00     0.048 A 
ATOM     20  C   UNL     1      12.995  77.784  -3.943  1.00  0.00     0.009 A 
ATOM     21  Cl  UNL     1      13.587  81.180  -1.757  1.00  0.00    -0.084 Cl
ATOM     22  C   UNL     1      14.585  80.080  -4.021  1.00  0.00     0.041 A 
ATOM     23  C   UNL     1      13.908  77.969  -4.984  1.00  0.00     0.021 A 
ATOM     24  C   UNL     1      14.704  79.113  -5.023  1.00  0.00     0.042 A 
ATOM     25  Cl  UNL     1      15.852  79.341  -6.330  1.00  0.00    -0.084 Cl
ENDBRANCH   1  18
TORSDOF 6
ENDMDL
