MODEL 1
REMARK VINA RESULT:    -8.497      0.000      0.000
REMARK INTER + INTRA:          -9.968
REMARK INTER:                  -9.739
REMARK INTRA:                  -0.229
REMARK UNBOUND:                -0.229
REMARK SMILES O=c1c(-c2ccc(O)cc2)coc2cc(O)cc(O)c12
REMARK SMILES IDX 3 1 11 2 12 3 13 4 20 5 18 6 17 7 15 8 14 9 2 10 1 11 4 12
REMARK SMILES IDX 7 13 6 14 9 15 5 16 10 17 8 18 19 20 16 22
REMARK H PARENT 8 19 19 21 16 23
REMARK Flexibility Score: inf
ROOT
ATOM      1  C   UNL     1       7.762  75.256  -2.068  1.00  0.00     0.065 A 
ATOM      2  C   UNL     1       7.279  75.363  -3.378  1.00  0.00     0.208 A 
ATOM      3  O   UNL     1       7.691  74.530  -4.323  1.00  0.00    -0.463 OA
ATOM      4  C   UNL     1       8.550  73.546  -4.093  1.00  0.00     0.145 A 
ATOM      5  C   UNL     1       9.069  73.321  -2.791  1.00  0.00     0.107 A 
ATOM      6  C   UNL     1       9.958  72.222  -2.594  1.00  0.00     0.134 A 
ATOM      7  C   UNL     1      10.362  71.454  -3.693  1.00  0.00     0.093 A 
ATOM      8  C   UNL     1       9.860  71.703  -4.969  1.00  0.00     0.123 A 
ATOM      9  C   UNL     1       8.943  72.738  -5.163  1.00  0.00     0.094 A 
ATOM     10  C   UNL     1       8.694  74.240  -1.778  1.00  0.00     0.204 A 
ATOM     11  O   UNL     1       9.218  74.201  -0.635  1.00  0.00    -0.288 OA
ENDROOT
BRANCH   1  12
ATOM     12  C   UNL     1       7.302  76.216  -1.032  1.00  0.00    -0.011 A 
ATOM     13  C   UNL     1       6.415  78.043   0.916  1.00  0.00     0.115 A 
ATOM     14  C   UNL     1       7.312  78.455  -0.077  1.00  0.00     0.047 A 
ATOM     15  C   UNL     1       5.958  76.722   0.933  1.00  0.00     0.047 A 
ATOM     16  C   UNL     1       7.751  77.548  -1.048  1.00  0.00     0.013 A 
ATOM     17  C   UNL     1       6.396  75.813  -0.035  1.00  0.00     0.013 A 
BRANCH  13  18
ATOM     18  O   UNL     1       5.971  78.937   1.887  1.00  0.00    -0.508 OA
ATOM     19  H   UNL     1       5.153  79.516   1.740  1.00  0.00     0.293 HD
ENDBRANCH  13  18
ENDBRANCH   1  12
BRANCH   6  20
ATOM     20  O   UNL     1      10.441  71.824  -1.343  1.00  0.00    -0.507 OA
ATOM     21  H   UNL     1      10.498  70.867  -1.028  1.00  0.00     0.293 HD
ENDBRANCH   6  20
BRANCH   8  22
ATOM     22  O   UNL     1      10.271  70.910  -6.037  1.00  0.00    -0.508 OA
ATOM     23  H   UNL     1      10.227  69.898  -5.994  1.00  0.00     0.293 HD
ENDBRANCH   8  22
TORSDOF 4
ENDMDL
MODEL 2
REMARK VINA RESULT:    -7.842      4.965      7.853
REMARK INTER + INTRA:          -9.217
REMARK INTER:                  -8.928
REMARK INTRA:                  -0.289
REMARK UNBOUND:                -0.229
REMARK SMILES O=c1c(-c2ccc(O)cc2)coc2cc(O)cc(O)c12
REMARK SMILES IDX 3 1 11 2 12 3 13 4 20 5 18 6 17 7 15 8 14 9 2 10 1 11 4 12
REMARK SMILES IDX 7 13 6 14 9 15 5 16 10 17 8 18 19 20 16 22
REMARK H PARENT 8 19 19 21 16 23
REMARK Flexibility Score: inf
ROOT
ATOM      1  C   UNL     1      11.311  79.651  -1.865  1.00  0.00     0.065 A 
ATOM      2  C   UNL     1      10.812  80.824  -1.286  1.00  0.00     0.208 A 
ATOM      3  O   UNL     1       9.626  80.838  -0.695  1.00  0.00    -0.463 OA
ATOM      4  C   UNL     1       8.858  79.761  -0.591  1.00  0.00     0.145 A 
ATOM      5  C   UNL     1       9.287  78.508  -1.106  1.00  0.00     0.107 A 
ATOM      6  C   UNL     1       8.438  77.375  -0.929  1.00  0.00     0.134 A 
ATOM      7  C   UNL     1       7.179  77.539  -0.338  1.00  0.00     0.093 A 
ATOM      8  C   UNL     1       6.765  78.781   0.141  1.00  0.00     0.123 A 
ATOM      9  C   UNL     1       7.612  79.885   0.027  1.00  0.00     0.094 A 
ATOM     10  C   UNL     1      10.522  78.485  -1.801  1.00  0.00     0.204 A 
ATOM     11  O   UNL     1      10.908  77.453  -2.410  1.00  0.00    -0.288 OA
ENDROOT
BRANCH   1  12
ATOM     12  C   UNL     1      12.632  79.666  -2.542  1.00  0.00    -0.011 A 
ATOM     13  C   UNL     1      15.139  79.719  -3.821  1.00  0.00     0.115 A 
ATOM     14  C   UNL     1      13.984  80.095  -4.520  1.00  0.00     0.047 A 
ATOM     15  C   UNL     1      15.041  79.322  -2.485  1.00  0.00     0.047 A 
ATOM     16  C   UNL     1      12.739  80.072  -3.884  1.00  0.00     0.013 A 
ATOM     17  C   UNL     1      13.797  79.296  -1.847  1.00  0.00     0.013 A 
BRANCH  13  18
ATOM     18  O   UNL     1      16.383  79.738  -4.445  1.00  0.00    -0.508 OA
ATOM     19  H   UNL     1      17.242  79.625  -3.918  1.00  0.00     0.293 HD
ENDBRANCH  13  18
ENDBRANCH   1  12
BRANCH   6  20
ATOM     20  O   UNL     1       8.797  76.070  -1.282  1.00  0.00    -0.507 OA
ATOM     21  H   UNL     1       9.672  75.813  -1.713  1.00  0.00     0.293 HD
ENDBRANCH   6  20
BRANCH   8  22
ATOM     22  O   UNL     1       5.513  78.905   0.737  1.00  0.00    -0.508 OA
ATOM     23  H   UNL     1       4.781  79.470   0.322  1.00  0.00     0.293 HD
ENDBRANCH   8  22
TORSDOF 4
ENDMDL
MODEL 3
REMARK VINA RESULT:    -7.775      1.453      6.831
REMARK INTER + INTRA:          -9.140
REMARK INTER:                  -8.863
REMARK INTRA:                  -0.277
REMARK UNBOUND:                -0.229
REMARK SMILES O=c1c(-c2ccc(O)cc2)coc2cc(O)cc(O)c12
REMARK SMILES IDX 3 1 11 2 12 3 13 4 20 5 18 6 17 7 15 8 14 9 2 10 1 11 4 12
REMARK SMILES IDX 7 13 6 14 9 15 5 16 10 17 8 18 19 20 16 22
REMARK H PARENT 8 19 19 21 16 23
REMARK Flexibility Score: inf
ROOT
ATOM      1  C   UNL     1       8.494  75.138  -2.506  1.00  0.00     0.065 A 
ATOM      2  C   UNL     1       8.934  76.457  -2.667  1.00  0.00     0.208 A 
ATOM      3  O   UNL     1       8.468  77.428  -1.896  1.00  0.00    -0.463 OA
ATOM      4  C   UNL     1       7.589  77.218  -0.924  1.00  0.00     0.145 A 
ATOM      5  C   UNL     1       7.108  75.911  -0.646  1.00  0.00     0.107 A 
ATOM      6  C   UNL     1       6.197  75.739   0.439  1.00  0.00     0.134 A 
ATOM      7  C   UNL     1       5.734  76.861   1.138  1.00  0.00     0.093 A 
ATOM      8  C   UNL     1       6.199  78.140   0.836  1.00  0.00     0.123 A 
ATOM      9  C   UNL     1       7.137  78.313  -0.183  1.00  0.00     0.094 A 
ATOM     10  C   UNL     1       7.544  74.868  -1.501  1.00  0.00     0.204 A 
ATOM     11  O   UNL     1       7.058  73.710  -1.416  1.00  0.00    -0.288 OA
ENDROOT
BRANCH   1  12
ATOM     12  C   UNL     1       9.015  74.072  -3.398  1.00  0.00    -0.011 A 
ATOM     13  C   UNL     1      10.013  72.067  -5.103  1.00  0.00     0.115 A 
ATOM     14  C   UNL     1       8.832  72.745  -5.430  1.00  0.00     0.047 A 
ATOM     15  C   UNL     1      10.696  72.393  -3.928  1.00  0.00     0.047 A 
ATOM     16  C   UNL     1       8.337  73.744  -4.585  1.00  0.00     0.013 A 
ATOM     17  C   UNL     1      10.203  73.390  -3.080  1.00  0.00     0.013 A 
BRANCH  13  18
ATOM     18  O   UNL     1      10.514  71.071  -5.937  1.00  0.00    -0.508 OA
ATOM     19  H   UNL     1      11.222  71.270  -6.634  1.00  0.00     0.293 HD
ENDBRANCH  13  18
ENDBRANCH   1  12
BRANCH   6  20
ATOM     20  O   UNL     1       5.745  74.494   0.888  1.00  0.00    -0.507 OA
ATOM     21  H   UNL     1       6.220  73.926   1.574  1.00  0.00     0.293 HD
ENDBRANCH   6  20
BRANCH   8  22
ATOM     22  O   UNL     1       5.730  79.231   1.563  1.00  0.00    -0.508 OA
ATOM     23  H   UNL     1       4.936  79.777   1.248  1.00  0.00     0.293 HD
ENDBRANCH   8  22
TORSDOF 4
ENDMDL
MODEL 4
REMARK VINA RESULT:    -7.768      1.488      7.000
REMARK INTER + INTRA:          -9.132
REMARK INTER:                  -8.953
REMARK INTRA:                  -0.179
REMARK UNBOUND:                -0.229
REMARK SMILES O=c1c(-c2ccc(O)cc2)coc2cc(O)cc(O)c12
REMARK SMILES IDX 3 1 11 2 12 3 13 4 20 5 18 6 17 7 15 8 14 9 2 10 1 11 4 12
REMARK SMILES IDX 7 13 6 14 9 15 5 16 10 17 8 18 19 20 16 22
REMARK H PARENT 8 19 19 21 16 23
REMARK Flexibility Score: inf
ROOT
ATOM      1  C   UNL     1       8.015  74.561  -2.168  1.00  0.00     0.065 A 
ATOM      2  C   UNL     1       7.142  74.040  -1.206  1.00  0.00     0.208 A 
ATOM      3  O   UNL     1       6.592  74.826  -0.292  1.00  0.00    -0.463 OA
ATOM      4  C   UNL     1       6.806  76.134  -0.241  1.00  0.00     0.145 A 
ATOM      5  C   UNL     1       7.640  76.773  -1.196  1.00  0.00     0.107 A 
ATOM      6  C   UNL     1       7.801  78.189  -1.119  1.00  0.00     0.134 A 
ATOM      7  C   UNL     1       7.211  78.895  -0.063  1.00  0.00     0.093 A 
ATOM      8  C   UNL     1       6.414  78.248   0.879  1.00  0.00     0.123 A 
ATOM      9  C   UNL     1       6.200  76.872   0.779  1.00  0.00     0.094 A 
ATOM     10  C   UNL     1       8.291  75.943  -2.143  1.00  0.00     0.204 A 
ATOM     11  O   UNL     1       9.156  76.406  -2.931  1.00  0.00    -0.288 OA
ENDROOT
BRANCH   1  12
ATOM     12  C   UNL     1       8.636  73.656  -3.168  1.00  0.00    -0.011 A 
ATOM     13  C   UNL     1       9.798  71.924  -5.058  1.00  0.00     0.115 A 
ATOM     14  C   UNL     1      10.144  71.823  -3.704  1.00  0.00     0.047 A 
ATOM     15  C   UNL     1       8.870  72.886  -5.465  1.00  0.00     0.047 A 
ATOM     16  C   UNL     1       9.565  72.681  -2.764  1.00  0.00     0.013 A 
ATOM     17  C   UNL     1       8.290  73.747  -4.529  1.00  0.00     0.013 A 
BRANCH  13  18
ATOM     18  O   UNL     1      10.369  71.075  -6.002  1.00  0.00    -0.508 OA
ATOM     19  H   UNL     1      10.649  70.129  -5.764  1.00  0.00     0.293 HD
ENDBRANCH  13  18
ENDBRANCH   1  12
BRANCH   6  20
ATOM     20  O   UNL     1       8.495  78.948  -2.066  1.00  0.00    -0.507 OA
ATOM     21  H   UNL     1       8.201  79.852  -2.404  1.00  0.00     0.293 HD
ENDBRANCH   6  20
BRANCH   8  22
ATOM     22  O   UNL     1       5.829  78.983   1.908  1.00  0.00    -0.508 OA
ATOM     23  H   UNL     1       6.097  78.848   2.876  1.00  0.00     0.293 HD
ENDBRANCH   8  22
TORSDOF 4
ENDMDL
MODEL 5
REMARK VINA RESULT:    -7.617      9.224      9.810
REMARK INTER + INTRA:          -8.959
REMARK INTER:                  -8.670
REMARK INTRA:                  -0.288
REMARK UNBOUND:                -0.229
REMARK SMILES O=c1c(-c2ccc(O)cc2)coc2cc(O)cc(O)c12
REMARK SMILES IDX 3 1 11 2 12 3 13 4 20 5 18 6 17 7 15 8 14 9 2 10 1 11 4 12
REMARK SMILES IDX 7 13 6 14 9 15 5 16 10 17 8 18 19 20 16 22
REMARK H PARENT 8 19 19 21 16 23
REMARK Flexibility Score: inf
ROOT
ATOM      1  C   UNL     1      14.175  80.369  -4.321  1.00  0.00     0.065 A 
ATOM      2  C   UNL     1      13.627  81.249  -5.261  1.00  0.00     0.208 A 
ATOM      3  O   UNL     1      14.391  81.821  -6.181  1.00  0.00    -0.463 OA
ATOM      4  C   UNL     1      15.692  81.586  -6.287  1.00  0.00     0.145 A 
ATOM      5  C   UNL     1      16.341  80.676  -5.411  1.00  0.00     0.107 A 
ATOM      6  C   UNL     1      17.735  80.429  -5.599  1.00  0.00     0.134 A 
ATOM      7  C   UNL     1      18.439  81.148  -6.572  1.00  0.00     0.093 A 
ATOM      8  C   UNL     1      17.790  82.055  -7.408  1.00  0.00     0.123 A 
ATOM      9  C   UNL     1      16.415  82.260  -7.274  1.00  0.00     0.094 A 
ATOM     10  C   UNL     1      15.557  80.103  -4.379  1.00  0.00     0.204 A 
ATOM     11  O   UNL     1      16.082  79.401  -3.475  1.00  0.00    -0.288 OA
ENDROOT
BRANCH   1  12
ATOM     12  C   UNL     1      13.302  79.758  -3.287  1.00  0.00    -0.011 A 
ATOM     13  C   UNL     1      11.630  78.615  -1.332  1.00  0.00     0.115 A 
ATOM     14  C   UNL     1      12.251  79.848  -1.093  1.00  0.00     0.047 A 
ATOM     15  C   UNL     1      11.842  77.957  -2.547  1.00  0.00     0.047 A 
ATOM     16  C   UNL     1      13.079  80.419  -2.065  1.00  0.00     0.013 A 
ATOM     17  C   UNL     1      12.670  78.524  -3.520  1.00  0.00     0.013 A 
BRANCH  13  18
ATOM     18  O   UNL     1      10.804  78.038  -0.371  1.00  0.00    -0.508 OA
ATOM     19  H   UNL     1      11.166  77.735   0.526  1.00  0.00     0.293 HD
ENDBRANCH  13  18
ENDBRANCH   1  12
BRANCH   6  20
ATOM     20  O   UNL     1      18.460  79.471  -4.884  1.00  0.00    -0.507 OA
ATOM     21  H   UNL     1      19.328  79.059  -5.194  1.00  0.00     0.293 HD
ENDBRANCH   6  20
BRANCH   8  22
ATOM     22  O   UNL     1      18.518  82.741  -8.377  1.00  0.00    -0.508 OA
ATOM     23  H   UNL     1      19.532  82.726  -8.389  1.00  0.00     0.293 HD
ENDBRANCH   8  22
TORSDOF 4
ENDMDL
MODEL 6
REMARK VINA RESULT:    -7.558      8.226     10.092
REMARK INTER + INTRA:          -8.891
REMARK INTER:                  -8.660
REMARK INTRA:                  -0.231
REMARK UNBOUND:                -0.229
REMARK SMILES O=c1c(-c2ccc(O)cc2)coc2cc(O)cc(O)c12
REMARK SMILES IDX 3 1 11 2 12 3 13 4 20 5 18 6 17 7 15 8 14 9 2 10 1 11 4 12
REMARK SMILES IDX 7 13 6 14 9 15 5 16 10 17 8 18 19 20 16 22
REMARK H PARENT 8 19 19 21 16 23
REMARK Flexibility Score: inf
ROOT
ATOM      1  C   UNL     1      14.465  80.100  -4.356  1.00  0.00     0.065 A 
ATOM      2  C   UNL     1      13.256  80.554  -4.896  1.00  0.00     0.208 A 
ATOM      3  O   UNL     1      12.128  80.464  -4.207  1.00  0.00    -0.463 OA
ATOM      4  C   UNL     1      12.071  79.971  -2.977  1.00  0.00     0.145 A 
ATOM      5  C   UNL     1      13.246  79.522  -2.317  1.00  0.00     0.107 A 
ATOM      6  C   UNL     1      13.131  79.040  -0.979  1.00  0.00     0.134 A 
ATOM      7  C   UNL     1      11.866  78.940  -0.386  1.00  0.00     0.093 A 
ATOM      8  C   UNL     1      10.721  79.364  -1.057  1.00  0.00     0.123 A 
ATOM      9  C   UNL     1      10.828  79.894  -2.345  1.00  0.00     0.094 A 
ATOM     10  C   UNL     1      14.453  79.548  -3.060  1.00  0.00     0.204 A 
ATOM     11  O   UNL     1      15.509  79.036  -2.605  1.00  0.00    -0.288 OA
ENDROOT
BRANCH   1  12
ATOM     12  C   UNL     1      15.712  80.192  -5.157  1.00  0.00    -0.011 A 
ATOM     13  C   UNL     1      18.063  80.377  -6.692  1.00  0.00     0.115 A 
ATOM     14  C   UNL     1      17.094  79.414  -7.003  1.00  0.00     0.047 A 
ATOM     15  C   UNL     1      17.855  81.247  -5.619  1.00  0.00     0.047 A 
ATOM     16  C   UNL     1      15.924  79.323  -6.243  1.00  0.00     0.013 A 
ATOM     17  C   UNL     1      16.687  81.159  -4.856  1.00  0.00     0.013 A 
BRANCH  13  18
ATOM     18  O   UNL     1      19.232  80.476  -7.442  1.00  0.00    -0.508 OA
ATOM     19  H   UNL     1      19.556  81.365  -7.805  1.00  0.00     0.293 HD
ENDBRANCH  13  18
ENDBRANCH   1  12
BRANCH   6  20
ATOM     20  O   UNL     1      14.224  78.683  -0.183  1.00  0.00    -0.507 OA
ATOM     21  H   UNL     1      15.171  78.994  -0.337  1.00  0.00     0.293 HD
ENDBRANCH   6  20
BRANCH   8  22
ATOM     22  O   UNL     1       9.481  79.266  -0.431  1.00  0.00    -0.508 OA
ATOM     23  H   UNL     1       8.707  79.869  -0.687  1.00  0.00     0.293 HD
ENDBRANCH   8  22
TORSDOF 4
ENDMDL
MODEL 7
REMARK VINA RESULT:    -7.549      5.417      7.562
REMARK INTER + INTRA:          -8.881
REMARK INTER:                  -8.606
REMARK INTRA:                  -0.275
REMARK UNBOUND:                -0.229
REMARK SMILES O=c1c(-c2ccc(O)cc2)coc2cc(O)cc(O)c12
REMARK SMILES IDX 3 1 11 2 12 3 13 4 20 5 18 6 17 7 15 8 14 9 2 10 1 11 4 12
REMARK SMILES IDX 7 13 6 14 9 15 5 16 10 17 8 18 19 20 16 22
REMARK H PARENT 8 19 19 21 16 23
REMARK Flexibility Score: inf
ROOT
ATOM      1  C   UNL     1      11.666  79.354  -2.563  1.00  0.00     0.065 A 
ATOM      2  C   UNL     1      11.008  80.314  -1.786  1.00  0.00     0.208 A 
ATOM      3  O   UNL     1       9.905  80.006  -1.119  1.00  0.00    -0.463 OA
ATOM      4  C   UNL     1       9.374  78.790  -1.122  1.00  0.00     0.145 A 
ATOM      5  C   UNL     1       9.986  77.731  -1.844  1.00  0.00     0.107 A 
ATOM      6  C   UNL     1       9.394  76.434  -1.777  1.00  0.00     0.134 A 
ATOM      7  C   UNL     1       8.191  76.257  -1.085  1.00  0.00     0.093 A 
ATOM      8  C   UNL     1       7.592  77.314  -0.401  1.00  0.00     0.123 A 
ATOM      9  C   UNL     1       8.193  78.574  -0.409  1.00  0.00     0.094 A 
ATOM     10  C   UNL     1      11.130  78.053  -2.617  1.00  0.00     0.204 A 
ATOM     11  O   UNL     1      11.647  77.211  -3.397  1.00  0.00    -0.288 OA
ENDROOT
BRANCH   1  12
ATOM     12  C   UNL     1      12.888  79.730  -3.319  1.00  0.00    -0.011 A 
ATOM     13  C   UNL     1      15.202  80.463  -4.743  1.00  0.00     0.115 A 
ATOM     14  C   UNL     1      13.935  80.771  -5.254  1.00  0.00     0.047 A 
ATOM     15  C   UNL     1      15.313  79.794  -3.521  1.00  0.00     0.047 A 
ATOM     16  C   UNL     1      12.784  80.410  -4.546  1.00  0.00     0.013 A 
ATOM     17  C   UNL     1      14.165  79.430  -2.811  1.00  0.00     0.013 A 
BRANCH  13  18
ATOM     18  O   UNL     1      16.354  80.818  -5.441  1.00  0.00    -0.508 OA
ATOM     19  H   UNL     1      17.229  80.998  -4.962  1.00  0.00     0.293 HD
ENDBRANCH  13  18
ENDBRANCH   1  12
BRANCH   6  20
ATOM     20  O   UNL     1       9.964  75.288  -2.342  1.00  0.00    -0.507 OA
ATOM     21  H   UNL     1       9.626  74.832  -3.177  1.00  0.00     0.293 HD
ENDBRANCH   6  20
BRANCH   8  22
ATOM     22  O   UNL     1       6.403  77.099   0.291  1.00  0.00    -0.508 OA
ATOM     23  H   UNL     1       5.521  77.476  -0.038  1.00  0.00     0.293 HD
ENDBRANCH   8  22
TORSDOF 4
ENDMDL
MODEL 8
REMARK VINA RESULT:    -7.509      5.388      7.848
REMARK INTER + INTRA:          -8.835
REMARK INTER:                  -8.546
REMARK INTRA:                  -0.289
REMARK UNBOUND:                -0.229
REMARK SMILES O=c1c(-c2ccc(O)cc2)coc2cc(O)cc(O)c12
REMARK SMILES IDX 3 1 11 2 12 3 13 4 20 5 18 6 17 7 15 8 14 9 2 10 1 11 4 12
REMARK SMILES IDX 7 13 6 14 9 15 5 16 10 17 8 18 19 20 16 22
REMARK H PARENT 8 19 19 21 16 23
REMARK Flexibility Score: inf
ROOT
ATOM      1  C   UNL     1      11.699  78.661  -2.615  1.00  0.00     0.065 A 
ATOM      2  C   UNL     1      11.294  77.369  -2.973  1.00  0.00     0.208 A 
ATOM      3  O   UNL     1      10.161  76.860  -2.510  1.00  0.00    -0.463 OA
ATOM      4  C   UNL     1       9.341  77.532  -1.713  1.00  0.00     0.145 A 
ATOM      5  C   UNL     1       9.634  78.866  -1.323  1.00  0.00     0.107 A 
ATOM      6  C   UNL     1       8.694  79.555  -0.498  1.00  0.00     0.134 A 
ATOM      7  C   UNL     1       7.563  78.878  -0.026  1.00  0.00     0.093 A 
ATOM      8  C   UNL     1       7.302  77.561  -0.401  1.00  0.00     0.123 A 
ATOM      9  C   UNL     1       8.184  76.897  -1.256  1.00  0.00     0.094 A 
ATOM     10  C   UNL     1      10.872  79.407  -1.753  1.00  0.00     0.204 A 
ATOM     11  O   UNL     1      11.275  80.524  -1.336  1.00  0.00    -0.288 OA
ENDROOT
BRANCH   1  12
ATOM     12  C   UNL     1      12.983  79.200  -3.130  1.00  0.00    -0.011 A 
ATOM     13  C   UNL     1      15.422  80.201  -4.115  1.00  0.00     0.115 A 
ATOM     14  C   UNL     1      15.395  79.458  -2.928  1.00  0.00     0.047 A 
ATOM     15  C   UNL     1      14.233  80.440  -4.810  1.00  0.00     0.047 A 
ATOM     16  C   UNL     1      14.184  78.957  -2.439  1.00  0.00     0.013 A 
ATOM     17  C   UNL     1      13.021  79.942  -4.324  1.00  0.00     0.013 A 
BRANCH  13  18
ATOM     18  O   UNL     1      16.622  80.704  -4.609  1.00  0.00    -0.508 OA
ATOM     19  H   UNL     1      16.774  80.833  -5.604  1.00  0.00     0.293 HD
ENDBRANCH  13  18
ENDBRANCH   1  12
BRANCH   6  20
ATOM     20  O   UNL     1       8.808  80.903  -0.146  1.00  0.00    -0.507 OA
ATOM     21  H   UNL     1       8.039  81.485   0.150  1.00  0.00     0.293 HD
ENDBRANCH   6  20
BRANCH   8  22
ATOM     22  O   UNL     1       6.159  76.924   0.074  1.00  0.00    -0.508 OA
ATOM     23  H   UNL     1       6.215  76.109   0.674  1.00  0.00     0.293 HD
ENDBRANCH   8  22
TORSDOF 4
ENDMDL
MODEL 9
REMARK VINA RESULT:    -7.498      4.880      6.699
REMARK INTER + INTRA:          -8.822
REMARK INTER:                  -8.539
REMARK INTRA:                  -0.283
REMARK UNBOUND:                -0.229
REMARK SMILES O=c1c(-c2ccc(O)cc2)coc2cc(O)cc(O)c12
REMARK SMILES IDX 3 1 11 2 12 3 13 4 20 5 18 6 17 7 15 8 14 9 2 10 1 11 4 12
REMARK SMILES IDX 7 13 6 14 9 15 5 16 10 17 8 18 19 20 16 22
REMARK H PARENT 8 19 19 21 16 23
REMARK Flexibility Score: inf
ROOT
ATOM      1  C   UNL     1      11.309  78.349  -2.071  1.00  0.00     0.065 A 
ATOM      2  C   UNL     1      10.546  79.092  -1.162  1.00  0.00     0.208 A 
ATOM      3  O   UNL     1       9.404  78.618  -0.687  1.00  0.00    -0.463 OA
ATOM      4  C   UNL     1       8.927  77.423  -1.013  1.00  0.00     0.145 A 
ATOM      5  C   UNL     1       9.642  76.569  -1.894  1.00  0.00     0.107 A 
ATOM      6  C   UNL     1       9.102  75.278  -2.176  1.00  0.00     0.134 A 
ATOM      7  C   UNL     1       7.852  74.923  -1.655  1.00  0.00     0.093 A 
ATOM      8  C   UNL     1       7.153  75.784  -0.811  1.00  0.00     0.123 A 
ATOM      9  C   UNL     1       7.699  77.025  -0.479  1.00  0.00     0.094 A 
ATOM     10  C   UNL     1      10.833  77.083  -2.465  1.00  0.00     0.204 A 
ATOM     11  O   UNL     1      11.451  76.451  -3.362  1.00  0.00    -0.288 OA
ENDROOT
BRANCH   1  12
ATOM     12  C   UNL     1      12.574  78.912  -2.606  1.00  0.00    -0.011 A 
ATOM     13  C   UNL     1      14.977  79.960  -3.630  1.00  0.00     0.115 A 
ATOM     14  C   UNL     1      14.996  79.130  -2.502  1.00  0.00     0.047 A 
ATOM     15  C   UNL     1      13.760  80.262  -4.247  1.00  0.00     0.047 A 
ATOM     16  C   UNL     1      13.803  78.606  -1.994  1.00  0.00     0.013 A 
ATOM     17  C   UNL     1      12.565  79.742  -3.742  1.00  0.00     0.013 A 
BRANCH  13  18
ATOM     18  O   UNL     1      16.159  80.487  -4.144  1.00  0.00    -0.508 OA
ATOM     19  H   UNL     1      17.031  80.431  -3.631  1.00  0.00     0.293 HD
ENDBRANCH  13  18
ENDBRANCH   1  12
BRANCH   6  20
ATOM     20  O   UNL     1       9.765  74.304  -2.928  1.00  0.00    -0.507 OA
ATOM     21  H   UNL     1       9.708  74.217  -3.932  1.00  0.00     0.293 HD
ENDBRANCH   6  20
BRANCH   8  22
ATOM     22  O   UNL     1       5.919  75.392  -0.298  1.00  0.00    -0.508 OA
ATOM     23  H   UNL     1       5.075  75.926  -0.475  1.00  0.00     0.293 HD
ENDBRANCH   8  22
TORSDOF 4
ENDMDL
MODEL 10
REMARK VINA RESULT:    -7.491      7.373      9.907
REMARK INTER + INTRA:          -8.815
REMARK INTER:                  -8.723
REMARK INTRA:                  -0.091
REMARK UNBOUND:                -0.229
REMARK SMILES O=c1c(-c2ccc(O)cc2)coc2cc(O)cc(O)c12
REMARK SMILES IDX 3 1 11 2 12 3 13 4 20 5 18 6 17 7 15 8 14 9 2 10 1 11 4 12
REMARK SMILES IDX 7 13 6 14 9 15 5 16 10 17 8 18 19 20 16 22
REMARK H PARENT 8 19 19 21 16 23
REMARK Flexibility Score: inf
ROOT
ATOM      1  C   UNL     1      13.730  79.604  -3.496  1.00  0.00     0.065 A 
ATOM      2  C   UNL     1      12.377  79.870  -3.739  1.00  0.00     0.208 A 
ATOM      3  O   UNL     1      11.554  80.167  -2.744  1.00  0.00    -0.463 OA
ATOM      4  C   UNL     1      11.950  80.256  -1.481  1.00  0.00     0.145 A 
ATOM      5  C   UNL     1      13.310  80.048  -1.129  1.00  0.00     0.107 A 
ATOM      6  C   UNL     1      13.687  80.197   0.240  1.00  0.00     0.134 A 
ATOM      7  C   UNL     1      12.705  80.454   1.204  1.00  0.00     0.093 A 
ATOM      8  C   UNL     1      11.370  80.633   0.842  1.00  0.00     0.123 A 
ATOM      9  C   UNL     1      10.999  80.549  -0.501  1.00  0.00     0.094 A 
ATOM     10  C   UNL     1      14.195  79.664  -2.167  1.00  0.00     0.204 A 
ATOM     11  O   UNL     1      15.381  79.321  -1.920  1.00  0.00    -0.288 OA
ENDROOT
BRANCH   1  12
ATOM     12  C   UNL     1      14.627  79.251  -4.625  1.00  0.00    -0.011 A 
ATOM     13  C   UNL     1      16.343  78.573  -6.750  1.00  0.00     0.115 A 
ATOM     14  C   UNL     1      16.594  79.716  -5.981  1.00  0.00     0.047 A 
ATOM     15  C   UNL     1      15.239  77.769  -6.455  1.00  0.00     0.047 A 
ATOM     16  C   UNL     1      15.744  80.053  -4.922  1.00  0.00     0.013 A 
ATOM     17  C   UNL     1      14.386  78.102  -5.399  1.00  0.00     0.013 A 
BRANCH  13  18
ATOM     18  O   UNL     1      17.183  78.230  -7.806  1.00  0.00    -0.508 OA
ATOM     19  H   UNL     1      17.416  77.263  -8.005  1.00  0.00     0.293 HD
ENDBRANCH  13  18
ENDBRANCH   1  12
BRANCH   6  20
ATOM     20  O   UNL     1      15.008  80.137   0.695  1.00  0.00    -0.507 OA
ATOM     21  H   UNL     1      15.822  80.249   0.109  1.00  0.00     0.293 HD
ENDBRANCH   6  20
BRANCH   8  22
ATOM     22  O   UNL     1      10.421  80.903   1.825  1.00  0.00    -0.508 OA
ATOM     23  H   UNL     1      10.567  81.628   2.518  1.00  0.00     0.293 HD
ENDBRANCH   8  22
TORSDOF 4
ENDMDL
MODEL 11
REMARK VINA RESULT:    -7.452      5.153      6.202
REMARK INTER + INTRA:          -8.770
REMARK INTER:                  -8.709
REMARK INTRA:                  -0.060
REMARK UNBOUND:                -0.229
REMARK SMILES O=c1c(-c2ccc(O)cc2)coc2cc(O)cc(O)c12
REMARK SMILES IDX 3 1 11 2 12 3 13 4 20 5 18 6 17 7 15 8 14 9 2 10 1 11 4 12
REMARK SMILES IDX 7 13 6 14 9 15 5 16 10 17 8 18 19 20 16 22
REMARK H PARENT 8 19 19 21 16 23
REMARK Flexibility Score: inf
ROOT
ATOM      1  C   UNL     1      10.595  77.765  -1.650  1.00  0.00     0.065 A 
ATOM      2  C   UNL     1      10.916  77.194  -2.887  1.00  0.00     0.208 A 
ATOM      3  O   UNL     1      12.040  77.515  -3.511  1.00  0.00    -0.463 OA
ATOM      4  C   UNL     1      12.929  78.361  -3.008  1.00  0.00     0.145 A 
ATOM      5  C   UNL     1      12.724  78.965  -1.739  1.00  0.00     0.107 A 
ATOM      6  C   UNL     1      13.734  79.834  -1.229  1.00  0.00     0.134 A 
ATOM      7  C   UNL     1      14.849  80.139  -2.020  1.00  0.00     0.093 A 
ATOM      8  C   UNL     1      15.023  79.554  -3.273  1.00  0.00     0.123 A 
ATOM      9  C   UNL     1      14.071  78.655  -3.758  1.00  0.00     0.094 A 
ATOM     10  C   UNL     1      11.498  78.687  -1.084  1.00  0.00     0.204 A 
ATOM     11  O   UNL     1      11.172  79.290  -0.028  1.00  0.00    -0.288 OA
ENDROOT
BRANCH   1  12
ATOM     12  C   UNL     1       9.319  77.406  -0.981  1.00  0.00    -0.011 A 
ATOM     13  C   UNL     1       6.890  76.725   0.267  1.00  0.00     0.115 A 
ATOM     14  C   UNL     1       7.120  78.041  -0.153  1.00  0.00     0.047 A 
ATOM     15  C   UNL     1       7.870  75.750   0.059  1.00  0.00     0.047 A 
ATOM     16  C   UNL     1       8.326  78.380  -0.776  1.00  0.00     0.013 A 
ATOM     17  C   UNL     1       9.077  76.086  -0.562  1.00  0.00     0.013 A 
BRANCH  13  18
ATOM     18  O   UNL     1       5.694  76.377   0.888  1.00  0.00    -0.508 OA
ATOM     19  H   UNL     1       5.279  76.961   1.605  1.00  0.00     0.293 HD
ENDBRANCH  13  18
ENDBRANCH   1  12
BRANCH   6  20
ATOM     20  O   UNL     1      13.706  80.394   0.052  1.00  0.00    -0.507 OA
ATOM     21  H   UNL     1      14.095  81.293   0.294  1.00  0.00     0.293 HD
ENDBRANCH   6  20
BRANCH   8  22
ATOM     22  O   UNL     1      16.152  79.867  -4.026  1.00  0.00    -0.508 OA
ATOM     23  H   UNL     1      16.762  80.637  -3.776  1.00  0.00     0.293 HD
ENDBRANCH   8  22
TORSDOF 4
ENDMDL
MODEL 12
REMARK VINA RESULT:    -7.441      4.067      6.772
REMARK INTER + INTRA:          -8.757
REMARK INTER:                  -8.492
REMARK INTRA:                  -0.265
REMARK UNBOUND:                -0.229
REMARK SMILES O=c1c(-c2ccc(O)cc2)coc2cc(O)cc(O)c12
REMARK SMILES IDX 3 1 11 2 12 3 13 4 20 5 18 6 17 7 15 8 14 9 2 10 1 11 4 12
REMARK SMILES IDX 7 13 6 14 9 15 5 16 10 17 8 18 19 20 16 22
REMARK H PARENT 8 19 19 21 16 23
REMARK Flexibility Score: inf
ROOT
ATOM      1  C   UNL     1      10.581  77.251  -1.249  1.00  0.00     0.065 A 
ATOM      2  C   UNL     1      10.440  75.860  -1.307  1.00  0.00     0.208 A 
ATOM      3  O   UNL     1       9.314  75.275  -0.923  1.00  0.00    -0.463 OA
ATOM      4  C   UNL     1       8.260  75.954  -0.488  1.00  0.00     0.145 A 
ATOM      5  C   UNL     1       8.281  77.373  -0.429  1.00  0.00     0.107 A 
ATOM      6  C   UNL     1       7.104  78.052   0.006  1.00  0.00     0.134 A 
ATOM      7  C   UNL     1       6.000  77.311   0.445  1.00  0.00     0.093 A 
ATOM      8  C   UNL     1       6.005  75.917   0.401  1.00  0.00     0.123 A 
ATOM      9  C   UNL     1       7.129  75.243  -0.080  1.00  0.00     0.094 A 
ATOM     10  C   UNL     1       9.497  78.015  -0.773  1.00  0.00     0.204 A 
ATOM     11  O   UNL     1       9.648  79.254  -0.612  1.00  0.00    -0.288 OA
ENDROOT
BRANCH   1  12
ATOM     12  C   UNL     1      11.861  77.880  -1.664  1.00  0.00    -0.011 A 
ATOM     13  C   UNL     1      14.296  79.052  -2.451  1.00  0.00     0.115 A 
ATOM     14  C   UNL     1      14.061  78.756  -1.102  1.00  0.00     0.047 A 
ATOM     15  C   UNL     1      13.317  78.759  -3.405  1.00  0.00     0.047 A 
ATOM     16  C   UNL     1      12.853  78.171  -0.711  1.00  0.00     0.013 A 
ATOM     17  C   UNL     1      12.107  78.176  -3.017  1.00  0.00     0.013 A 
BRANCH  13  18
ATOM     18  O   UNL     1      15.495  79.635  -2.852  1.00  0.00    -0.508 OA
ATOM     19  H   UNL     1      15.968  79.344  -3.700  1.00  0.00     0.293 HD
ENDBRANCH  13  18
ENDBRANCH   1  12
BRANCH   6  20
ATOM     20  O   UNL     1       6.958  79.443  -0.005  1.00  0.00    -0.507 OA
ATOM     21  H   UNL     1       6.334  79.948  -0.617  1.00  0.00     0.293 HD
ENDBRANCH   6  20
BRANCH   8  22
ATOM     22  O   UNL     1       4.884  75.212   0.830  1.00  0.00    -0.508 OA
ATOM     23  H   UNL     1       4.943  74.516   1.565  1.00  0.00     0.293 HD
ENDBRANCH   8  22
TORSDOF 4
ENDMDL
MODEL 13
REMARK VINA RESULT:    -7.320      9.013     10.423
REMARK INTER + INTRA:          -8.618
REMARK INTER:                  -8.342
REMARK INTRA:                  -0.276
REMARK UNBOUND:                -0.229
REMARK SMILES O=c1c(-c2ccc(O)cc2)coc2cc(O)cc(O)c12
REMARK SMILES IDX 3 1 11 2 12 3 13 4 20 5 18 6 17 7 15 8 14 9 2 10 1 11 4 12
REMARK SMILES IDX 7 13 6 14 9 15 5 16 10 17 8 18 19 20 16 22
REMARK H PARENT 8 19 19 21 16 23
REMARK Flexibility Score: inf
ROOT
ATOM      1  C   UNL     1      15.237  79.438  -5.322  1.00  0.00     0.065 A 
ATOM      2  C   UNL     1      14.483  78.401  -5.884  1.00  0.00     0.208 A 
ATOM      3  O   UNL     1      13.500  77.831  -5.203  1.00  0.00    -0.463 OA
ATOM      4  C   UNL     1      13.154  78.210  -3.979  1.00  0.00     0.145 A 
ATOM      5  C   UNL     1      13.826  79.281  -3.332  1.00  0.00     0.107 A 
ATOM      6  C   UNL     1      13.384  79.673  -2.032  1.00  0.00     0.134 A 
ATOM      7  C   UNL     1      12.371  78.944  -1.397  1.00  0.00     0.093 A 
ATOM      8  C   UNL     1      11.739  77.881  -2.039  1.00  0.00     0.123 A 
ATOM      9  C   UNL     1      12.121  77.526  -3.334  1.00  0.00     0.094 A 
ATOM     10  C   UNL     1      14.923  79.862  -4.015  1.00  0.00     0.204 A 
ATOM     11  O   UNL     1      15.660  80.716  -3.457  1.00  0.00    -0.288 OA
ENDROOT
BRANCH   1  12
ATOM     12  C   UNL     1      16.348  80.046  -6.097  1.00  0.00    -0.011 A 
ATOM     13  C   UNL     1      18.457  81.214  -7.550  1.00  0.00     0.115 A 
ATOM     14  C   UNL     1      17.199  81.830  -7.517  1.00  0.00     0.047 A 
ATOM     15  C   UNL     1      18.660  80.019  -6.854  1.00  0.00     0.047 A 
ATOM     16  C   UNL     1      16.151  81.253  -6.793  1.00  0.00     0.013 A 
ATOM     17  C   UNL     1      17.615  79.438  -6.131  1.00  0.00     0.013 A 
BRANCH  13  18
ATOM     18  O   UNL     1      19.507  81.780  -8.267  1.00  0.00    -0.508 OA
ATOM     19  H   UNL     1      20.090  82.507  -7.869  1.00  0.00     0.293 HD
ENDBRANCH  13  18
ENDBRANCH   1  12
BRANCH   6  20
ATOM     20  O   UNL     1      13.881  80.783  -1.343  1.00  0.00    -0.507 OA
ATOM     21  H   UNL     1      14.576  80.741  -0.612  1.00  0.00     0.293 HD
ENDBRANCH   6  20
BRANCH   8  22
ATOM     22  O   UNL     1      10.723  77.188  -1.384  1.00  0.00    -0.508 OA
ATOM     23  H   UNL     1      10.853  76.235  -1.062  1.00  0.00     0.293 HD
ENDBRANCH   8  22
TORSDOF 4
ENDMDL
MODEL 14
REMARK VINA RESULT:    -7.134      9.600     10.786
REMARK INTER + INTRA:          -8.406
REMARK INTER:                  -8.139
REMARK INTRA:                  -0.267
REMARK UNBOUND:                -0.229
REMARK SMILES O=c1c(-c2ccc(O)cc2)coc2cc(O)cc(O)c12
REMARK SMILES IDX 3 1 11 2 12 3 13 4 20 5 18 6 17 7 15 8 14 9 2 10 1 11 4 12
REMARK SMILES IDX 7 13 6 14 9 15 5 16 10 17 8 18 19 20 16 22
REMARK H PARENT 8 19 19 21 16 23
REMARK Flexibility Score: inf
ROOT
ATOM      1  C   UNL     1      15.625  80.585  -5.254  1.00  0.00     0.065 A 
ATOM      2  C   UNL     1      14.876  81.455  -4.453  1.00  0.00     0.208 A 
ATOM      3  O   UNL     1      13.807  81.025  -3.799  1.00  0.00    -0.463 OA
ATOM      4  C   UNL     1      13.397  79.764  -3.837  1.00  0.00     0.145 A 
ATOM      5  C   UNL     1      14.108  78.789  -4.585  1.00  0.00     0.107 A 
ATOM      6  C   UNL     1      13.645  77.439  -4.557  1.00  0.00     0.134 A 
ATOM      7  C   UNL     1      12.463  77.128  -3.873  1.00  0.00     0.093 A 
ATOM      8  C   UNL     1      11.764  78.103  -3.163  1.00  0.00     0.123 A 
ATOM      9  C   UNL     1      12.241  79.415  -3.134  1.00  0.00     0.094 A 
ATOM     10  C   UNL     1      15.216  79.240  -5.346  1.00  0.00     0.204 A 
ATOM     11  O   UNL     1      15.813  78.474  -6.146  1.00  0.00    -0.288 OA
ENDROOT
BRANCH   1  12
ATOM     12  C   UNL     1      16.805  81.098  -5.995  1.00  0.00    -0.011 A 
ATOM     13  C   UNL     1      19.036  82.090  -7.396  1.00  0.00     0.115 A 
ATOM     14  C   UNL     1      17.785  82.022  -8.023  1.00  0.00     0.047 A 
ATOM     15  C   UNL     1      19.170  81.666  -6.071  1.00  0.00     0.047 A 
ATOM     16  C   UNL     1      16.675  81.532  -7.327  1.00  0.00     0.013 A 
ATOM     17  C   UNL     1      18.064  81.175  -5.373  1.00  0.00     0.013 A 
BRANCH  13  18
ATOM     18  O   UNL     1      20.147  82.576  -8.080  1.00  0.00    -0.508 OA
ATOM     19  H   UNL     1      20.769  81.957  -8.588  1.00  0.00     0.293 HD
ENDBRANCH  13  18
ENDBRANCH   1  12
BRANCH   6  20
ATOM     20  O   UNL     1      14.322  76.370  -5.151  1.00  0.00    -0.507 OA
ATOM     21  H   UNL     1      13.874  75.559  -5.553  1.00  0.00     0.293 HD
ENDBRANCH   6  20
BRANCH   8  22
ATOM     22  O   UNL     1      10.601  77.756  -2.480  1.00  0.00    -0.508 OA
ATOM     23  H   UNL     1      10.495  77.932  -1.488  1.00  0.00     0.293 HD
ENDBRANCH   8  22
TORSDOF 4
ENDMDL
MODEL 15
REMARK VINA RESULT:    -7.130      7.598      8.065
REMARK INTER + INTRA:          -8.401
REMARK INTER:                  -8.162
REMARK INTRA:                  -0.239
REMARK UNBOUND:                -0.229
REMARK SMILES O=c1c(-c2ccc(O)cc2)coc2cc(O)cc(O)c12
REMARK SMILES IDX 3 1 11 2 12 3 13 4 20 5 18 6 17 7 15 8 14 9 2 10 1 11 4 12
REMARK SMILES IDX 7 13 6 14 9 15 5 16 10 17 8 18 19 20 16 22
REMARK H PARENT 8 19 19 21 16 23
REMARK Flexibility Score: inf
ROOT
ATOM      1  C   UNL     1      13.202  79.237  -3.444  1.00  0.00     0.065 A 
ATOM      2  C   UNL     1      13.104  77.913  -3.888  1.00  0.00     0.208 A 
ATOM      3  O   UNL     1      13.892  77.460  -4.851  1.00  0.00    -0.463 OA
ATOM      4  C   UNL     1      14.823  78.205  -5.432  1.00  0.00     0.145 A 
ATOM      5  C   UNL     1      15.036  79.550  -5.029  1.00  0.00     0.107 A 
ATOM      6  C   UNL     1      16.080  80.292  -5.660  1.00  0.00     0.134 A 
ATOM      7  C   UNL     1      16.802  79.713  -6.711  1.00  0.00     0.093 A 
ATOM      8  C   UNL     1      16.563  78.399  -7.110  1.00  0.00     0.123 A 
ATOM      9  C   UNL     1      15.586  77.643  -6.459  1.00  0.00     0.094 A 
ATOM     10  C   UNL     1      14.161  80.075  -4.045  1.00  0.00     0.204 A 
ATOM     11  O   UNL     1      14.186  81.295  -3.734  1.00  0.00    -0.288 OA
ENDROOT
BRANCH   1  12
ATOM     12  C   UNL     1      12.291  79.726  -2.378  1.00  0.00    -0.011 A 
ATOM     13  C   UNL     1      10.558  80.633  -0.354  1.00  0.00     0.115 A 
ATOM     14  C   UNL     1      10.078  80.438  -1.656  1.00  0.00     0.047 A 
ATOM     15  C   UNL     1      11.899  80.370  -0.064  1.00  0.00     0.047 A 
ATOM     16  C   UNL     1      10.938  79.985  -2.662  1.00  0.00     0.013 A 
ATOM     17  C   UNL     1      12.762  79.918  -1.066  1.00  0.00     0.013 A 
BRANCH  13  18
ATOM     18  O   UNL     1       9.710  81.084   0.654  1.00  0.00    -0.508 OA
ATOM     19  H   UNL     1       9.658  80.616   1.552  1.00  0.00     0.293 HD
ENDBRANCH  13  18
ENDBRANCH   1  12
BRANCH   6  20
ATOM     20  O   UNL     1      16.467  81.578  -5.271  1.00  0.00    -0.507 OA
ATOM     21  H   UNL     1      16.705  81.845  -4.327  1.00  0.00     0.293 HD
ENDBRANCH   6  20
BRANCH   8  22
ATOM     22  O   UNL     1      17.311  77.849  -8.148  1.00  0.00    -0.508 OA
ATOM     23  H   UNL     1      17.295  78.244  -9.081  1.00  0.00     0.293 HD
ENDBRANCH   8  22
TORSDOF 4
ENDMDL
