MODEL 1
REMARK VINA RESULT:    -9.014      0.000      0.000
REMARK INTER + INTRA:         -11.111
REMARK INTER:                 -10.858
REMARK INTRA:                  -0.252
REMARK UNBOUND:                -0.252
REMARK SMILES C[C@@H]1C[C@H]2[C@@H]3CCC4=CC(=O)C=C[C@]4(C)[C@@]3(F)[C@@H](O)C[C@]2(C)[C@@]1(O)C(=O)CO
REMARK SMILES IDX 25 1 26 2 23 3 4 4 3 5 21 6 5 7 2 8 22 9 20 10 16 11 6 12
REMARK SMILES IDX 1 13 18 14 17 15 14 16 7 17 8 18 13 19 15 20 9 21 12 22
REMARK SMILES IDX 10 23 11 24 24 25 19 27 27 29 28 30
REMARK H PARENT 24 26 19 28 28 31
REMARK Flexibility Score: inf
ROOT
ATOM      1  C   UNL     1       6.478  74.748  -1.534  1.00  0.00     0.190 C 
ATOM      2  O   UNL     1       5.867  74.421  -2.541  1.00  0.00    -0.294 OA
ENDROOT
BRANCH   1   3
ATOM      3  C   UNL     1       8.005  74.907  -1.564  1.00  0.00     0.133 C 
ATOM      4  C   UNL     1       9.924  76.155  -2.232  1.00  0.00     0.005 C 
ATOM      5  C   UNL     1       9.890  74.988  -3.212  1.00  0.00     0.011 C 
ATOM      6  C   UNL     1       8.457  76.381  -1.838  1.00  0.00     0.010 C 
ATOM      7  C   UNL     1      10.663  77.453  -2.637  1.00  0.00     0.035 C 
ATOM      8  C   UNL     1       8.696  74.121  -2.743  1.00  0.00     0.026 C 
ATOM      9  C   UNL     1       7.593  76.993  -2.996  1.00  0.00     0.015 C 
ATOM     10  C   UNL     1       8.437  77.328  -0.606  1.00  0.00     0.045 C 
ATOM     11  C   UNL     1      10.653  78.445  -1.412  1.00  0.00     0.152 C 
ATOM     12  C   UNL     1      12.111  77.132  -3.072  1.00  0.00     0.012 C 
ATOM     13  C   UNL     1       9.130  72.692  -2.385  1.00  0.00     0.011 C 
ATOM     14  C   UNL     1       9.197  78.663  -0.857  1.00  0.00     0.154 C 
ATOM     15  F   UNL     1      11.352  77.823  -0.381  1.00  0.00    -0.239 F 
ATOM     16  C   UNL     1      11.452  79.778  -1.729  1.00  0.00     0.044 C 
ATOM     17  C   UNL     1      12.890  78.400  -3.417  1.00  0.00     0.032 C 
ATOM     18  C   UNL     1      12.836  79.365  -2.259  1.00  0.00    -0.053 C 
ATOM     19  C   UNL     1      11.547  80.630  -0.460  1.00  0.00    -0.009 C 
ATOM     20  C   UNL     1      10.794  80.674  -2.809  1.00  0.00     0.024 C 
ATOM     21  C   UNL     1      13.981  79.841  -1.744  1.00  0.00     0.052 C 
ATOM     22  C   UNL     1      12.696  81.084   0.039  1.00  0.00     0.048 C 
ATOM     23  C   UNL     1      13.968  80.735  -0.587  1.00  0.00     0.178 C 
ATOM     24  O   UNL     1      15.048  81.189  -0.125  1.00  0.00    -0.290 OA
BRANCH   3  25
ATOM     25  O   UNL     1       8.544  74.485  -0.326  1.00  0.00    -0.381 OA
ATOM     26  H   UNL     1       9.268  75.114  -0.065  1.00  0.00     0.212 HD
ENDBRANCH   3  25
BRANCH  14  27
ATOM     27  O   UNL     1       8.443  79.495  -1.697  1.00  0.00    -0.390 OA
ATOM     28  H   UNL     1       7.795  78.915  -2.177  1.00  0.00     0.211 HD
ENDBRANCH  14  27
ENDBRANCH   1   3
BRANCH   1  29
ATOM     29  C   UNL     1       5.691  75.037  -0.283  1.00  0.00     0.234 C 
BRANCH  29  30
ATOM     30  O   UNL     1       6.020  74.115   0.719  1.00  0.00    -0.388 OA
ATOM     31  H   UNL     1       5.269  74.123   1.369  1.00  0.00     0.211 HD
ENDBRANCH  29  30
ENDBRANCH   1  29
TORSDOF 5
ENDMDL
MODEL 2
REMARK VINA RESULT:    -7.827      2.888      7.307
REMARK INTER + INTRA:          -9.681
REMARK INTER:                  -9.580
REMARK INTRA:                  -0.100
REMARK UNBOUND:                -0.252
REMARK SMILES C[C@@H]1C[C@H]2[C@@H]3CCC4=CC(=O)C=C[C@]4(C)[C@@]3(F)[C@@H](O)C[C@]2(C)[C@@]1(O)C(=O)CO
REMARK SMILES IDX 25 1 26 2 23 3 4 4 3 5 21 6 5 7 2 8 22 9 20 10 16 11 6 12
REMARK SMILES IDX 1 13 18 14 17 15 14 16 7 17 8 18 13 19 15 20 9 21 12 22
REMARK SMILES IDX 10 23 11 24 24 25 19 27 27 29 28 30
REMARK H PARENT 24 26 19 28 28 31
REMARK Flexibility Score: inf
ROOT
ATOM      1  C   UNL     1      16.321  80.200  -5.221  1.00  0.00     0.190 C 
ATOM      2  O   UNL     1      16.541  81.339  -4.835  1.00  0.00    -0.294 OA
ENDROOT
BRANCH   1   3
ATOM      3  C   UNL     1      14.902  79.616  -5.167  1.00  0.00     0.133 C 
ATOM      4  C   UNL     1      13.160  78.574  -3.917  1.00  0.00     0.005 C 
ATOM      5  C   UNL     1      13.743  77.436  -4.746  1.00  0.00     0.011 C 
ATOM      6  C   UNL     1      14.328  79.551  -3.713  1.00  0.00     0.010 C 
ATOM      7  C   UNL     1      12.398  78.238  -2.612  1.00  0.00     0.035 C 
ATOM      8  C   UNL     1      14.825  78.110  -5.626  1.00  0.00     0.026 C 
ATOM      9  C   UNL     1      15.425  79.005  -2.733  1.00  0.00     0.015 C 
ATOM     10  C   UNL     1      13.742  80.881  -3.162  1.00  0.00     0.045 C 
ATOM     11  C   UNL     1      11.799  79.568  -2.017  1.00  0.00     0.152 C 
ATOM     12  C   UNL     1      11.280  77.209  -2.894  1.00  0.00     0.012 C 
ATOM     13  C   UNL     1      14.548  77.916  -7.124  1.00  0.00     0.011 C 
ATOM     14  C   UNL     1      12.900  80.682  -1.868  1.00  0.00     0.154 C 
ATOM     15  F   UNL     1      10.899  80.064  -2.958  1.00  0.00    -0.239 F 
ATOM     16  C   UNL     1      10.945  79.295  -0.709  1.00  0.00     0.044 C 
ATOM     17  C   UNL     1      10.466  76.903  -1.638  1.00  0.00     0.032 C 
ATOM     18  C   UNL     1       9.936  78.185  -1.047  1.00  0.00    -0.053 C 
ATOM     19  C   UNL     1      10.258  80.591  -0.268  1.00  0.00    -0.009 C 
ATOM     20  C   UNL     1      11.778  78.807   0.504  1.00  0.00     0.024 C 
ATOM     21  C   UNL     1       8.618  78.311  -0.821  1.00  0.00     0.052 C 
ATOM     22  C   UNL     1       8.946  80.696  -0.058  1.00  0.00     0.048 C 
ATOM     23  C   UNL     1       8.062  79.559  -0.300  1.00  0.00     0.178 C 
ATOM     24  O   UNL     1       6.827  79.658  -0.075  1.00  0.00    -0.290 OA
BRANCH   3  25
ATOM     25  O   UNL     1      14.041  80.406  -5.965  1.00  0.00    -0.381 OA
ATOM     26  H   UNL     1      13.309  80.755  -5.391  1.00  0.00     0.212 HD
ENDBRANCH   3  25
BRANCH  14  27
ATOM     27  O   UNL     1      13.746  80.429  -0.778  1.00  0.00    -0.390 OA
ATOM     28  H   UNL     1      14.210  79.570  -0.962  1.00  0.00     0.211 HD
ENDBRANCH  14  27
ENDBRANCH   1   3
BRANCH   1  29
ATOM     29  C   UNL     1      17.466  79.407  -5.796  1.00  0.00     0.234 C 
BRANCH  29  30
ATOM     30  O   UNL     1      18.511  79.326  -4.867  1.00  0.00    -0.388 OA
ATOM     31  H   UNL     1      19.326  79.661  -5.327  1.00  0.00     0.211 HD
ENDBRANCH  29  30
ENDBRANCH   1  29
TORSDOF 5
ENDMDL
MODEL 3
REMARK VINA RESULT:    -6.877      4.538      8.880
REMARK INTER + INTRA:          -8.536
REMARK INTER:                  -8.416
REMARK INTRA:                  -0.120
REMARK UNBOUND:                -0.252
REMARK SMILES C[C@@H]1C[C@H]2[C@@H]3CCC4=CC(=O)C=C[C@]4(C)[C@@]3(F)[C@@H](O)C[C@]2(C)[C@@]1(O)C(=O)CO
REMARK SMILES IDX 25 1 26 2 23 3 4 4 3 5 21 6 5 7 2 8 22 9 20 10 16 11 6 12
REMARK SMILES IDX 1 13 18 14 17 15 14 16 7 17 8 18 13 19 15 20 9 21 12 22
REMARK SMILES IDX 10 23 11 24 24 25 19 27 27 29 28 30
REMARK H PARENT 24 26 19 28 28 31
REMARK Flexibility Score: inf
ROOT
ATOM      1  C   UNL     1      17.363  80.874  -7.696  1.00  0.00     0.190 C 
ATOM      2  O   UNL     1      16.858  80.295  -8.647  1.00  0.00    -0.294 OA
ENDROOT
BRANCH   1   3
ATOM      3  C   UNL     1      17.258  80.290  -6.280  1.00  0.00     0.133 C 
ATOM      4  C   UNL     1      16.095  80.145  -4.203  1.00  0.00     0.005 C 
ATOM      5  C   UNL     1      17.288  81.042  -3.891  1.00  0.00     0.011 C 
ATOM      6  C   UNL     1      15.809  80.376  -5.694  1.00  0.00     0.010 C 
ATOM      7  C   UNL     1      14.835  80.234  -3.309  1.00  0.00     0.035 C 
ATOM      8  C   UNL     1      18.100  81.083  -5.209  1.00  0.00     0.026 C 
ATOM      9  C   UNL     1      15.199  81.790  -5.994  1.00  0.00     0.015 C 
ATOM     10  C   UNL     1      14.827  79.267  -6.165  1.00  0.00     0.045 C 
ATOM     11  C   UNL     1      13.810  79.128  -3.766  1.00  0.00     0.152 C 
ATOM     12  C   UNL     1      15.218  80.047  -1.823  1.00  0.00     0.012 C 
ATOM     13  C   UNL     1      19.532  80.564  -5.017  1.00  0.00     0.011 C 
ATOM     14  C   UNL     1      13.527  79.206  -5.312  1.00  0.00     0.154 C 
ATOM     15  F   UNL     1      14.427  77.896  -3.567  1.00  0.00    -0.239 F 
ATOM     16  C   UNL     1      12.515  79.112  -2.852  1.00  0.00     0.044 C 
ATOM     17  C   UNL     1      13.988  80.065  -0.918  1.00  0.00     0.032 C 
ATOM     18  C   UNL     1      12.990  79.038  -1.390  1.00  0.00    -0.053 C 
ATOM     19  C   UNL     1      11.632  77.922  -3.238  1.00  0.00    -0.009 C 
ATOM     20  C   UNL     1      11.627  80.376  -2.983  1.00  0.00     0.024 C 
ATOM     21  C   UNL     1      12.539  78.111  -0.529  1.00  0.00     0.052 C 
ATOM     22  C   UNL     1      11.204  77.009  -2.366  1.00  0.00     0.048 C 
ATOM     23  C   UNL     1      11.614  77.067  -0.966  1.00  0.00     0.178 C 
ATOM     24  O   UNL     1      11.184  76.216  -0.144  1.00  0.00    -0.290 OA
BRANCH   3  25
ATOM     25  O   UNL     1      17.663  78.934  -6.301  1.00  0.00    -0.381 OA
ATOM     26  H   UNL     1      18.177  78.770  -7.136  1.00  0.00     0.212 HD
ENDBRANCH   3  25
BRANCH  14  27
ATOM     27  O   UNL     1      12.693  80.288  -5.630  1.00  0.00    -0.390 OA
ATOM     28  H   UNL     1      11.892  79.917  -6.084  1.00  0.00     0.211 HD
ENDBRANCH  14  27
ENDBRANCH   1   3
BRANCH   1  29
ATOM     29  C   UNL     1      18.131  82.143  -7.958  1.00  0.00     0.234 C 
BRANCH  29  30
ATOM     30  O   UNL     1      17.246  83.206  -8.177  1.00  0.00    -0.388 OA
ATOM     31  H   UNL     1      16.329  82.836  -8.081  1.00  0.00     0.211 HD
ENDBRANCH  29  30
ENDBRANCH   1  29
TORSDOF 5
ENDMDL
MODEL 4
REMARK VINA RESULT:    -6.755      1.836      7.203
REMARK INTER + INTRA:          -8.390
REMARK INTER:                  -8.867
REMARK INTRA:                   0.477
REMARK UNBOUND:                -0.252
REMARK SMILES C[C@@H]1C[C@H]2[C@@H]3CCC4=CC(=O)C=C[C@]4(C)[C@@]3(F)[C@@H](O)C[C@]2(C)[C@@]1(O)C(=O)CO
REMARK SMILES IDX 25 1 26 2 23 3 4 4 3 5 21 6 5 7 2 8 22 9 20 10 16 11 6 12
REMARK SMILES IDX 1 13 18 14 17 15 14 16 7 17 8 18 13 19 15 20 9 21 12 22
REMARK SMILES IDX 10 23 11 24 24 25 19 27 27 29 28 30
REMARK H PARENT 24 26 19 28 28 31
REMARK Flexibility Score: inf
ROOT
ATOM      1  C   UNL     1      14.872  79.263  -1.825  1.00  0.00     0.190 C 
ATOM      2  O   UNL     1      15.823  78.563  -1.510  1.00  0.00    -0.294 OA
ENDROOT
BRANCH   1   3
ATOM      3  C   UNL     1      13.632  79.347  -0.924  1.00  0.00     0.133 C 
ATOM      4  C   UNL     1      11.258  79.322  -0.694  1.00  0.00     0.005 C 
ATOM      5  C   UNL     1      11.621  80.797  -0.565  1.00  0.00     0.011 C 
ATOM      6  C   UNL     1      12.357  78.724  -1.585  1.00  0.00     0.010 C 
ATOM      7  C   UNL     1       9.825  78.937  -1.135  1.00  0.00     0.035 C 
ATOM      8  C   UNL     1      13.168  80.825  -0.631  1.00  0.00     0.026 C 
ATOM      9  C   UNL     1      12.257  79.184  -3.082  1.00  0.00     0.015 C 
ATOM     10  C   UNL     1      12.246  77.176  -1.499  1.00  0.00     0.045 C 
ATOM     11  C   UNL     1       9.679  77.370  -1.072  1.00  0.00     0.152 C 
ATOM     12  C   UNL     1       8.782  79.624  -0.225  1.00  0.00     0.012 C 
ATOM     13  C   UNL     1      13.785  81.446   0.631  1.00  0.00     0.011 C 
ATOM     14  C   UNL     1      10.829  76.649  -1.869  1.00  0.00     0.154 C 
ATOM     15  F   UNL     1       9.865  76.999   0.258  1.00  0.00    -0.239 F 
ATOM     16  C   UNL     1       8.212  76.900  -1.447  1.00  0.00     0.044 C 
ATOM     17  C   UNL     1       7.358  79.214  -0.592  1.00  0.00     0.032 C 
ATOM     18  C   UNL     1       7.237  77.711  -0.577  1.00  0.00    -0.053 C 
ATOM     19  C   UNL     1       8.083  75.392  -1.215  1.00  0.00    -0.009 C 
ATOM     20  C   UNL     1       7.823  77.149  -2.927  1.00  0.00     0.024 C 
ATOM     21  C   UNL     1       6.284  77.134   0.174  1.00  0.00     0.052 C 
ATOM     22  C   UNL     1       7.134  74.841  -0.458  1.00  0.00     0.048 C 
ATOM     23  C   UNL     1       6.173  75.678   0.256  1.00  0.00     0.178 C 
ATOM     24  O   UNL     1       5.264  75.150   0.948  1.00  0.00    -0.290 OA
BRANCH   3  25
ATOM     25  O   UNL     1      13.891  78.675   0.294  1.00  0.00    -0.381 OA
ATOM     26  H   UNL     1      13.132  78.839   0.914  1.00  0.00     0.212 HD
ENDBRANCH   3  25
BRANCH  14  27
ATOM     27  O   UNL     1      10.629  76.737  -3.254  1.00  0.00    -0.390 OA
ATOM     28  H   UNL     1       9.870  76.138  -3.479  1.00  0.00     0.211 HD
ENDBRANCH  14  27
ENDBRANCH   1   3
BRANCH   1  29
ATOM     29  C   UNL     1      14.971  80.075  -3.090  1.00  0.00     0.234 C 
BRANCH  29  30
ATOM     30  O   UNL     1      16.110  79.703  -3.815  1.00  0.00    -0.388 OA
ATOM     31  H   UNL     1      16.799  79.446  -3.147  1.00  0.00     0.211 HD
ENDBRANCH  29  30
ENDBRANCH   1  29
TORSDOF 5
ENDMDL
MODEL 5
REMARK VINA RESULT:    -6.037      3.646      5.917
REMARK INTER + INTRA:          -7.524
REMARK INTER:                  -7.500
REMARK INTRA:                  -0.024
REMARK UNBOUND:                -0.252
REMARK SMILES C[C@@H]1C[C@H]2[C@@H]3CCC4=CC(=O)C=C[C@]4(C)[C@@]3(F)[C@@H](O)C[C@]2(C)[C@@]1(O)C(=O)CO
REMARK SMILES IDX 25 1 26 2 23 3 4 4 3 5 21 6 5 7 2 8 22 9 20 10 16 11 6 12
REMARK SMILES IDX 1 13 18 14 17 15 14 16 7 17 8 18 13 19 15 20 9 21 12 22
REMARK SMILES IDX 10 23 11 24 24 25 19 27 27 29 28 30
REMARK H PARENT 24 26 19 28 28 31
REMARK Flexibility Score: inf
ROOT
ATOM      1  C   UNL     1      11.438  79.655   0.738  1.00  0.00     0.190 C 
ATOM      2  O   UNL     1      10.227  79.818   0.679  1.00  0.00    -0.294 OA
ENDROOT
BRANCH   1   3
ATOM      3  C   UNL     1      12.159  78.772  -0.290  1.00  0.00     0.133 C 
ATOM      4  C   UNL     1      12.914  78.425  -2.525  1.00  0.00     0.005 C 
ATOM      5  C   UNL     1      11.688  77.527  -2.412  1.00  0.00     0.011 C 
ATOM      6  C   UNL     1      12.653  79.574  -1.539  1.00  0.00     0.010 C 
ATOM      7  C   UNL     1      13.370  78.901  -3.925  1.00  0.00     0.035 C 
ATOM      8  C   UNL     1      11.229  77.678  -0.940  1.00  0.00     0.026 C 
ATOM      9  C   UNL     1      11.526  80.554  -2.020  1.00  0.00     0.015 C 
ATOM     10  C   UNL     1      13.986  80.351  -1.354  1.00  0.00     0.045 C 
ATOM     11  C   UNL     1      14.716  79.705  -3.774  1.00  0.00     0.152 C 
ATOM     12  C   UNL     1      13.555  77.690  -4.868  1.00  0.00     0.012 C 
ATOM     13  C   UNL     1      11.220  76.331  -0.201  1.00  0.00     0.011 C 
ATOM     14  C   UNL     1      14.590  80.848  -2.700  1.00  0.00     0.154 C 
ATOM     15  F   UNL     1      15.662  78.820  -3.262  1.00  0.00    -0.239 F 
ATOM     16  C   UNL     1      15.283  80.171  -5.180  1.00  0.00     0.044 C 
ATOM     17  C   UNL     1      14.066  78.120  -6.242  1.00  0.00     0.032 C 
ATOM     18  C   UNL     1      15.329  78.930  -6.088  1.00  0.00    -0.053 C 
ATOM     19  C   UNL     1      16.665  80.803  -4.989  1.00  0.00    -0.009 C 
ATOM     20  C   UNL     1      14.412  81.234  -5.897  1.00  0.00     0.024 C 
ATOM     21  C   UNL     1      16.436  78.558  -6.751  1.00  0.00     0.052 C 
ATOM     22  C   UNL     1      17.753  80.412  -5.652  1.00  0.00     0.048 C 
ATOM     23  C   UNL     1      17.692  79.288  -6.582  1.00  0.00     0.178 C 
ATOM     24  O   UNL     1      18.718  78.940  -7.224  1.00  0.00    -0.290 OA
BRANCH   3  25
ATOM     25  O   UNL     1      13.272  78.151   0.326  1.00  0.00    -0.381 OA
ATOM     26  H   UNL     1      13.823  77.718  -0.379  1.00  0.00     0.212 HD
ENDBRANCH   3  25
BRANCH  14  27
ATOM     27  O   UNL     1      13.850  81.934  -3.187  1.00  0.00    -0.390 OA
ATOM     28  H   UNL     1      13.050  82.028  -2.605  1.00  0.00     0.211 HD
ENDBRANCH  14  27
ENDBRANCH   1   3
BRANCH   1  29
ATOM     29  C   UNL     1      12.204  80.383   1.811  1.00  0.00     0.234 C 
BRANCH  29  30
ATOM     30  O   UNL     1      11.503  80.333   3.023  1.00  0.00    -0.388 OA
ATOM     31  H   UNL     1      11.402  79.371   3.252  1.00  0.00     0.211 HD
ENDBRANCH  29  30
ENDBRANCH   1  29
TORSDOF 5
ENDMDL
