MODEL 1
REMARK VINA RESULT:    -7.728      0.000      0.000
REMARK INTER + INTRA:         -11.848
REMARK INTER:                 -10.664
REMARK INTRA:                  -1.184
REMARK UNBOUND:                -1.184
REMARK SMILES OC(CCCN1CCCCC1)(c1ccccc1)c1ccccc1
REMARK SMILES IDX 3 1 2 2 1 3 12 5 13 6 17 7 14 8 16 9 15 10 18 11 19 12 23 13
REMARK SMILES IDX 20 14 22 15 21 16 4 17 5 18 6 19 7 20 11 21 8 22 10 23 9 24
REMARK H PARENT 1 4
REMARK Flexibility Score: inf
ROOT
ATOM      1  C   UNL     1      26.200  21.012  34.423  1.00  0.00     0.046 C 
ENDROOT
BRANCH   1   2
ATOM      2  C   UNL     1      27.215  20.876  33.248  1.00  0.00     0.115 C 
BRANCH   2   3
ATOM      3  O   UNL     1      28.510  20.935  33.805  1.00  0.00    -0.380 OA
ATOM      4  H   UNL     1      28.550  20.301  34.571  1.00  0.00     0.212 HD
ENDBRANCH   2   3
BRANCH   2   5
ATOM      5  C   UNL     1      27.082  22.030  32.225  1.00  0.00    -0.012 A 
ATOM      6  C   UNL     1      25.797  22.427  31.790  1.00  0.00     0.007 A 
ATOM      7  C   UNL     1      28.204  22.667  31.638  1.00  0.00     0.007 A 
ATOM      8  C   UNL     1      25.638  23.467  30.870  1.00  0.00     0.000 A 
ATOM      9  C   UNL     1      28.035  23.700  30.712  1.00  0.00     0.000 A 
ATOM     10  C   UNL     1      26.754  24.107  30.337  1.00  0.00     0.000 A 
ENDBRANCH   2   5
BRANCH   2  11
ATOM     11  C   UNL     1      26.973  19.525  32.552  1.00  0.00    -0.012 A 
ATOM     12  C   UNL     1      26.499  18.424  33.297  1.00  0.00     0.007 A 
ATOM     13  C   UNL     1      27.300  19.326  31.193  1.00  0.00     0.007 A 
ATOM     14  C   UNL     1      26.316  17.179  32.690  1.00  0.00     0.000 A 
ATOM     15  C   UNL     1      27.120  18.075  30.593  1.00  0.00     0.000 A 
ATOM     16  C   UNL     1      26.624  17.005  31.338  1.00  0.00     0.000 A 
ENDBRANCH   2  11
ENDBRANCH   1   2
BRANCH   1  17
ATOM     17  C   UNL     1      26.461  22.217  35.349  1.00  0.00     0.019 C 
BRANCH  17  18
ATOM     18  C   UNL     1      25.162  23.015  35.591  1.00  0.00     0.084 C 
BRANCH  18  19
ATOM     19  N   UNL     1      24.721  23.047  37.005  1.00  0.00    -0.303 NA
ATOM     20  C   UNL     1      23.933  24.241  37.355  1.00  0.00     0.084 C 
ATOM     21  C   UNL     1      25.829  22.792  37.959  1.00  0.00     0.084 C 
ATOM     22  C   UNL     1      23.188  24.016  38.685  1.00  0.00     0.016 C 
ATOM     23  C   UNL     1      25.427  23.090  39.420  1.00  0.00     0.016 C 
ATOM     24  C   UNL     1      23.907  23.014  39.603  1.00  0.00     0.003 C 
ENDBRANCH  18  19
ENDBRANCH  17  18
ENDBRANCH   1  17
TORSDOF 7
ENDMDL
MODEL 2
REMARK VINA RESULT:    -7.718      2.743      4.347
REMARK INTER + INTRA:         -11.834
REMARK INTER:                  -9.751
REMARK INTRA:                  -2.083
REMARK UNBOUND:                -1.184
REMARK SMILES OC(CCCN1CCCCC1)(c1ccccc1)c1ccccc1
REMARK SMILES IDX 3 1 2 2 1 3 12 5 13 6 17 7 14 8 16 9 15 10 18 11 19 12 23 13
REMARK SMILES IDX 20 14 22 15 21 16 4 17 5 18 6 19 7 20 11 21 8 22 10 23 9 24
REMARK H PARENT 1 4
REMARK Flexibility Score: inf
ROOT
ATOM      1  C   UNL     1      26.494  20.643  33.985  1.00  0.00     0.046 C 
ENDROOT
BRANCH   1   2
ATOM      2  C   UNL     1      27.689  20.052  33.178  1.00  0.00     0.115 C 
BRANCH   2   3
ATOM      3  O   UNL     1      28.868  20.635  33.690  1.00  0.00    -0.380 OA
ATOM      4  H   UNL     1      28.874  20.510  34.677  1.00  0.00     0.212 HD
ENDBRANCH   2   3
BRANCH   2   5
ATOM      5  C   UNL     1      27.603  20.395  31.672  1.00  0.00    -0.012 A 
ATOM      6  C   UNL     1      26.502  19.930  30.916  1.00  0.00     0.007 A 
ATOM      7  C   UNL     1      28.625  21.096  30.985  1.00  0.00     0.007 A 
ATOM      8  C   UNL     1      26.389  20.222  29.554  1.00  0.00     0.000 A 
ATOM      9  C   UNL     1      28.508  21.376  29.620  1.00  0.00     0.000 A 
ATOM     10  C   UNL     1      27.386  20.949  28.909  1.00  0.00     0.000 A 
ENDBRANCH   2   5
BRANCH   2  11
ATOM     11  C   UNL     1      27.697  18.526  33.372  1.00  0.00    -0.012 A 
ATOM     12  C   UNL     1      26.543  17.871  33.854  1.00  0.00     0.007 A 
ATOM     13  C   UNL     1      28.867  17.762  33.167  1.00  0.00     0.007 A 
ATOM     14  C   UNL     1      26.549  16.491  34.078  1.00  0.00     0.000 A 
ATOM     15  C   UNL     1      28.867  16.383  33.398  1.00  0.00     0.000 A 
ATOM     16  C   UNL     1      27.709  15.747  33.847  1.00  0.00     0.000 A 
ENDBRANCH   2  11
ENDBRANCH   1   2
BRANCH   1  17
ATOM     17  C   UNL     1      26.763  22.037  34.587  1.00  0.00     0.019 C 
BRANCH  17  18
ATOM     18  C   UNL     1      25.854  23.101  33.937  1.00  0.00     0.084 C 
BRANCH  18  19
ATOM     19  N   UNL     1      26.433  23.747  32.737  1.00  0.00    -0.303 NA
ATOM     20  C   UNL     1      26.614  25.203  32.873  1.00  0.00     0.084 C 
ATOM     21  C   UNL     1      25.728  23.373  31.486  1.00  0.00     0.084 C 
ATOM     22  C   UNL     1      27.566  25.725  31.780  1.00  0.00     0.016 C 
ATOM     23  C   UNL     1      26.157  24.245  30.286  1.00  0.00     0.016 C 
ATOM     24  C   UNL     1      27.543  24.856  30.512  1.00  0.00     0.003 C 
ENDBRANCH  18  19
ENDBRANCH  17  18
ENDBRANCH   1  17
TORSDOF 7
ENDMDL
MODEL 3
REMARK VINA RESULT:    -7.521      1.194      1.706
REMARK INTER + INTRA:         -11.562
REMARK INTER:                 -10.436
REMARK INTRA:                  -1.126
REMARK UNBOUND:                -1.184
REMARK SMILES OC(CCCN1CCCCC1)(c1ccccc1)c1ccccc1
REMARK SMILES IDX 3 1 2 2 1 3 12 5 13 6 17 7 14 8 16 9 15 10 18 11 19 12 23 13
REMARK SMILES IDX 20 14 22 15 21 16 4 17 5 18 6 19 7 20 11 21 8 22 10 23 9 24
REMARK H PARENT 1 4
REMARK Flexibility Score: inf
ROOT
ATOM      1  C   UNL     1      26.185  21.068  34.078  1.00  0.00     0.046 C 
ENDROOT
BRANCH   1   2
ATOM      2  C   UNL     1      27.394  20.534  33.253  1.00  0.00     0.115 C 
BRANCH   2   3
ATOM      3  O   UNL     1      28.564  21.079  33.823  1.00  0.00    -0.380 OA
ATOM      4  H   UNL     1      29.321  20.464  33.629  1.00  0.00     0.212 HD
ENDBRANCH   2   3
BRANCH   2   5
ATOM      5  C   UNL     1      27.332  20.978  31.772  1.00  0.00    -0.012 A 
ATOM      6  C   UNL     1      27.810  22.260  31.412  1.00  0.00     0.007 A 
ATOM      7  C   UNL     1      26.743  20.184  30.757  1.00  0.00     0.007 A 
ATOM      8  C   UNL     1      27.774  22.694  30.084  1.00  0.00     0.000 A 
ATOM      9  C   UNL     1      26.703  20.631  29.432  1.00  0.00     0.000 A 
ATOM     10  C   UNL     1      27.228  21.879  29.095  1.00  0.00     0.000 A 
ENDBRANCH   2   5
BRANCH   2  11
ATOM     11  C   UNL     1      27.400  18.998  33.342  1.00  0.00    -0.012 A 
ATOM     12  C   UNL     1      26.251  18.313  33.795  1.00  0.00     0.007 A 
ATOM     13  C   UNL     1      28.564  18.246  33.067  1.00  0.00     0.007 A 
ATOM     14  C   UNL     1      26.257  16.922  33.924  1.00  0.00     0.000 A 
ATOM     15  C   UNL     1      28.564  16.855  33.205  1.00  0.00     0.000 A 
ATOM     16  C   UNL     1      27.410  16.192  33.627  1.00  0.00     0.000 A 
ENDBRANCH   2  11
ENDBRANCH   1   2
BRANCH   1  17
ATOM     17  C   UNL     1      26.573  22.026  35.222  1.00  0.00     0.019 C 
BRANCH  17  18
ATOM     18  C   UNL     1      25.432  23.025  35.512  1.00  0.00     0.084 C 
BRANCH  18  19
ATOM     19  N   UNL     1      24.957  23.016  36.915  1.00  0.00    -0.303 NA
ATOM     20  C   UNL     1      24.105  24.168  37.261  1.00  0.00     0.084 C 
ATOM     21  C   UNL     1      26.052  22.800  37.893  1.00  0.00     0.084 C 
ATOM     22  C   UNL     1      23.340  23.889  38.569  1.00  0.00     0.016 C 
ATOM     23  C   UNL     1      25.602  23.058  39.346  1.00  0.00     0.016 C 
ATOM     24  C   UNL     1      24.084  22.908  39.491  1.00  0.00     0.003 C 
ENDBRANCH  18  19
ENDBRANCH  17  18
ENDBRANCH   1  17
TORSDOF 7
ENDMDL
MODEL 4
REMARK VINA RESULT:    -7.470      3.328      5.630
REMARK INTER + INTRA:         -11.492
REMARK INTER:                  -9.395
REMARK INTRA:                  -2.097
REMARK UNBOUND:                -1.184
REMARK SMILES OC(CCCN1CCCCC1)(c1ccccc1)c1ccccc1
REMARK SMILES IDX 3 1 2 2 1 3 12 5 13 6 17 7 14 8 16 9 15 10 18 11 19 12 23 13
REMARK SMILES IDX 20 14 22 15 21 16 4 17 5 18 6 19 7 20 11 21 8 22 10 23 9 24
REMARK H PARENT 1 4
REMARK Flexibility Score: inf
ROOT
ATOM      1  C   UNL     1      27.268  18.617  30.189  1.00  0.00     0.046 C 
ENDROOT
BRANCH   1   2
ATOM      2  C   UNL     1      27.310  18.158  31.677  1.00  0.00     0.115 C 
BRANCH   2   3
ATOM      3  O   UNL     1      26.173  17.351  31.898  1.00  0.00    -0.380 OA
ATOM      4  H   UNL     1      25.475  17.608  31.239  1.00  0.00     0.212 HD
ENDBRANCH   2   3
BRANCH   2   5
ATOM      5  C   UNL     1      27.247  19.351  32.660  1.00  0.00    -0.012 A 
ATOM      6  C   UNL     1      28.340  20.245  32.736  1.00  0.00     0.007 A 
ATOM      7  C   UNL     1      26.165  19.552  33.553  1.00  0.00     0.007 A 
ATOM      8  C   UNL     1      28.317  21.337  33.609  1.00  0.00     0.000 A 
ATOM      9  C   UNL     1      26.155  20.641  34.430  1.00  0.00     0.000 A 
ATOM     10  C   UNL     1      27.224  21.538  34.449  1.00  0.00     0.000 A 
ENDBRANCH   2   5
BRANCH   2  11
ATOM     11  C   UNL     1      28.606  17.359  31.900  1.00  0.00    -0.012 A 
ATOM     12  C   UNL     1      28.841  16.728  33.141  1.00  0.00     0.007 A 
ATOM     13  C   UNL     1      29.623  17.313  30.921  1.00  0.00     0.007 A 
ATOM     14  C   UNL     1      30.033  16.038  33.375  1.00  0.00     0.000 A 
ATOM     15  C   UNL     1      30.816  16.625  31.164  1.00  0.00     0.000 A 
ATOM     16  C   UNL     1      31.018  15.983  32.387  1.00  0.00     0.000 A 
ENDBRANCH   2  11
ENDBRANCH   1   2
BRANCH   1  17
ATOM     17  C   UNL     1      26.262  19.752  29.905  1.00  0.00     0.019 C 
BRANCH  17  18
ATOM     18  C   UNL     1      26.953  20.932  29.188  1.00  0.00     0.084 C 
BRANCH  18  19
ATOM     19  N   UNL     1      26.757  22.244  29.846  1.00  0.00    -0.303 NA
ATOM     20  C   UNL     1      28.011  22.889  30.273  1.00  0.00     0.084 C 
ATOM     21  C   UNL     1      25.740  22.200  30.926  1.00  0.00     0.084 C 
ATOM     22  C   UNL     1      27.768  24.382  30.568  1.00  0.00     0.016 C 
ATOM     23  C   UNL     1      25.732  23.488  31.778  1.00  0.00     0.016 C 
ATOM     24  C   UNL     1      26.322  24.670  31.003  1.00  0.00     0.003 C 
ENDBRANCH  18  19
ENDBRANCH  17  18
ENDBRANCH   1  17
TORSDOF 7
ENDMDL
MODEL 5
REMARK VINA RESULT:    -7.404      4.542      6.997
REMARK INTER + INTRA:         -11.401
REMARK INTER:                  -9.019
REMARK INTRA:                  -2.382
REMARK UNBOUND:                -1.184
REMARK SMILES OC(CCCN1CCCCC1)(c1ccccc1)c1ccccc1
REMARK SMILES IDX 3 1 2 2 1 3 12 5 13 6 17 7 14 8 16 9 15 10 18 11 19 12 23 13
REMARK SMILES IDX 20 14 22 15 21 16 4 17 5 18 6 19 7 20 11 21 8 22 10 23 9 24
REMARK H PARENT 1 4
REMARK Flexibility Score: inf
ROOT
ATOM      1  C   UNL     1      29.420  20.598  30.095  1.00  0.00     0.046 C 
ENDROOT
BRANCH   1   2
ATOM      2  C   UNL     1      27.867  20.630  30.220  1.00  0.00     0.115 C 
BRANCH   2   3
ATOM      3  O   UNL     1      27.338  20.237  28.972  1.00  0.00    -0.380 OA
ATOM      4  H   UNL     1      27.994  19.633  28.532  1.00  0.00     0.212 HD
ENDBRANCH   2   3
BRANCH   2   5
ATOM      5  C   UNL     1      27.335  22.047  30.540  1.00  0.00    -0.012 A 
ATOM      6  C   UNL     1      28.254  23.091  30.794  1.00  0.00     0.007 A 
ATOM      7  C   UNL     1      25.954  22.338  30.666  1.00  0.00     0.007 A 
ATOM      8  C   UNL     1      27.812  24.385  31.082  1.00  0.00     0.000 A 
ATOM      9  C   UNL     1      25.521  23.633  30.964  1.00  0.00     0.000 A 
ATOM     10  C   UNL     1      26.448  24.658  31.161  1.00  0.00     0.000 A 
ENDBRANCH   2   5
BRANCH   2  11
ATOM     11  C   UNL     1      27.450  19.648  31.330  1.00  0.00    -0.012 A 
ATOM     12  C   UNL     1      28.115  19.668  32.575  1.00  0.00     0.007 A 
ATOM     13  C   UNL     1      26.471  18.655  31.108  1.00  0.00     0.007 A 
ATOM     14  C   UNL     1      27.779  18.753  33.576  1.00  0.00     0.000 A 
ATOM     15  C   UNL     1      26.144  17.739  32.113  1.00  0.00     0.000 A 
ATOM     16  C   UNL     1      26.792  17.792  33.347  1.00  0.00     0.000 A 
ENDBRANCH   2  11
ENDBRANCH   1   2
BRANCH   1  17
ATOM     17  C   UNL     1      29.935  20.337  28.666  1.00  0.00     0.019 C 
BRANCH  17  18
ATOM     18  C   UNL     1      30.723  19.011  28.599  1.00  0.00     0.084 C 
BRANCH  18  19
ATOM     19  N   UNL     1      30.298  17.999  29.593  1.00  0.00    -0.303 NA
ATOM     20  C   UNL     1      31.405  17.184  30.122  1.00  0.00     0.084 C 
ATOM     21  C   UNL     1      29.154  17.177  29.126  1.00  0.00     0.084 C 
ATOM     22  C   UNL     1      30.965  16.457  31.407  1.00  0.00     0.016 C 
ATOM     23  C   UNL     1      28.892  15.961  30.041  1.00  0.00     0.016 C 
ATOM     24  C   UNL     1      29.450  16.196  31.449  1.00  0.00     0.003 C 
ENDBRANCH  18  19
ENDBRANCH  17  18
ENDBRANCH   1  17
TORSDOF 7
ENDMDL
MODEL 6
REMARK VINA RESULT:    -7.366      3.493      6.392
REMARK INTER + INTRA:         -11.349
REMARK INTER:                  -9.132
REMARK INTRA:                  -2.217
REMARK UNBOUND:                -1.184
REMARK SMILES OC(CCCN1CCCCC1)(c1ccccc1)c1ccccc1
REMARK SMILES IDX 3 1 2 2 1 3 12 5 13 6 17 7 14 8 16 9 15 10 18 11 19 12 23 13
REMARK SMILES IDX 20 14 22 15 21 16 4 17 5 18 6 19 7 20 11 21 8 22 10 23 9 24
REMARK H PARENT 1 4
REMARK Flexibility Score: inf
ROOT
ATOM      1  C   UNL     1      28.150  17.283  31.389  1.00  0.00     0.046 C 
ENDROOT
BRANCH   1   2
ATOM      2  C   UNL     1      27.066  17.508  32.485  1.00  0.00     0.115 C 
BRANCH   2   3
ATOM      3  O   UNL     1      25.807  17.382  31.860  1.00  0.00    -0.380 OA
ATOM      4  H   UNL     1      25.652  16.420  31.662  1.00  0.00     0.212 HD
ENDBRANCH   2   3
BRANCH   2   5
ATOM      5  C   UNL     1      27.150  18.921  33.109  1.00  0.00    -0.012 A 
ATOM      6  C   UNL     1      28.357  19.652  33.010  1.00  0.00     0.007 A 
ATOM      7  C   UNL     1      26.089  19.496  33.851  1.00  0.00     0.007 A 
ATOM      8  C   UNL     1      28.469  20.933  33.559  1.00  0.00     0.000 A 
ATOM      9  C   UNL     1      26.213  20.775  34.404  1.00  0.00     0.000 A 
ATOM     10  C   UNL     1      27.398  21.496  34.248  1.00  0.00     0.000 A 
ENDBRANCH   2   5
BRANCH   2  11
ATOM     11  C   UNL     1      27.251  16.438  33.576  1.00  0.00    -0.012 A 
ATOM     12  C   UNL     1      28.533  15.906  33.831  1.00  0.00     0.007 A 
ATOM     13  C   UNL     1      26.149  15.900  34.276  1.00  0.00     0.007 A 
ATOM     14  C   UNL     1      28.710  14.903  34.787  1.00  0.00     0.000 A 
ATOM     15  C   UNL     1      26.333  14.891  35.227  1.00  0.00     0.000 A 
ATOM     16  C   UNL     1      27.612  14.397  35.487  1.00  0.00     0.000 A 
ENDBRANCH   2  11
ENDBRANCH   1   2
BRANCH   1  17
ATOM     17  C   UNL     1      27.673  17.587  29.955  1.00  0.00     0.019 C 
BRANCH  17  18
ATOM     18  C   UNL     1      28.448  18.782  29.359  1.00  0.00     0.084 C 
BRANCH  18  19
ATOM     19  N   UNL     1      27.915  20.108  29.747  1.00  0.00    -0.303 NA
ATOM     20  C   UNL     1      26.443  20.171  29.779  1.00  0.00     0.084 C 
ATOM     21  C   UNL     1      28.519  21.221  28.973  1.00  0.00     0.084 C 
ATOM     22  C   UNL     1      25.980  21.416  30.560  1.00  0.00     0.016 C 
ATOM     23  C   UNL     1      27.776  22.557  29.187  1.00  0.00     0.016 C 
ATOM     24  C   UNL     1      27.009  22.559  30.513  1.00  0.00     0.003 C 
ENDBRANCH  18  19
ENDBRANCH  17  18
ENDBRANCH   1  17
TORSDOF 7
ENDMDL
MODEL 7
REMARK VINA RESULT:    -7.227      3.459      7.132
REMARK INTER + INTRA:         -11.156
REMARK INTER:                  -9.592
REMARK INTRA:                  -1.565
REMARK UNBOUND:                -1.184
REMARK SMILES OC(CCCN1CCCCC1)(c1ccccc1)c1ccccc1
REMARK SMILES IDX 3 1 2 2 1 3 12 5 13 6 17 7 14 8 16 9 15 10 18 11 19 12 23 13
REMARK SMILES IDX 20 14 22 15 21 16 4 17 5 18 6 19 7 20 11 21 8 22 10 23 9 24
REMARK H PARENT 1 4
REMARK Flexibility Score: inf
ROOT
ATOM      1  C   UNL     1      26.866  18.757  31.486  1.00  0.00     0.046 C 
ENDROOT
BRANCH   1   2
ATOM      2  C   UNL     1      26.543  20.182  30.945  1.00  0.00     0.115 C 
BRANCH   2   3
ATOM      3  O   UNL     1      25.291  20.111  30.298  1.00  0.00    -0.380 OA
ATOM      4  H   UNL     1      24.621  19.777  30.952  1.00  0.00     0.212 HD
ENDBRANCH   2   3
BRANCH   2   5
ATOM      5  C   UNL     1      27.589  20.665  29.911  1.00  0.00    -0.012 A 
ATOM      6  C   UNL     1      27.181  21.519  28.861  1.00  0.00     0.007 A 
ATOM      7  C   UNL     1      28.936  20.227  29.922  1.00  0.00     0.007 A 
ATOM      8  C   UNL     1      28.097  21.978  27.910  1.00  0.00     0.000 A 
ATOM      9  C   UNL     1      29.844  20.685  28.961  1.00  0.00     0.000 A 
ATOM     10  C   UNL     1      29.427  21.568  27.964  1.00  0.00     0.000 A 
ENDBRANCH   2   5
BRANCH   2  11
ATOM     11  C   UNL     1      26.495  21.153  32.138  1.00  0.00    -0.012 A 
ATOM     12  C   UNL     1      26.691  20.668  33.450  1.00  0.00     0.007 A 
ATOM     13  C   UNL     1      26.166  22.516  31.968  1.00  0.00     0.007 A 
ATOM     14  C   UNL     1      26.605  21.529  34.547  1.00  0.00     0.000 A 
ATOM     15  C   UNL     1      26.076  23.370  33.072  1.00  0.00     0.000 A 
ATOM     16  C   UNL     1      26.301  22.879  34.359  1.00  0.00     0.000 A 
ENDBRANCH   2  11
ENDBRANCH   1   2
BRANCH   1  17
ATOM     17  C   UNL     1      26.253  17.611  30.655  1.00  0.00     0.019 C 
BRANCH  17  18
ATOM     18  C   UNL     1      27.351  16.830  29.902  1.00  0.00     0.084 C 
BRANCH  18  19
ATOM     19  N   UNL     1      28.614  16.672  30.659  1.00  0.00    -0.303 NA
ATOM     20  C   UNL     1      29.820  16.684  29.812  1.00  0.00     0.084 C 
ATOM     21  C   UNL     1      28.585  15.522  31.596  1.00  0.00     0.084 C 
ATOM     22  C   UNL     1      31.074  16.920  30.675  1.00  0.00     0.016 C 
ATOM     23  C   UNL     1      29.979  15.202  32.177  1.00  0.00     0.016 C 
ATOM     24  C   UNL     1      30.898  16.426  32.120  1.00  0.00     0.003 C 
ENDBRANCH  18  19
ENDBRANCH  17  18
ENDBRANCH   1  17
TORSDOF 7
ENDMDL
MODEL 8
REMARK VINA RESULT:    -7.183      3.285      7.019
REMARK INTER + INTRA:         -11.096
REMARK INTER:                  -9.086
REMARK INTRA:                  -2.010
REMARK UNBOUND:                -1.184
REMARK SMILES OC(CCCN1CCCCC1)(c1ccccc1)c1ccccc1
REMARK SMILES IDX 3 1 2 2 1 3 12 5 13 6 17 7 14 8 16 9 15 10 18 11 19 12 23 13
REMARK SMILES IDX 20 14 22 15 21 16 4 17 5 18 6 19 7 20 11 21 8 22 10 23 9 24
REMARK H PARENT 1 4
REMARK Flexibility Score: inf
ROOT
ATOM      1  C   UNL     1      28.834  20.425  31.254  1.00  0.00     0.046 C 
ENDROOT
BRANCH   1   2
ATOM      2  C   UNL     1      27.389  20.120  31.752  1.00  0.00     0.115 C 
BRANCH   2   3
ATOM      3  O   UNL     1      26.541  20.160  30.624  1.00  0.00    -0.380 OA
ATOM      4  H   UNL     1      26.880  20.858  30.003  1.00  0.00     0.212 HD
ENDBRANCH   2   3
BRANCH   2   5
ATOM      5  C   UNL     1      26.886  21.176  32.765  1.00  0.00    -0.012 A 
ATOM      6  C   UNL     1      26.666  22.504  32.331  1.00  0.00     0.007 A 
ATOM      7  C   UNL     1      26.704  20.892  34.141  1.00  0.00     0.007 A 
ATOM      8  C   UNL     1      26.208  23.484  33.217  1.00  0.00     0.000 A 
ATOM      9  C   UNL     1      26.255  21.881  35.022  1.00  0.00     0.000 A 
ATOM     10  C   UNL     1      25.997  23.172  34.557  1.00  0.00     0.000 A 
ENDBRANCH   2   5
BRANCH   2  11
ATOM     11  C   UNL     1      27.384  18.724  32.399  1.00  0.00    -0.012 A 
ATOM     12  C   UNL     1      28.530  18.258  33.078  1.00  0.00     0.007 A 
ATOM     13  C   UNL     1      26.285  17.848  32.254  1.00  0.00     0.007 A 
ATOM     14  C   UNL     1      28.556  16.975  33.632  1.00  0.00     0.000 A 
ATOM     15  C   UNL     1      26.321  16.564  32.806  1.00  0.00     0.000 A 
ATOM     16  C   UNL     1      27.452  16.130  33.500  1.00  0.00     0.000 A 
ENDBRANCH   2  11
ENDBRANCH   1   2
BRANCH   1  17
ATOM     17  C   UNL     1      28.928  20.765  29.753  1.00  0.00     0.019 C 
BRANCH  17  18
ATOM     18  C   UNL     1      29.875  19.785  29.026  1.00  0.00     0.084 C 
BRANCH  18  19
ATOM     19  N   UNL     1      29.854  18.406  29.564  1.00  0.00    -0.303 NA
ATOM     20  C   UNL     1      31.087  17.645  29.296  1.00  0.00     0.084 C 
ATOM     21  C   UNL     1      28.628  17.659  29.187  1.00  0.00     0.084 C 
ATOM     22  C   UNL     1      31.155  16.404  30.207  1.00  0.00     0.016 C 
ATOM     23  C   UNL     1      28.732  16.154  29.517  1.00  0.00     0.016 C 
ATOM     24  C   UNL     1      29.763  15.898  30.621  1.00  0.00     0.003 C 
ENDBRANCH  18  19
ENDBRANCH  17  18
ENDBRANCH   1  17
TORSDOF 7
ENDMDL
MODEL 9
REMARK VINA RESULT:    -7.129      3.344      6.088
REMARK INTER + INTRA:         -11.022
REMARK INTER:                  -9.290
REMARK INTRA:                  -1.732
REMARK UNBOUND:                -1.184
REMARK SMILES OC(CCCN1CCCCC1)(c1ccccc1)c1ccccc1
REMARK SMILES IDX 3 1 2 2 1 3 12 5 13 6 17 7 14 8 16 9 15 10 18 11 19 12 23 13
REMARK SMILES IDX 20 14 22 15 21 16 4 17 5 18 6 19 7 20 11 21 8 22 10 23 9 24
REMARK H PARENT 1 4
REMARK Flexibility Score: inf
ROOT
ATOM      1  C   UNL     1      27.392  19.038  33.185  1.00  0.00     0.046 C 
ENDROOT
BRANCH   1   2
ATOM      2  C   UNL     1      27.106  18.558  31.730  1.00  0.00     0.115 C 
BRANCH   2   3
ATOM      3  O   UNL     1      26.331  19.558  31.104  1.00  0.00    -0.380 OA
ATOM      4  H   UNL     1      26.172  20.286  31.762  1.00  0.00     0.212 HD
ENDBRANCH   2   3
BRANCH   2   5
ATOM      5  C   UNL     1      26.298  17.238  31.699  1.00  0.00    -0.012 A 
ATOM      6  C   UNL     1      25.856  16.667  32.915  1.00  0.00     0.007 A 
ATOM      7  C   UNL     1      26.040  16.525  30.502  1.00  0.00     0.007 A 
ATOM      8  C   UNL     1      25.121  15.478  32.926  1.00  0.00     0.000 A 
ATOM      9  C   UNL     1      25.312  15.332  30.524  1.00  0.00     0.000 A 
ATOM     10  C   UNL     1      24.843  14.816  31.733  1.00  0.00     0.000 A 
ENDBRANCH   2   5
BRANCH   2  11
ATOM     11  C   UNL     1      28.452  18.369  31.009  1.00  0.00    -0.012 A 
ATOM     12  C   UNL     1      28.761  19.152  29.876  1.00  0.00     0.007 A 
ATOM     13  C   UNL     1      29.361  17.359  31.396  1.00  0.00     0.007 A 
ATOM     14  C   UNL     1      29.959  18.961  29.184  1.00  0.00     0.000 A 
ATOM     15  C   UNL     1      30.556  17.170  30.695  1.00  0.00     0.000 A 
ATOM     16  C   UNL     1      30.858  17.973  29.594  1.00  0.00     0.000 A 
ENDBRANCH   2  11
ENDBRANCH   1   2
BRANCH   1  17
ATOM     17  C   UNL     1      28.163  20.371  33.271  1.00  0.00     0.019 C 
BRANCH  17  18
ATOM     18  C   UNL     1      27.198  21.548  33.530  1.00  0.00     0.084 C 
BRANCH  18  19
ATOM     19  N   UNL     1      26.910  22.374  32.336  1.00  0.00    -0.303 NA
ATOM     20  C   UNL     1      28.054  22.510  31.417  1.00  0.00     0.084 C 
ATOM     21  C   UNL     1      26.289  23.678  32.673  1.00  0.00     0.084 C 
ATOM     22  C   UNL     1      27.577  23.022  30.044  1.00  0.00     0.016 C 
ATOM     23  C   UNL     1      26.239  24.636  31.464  1.00  0.00     0.016 C 
ATOM     24  C   UNL     1      26.293  23.864  30.141  1.00  0.00     0.003 C 
ENDBRANCH  18  19
ENDBRANCH  17  18
ENDBRANCH   1  17
TORSDOF 7
ENDMDL
MODEL 10
REMARK VINA RESULT:    -7.124      2.978      4.690
REMARK INTER + INTRA:         -11.014
REMARK INTER:                  -9.205
REMARK INTRA:                  -1.809
REMARK UNBOUND:                -1.184
REMARK SMILES OC(CCCN1CCCCC1)(c1ccccc1)c1ccccc1
REMARK SMILES IDX 3 1 2 2 1 3 12 5 13 6 17 7 14 8 16 9 15 10 18 11 19 12 23 13
REMARK SMILES IDX 20 14 22 15 21 16 4 17 5 18 6 19 7 20 11 21 8 22 10 23 9 24
REMARK H PARENT 1 4
REMARK Flexibility Score: inf
ROOT
ATOM      1  C   UNL     1      26.655  19.746  33.774  1.00  0.00     0.046 C 
ENDROOT
BRANCH   1   2
ATOM      2  C   UNL     1      27.313  18.738  32.785  1.00  0.00     0.115 C 
BRANCH   2   3
ATOM      3  O   UNL     1      28.597  18.436  33.288  1.00  0.00    -0.380 OA
ATOM      4  H   UNL     1      28.567  18.504  34.280  1.00  0.00     0.212 HD
ENDBRANCH   2   3
BRANCH   2   5
ATOM      5  C   UNL     1      27.483  19.336  31.368  1.00  0.00    -0.012 A 
ATOM      6  C   UNL     1      28.784  19.511  30.842  1.00  0.00     0.007 A 
ATOM      7  C   UNL     1      26.390  19.794  30.593  1.00  0.00     0.007 A 
ATOM      8  C   UNL     1      28.977  20.045  29.564  1.00  0.00     0.000 A 
ATOM      9  C   UNL     1      26.593  20.336  29.320  1.00  0.00     0.000 A 
ATOM     10  C   UNL     1      27.884  20.450  28.802  1.00  0.00     0.000 A 
ENDBRANCH   2   5
BRANCH   2  11
ATOM     11  C   UNL     1      26.433  17.477  32.723  1.00  0.00    -0.012 A 
ATOM     12  C   UNL     1      25.540  17.188  33.777  1.00  0.00     0.007 A 
ATOM     13  C   UNL     1      26.559  16.540  31.673  1.00  0.00     0.007 A 
ATOM     14  C   UNL     1      24.767  16.024  33.756  1.00  0.00     0.000 A 
ATOM     15  C   UNL     1      25.787  15.375  31.662  1.00  0.00     0.000 A 
ATOM     16  C   UNL     1      24.888  15.119  32.698  1.00  0.00     0.000 A 
ENDBRANCH   2  11
ENDBRANCH   1   2
BRANCH   1  17
ATOM     17  C   UNL     1      27.375  21.107  33.865  1.00  0.00     0.019 C 
BRANCH  17  18
ATOM     18  C   UNL     1      26.363  22.270  33.794  1.00  0.00     0.084 C 
BRANCH  18  19
ATOM     19  N   UNL     1      26.518  23.141  32.607  1.00  0.00    -0.303 NA
ATOM     20  C   UNL     1      27.777  22.927  31.872  1.00  0.00     0.084 C 
ATOM     21  C   UNL     1      26.267  24.573  32.905  1.00  0.00     0.084 C 
ATOM     22  C   UNL     1      27.687  23.554  30.467  1.00  0.00     0.016 C 
ATOM     23  C   UNL     1      26.687  25.499  31.744  1.00  0.00     0.016 C 
ATOM     24  C   UNL     1      26.711  24.742  30.412  1.00  0.00     0.003 C 
ENDBRANCH  18  19
ENDBRANCH  17  18
ENDBRANCH   1  17
TORSDOF 7
ENDMDL
MODEL 11
REMARK VINA RESULT:    -7.010      3.309      6.939
REMARK INTER + INTRA:         -10.857
REMARK INTER:                  -8.906
REMARK INTRA:                  -1.951
REMARK UNBOUND:                -1.184
REMARK SMILES OC(CCCN1CCCCC1)(c1ccccc1)c1ccccc1
REMARK SMILES IDX 3 1 2 2 1 3 12 5 13 6 17 7 14 8 16 9 15 10 18 11 19 12 23 13
REMARK SMILES IDX 20 14 22 15 21 16 4 17 5 18 6 19 7 20 11 21 8 22 10 23 9 24
REMARK H PARENT 1 4
REMARK Flexibility Score: inf
ROOT
ATOM      1  C   UNL     1      26.307  17.508  31.285  1.00  0.00     0.046 C 
ENDROOT
BRANCH   1   2
ATOM      2  C   UNL     1      27.299  17.424  32.483  1.00  0.00     0.115 C 
BRANCH   2   3
ATOM      3  O   UNL     1      28.556  17.050  31.961  1.00  0.00    -0.380 OA
ATOM      4  H   UNL     1      29.224  17.732  32.238  1.00  0.00     0.212 HD
ENDBRANCH   2   3
BRANCH   2   5
ATOM      5  C   UNL     1      26.875  16.356  33.519  1.00  0.00    -0.012 A 
ATOM      6  C   UNL     1      27.830  15.865  34.439  1.00  0.00     0.007 A 
ATOM      7  C   UNL     1      25.580  15.782  33.543  1.00  0.00     0.007 A 
ATOM      8  C   UNL     1      27.483  14.903  35.392  1.00  0.00     0.000 A 
ATOM      9  C   UNL     1      25.244  14.813  34.493  1.00  0.00     0.000 A 
ATOM     10  C   UNL     1      26.191  14.383  35.424  1.00  0.00     0.000 A 
ENDBRANCH   2   5
BRANCH   2  11
ATOM     11  C   UNL     1      27.369  18.808  33.152  1.00  0.00    -0.012 A 
ATOM     12  C   UNL     1      26.233  19.334  33.805  1.00  0.00     0.007 A 
ATOM     13  C   UNL     1      28.521  19.619  33.053  1.00  0.00     0.007 A 
ATOM     14  C   UNL     1      26.267  20.608  34.378  1.00  0.00     0.000 A 
ATOM     15  C   UNL     1      28.546  20.895  33.623  1.00  0.00     0.000 A 
ATOM     16  C   UNL     1      27.423  21.387  34.290  1.00  0.00     0.000 A 
ENDBRANCH   2  11
ENDBRANCH   1   2
BRANCH   1  17
ATOM     17  C   UNL     1      26.742  18.479  30.169  1.00  0.00     0.019 C 
BRANCH  17  18
ATOM     18  C   UNL     1      25.817  19.714  30.125  1.00  0.00     0.084 C 
BRANCH  18  19
ATOM     19  N   UNL     1      26.501  20.998  30.399  1.00  0.00    -0.303 NA
ATOM     20  C   UNL     1      25.612  22.043  30.936  1.00  0.00     0.084 C 
ATOM     21  C   UNL     1      27.316  21.474  29.254  1.00  0.00     0.084 C 
ATOM     22  C   UNL     1      26.443  23.180  31.562  1.00  0.00     0.016 C 
ATOM     23  C   UNL     1      27.804  22.926  29.442  1.00  0.00     0.016 C 
ATOM     24  C   UNL     1      27.836  23.313  30.925  1.00  0.00     0.003 C 
ENDBRANCH  18  19
ENDBRANCH  17  18
ENDBRANCH   1  17
TORSDOF 7
ENDMDL
MODEL 12
REMARK VINA RESULT:    -6.989      2.971      6.800
REMARK INTER + INTRA:         -10.829
REMARK INTER:                  -8.840
REMARK INTRA:                  -1.988
REMARK UNBOUND:                -1.184
REMARK SMILES OC(CCCN1CCCCC1)(c1ccccc1)c1ccccc1
REMARK SMILES IDX 3 1 2 2 1 3 12 5 13 6 17 7 14 8 16 9 15 10 18 11 19 12 23 13
REMARK SMILES IDX 20 14 22 15 21 16 4 17 5 18 6 19 7 20 11 21 8 22 10 23 9 24
REMARK H PARENT 1 4
REMARK Flexibility Score: inf
ROOT
ATOM      1  C   UNL     1      26.581  18.830  32.536  1.00  0.00     0.046 C 
ENDROOT
BRANCH   1   2
ATOM      2  C   UNL     1      27.493  20.093  32.537  1.00  0.00     0.115 C 
BRANCH   2   3
ATOM      3  O   UNL     1      28.699  19.739  33.179  1.00  0.00    -0.380 OA
ATOM      4  H   UNL     1      29.355  20.473  33.037  1.00  0.00     0.212 HD
ENDBRANCH   2   3
BRANCH   2   5
ATOM      5  C   UNL     1      26.863  21.269  33.321  1.00  0.00    -0.012 A 
ATOM      6  C   UNL     1      26.706  22.522  32.684  1.00  0.00     0.007 A 
ATOM      7  C   UNL     1      26.501  21.173  34.687  1.00  0.00     0.007 A 
ATOM      8  C   UNL     1      26.138  23.606  33.359  1.00  0.00     0.000 A 
ATOM      9  C   UNL     1      25.942  22.266  35.357  1.00  0.00     0.000 A 
ATOM     10  C   UNL     1      25.750  23.477  34.690  1.00  0.00     0.000 A 
ENDBRANCH   2   5
BRANCH   2  11
ATOM     11  C   UNL     1      27.746  20.508  31.077  1.00  0.00    -0.012 A 
ATOM     12  C   UNL     1      29.023  20.964  30.684  1.00  0.00     0.007 A 
ATOM     13  C   UNL     1      26.702  20.534  30.125  1.00  0.00     0.007 A 
ATOM     14  C   UNL     1      29.256  21.386  29.373  1.00  0.00     0.000 A 
ATOM     15  C   UNL     1      26.942  20.964  28.816  1.00  0.00     0.000 A 
ATOM     16  C   UNL     1      28.218  21.384  28.439  1.00  0.00     0.000 A 
ENDBRANCH   2  11
ENDBRANCH   1   2
BRANCH   1  17
ATOM     17  C   UNL     1      27.129  17.653  33.367  1.00  0.00     0.019 C 
BRANCH  17  18
ATOM     18  C   UNL     1      27.683  16.543  32.448  1.00  0.00     0.084 C 
BRANCH  18  19
ATOM     19  N   UNL     1      28.700  17.008  31.477  1.00  0.00    -0.303 NA
ATOM     20  C   UNL     1      28.353  16.729  30.073  1.00  0.00     0.084 C 
ATOM     21  C   UNL     1      30.073  16.566  31.825  1.00  0.00     0.084 C 
ATOM     22  C   UNL     1      29.229  17.576  29.130  1.00  0.00     0.016 C 
ATOM     23  C   UNL     1      31.080  16.820  30.682  1.00  0.00     0.016 C 
ATOM     24  C   UNL     1      30.591  17.932  29.749  1.00  0.00     0.003 C 
ENDBRANCH  18  19
ENDBRANCH  17  18
ENDBRANCH   1  17
TORSDOF 7
ENDMDL
MODEL 13
REMARK VINA RESULT:    -6.975     13.434     15.690
REMARK INTER + INTRA:         -10.809
REMARK INTER:                  -8.496
REMARK INTRA:                  -2.313
REMARK UNBOUND:                -1.184
REMARK SMILES OC(CCCN1CCCCC1)(c1ccccc1)c1ccccc1
REMARK SMILES IDX 3 1 2 2 1 3 12 5 13 6 17 7 14 8 16 9 15 10 18 11 19 12 23 13
REMARK SMILES IDX 20 14 22 15 21 16 4 17 5 18 6 19 7 20 11 21 8 22 10 23 9 24
REMARK H PARENT 1 4
REMARK Flexibility Score: inf
ROOT
ATOM      1  C   UNL     1      11.686  20.972  35.633  1.00  0.00     0.046 C 
ENDROOT
BRANCH   1   2
ATOM      2  C   UNL     1      11.302  19.494  35.323  1.00  0.00     0.115 C 
BRANCH   2   3
ATOM      3  O   UNL     1      12.458  18.857  34.821  1.00  0.00    -0.380 OA
ATOM      4  H   UNL     1      12.566  19.115  33.867  1.00  0.00     0.212 HD
ENDBRANCH   2   3
BRANCH   2   5
ATOM      5  C   UNL     1      10.196  19.392  34.245  1.00  0.00    -0.012 A 
ATOM      6  C   UNL     1      10.022  20.452  33.327  1.00  0.00     0.007 A 
ATOM      7  C   UNL     1       9.286  18.307  34.181  1.00  0.00     0.007 A 
ATOM      8  C   UNL     1       9.036  20.394  32.338  1.00  0.00     0.000 A 
ATOM      9  C   UNL     1       8.296  18.261  33.195  1.00  0.00     0.000 A 
ATOM     10  C   UNL     1       8.179  19.298  32.268  1.00  0.00     0.000 A 
ENDBRANCH   2   5
BRANCH   2  11
ATOM     11  C   UNL     1      10.829  18.832  36.628  1.00  0.00    -0.012 A 
ATOM     12  C   UNL     1      10.019  19.553  37.532  1.00  0.00     0.007 A 
ATOM     13  C   UNL     1      11.260  17.539  36.999  1.00  0.00     0.007 A 
ATOM     14  C   UNL     1       9.619  18.982  38.742  1.00  0.00     0.000 A 
ATOM     15  C   UNL     1      10.860  16.975  38.215  1.00  0.00     0.000 A 
ATOM     16  C   UNL     1      10.036  17.693  39.083  1.00  0.00     0.000 A 
ENDBRANCH   2  11
ENDBRANCH   1   2
BRANCH   1  17
ATOM     17  C   UNL     1      13.136  21.340  35.262  1.00  0.00     0.019 C 
BRANCH  17  18
ATOM     18  C   UNL     1      13.948  21.711  36.522  1.00  0.00     0.084 C 
BRANCH  18  19
ATOM     19  N   UNL     1      13.702  20.829  37.687  1.00  0.00    -0.303 NA
ATOM     20  C   UNL     1      13.663  21.543  38.975  1.00  0.00     0.084 C 
ATOM     21  C   UNL     1      14.599  19.647  37.714  1.00  0.00     0.084 C 
ATOM     22  C   UNL     1      13.018  20.655  40.056  1.00  0.00     0.016 C 
ATOM     23  C   UNL     1      14.524  18.884  39.054  1.00  0.00     0.016 C 
ATOM     24  C   UNL     1      13.198  19.154  39.774  1.00  0.00     0.003 C 
ENDBRANCH  18  19
ENDBRANCH  17  18
ENDBRANCH   1  17
TORSDOF 7
ENDMDL
MODEL 14
REMARK VINA RESULT:    -6.938      4.651      6.933
REMARK INTER + INTRA:         -10.758
REMARK INTER:                  -8.671
REMARK INTRA:                  -2.087
REMARK UNBOUND:                -1.184
REMARK SMILES OC(CCCN1CCCCC1)(c1ccccc1)c1ccccc1
REMARK SMILES IDX 3 1 2 2 1 3 12 5 13 6 17 7 14 8 16 9 15 10 18 11 19 12 23 13
REMARK SMILES IDX 20 14 22 15 21 16 4 17 5 18 6 19 7 20 11 21 8 22 10 23 9 24
REMARK H PARENT 1 4
REMARK Flexibility Score: inf
ROOT
ATOM      1  C   UNL     1      29.480  19.124  30.267  1.00  0.00     0.046 C 
ENDROOT
BRANCH   1   2
ATOM      2  C   UNL     1      27.935  19.310  30.345  1.00  0.00     0.115 C 
BRANCH   2   3
ATOM      3  O   UNL     1      27.417  19.056  29.057  1.00  0.00    -0.380 OA
ATOM      4  H   UNL     1      27.329  18.072  28.945  1.00  0.00     0.212 HD
ENDBRANCH   2   3
BRANCH   2   5
ATOM      5  C   UNL     1      27.539  20.752  30.743  1.00  0.00    -0.012 A 
ATOM      6  C   UNL     1      26.185  21.149  30.652  1.00  0.00     0.007 A 
ATOM      7  C   UNL     1      28.490  21.730  31.126  1.00  0.00     0.007 A 
ATOM      8  C   UNL     1      25.790  22.442  31.005  1.00  0.00     0.000 A 
ATOM      9  C   UNL     1      28.086  23.024  31.469  1.00  0.00     0.000 A 
ATOM     10  C   UNL     1      26.737  23.376  31.420  1.00  0.00     0.000 A 
ENDBRANCH   2   5
BRANCH   2  11
ATOM     11  C   UNL     1      27.379  18.308  31.371  1.00  0.00    -0.012 A 
ATOM     12  C   UNL     1      26.637  17.189  30.934  1.00  0.00     0.007 A 
ATOM     13  C   UNL     1      27.511  18.525  32.761  1.00  0.00     0.007 A 
ATOM     14  C   UNL     1      26.087  16.295  31.857  1.00  0.00     0.000 A 
ATOM     15  C   UNL     1      26.953  17.629  33.678  1.00  0.00     0.000 A 
ATOM     16  C   UNL     1      26.247  16.513  33.227  1.00  0.00     0.000 A 
ENDBRANCH   2  11
ENDBRANCH   1   2
BRANCH   1  17
ATOM     17  C   UNL     1      29.929  17.868  29.494  1.00  0.00     0.019 C 
BRANCH  17  18
ATOM     18  C   UNL     1      30.976  17.071  30.301  1.00  0.00     0.084 C 
BRANCH  18  19
ATOM     19  N   UNL     1      30.398  16.134  31.292  1.00  0.00    -0.303 NA
ATOM     20  C   UNL     1      30.849  16.377  32.673  1.00  0.00     0.084 C 
ATOM     21  C   UNL     1      30.533  14.713  30.887  1.00  0.00     0.084 C 
ATOM     22  C   UNL     1      29.923  15.653  33.670  1.00  0.00     0.016 C 
ATOM     23  C   UNL     1      30.176  13.740  32.032  1.00  0.00     0.016 C 
ATOM     24  C   UNL     1      29.259  14.407  33.062  1.00  0.00     0.003 C 
ENDBRANCH  18  19
ENDBRANCH  17  18
ENDBRANCH   1  17
TORSDOF 7
ENDMDL
MODEL 15
REMARK VINA RESULT:    -6.933      3.649      6.181
REMARK INTER + INTRA:         -10.752
REMARK INTER:                  -8.967
REMARK INTRA:                  -1.785
REMARK UNBOUND:                -1.184
REMARK SMILES OC(CCCN1CCCCC1)(c1ccccc1)c1ccccc1
REMARK SMILES IDX 3 1 2 2 1 3 12 5 13 6 17 7 14 8 16 9 15 10 18 11 19 12 23 13
REMARK SMILES IDX 20 14 22 15 21 16 4 17 5 18 6 19 7 20 11 21 8 22 10 23 9 24
REMARK H PARENT 1 4
REMARK Flexibility Score: inf
ROOT
ATOM      1  C   UNL     1      28.223  20.468  28.866  1.00  0.00     0.046 C 
ENDROOT
BRANCH   1   2
ATOM      2  C   UNL     1      29.229  20.189  30.023  1.00  0.00     0.115 C 
BRANCH   2   3
ATOM      3  O   UNL     1      30.168  21.242  30.026  1.00  0.00    -0.380 OA
ATOM      4  H   UNL     1      29.755  22.027  30.477  1.00  0.00     0.212 HD
ENDBRANCH   2   3
BRANCH   2   5
ATOM      5  C   UNL     1      30.000  18.863  29.820  1.00  0.00    -0.012 A 
ATOM      6  C   UNL     1      30.726  18.659  28.623  1.00  0.00     0.007 A 
ATOM      7  C   UNL     1      29.953  17.797  30.753  1.00  0.00     0.007 A 
ATOM      8  C   UNL     1      31.438  17.476  28.406  1.00  0.00     0.000 A 
ATOM      9  C   UNL     1      30.661  16.613  30.522  1.00  0.00     0.000 A 
ATOM     10  C   UNL     1      31.411  16.458  29.356  1.00  0.00     0.000 A 
ENDBRANCH   2   5
BRANCH   2  11
ATOM     11  C   UNL     1      28.445  20.144  31.346  1.00  0.00    -0.012 A 
ATOM     12  C   UNL     1      27.277  19.357  31.448  1.00  0.00     0.007 A 
ATOM     13  C   UNL     1      28.810  20.948  32.449  1.00  0.00     0.007 A 
ATOM     14  C   UNL     1      26.529  19.341  32.628  1.00  0.00     0.000 A 
ATOM     15  C   UNL     1      28.054  20.931  33.625  1.00  0.00     0.000 A 
ATOM     16  C   UNL     1      26.918  20.125  33.717  1.00  0.00     0.000 A 
ENDBRANCH   2  11
ENDBRANCH   1   2
BRANCH   1  17
ATOM     17  C   UNL     1      27.968  21.964  28.597  1.00  0.00     0.019 C 
BRANCH  17  18
ATOM     18  C   UNL     1      26.588  22.393  29.141  1.00  0.00     0.084 C 
BRANCH  18  19
ATOM     19  N   UNL     1      26.647  23.420  30.207  1.00  0.00    -0.303 NA
ATOM     20  C   UNL     1      28.011  23.885  30.510  1.00  0.00     0.084 C 
ATOM     21  C   UNL     1      25.891  23.032  31.423  1.00  0.00     0.084 C 
ATOM     22  C   UNL     1      27.960  25.201  31.310  1.00  0.00     0.016 C 
ATOM     23  C   UNL     1      26.173  23.971  32.615  1.00  0.00     0.016 C 
ATOM     24  C   UNL     1      26.671  25.339  32.138  1.00  0.00     0.003 C 
ENDBRANCH  18  19
ENDBRANCH  17  18
ENDBRANCH   1  17
TORSDOF 7
ENDMDL
