MODEL 1
REMARK VINA RESULT:    -6.872      0.000      0.000
REMARK INTER + INTRA:         -11.458
REMARK INTER:                 -10.688
REMARK INTRA:                  -0.770
REMARK UNBOUND:                -0.770
REMARK SMILES C=CCOc1ccccc1OCC(O)CNC(C)C
REMARK SMILES IDX 12 1 13 2 15 3 16 4 17 6 18 7 19 8 14 9 11 11 10 12 9 13
REMARK SMILES IDX 5 14 8 15 6 16 7 17 4 18 3 19 2 20 1 21
REMARK H PARENT 16 5 14 10
REMARK Flexibility Score: inf
ROOT
ATOM      1  C   UNL     1      28.020  10.045   9.966  1.00  0.00     0.262 C 
ENDROOT
BRANCH   1   2
ATOM      2  C   UNL     1      28.334   8.590  10.339  1.00  0.00     0.165 C 
BRANCH   2   3
ATOM      3  C   UNL     1      29.214   7.920   9.258  1.00  0.00     0.116 C 
BRANCH   3   4
ATOM      4  N   UNL     1      30.482   7.401   9.804  1.00  0.00    -0.312 NA
ATOM      5  H   UNL     1      30.558   7.668  10.813  1.00  0.00     0.123 HD
BRANCH   4   6
ATOM      6  C   UNL     1      31.663   7.853   9.038  1.00  0.00     0.047 C 
ATOM      7  C   UNL     1      32.299   9.085   9.700  1.00  0.00     0.024 C 
ATOM      8  C   UNL     1      32.692   6.720   8.965  1.00  0.00     0.024 C 
ENDBRANCH   4   6
ENDBRANCH   3   4
ENDBRANCH   2   3
BRANCH   2   9
ATOM      9  O   UNL     1      27.143   7.868  10.537  1.00  0.00    -0.388 OA
ATOM     10  H   UNL     1      27.006   7.777  11.517  1.00  0.00     0.211 HD
ENDBRANCH   2   9
ENDBRANCH   1   2
BRANCH   1  11
ATOM     11  O   UNL     1      26.655  10.153   9.568  1.00  0.00    -0.487 OA
BRANCH  11  12
ATOM     12  C   UNL     1      25.681  10.893  10.254  1.00  0.00     0.161 A 
ATOM     13  C   UNL     1      25.837  12.267  10.523  1.00  0.00     0.050 A 
ATOM     14  C   UNL     1      24.518  10.229  10.682  1.00  0.00     0.161 A 
ATOM     15  C   UNL     1      24.844  12.969  11.210  1.00  0.00     0.004 A 
ATOM     16  C   UNL     1      23.523  10.949  11.374  1.00  0.00     0.050 A 
ATOM     17  C   UNL     1      23.690  12.311  11.635  1.00  0.00     0.004 A 
BRANCH  14  18
ATOM     18  O   UNL     1      24.393   8.858  10.398  1.00  0.00    -0.486 OA
BRANCH  18  19
ATOM     19  C   UNL     1      23.183   8.199  10.025  1.00  0.00     0.257 C 
BRANCH  19  20
ATOM     20  C   UNL     1      22.738   7.254  11.104  1.00  0.00     0.006 C 
ATOM     21  C   UNL     1      23.100   5.969  11.085  1.00  0.00     0.007 C 
ENDBRANCH  19  20
ENDBRANCH  18  19
ENDBRANCH  14  18
ENDBRANCH  11  12
ENDBRANCH   1  11
TORSDOF 10
ENDMDL
MODEL 2
REMARK VINA RESULT:    -6.870      1.502      3.668
REMARK INTER + INTRA:         -11.456
REMARK INTER:                 -10.867
REMARK INTRA:                  -0.589
REMARK UNBOUND:                -0.770
REMARK SMILES C=CCOc1ccccc1OCC(O)CNC(C)C
REMARK SMILES IDX 12 1 13 2 15 3 16 4 17 6 18 7 19 8 14 9 11 11 10 12 9 13
REMARK SMILES IDX 5 14 8 15 6 16 7 17 4 18 3 19 2 20 1 21
REMARK H PARENT 16 5 14 10
REMARK Flexibility Score: inf
ROOT
ATOM      1  C   UNL     1      28.056   8.136   9.089  1.00  0.00     0.262 C 
ENDROOT
BRANCH   1   2
ATOM      2  C   UNL     1      29.311   8.322   9.952  1.00  0.00     0.165 C 
BRANCH   2   3
ATOM      3  C   UNL     1      30.588   7.970   9.153  1.00  0.00     0.116 C 
BRANCH   3   4
ATOM      4  N   UNL     1      31.367   6.887   9.782  1.00  0.00    -0.312 NA
ATOM      5  H   UNL     1      31.298   6.971  10.823  1.00  0.00     0.123 HD
BRANCH   4   6
ATOM      6  C   UNL     1      32.777   6.863   9.337  1.00  0.00     0.047 C 
ATOM      7  C   UNL     1      32.973   5.837   8.211  1.00  0.00     0.024 C 
ATOM      8  C   UNL     1      33.181   8.255   8.841  1.00  0.00     0.024 C 
ENDBRANCH   4   6
ENDBRANCH   3   4
ENDBRANCH   2   3
BRANCH   2   9
ATOM      9  O   UNL     1      29.219   7.548  11.123  1.00  0.00    -0.388 OA
ATOM     10  H   UNL     1      28.850   6.661  10.870  1.00  0.00     0.211 HD
ENDBRANCH   2   9
ENDBRANCH   1   2
BRANCH   1  11
ATOM     11  O   UNL     1      27.228   9.293   9.196  1.00  0.00    -0.487 OA
BRANCH  11  12
ATOM     12  C   UNL     1      25.914   9.289   9.687  1.00  0.00     0.161 A 
ATOM     13  C   UNL     1      25.174   8.099   9.835  1.00  0.00     0.050 A 
ATOM     14  C   UNL     1      25.329  10.518  10.037  1.00  0.00     0.161 A 
ATOM     15  C   UNL     1      23.867   8.138  10.327  1.00  0.00     0.004 A 
ATOM     16  C   UNL     1      24.010  10.543  10.533  1.00  0.00     0.050 A 
ATOM     17  C   UNL     1      23.287   9.357  10.674  1.00  0.00     0.004 A 
BRANCH  14  18
ATOM     18  O   UNL     1      26.094  11.687   9.877  1.00  0.00    -0.486 OA
BRANCH  18  19
ATOM     19  C   UNL     1      26.613  12.486  10.939  1.00  0.00     0.257 C 
BRANCH  19  20
ATOM     20  C   UNL     1      25.977  13.846  10.941  1.00  0.00     0.006 C 
ATOM     21  C   UNL     1      24.799  14.054  11.533  1.00  0.00     0.007 C 
ENDBRANCH  19  20
ENDBRANCH  18  19
ENDBRANCH  14  18
ENDBRANCH  11  12
ENDBRANCH   1  11
TORSDOF 10
ENDMDL
MODEL 3
REMARK VINA RESULT:    -6.811      1.869      4.019
REMARK INTER + INTRA:         -11.365
REMARK INTER:                 -10.296
REMARK INTRA:                  -1.069
REMARK UNBOUND:                -0.770
REMARK SMILES C=CCOc1ccccc1OCC(O)CNC(C)C
REMARK SMILES IDX 12 1 13 2 15 3 16 4 17 6 18 7 19 8 14 9 11 11 10 12 9 13
REMARK SMILES IDX 5 14 8 15 6 16 7 17 4 18 3 19 2 20 1 21
REMARK H PARENT 16 5 14 10
REMARK Flexibility Score: inf
ROOT
ATOM      1  C   UNL     1      28.525   7.962   9.137  1.00  0.00     0.262 C 
ENDROOT
BRANCH   1   2
ATOM      2  C   UNL     1      29.919   8.126   9.757  1.00  0.00     0.165 C 
BRANCH   2   3
ATOM      3  C   UNL     1      30.905   8.753   8.744  1.00  0.00     0.116 C 
BRANCH   3   4
ATOM      4  N   UNL     1      30.274   9.793   7.911  1.00  0.00    -0.312 NA
ATOM      5  H   UNL     1      30.334   9.513   6.904  1.00  0.00     0.123 HD
BRANCH   4   6
ATOM      6  C   UNL     1      30.856  11.134   8.130  1.00  0.00     0.047 C 
ATOM      7  C   UNL     1      29.966  11.964   9.067  1.00  0.00     0.024 C 
ATOM      8  C   UNL     1      32.254  10.993   8.741  1.00  0.00     0.024 C 
ENDBRANCH   4   6
ENDBRANCH   3   4
ENDBRANCH   2   3
BRANCH   2   9
ATOM      9  O   UNL     1      30.396   6.887  10.223  1.00  0.00    -0.388 OA
ATOM     10  H   UNL     1      31.388   6.917  10.196  1.00  0.00     0.211 HD
ENDBRANCH   2   9
ENDBRANCH   1   2
BRANCH   1  11
ATOM     11  O   UNL     1      27.744   9.126   9.405  1.00  0.00    -0.487 OA
BRANCH  11  12
ATOM     12  C   UNL     1      26.383   9.111   9.743  1.00  0.00     0.161 A 
ATOM     13  C   UNL     1      25.642   7.914   9.811  1.00  0.00     0.050 A 
ATOM     14  C   UNL     1      25.752  10.335  10.020  1.00  0.00     0.161 A 
ATOM     15  C   UNL     1      24.287   7.941  10.152  1.00  0.00     0.004 A 
ATOM     16  C   UNL     1      24.384  10.349  10.364  1.00  0.00     0.050 A 
ATOM     17  C   UNL     1      23.661   9.156  10.427  1.00  0.00     0.004 A 
BRANCH  14  18
ATOM     18  O   UNL     1      26.519  11.511   9.944  1.00  0.00    -0.486 OA
BRANCH  18  19
ATOM     19  C   UNL     1      26.729  12.431  11.015  1.00  0.00     0.257 C 
BRANCH  19  20
ATOM     20  C   UNL     1      25.939  13.690  10.797  1.00  0.00     0.006 C 
ATOM     21  C   UNL     1      24.797  13.908  11.452  1.00  0.00     0.007 C 
ENDBRANCH  19  20
ENDBRANCH  18  19
ENDBRANCH  14  18
ENDBRANCH  11  12
ENDBRANCH   1  11
TORSDOF 10
ENDMDL
MODEL 4
REMARK VINA RESULT:    -6.743      2.308      4.335
REMARK INTER + INTRA:         -11.258
REMARK INTER:                  -9.878
REMARK INTRA:                  -1.379
REMARK UNBOUND:                -0.770
REMARK SMILES C=CCOc1ccccc1OCC(O)CNC(C)C
REMARK SMILES IDX 12 1 13 2 15 3 16 4 17 6 18 7 19 8 14 9 11 11 10 12 9 13
REMARK SMILES IDX 5 14 8 15 6 16 7 17 4 18 3 19 2 20 1 21
REMARK H PARENT 16 5 14 10
REMARK Flexibility Score: inf
ROOT
ATOM      1  C   UNL     1      27.657   8.723   9.451  1.00  0.00     0.262 C 
ENDROOT
BRANCH   1   2
ATOM      2  C   UNL     1      28.428   8.723  10.778  1.00  0.00     0.165 C 
BRANCH   2   3
ATOM      3  C   UNL     1      29.286  10.002  10.918  1.00  0.00     0.116 C 
BRANCH   3   4
ATOM      4  N   UNL     1      28.467  11.222  11.037  1.00  0.00    -0.312 NA
ATOM      5  H   UNL     1      27.472  10.995  10.800  1.00  0.00     0.123 HD
BRANCH   4   6
ATOM      6  C   UNL     1      28.975  12.337  10.209  1.00  0.00     0.047 C 
ATOM      7  C   UNL     1      29.893  13.250  11.035  1.00  0.00     0.024 C 
ATOM      8  C   UNL     1      29.751  11.774   9.013  1.00  0.00     0.024 C 
ENDBRANCH   4   6
ENDBRANCH   3   4
ENDBRANCH   2   3
BRANCH   2   9
ATOM      9  O   UNL     1      29.224   7.568  10.882  1.00  0.00    -0.388 OA
ATOM     10  H   UNL     1      29.850   7.564  10.111  1.00  0.00     0.211 HD
ENDBRANCH   2   9
ENDBRANCH   1   2
BRANCH   1  11
ATOM     11  O   UNL     1      26.618   9.699   9.502  1.00  0.00    -0.487 OA
BRANCH  11  12
ATOM     12  C   UNL     1      25.333   9.469  10.016  1.00  0.00     0.161 A 
ATOM     13  C   UNL     1      24.671   8.236   9.851  1.00  0.00     0.050 A 
ATOM     14  C   UNL     1      24.698  10.510  10.714  1.00  0.00     0.161 A 
ATOM     15  C   UNL     1      23.392   8.046  10.378  1.00  0.00     0.004 A 
ATOM     16  C   UNL     1      23.406  10.305  11.241  1.00  0.00     0.050 A 
ATOM     17  C   UNL     1      22.761   9.079  11.070  1.00  0.00     0.004 A 
BRANCH  14  18
ATOM     18  O   UNL     1      25.385  11.728  10.861  1.00  0.00    -0.486 OA
BRANCH  18  19
ATOM     19  C   UNL     1      25.083  12.735  11.826  1.00  0.00     0.257 C 
BRANCH  19  20
ATOM     20  C   UNL     1      25.111  14.099  11.197  1.00  0.00     0.006 C 
ATOM     21  C   UNL     1      26.266  14.680  10.865  1.00  0.00     0.007 C 
ENDBRANCH  19  20
ENDBRANCH  18  19
ENDBRANCH  14  18
ENDBRANCH  11  12
ENDBRANCH   1  11
TORSDOF 10
ENDMDL
MODEL 5
REMARK VINA RESULT:    -6.691      1.747      3.813
REMARK INTER + INTRA:         -11.178
REMARK INTER:                 -10.425
REMARK INTRA:                  -0.753
REMARK UNBOUND:                -0.770
REMARK SMILES C=CCOc1ccccc1OCC(O)CNC(C)C
REMARK SMILES IDX 12 1 13 2 15 3 16 4 17 6 18 7 19 8 14 9 11 11 10 12 9 13
REMARK SMILES IDX 5 14 8 15 6 16 7 17 4 18 3 19 2 20 1 21
REMARK H PARENT 16 5 14 10
REMARK Flexibility Score: inf
ROOT
ATOM      1  C   UNL     1      28.167   8.041   9.202  1.00  0.00     0.262 C 
ENDROOT
BRANCH   1   2
ATOM      2  C   UNL     1      29.165   8.256  10.348  1.00  0.00     0.165 C 
BRANCH   2   3
ATOM      3  C   UNL     1      29.915   9.599  10.182  1.00  0.00     0.116 C 
BRANCH   3   4
ATOM      4  N   UNL     1      31.243   9.586  10.823  1.00  0.00    -0.312 NA
ATOM      5  H   UNL     1      31.191  10.095  11.737  1.00  0.00     0.123 HD
BRANCH   4   6
ATOM      6  C   UNL     1      32.302  10.147   9.956  1.00  0.00     0.047 C 
ATOM      7  C   UNL     1      33.199  11.108  10.751  1.00  0.00     0.024 C 
ATOM      8  C   UNL     1      33.151   9.009   9.381  1.00  0.00     0.024 C 
ENDBRANCH   4   6
ENDBRANCH   3   4
ENDBRANCH   2   3
BRANCH   2   9
ATOM      9  O   UNL     1      30.067   7.180  10.420  1.00  0.00    -0.388 OA
ATOM     10  H   UNL     1      29.734   6.466   9.816  1.00  0.00     0.211 HD
ENDBRANCH   2   9
ENDBRANCH   1   2
BRANCH   1  11
ATOM     11  O   UNL     1      27.331   9.189   9.075  1.00  0.00    -0.487 OA
BRANCH  11  12
ATOM     12  C   UNL     1      26.039   9.297   9.613  1.00  0.00     0.161 A 
ATOM     13  C   UNL     1      25.177   8.188   9.717  1.00  0.00     0.050 A 
ATOM     14  C   UNL     1      25.605  10.558  10.057  1.00  0.00     0.161 A 
ATOM     15  C   UNL     1      23.898   8.337  10.258  1.00  0.00     0.004 A 
ATOM     16  C   UNL     1      24.312  10.695  10.602  1.00  0.00     0.050 A 
ATOM     17  C   UNL     1      23.467   9.588  10.699  1.00  0.00     0.004 A 
BRANCH  14  18
ATOM     18  O   UNL     1      26.490  11.645   9.939  1.00  0.00    -0.486 OA
BRANCH  18  19
ATOM     19  C   UNL     1      26.901  12.494  11.009  1.00  0.00     0.257 C 
BRANCH  19  20
ATOM     20  C   UNL     1      26.396  13.893  10.803  1.00  0.00     0.006 C 
ATOM     21  C   UNL     1      25.176  14.252  11.211  1.00  0.00     0.007 C 
ENDBRANCH  19  20
ENDBRANCH  18  19
ENDBRANCH  14  18
ENDBRANCH  11  12
ENDBRANCH   1  11
TORSDOF 10
ENDMDL
MODEL 6
REMARK VINA RESULT:    -6.620      1.399      3.785
REMARK INTER + INTRA:         -11.066
REMARK INTER:                 -10.439
REMARK INTRA:                  -0.627
REMARK UNBOUND:                -0.770
REMARK SMILES C=CCOc1ccccc1OCC(O)CNC(C)C
REMARK SMILES IDX 12 1 13 2 15 3 16 4 17 6 18 7 19 8 14 9 11 11 10 12 9 13
REMARK SMILES IDX 5 14 8 15 6 16 7 17 4 18 3 19 2 20 1 21
REMARK H PARENT 16 5 14 10
REMARK Flexibility Score: inf
ROOT
ATOM      1  C   UNL     1      27.807   8.963  10.393  1.00  0.00     0.262 C 
ENDROOT
BRANCH   1   2
ATOM      2  C   UNL     1      28.674   8.247   9.351  1.00  0.00     0.165 C 
BRANCH   2   3
ATOM      3  C   UNL     1      29.104   9.219   8.226  1.00  0.00     0.116 C 
BRANCH   3   4
ATOM      4  N   UNL     1      30.567   9.394   8.159  1.00  0.00    -0.312 NA
ATOM      5  H   UNL     1      30.928   8.954   7.281  1.00  0.00     0.123 HD
BRANCH   4   6
ATOM      6  C   UNL     1      31.262   8.861   9.351  1.00  0.00     0.047 C 
ATOM      7  C   UNL     1      32.352   7.859   8.939  1.00  0.00     0.024 C 
ATOM      8  C   UNL     1      31.895  10.016  10.134  1.00  0.00     0.024 C 
ENDBRANCH   4   6
ENDBRANCH   3   4
ENDBRANCH   2   3
BRANCH   2   9
ATOM      9  O   UNL     1      27.990   7.138   8.822  1.00  0.00    -0.388 OA
ATOM     10  H   UNL     1      28.570   6.727   8.129  1.00  0.00     0.211 HD
ENDBRANCH   2   9
ENDBRANCH   1   2
BRANCH   1  11
ATOM     11  O   UNL     1      26.645   9.497   9.762  1.00  0.00    -0.487 OA
BRANCH  11  12
ATOM     12  C   UNL     1      25.328   9.256  10.182  1.00  0.00     0.161 A 
ATOM     13  C   UNL     1      24.714   7.997  10.034  1.00  0.00     0.050 A 
ATOM     14  C   UNL     1      24.611  10.314  10.767  1.00  0.00     0.161 A 
ATOM     15  C   UNL     1      23.400   7.797  10.466  1.00  0.00     0.004 A 
ATOM     16  C   UNL     1      23.286  10.099  11.199  1.00  0.00     0.050 A 
ATOM     17  C   UNL     1      22.689   8.847  11.046  1.00  0.00     0.004 A 
BRANCH  14  18
ATOM     18  O   UNL     1      25.253  11.558  10.901  1.00  0.00    -0.486 OA
BRANCH  18  19
ATOM     19  C   UNL     1      24.736  12.682  11.612  1.00  0.00     0.257 C 
BRANCH  19  20
ATOM     20  C   UNL     1      25.389  13.952  11.148  1.00  0.00     0.006 C 
ATOM     21  C   UNL     1      24.999  15.138  11.618  1.00  0.00     0.007 C 
ENDBRANCH  19  20
ENDBRANCH  18  19
ENDBRANCH  14  18
ENDBRANCH  11  12
ENDBRANCH   1  11
TORSDOF 10
ENDMDL
MODEL 7
REMARK VINA RESULT:    -6.609      1.467      3.589
REMARK INTER + INTRA:         -11.050
REMARK INTER:                 -10.274
REMARK INTRA:                  -0.776
REMARK UNBOUND:                -0.770
REMARK SMILES C=CCOc1ccccc1OCC(O)CNC(C)C
REMARK SMILES IDX 12 1 13 2 15 3 16 4 17 6 18 7 19 8 14 9 11 11 10 12 9 13
REMARK SMILES IDX 5 14 8 15 6 16 7 17 4 18 3 19 2 20 1 21
REMARK H PARENT 16 5 14 10
REMARK Flexibility Score: inf
ROOT
ATOM      1  C   UNL     1      26.418   7.984  10.334  1.00  0.00     0.262 C 
ENDROOT
BRANCH   1   2
ATOM      2  C   UNL     1      27.869   8.336  10.690  1.00  0.00     0.165 C 
BRANCH   2   3
ATOM      3  C   UNL     1      28.804   8.122   9.477  1.00  0.00     0.116 C 
BRANCH   3   4
ATOM      4  N   UNL     1      30.042   7.407   9.837  1.00  0.00    -0.312 NA
ATOM      5  H   UNL     1      30.181   7.457  10.874  1.00  0.00     0.123 HD
BRANCH   4   6
ATOM      6  C   UNL     1      31.227   7.913   9.112  1.00  0.00     0.047 C 
ATOM      7  C   UNL     1      31.625   9.304   9.628  1.00  0.00     0.024 C 
ATOM      8  C   UNL     1      32.397   6.941   9.299  1.00  0.00     0.024 C 
ENDBRANCH   4   6
ENDBRANCH   3   4
ENDBRANCH   2   3
BRANCH   2   9
ATOM      9  O   UNL     1      28.298   7.582  11.797  1.00  0.00    -0.388 OA
ATOM     10  H   UNL     1      28.204   6.622  11.562  1.00  0.00     0.211 HD
ENDBRANCH   2   9
ENDBRANCH   1   2
BRANCH   1  11
ATOM     11  O   UNL     1      25.808   9.089   9.671  1.00  0.00    -0.487 OA
BRANCH  11  12
ATOM     12  C   UNL     1      25.020  10.062  10.305  1.00  0.00     0.161 A 
ATOM     13  C   UNL     1      23.765   9.758  10.869  1.00  0.00     0.050 A 
ATOM     14  C   UNL     1      25.511  11.377  10.370  1.00  0.00     0.161 A 
ATOM     15  C   UNL     1      23.011  10.756  11.491  1.00  0.00     0.004 A 
ATOM     16  C   UNL     1      24.740  12.375  11.002  1.00  0.00     0.050 A 
ATOM     17  C   UNL     1      23.498  12.061  11.557  1.00  0.00     0.004 A 
BRANCH  14  18
ATOM     18  O   UNL     1      26.766  11.648   9.798  1.00  0.00    -0.486 OA
BRANCH  18  19
ATOM     19  C   UNL     1      27.680  12.649  10.246  1.00  0.00     0.257 C 
BRANCH  19  20
ATOM     20  C   UNL     1      28.828  12.026  10.987  1.00  0.00     0.006 C 
ATOM     21  C   UNL     1      30.076  12.475  10.825  1.00  0.00     0.007 C 
ENDBRANCH  19  20
ENDBRANCH  18  19
ENDBRANCH  14  18
ENDBRANCH  11  12
ENDBRANCH   1  11
TORSDOF 10
ENDMDL
MODEL 8
REMARK VINA RESULT:    -6.517      2.145      4.190
REMARK INTER + INTRA:         -10.907
REMARK INTER:                  -9.659
REMARK INTRA:                  -1.248
REMARK UNBOUND:                -0.770
REMARK SMILES C=CCOc1ccccc1OCC(O)CNC(C)C
REMARK SMILES IDX 12 1 13 2 15 3 16 4 17 6 18 7 19 8 14 9 11 11 10 12 9 13
REMARK SMILES IDX 5 14 8 15 6 16 7 17 4 18 3 19 2 20 1 21
REMARK H PARENT 16 5 14 10
REMARK Flexibility Score: inf
ROOT
ATOM      1  C   UNL     1      28.051  11.624  11.171  1.00  0.00     0.262 C 
ENDROOT
BRANCH   1   2
ATOM      2  C   UNL     1      29.293  12.377  10.675  1.00  0.00     0.165 C 
BRANCH   2   3
ATOM      3  C   UNL     1      30.469  11.403  10.429  1.00  0.00     0.116 C 
BRANCH   3   4
ATOM      4  N   UNL     1      30.029  10.000  10.324  1.00  0.00    -0.312 NA
ATOM      5  H   UNL     1      30.364   9.468  11.161  1.00  0.00     0.123 HD
BRANCH   4   6
ATOM      6  C   UNL     1      30.468   9.355   9.067  1.00  0.00     0.047 C 
ATOM      7  C   UNL     1      30.476   7.827   9.217  1.00  0.00     0.024 C 
ATOM      8  C   UNL     1      29.523   9.755   7.929  1.00  0.00     0.024 C 
ENDBRANCH   4   6
ENDBRANCH   3   4
ENDBRANCH   2   3
BRANCH   2   9
ATOM      9  O   UNL     1      29.654  13.383  11.589  1.00  0.00    -0.388 OA
ATOM     10  H   UNL     1      30.644  13.453  11.584  1.00  0.00     0.211 HD
ENDBRANCH   2   9
ENDBRANCH   1   2
BRANCH   1  11
ATOM     11  O   UNL     1      27.263  11.215  10.055  1.00  0.00    -0.487 OA
BRANCH  11  12
ATOM     12  C   UNL     1      26.300  10.195  10.091  1.00  0.00     0.161 A 
ATOM     13  C   UNL     1      26.645   8.835   9.969  1.00  0.00     0.050 A 
ATOM     14  C   UNL     1      24.952  10.558  10.255  1.00  0.00     0.161 A 
ATOM     15  C   UNL     1      25.656   7.850  10.009  1.00  0.00     0.004 A 
ATOM     16  C   UNL     1      23.963   9.554  10.295  1.00  0.00     0.050 A 
ATOM     17  C   UNL     1      24.318   8.209  10.172  1.00  0.00     0.004 A 
BRANCH  14  18
ATOM     18  O   UNL     1      24.641  11.924  10.374  1.00  0.00    -0.486 OA
BRANCH  18  19
ATOM     19  C   UNL     1      24.130  12.555  11.548  1.00  0.00     0.257 C 
BRANCH  19  20
ATOM     20  C   UNL     1      24.607  13.976  11.638  1.00  0.00     0.006 C 
ATOM     21  C   UNL     1      25.692  14.381  10.974  1.00  0.00     0.007 C 
ENDBRANCH  19  20
ENDBRANCH  18  19
ENDBRANCH  14  18
ENDBRANCH  11  12
ENDBRANCH   1  11
TORSDOF 10
ENDMDL
MODEL 9
REMARK VINA RESULT:    -6.360      1.961      3.838
REMARK INTER + INTRA:         -10.662
REMARK INTER:                  -9.703
REMARK INTRA:                  -0.958
REMARK UNBOUND:                -0.770
REMARK SMILES C=CCOc1ccccc1OCC(O)CNC(C)C
REMARK SMILES IDX 12 1 13 2 15 3 16 4 17 6 18 7 19 8 14 9 11 11 10 12 9 13
REMARK SMILES IDX 5 14 8 15 6 16 7 17 4 18 3 19 2 20 1 21
REMARK H PARENT 16 5 14 10
REMARK Flexibility Score: inf
ROOT
ATOM      1  C   UNL     1      28.890  11.223  11.082  1.00  0.00     0.262 C 
ENDROOT
BRANCH   1   2
ATOM      2  C   UNL     1      30.099  12.052  10.630  1.00  0.00     0.165 C 
BRANCH   2   3
ATOM      3  C   UNL     1      31.324  11.146  10.365  1.00  0.00     0.116 C 
BRANCH   3   4
ATOM      4  N   UNL     1      30.992   9.711  10.441  1.00  0.00    -0.312 NA
ATOM      5  H   UNL     1      31.344   9.322  11.347  1.00  0.00     0.123 HD
BRANCH   4   6
ATOM      6  C   UNL     1      31.511   8.942   9.289  1.00  0.00     0.047 C 
ATOM      7  C   UNL     1      33.044   8.864   9.336  1.00  0.00     0.024 C 
ATOM      8  C   UNL     1      30.923   7.527   9.312  1.00  0.00     0.024 C 
ENDBRANCH   4   6
ENDBRANCH   3   4
ENDBRANCH   2   3
BRANCH   2   9
ATOM      9  O   UNL     1      30.400  13.039  11.586  1.00  0.00    -0.388 OA
ATOM     10  H   UNL     1      29.591  13.602  11.703  1.00  0.00     0.211 HD
ENDBRANCH   2   9
ENDBRANCH   1   2
BRANCH   1  11
ATOM     11  O   UNL     1      28.174  10.760   9.938  1.00  0.00    -0.487 OA
BRANCH  11  12
ATOM     12  C   UNL     1      27.143   9.809   9.974  1.00  0.00     0.161 A 
ATOM     13  C   UNL     1      27.399   8.425   9.915  1.00  0.00     0.050 A 
ATOM     14  C   UNL     1      25.818  10.267  10.073  1.00  0.00     0.161 A 
ATOM     15  C   UNL     1      26.344   7.510   9.953  1.00  0.00     0.004 A 
ATOM     16  C   UNL     1      24.762   9.333  10.111  1.00  0.00     0.050 A 
ATOM     17  C   UNL     1      25.030   7.964  10.051  1.00  0.00     0.004 A 
BRANCH  14  18
ATOM     18  O   UNL     1      25.597  11.654  10.130  1.00  0.00    -0.486 OA
BRANCH  18  19
ATOM     19  C   UNL     1      25.467  12.421  11.327  1.00  0.00     0.257 C 
BRANCH  19  20
ATOM     20  C   UNL     1      24.068  12.948  11.471  1.00  0.00     0.006 C 
ATOM     21  C   UNL     1      23.022  12.119  11.528  1.00  0.00     0.007 C 
ENDBRANCH  19  20
ENDBRANCH  18  19
ENDBRANCH  14  18
ENDBRANCH  11  12
ENDBRANCH   1  11
TORSDOF 10
ENDMDL
MODEL 10
REMARK VINA RESULT:    -6.359      1.820      3.987
REMARK INTER + INTRA:         -10.660
REMARK INTER:                  -9.446
REMARK INTRA:                  -1.215
REMARK UNBOUND:                -0.770
REMARK SMILES C=CCOc1ccccc1OCC(O)CNC(C)C
REMARK SMILES IDX 12 1 13 2 15 3 16 4 17 6 18 7 19 8 14 9 11 11 10 12 9 13
REMARK SMILES IDX 5 14 8 15 6 16 7 17 4 18 3 19 2 20 1 21
REMARK H PARENT 16 5 14 10
REMARK Flexibility Score: inf
ROOT
ATOM      1  C   UNL     1      26.137   7.948  10.187  1.00  0.00     0.262 C 
ENDROOT
BRANCH   1   2
ATOM      2  C   UNL     1      27.387   7.472   9.435  1.00  0.00     0.165 C 
BRANCH   2   3
ATOM      3  C   UNL     1      28.144   8.667   8.809  1.00  0.00     0.116 C 
BRANCH   3   4
ATOM      4  N   UNL     1      28.801   9.513   9.822  1.00  0.00    -0.312 NA
ATOM      5  H   UNL     1      28.297  10.428   9.889  1.00  0.00     0.123 HD
BRANCH   4   6
ATOM      6  C   UNL     1      30.242   9.713   9.555  1.00  0.00     0.047 C 
ATOM      7  C   UNL     1      30.931   8.370   9.267  1.00  0.00     0.024 C 
ATOM      8  C   UNL     1      30.415  10.648   8.353  1.00  0.00     0.024 C 
ENDBRANCH   4   6
ENDBRANCH   3   4
ENDBRANCH   2   3
BRANCH   2   9
ATOM      9  O   UNL     1      27.037   6.528   8.453  1.00  0.00    -0.388 OA
ATOM     10  H   UNL     1      27.348   5.638   8.766  1.00  0.00     0.211 HD
ENDBRANCH   2   9
ENDBRANCH   1   2
BRANCH   1  11
ATOM     11  O   UNL     1      25.747   9.231   9.700  1.00  0.00    -0.487 OA
BRANCH  11  12
ATOM     12  C   UNL     1      24.880  10.107  10.371  1.00  0.00     0.161 A 
ATOM     13  C   UNL     1      23.573   9.730  10.739  1.00  0.00     0.050 A 
ATOM     14  C   UNL     1      25.342  11.398  10.676  1.00  0.00     0.161 A 
ATOM     15  C   UNL     1      22.740  10.631  11.405  1.00  0.00     0.004 A 
ATOM     16  C   UNL     1      24.491  12.299  11.350  1.00  0.00     0.050 A 
ATOM     17  C   UNL     1      23.198  11.913  11.709  1.00  0.00     0.004 A 
BRANCH  14  18
ATOM     18  O   UNL     1      26.650  11.744  10.295  1.00  0.00    -0.486 OA
BRANCH  18  19
ATOM     19  C   UNL     1      27.563  12.512  11.078  1.00  0.00     0.257 C 
BRANCH  19  20
ATOM     20  C   UNL     1      27.860  13.825  10.412  1.00  0.00     0.006 C 
ATOM     21  C   UNL     1      27.010  14.851  10.502  1.00  0.00     0.007 C 
ENDBRANCH  19  20
ENDBRANCH  18  19
ENDBRANCH  14  18
ENDBRANCH  11  12
ENDBRANCH   1  11
TORSDOF 10
ENDMDL
MODEL 11
REMARK VINA RESULT:    -6.243      1.516      2.219
REMARK INTER + INTRA:         -10.481
REMARK INTER:                  -9.671
REMARK INTRA:                  -0.810
REMARK UNBOUND:                -0.770
REMARK SMILES C=CCOc1ccccc1OCC(O)CNC(C)C
REMARK SMILES IDX 12 1 13 2 15 3 16 4 17 6 18 7 19 8 14 9 11 11 10 12 9 13
REMARK SMILES IDX 5 14 8 15 6 16 7 17 4 18 3 19 2 20 1 21
REMARK H PARENT 16 5 14 10
REMARK Flexibility Score: inf
ROOT
ATOM      1  C   UNL     1      28.239  12.116   9.464  1.00  0.00     0.262 C 
ENDROOT
BRANCH   1   2
ATOM      2  C   UNL     1      29.281  11.709  10.515  1.00  0.00     0.165 C 
BRANCH   2   3
ATOM      3  C   UNL     1      28.985  10.294  11.068  1.00  0.00     0.116 C 
BRANCH   3   4
ATOM      4  N   UNL     1      30.068   9.337  10.779  1.00  0.00    -0.312 NA
ATOM      5  H   UNL     1      30.991   9.824  10.862  1.00  0.00     0.123 HD
BRANCH   4   6
ATOM      6  C   UNL     1      29.921   8.687   9.458  1.00  0.00     0.047 C 
ATOM      7  C   UNL     1      30.995   7.606   9.264  1.00  0.00     0.024 C 
ATOM      8  C   UNL     1      28.529   8.055   9.350  1.00  0.00     0.024 C 
ENDBRANCH   4   6
ENDBRANCH   3   4
ENDBRANCH   2   3
BRANCH   2   9
ATOM      9  O   UNL     1      29.325  12.656  11.553  1.00  0.00    -0.388 OA
ATOM     10  H   UNL     1      29.737  12.218  12.343  1.00  0.00     0.211 HD
ENDBRANCH   2   9
ENDBRANCH   1   2
BRANCH   1  11
ATOM     11  O   UNL     1      27.095  11.270   9.573  1.00  0.00    -0.487 OA
BRANCH  11  12
ATOM     12  C   UNL     1      25.926  11.599  10.275  1.00  0.00     0.161 A 
ATOM     13  C   UNL     1      25.696  12.893  10.782  1.00  0.00     0.050 A 
ATOM     14  C   UNL     1      24.962  10.595  10.471  1.00  0.00     0.161 A 
ATOM     15  C   UNL     1      24.518  13.180  11.476  1.00  0.00     0.004 A 
ATOM     16  C   UNL     1      23.777  10.898  11.173  1.00  0.00     0.050 A 
ATOM     17  C   UNL     1      23.562  12.185  11.671  1.00  0.00     0.004 A 
BRANCH  14  18
ATOM     18  O   UNL     1      25.222   9.314   9.953  1.00  0.00    -0.486 OA
BRANCH  18  19
ATOM     19  C   UNL     1      24.231   8.343   9.617  1.00  0.00     0.257 C 
BRANCH  19  20
ATOM     20  C   UNL     1      24.125   7.298  10.691  1.00  0.00     0.006 C 
ATOM     21  C   UNL     1      22.936   6.844  11.094  1.00  0.00     0.007 C 
ENDBRANCH  19  20
ENDBRANCH  18  19
ENDBRANCH  14  18
ENDBRANCH  11  12
ENDBRANCH   1  11
TORSDOF 10
ENDMDL
MODEL 12
REMARK VINA RESULT:    -6.174      2.088      3.303
REMARK INTER + INTRA:         -10.373
REMARK INTER:                  -9.346
REMARK INTRA:                  -1.027
REMARK UNBOUND:                -0.770
REMARK SMILES C=CCOc1ccccc1OCC(O)CNC(C)C
REMARK SMILES IDX 12 1 13 2 15 3 16 4 17 6 18 7 19 8 14 9 11 11 10 12 9 13
REMARK SMILES IDX 5 14 8 15 6 16 7 17 4 18 3 19 2 20 1 21
REMARK H PARENT 16 5 14 10
REMARK Flexibility Score: inf
ROOT
ATOM      1  C   UNL     1      28.313  11.730  11.179  1.00  0.00     0.262 C 
ENDROOT
BRANCH   1   2
ATOM      2  C   UNL     1      29.322  12.820  10.796  1.00  0.00     0.165 C 
BRANCH   2   3
ATOM      3  C   UNL     1      30.632  12.197  10.259  1.00  0.00     0.116 C 
BRANCH   3   4
ATOM      4  N   UNL     1      30.426  10.854   9.685  1.00  0.00    -0.312 NA
ATOM      5  H   UNL     1      29.440  10.550   9.865  1.00  0.00     0.123 HD
BRANCH   4   6
ATOM      6  C   UNL     1      31.396   9.860  10.190  1.00  0.00     0.047 C 
ATOM      7  C   UNL     1      31.801   8.883   9.075  1.00  0.00     0.024 C 
ATOM      8  C   UNL     1      32.640  10.580  10.719  1.00  0.00     0.024 C 
ENDBRANCH   4   6
ENDBRANCH   3   4
ENDBRANCH   2   3
BRANCH   2   9
ATOM      9  O   UNL     1      29.577  13.659  11.896  1.00  0.00    -0.388 OA
ATOM     10  H   UNL     1      30.505  14.003  11.804  1.00  0.00     0.211 HD
ENDBRANCH   2   9
ENDBRANCH   1   2
BRANCH   1  11
ATOM     11  O   UNL     1      27.220  11.747  10.262  1.00  0.00    -0.487 OA
BRANCH  11  12
ATOM     12  C   UNL     1      25.868  11.700  10.633  1.00  0.00     0.161 A 
ATOM     13  C   UNL     1      25.239  12.765  11.307  1.00  0.00     0.050 A 
ATOM     14  C   UNL     1      25.131  10.546  10.316  1.00  0.00     0.161 A 
ATOM     15  C   UNL     1      23.890  12.679  11.660  1.00  0.00     0.004 A 
ATOM     16  C   UNL     1      23.769  10.472  10.678  1.00  0.00     0.050 A 
ATOM     17  C   UNL     1      23.158  11.535  11.346  1.00  0.00     0.004 A 
BRANCH  14  18
ATOM     18  O   UNL     1      25.787   9.501   9.643  1.00  0.00    -0.486 OA
BRANCH  18  19
ATOM     19  C   UNL     1      26.301   8.319  10.255  1.00  0.00     0.257 C 
BRANCH  19  20
ATOM     20  C   UNL     1      27.768   8.166   9.969  1.00  0.00     0.006 C 
ATOM     21  C   UNL     1      28.215   8.038   8.717  1.00  0.00     0.007 C 
ENDBRANCH  19  20
ENDBRANCH  18  19
ENDBRANCH  14  18
ENDBRANCH  11  12
ENDBRANCH   1  11
TORSDOF 10
ENDMDL
MODEL 13
REMARK VINA RESULT:    -6.013      2.410      6.958
REMARK INTER + INTRA:         -10.122
REMARK INTER:                  -9.502
REMARK INTRA:                  -0.620
REMARK UNBOUND:                -0.770
REMARK SMILES C=CCOc1ccccc1OCC(O)CNC(C)C
REMARK SMILES IDX 12 1 13 2 15 3 16 4 17 6 18 7 19 8 14 9 11 11 10 12 9 13
REMARK SMILES IDX 5 14 8 15 6 16 7 17 4 18 3 19 2 20 1 21
REMARK H PARENT 16 5 14 10
REMARK Flexibility Score: inf
ROOT
ATOM      1  C   UNL     1      27.753   7.859   9.240  1.00  0.00     0.262 C 
ENDROOT
BRANCH   1   2
ATOM      2  C   UNL     1      26.368   7.813   9.898  1.00  0.00     0.165 C 
BRANCH   2   3
ATOM      3  C   UNL     1      25.765   9.233  10.018  1.00  0.00     0.116 C 
BRANCH   3   4
ATOM      4  N   UNL     1      24.335   9.211  10.378  1.00  0.00    -0.312 NA
ATOM      5  H   UNL     1      23.818   8.601   9.701  1.00  0.00     0.123 HD
BRANCH   4   6
ATOM      6  C   UNL     1      23.741  10.563  10.445  1.00  0.00     0.047 C 
ATOM      7  C   UNL     1      23.047  10.783  11.797  1.00  0.00     0.024 C 
ATOM      8  C   UNL     1      24.838  11.615  10.252  1.00  0.00     0.024 C 
ENDBRANCH   4   6
ENDBRANCH   3   4
ENDBRANCH   2   3
BRANCH   2   9
ATOM      9  O   UNL     1      26.444   7.190  11.156  1.00  0.00    -0.388 OA
ATOM     10  H   UNL     1      26.526   7.904  11.842  1.00  0.00     0.211 HD
ENDBRANCH   2   9
ENDBRANCH   1   2
BRANCH   1  11
ATOM     11  O   UNL     1      28.531   8.895   9.837  1.00  0.00    -0.487 OA
BRANCH  11  12
ATOM     12  C   UNL     1      29.932   8.954   9.812  1.00  0.00     0.161 A 
ATOM     13  C   UNL     1      30.713   7.950   9.206  1.00  0.00     0.050 A 
ATOM     14  C   UNL     1      30.564  10.055  10.415  1.00  0.00     0.161 A 
ATOM     15  C   UNL     1      32.106   8.045   9.202  1.00  0.00     0.004 A 
ATOM     16  C   UNL     1      31.972  10.140  10.404  1.00  0.00     0.050 A 
ATOM     17  C   UNL     1      32.733   9.137   9.800  1.00  0.00     0.004 A 
BRANCH  14  18
ATOM     18  O   UNL     1      29.757  11.040  11.010  1.00  0.00    -0.486 OA
BRANCH  18  19
ATOM     19  C   UNL     1      29.659  12.398  10.582  1.00  0.00     0.257 C 
BRANCH  19  20
ATOM     20  C   UNL     1      28.221  12.811  10.450  1.00  0.00     0.006 C 
ATOM     21  C   UNL     1      27.838  14.064  10.708  1.00  0.00     0.007 C 
ENDBRANCH  19  20
ENDBRANCH  18  19
ENDBRANCH  14  18
ENDBRANCH  11  12
ENDBRANCH   1  11
TORSDOF 10
ENDMDL
MODEL 14
REMARK VINA RESULT:    -5.900      2.393      6.745
REMARK INTER + INTRA:          -9.946
REMARK INTER:                  -9.188
REMARK INTRA:                  -0.758
REMARK UNBOUND:                -0.770
REMARK SMILES C=CCOc1ccccc1OCC(O)CNC(C)C
REMARK SMILES IDX 12 1 13 2 15 3 16 4 17 6 18 7 19 8 14 9 11 11 10 12 9 13
REMARK SMILES IDX 5 14 8 15 6 16 7 17 4 18 3 19 2 20 1 21
REMARK H PARENT 16 5 14 10
REMARK Flexibility Score: inf
ROOT
ATOM      1  C   UNL     1      29.286   7.921   9.719  1.00  0.00     0.262 C 
ENDROOT
BRANCH   1   2
ATOM      2  C   UNL     1      27.820   7.905   9.265  1.00  0.00     0.165 C 
BRANCH   2   3
ATOM      3  C   UNL     1      26.867   8.102  10.468  1.00  0.00     0.116 C 
BRANCH   3   4
ATOM      4  N   UNL     1      25.703   7.199  10.420  1.00  0.00    -0.312 NA
ATOM      5  H   UNL     1      25.902   6.413   9.758  1.00  0.00     0.123 HD
BRANCH   4   6
ATOM      6  C   UNL     1      24.450   7.898  10.062  1.00  0.00     0.047 C 
ATOM      7  C   UNL     1      23.260   7.309  10.835  1.00  0.00     0.024 C 
ATOM      8  C   UNL     1      24.585   9.390  10.384  1.00  0.00     0.024 C 
ENDBRANCH   4   6
ENDBRANCH   3   4
ENDBRANCH   2   3
BRANCH   2   9
ATOM      9  O   UNL     1      27.531   6.708   8.585  1.00  0.00    -0.388 OA
ATOM     10  H   UNL     1      26.953   6.157   9.176  1.00  0.00     0.211 HD
ENDBRANCH   2   9
ENDBRANCH   1   2
BRANCH   1  11
ATOM     11  O   UNL     1      29.654   9.247  10.093  1.00  0.00    -0.487 OA
BRANCH  11  12
ATOM     12  C   UNL     1      30.957   9.763  10.020  1.00  0.00     0.161 A 
ATOM     13  C   UNL     1      32.048   8.981   9.591  1.00  0.00     0.050 A 
ATOM     14  C   UNL     1      31.166  11.103  10.388  1.00  0.00     0.161 A 
ATOM     15  C   UNL     1      33.331   9.531   9.532  1.00  0.00     0.004 A 
ATOM     16  C   UNL     1      32.465  11.646  10.323  1.00  0.00     0.050 A 
ATOM     17  C   UNL     1      33.538  10.860   9.898  1.00  0.00     0.004 A 
BRANCH  14  18
ATOM     18  O   UNL     1      30.057  11.856  10.811  1.00  0.00    -0.486 OA
BRANCH  18  19
ATOM     19  C   UNL     1      29.224  12.647   9.963  1.00  0.00     0.257 C 
BRANCH  19  20
ATOM     20  C   UNL     1      27.813  12.132   9.973  1.00  0.00     0.006 C 
ATOM     21  C   UNL     1      27.283  11.556   8.892  1.00  0.00     0.007 C 
ENDBRANCH  19  20
ENDBRANCH  18  19
ENDBRANCH  14  18
ENDBRANCH  11  12
ENDBRANCH   1  11
TORSDOF 10
ENDMDL
MODEL 15
REMARK VINA RESULT:    -5.868      2.939      6.178
REMARK INTER + INTRA:          -9.897
REMARK INTER:                  -9.078
REMARK INTRA:                  -0.819
REMARK UNBOUND:                -0.770
REMARK SMILES C=CCOc1ccccc1OCC(O)CNC(C)C
REMARK SMILES IDX 12 1 13 2 15 3 16 4 17 6 18 7 19 8 14 9 11 11 10 12 9 13
REMARK SMILES IDX 5 14 8 15 6 16 7 17 4 18 3 19 2 20 1 21
REMARK H PARENT 16 5 14 10
REMARK Flexibility Score: inf
ROOT
ATOM      1  C   UNL     1      27.815  12.100  11.126  1.00  0.00     0.262 C 
ENDROOT
BRANCH   1   2
ATOM      2  C   UNL     1      28.828  13.145  10.641  1.00  0.00     0.165 C 
BRANCH   2   3
ATOM      3  C   UNL     1      28.237  14.572  10.734  1.00  0.00     0.116 C 
BRANCH   3   4
ATOM      4  N   UNL     1      26.763  14.572  10.772  1.00  0.00    -0.312 NA
ATOM      5  H   UNL     1      26.394  14.229   9.855  1.00  0.00     0.123 HD
BRANCH   4   6
ATOM      6  C   UNL     1      26.199  15.895  11.117  1.00  0.00     0.047 C 
ATOM      7  C   UNL     1      24.899  15.737  11.919  1.00  0.00     0.024 C 
ATOM      8  C   UNL     1      27.219  16.688  11.941  1.00  0.00     0.024 C 
ENDBRANCH   4   6
ENDBRANCH   3   4
ENDBRANCH   2   3
BRANCH   2   9
ATOM      9  O   UNL     1      29.241  12.856   9.328  1.00  0.00    -0.388 OA
ATOM     10  H   UNL     1      30.224  12.715   9.345  1.00  0.00     0.211 HD
ENDBRANCH   2   9
ENDBRANCH   1   2
BRANCH   1  11
ATOM     11  O   UNL     1      26.988  11.696  10.036  1.00  0.00    -0.487 OA
BRANCH  11  12
ATOM     12  C   UNL     1      26.038  10.665  10.096  1.00  0.00     0.161 A 
ATOM     13  C   UNL     1      24.717  10.890  10.530  1.00  0.00     0.050 A 
ATOM     14  C   UNL     1      26.432   9.373   9.710  1.00  0.00     0.161 A 
ATOM     15  C   UNL     1      23.801   9.836  10.577  1.00  0.00     0.004 A 
ATOM     16  C   UNL     1      25.497   8.318   9.761  1.00  0.00     0.050 A 
ATOM     17  C   UNL     1      24.191   8.554  10.193  1.00  0.00     0.004 A 
BRANCH  14  18
ATOM     18  O   UNL     1      27.757   9.182   9.282  1.00  0.00    -0.486 OA
BRANCH  18  19
ATOM     19  C   UNL     1      28.341   7.927   8.934  1.00  0.00     0.257 C 
BRANCH  19  20
ATOM     20  C   UNL     1      29.808   7.916   9.253  1.00  0.00     0.006 C 
ATOM     21  C   UNL     1      30.464   9.049   9.515  1.00  0.00     0.007 C 
ENDBRANCH  19  20
ENDBRANCH  18  19
ENDBRANCH  14  18
ENDBRANCH  11  12
ENDBRANCH   1  11
TORSDOF 10
ENDMDL
