MODEL 1
REMARK VINA RESULT:    -6.412      0.000      0.000
REMARK INTER + INTRA:          -8.760
REMARK INTER:                  -8.098
REMARK INTRA:                  -0.661
REMARK UNBOUND:                -0.661
REMARK SMILES C=C[C@@]1(C)CC(=O)[C@]2(O)[C@@]3(C)[C@@H](O)CCC(C)(C)[C@@H]3[C@H](O)[C@H](OC(C)=O)[C@@]2(C)O1
REMARK SMILES IDX 12 1 14 2 15 3 16 4 17 5 18 6 19 7 20 8 22 9 27 10 28 11
REMARK SMILES IDX 29 12 3 13 4 14 5 15 6 16 7 17 8 18 10 19 11 20 13 21 9 23
REMARK SMILES IDX 21 25 23 27 24 28 25 29 26 30 2 31 1 32
REMARK H PARENT 13 22 9 24 21 26
REMARK Flexibility Score: inf
ROOT
ATOM      1  C   UNL     1      23.358  39.109  -8.286  1.00  0.00     0.124 C 
ATOM      2  C   UNL     1      24.049  37.939  -7.555  1.00  0.00     0.033 C 
ATOM      3  C   UNL     1      24.168  38.201  -6.054  1.00  0.00     0.009 C 
ATOM      4  C   UNL     1      22.799  38.447  -5.366  1.00  0.00    -0.029 C 
ATOM      5  C   UNL     1      23.108  38.900  -3.915  1.00  0.00     0.011 C 
ATOM      6  C   UNL     1      22.034  37.102  -5.257  1.00  0.00     0.011 C 
ATOM      7  C   UNL     1      22.028  39.599  -6.145  1.00  0.00     0.039 C 
ATOM      8  C   UNL     1      20.719  40.106  -5.457  1.00  0.00     0.162 C 
ATOM      9  C   UNL     1      20.134  41.368  -6.147  1.00  0.00     0.240 C 
ATOM     10  C   UNL     1      19.977  41.273  -7.696  1.00  0.00     0.142 C 
ATOM     11  C   UNL     1      18.749  40.373  -8.035  1.00  0.00     0.050 C 
ATOM     12  O   UNL     1      19.695  42.612  -8.112  1.00  0.00    -0.357 OA
ATOM     13  C   UNL     1      19.604  42.900  -9.516  1.00  0.00     0.091 C 
ATOM     14  C   UNL     1      18.147  42.723 -10.010  1.00  0.00     0.047 C 
ATOM     15  C   UNL     1      20.589  42.097 -10.441  1.00  0.00     0.118 C 
ATOM     16  C   UNL     1      21.132  40.847  -9.825  1.00  0.00     0.171 C 
ATOM     17  O   UNL     1      21.505  39.940 -10.553  1.00  0.00    -0.296 OA
ATOM     18  C   UNL     1      21.349  40.825  -8.318  1.00  0.00     0.163 C 
ATOM     19  C   UNL     1      21.910  39.434  -7.721  1.00  0.00     0.038 C 
ATOM     20  C   UNL     1      20.975  38.238  -8.123  1.00  0.00     0.018 C 
ENDROOT
BRANCH   1  21
ATOM     21  O   UNL     1      24.209  40.225  -8.204  1.00  0.00    -0.392 OA
ATOM     22  H   UNL     1      23.638  41.037  -8.243  1.00  0.00     0.210 HD
ENDBRANCH   1  21
BRANCH  18  23
ATOM     23  O   UNL     1      22.262  41.859  -7.979  1.00  0.00    -0.378 OA
ATOM     24  H   UNL     1      22.240  42.594  -8.646  1.00  0.00     0.212 HD
ENDBRANCH  18  23
BRANCH   8  25
ATOM     25  O   UNL     1      19.754  39.095  -5.344  1.00  0.00    -0.389 OA
ATOM     26  H   UNL     1      19.146  39.173  -6.126  1.00  0.00     0.211 HD
ENDBRANCH   8  25
BRANCH   9  27
ATOM     27  O   UNL     1      18.878  41.724  -5.558  1.00  0.00    -0.457 OA
BRANCH  27  28
ATOM     28  C   UNL     1      18.689  42.841  -4.739  1.00  0.00     0.303 C 
ATOM     29  C   UNL     1      18.150  44.097  -5.333  1.00  0.00     0.139 C 
ATOM     30  O   UNL     1      19.014  42.816  -3.521  1.00  0.00    -0.253 OA
ENDBRANCH  27  28
ENDBRANCH   9  27
BRANCH  13  31
ATOM     31  C   UNL     1      19.923  44.386  -9.655  1.00  0.00     0.000 C 
ATOM     32  C   UNL     1      20.739  45.022  -8.807  1.00  0.00     0.007 C 
ENDBRANCH  13  31
TORSDOF 6
ENDMDL
MODEL 2
REMARK VINA RESULT:    -6.290      1.782      5.767
REMARK INTER + INTRA:          -8.606
REMARK INTER:                  -8.051
REMARK INTRA:                  -0.556
REMARK UNBOUND:                -0.661
REMARK SMILES C=C[C@@]1(C)CC(=O)[C@]2(O)[C@@]3(C)[C@@H](O)CCC(C)(C)[C@@H]3[C@H](O)[C@H](OC(C)=O)[C@@]2(C)O1
REMARK SMILES IDX 12 1 14 2 15 3 16 4 17 5 18 6 19 7 20 8 22 9 27 10 28 11
REMARK SMILES IDX 29 12 3 13 4 14 5 15 6 16 7 17 8 18 10 19 11 20 13 21 9 23
REMARK SMILES IDX 21 25 23 27 24 28 25 29 26 30 2 31 1 32
REMARK H PARENT 13 22 9 24 21 26
REMARK Flexibility Score: inf
ROOT
ATOM      1  C   UNL     1      18.277  41.452 -11.342  1.00  0.00     0.124 C 
ATOM      2  C   UNL     1      17.367  42.583 -11.867  1.00  0.00     0.033 C 
ATOM      3  C   UNL     1      16.348  43.022 -10.816  1.00  0.00     0.009 C 
ATOM      4  C   UNL     1      17.003  43.513  -9.497  1.00  0.00    -0.029 C 
ATOM      5  C   UNL     1      15.849  43.716  -8.480  1.00  0.00     0.011 C 
ATOM      6  C   UNL     1      17.637  44.910  -9.732  1.00  0.00     0.011 C 
ATOM      7  C   UNL     1      18.006  42.398  -8.970  1.00  0.00     0.039 C 
ATOM      8  C   UNL     1      18.594  42.653  -7.544  1.00  0.00     0.162 C 
ATOM      9  C   UNL     1      19.388  41.435  -7.001  1.00  0.00     0.240 C 
ATOM     10  C   UNL     1      20.455  40.843  -7.974  1.00  0.00     0.142 C 
ATOM     11  C   UNL     1      21.697  41.786  -8.011  1.00  0.00     0.050 C 
ATOM     12  O   UNL     1      20.838  39.601  -7.375  1.00  0.00    -0.357 OA
ATOM     13  C   UNL     1      21.739  38.736  -8.084  1.00  0.00     0.091 C 
ATOM     14  C   UNL     1      23.207  39.063  -7.711  1.00  0.00     0.047 C 
ATOM     15  C   UNL     1      21.572  38.711  -9.646  1.00  0.00     0.118 C 
ATOM     16  C   UNL     1      20.854  39.898 -10.208  1.00  0.00     0.171 C 
ATOM     17  O   UNL     1      21.061  40.222 -11.368  1.00  0.00    -0.296 OA
ATOM     18  C   UNL     1      19.774  40.552  -9.359  1.00  0.00     0.163 C 
ATOM     19  C   UNL     1      19.063  41.842 -10.018  1.00  0.00     0.038 C 
ATOM     20  C   UNL     1      20.131  42.924 -10.413  1.00  0.00     0.018 C 
ENDROOT
BRANCH   1  21
ATOM     21  O   UNL     1      17.475  40.314 -11.152  1.00  0.00    -0.392 OA
ATOM     22  H   UNL     1      17.859  39.585 -11.707  1.00  0.00     0.210 HD
ENDBRANCH   1  21
BRANCH  18  23
ATOM     23  O   UNL     1      18.773  39.583  -9.080  1.00  0.00    -0.378 OA
ATOM     24  H   UNL     1      19.171  38.733  -8.756  1.00  0.00     0.212 HD
ENDBRANCH  18  23
BRANCH   8  25
ATOM     25  O   UNL     1      19.362  43.825  -7.490  1.00  0.00    -0.389 OA
ATOM     26  H   UNL     1      18.853  44.539  -7.957  1.00  0.00     0.211 HD
ENDBRANCH   8  25
BRANCH   9  27
ATOM     27  O   UNL     1      20.005  41.757  -5.749  1.00  0.00    -0.457 OA
BRANCH  27  28
ATOM     28  C   UNL     1      19.465  41.420  -4.504  1.00  0.00     0.303 C 
ATOM     29  C   UNL     1      19.489  39.998  -4.060  1.00  0.00     0.139 C 
ATOM     30  O   UNL     1      18.915  42.293  -3.778  1.00  0.00    -0.253 OA
ENDBRANCH  27  28
ENDBRANCH   9  27
BRANCH  13  31
ATOM     31  C   UNL     1      21.468  37.332  -7.552  1.00  0.00     0.000 C 
ATOM     32  C   UNL     1      21.909  36.925  -6.355  1.00  0.00     0.007 C 
ENDBRANCH  13  31
TORSDOF 6
ENDMDL
MODEL 3
REMARK VINA RESULT:    -6.256      2.140      4.940
REMARK INTER + INTRA:          -8.563
REMARK INTER:                  -8.728
REMARK INTRA:                   0.165
REMARK UNBOUND:                -0.661
REMARK SMILES C=C[C@@]1(C)CC(=O)[C@]2(O)[C@@]3(C)[C@@H](O)CCC(C)(C)[C@@H]3[C@H](O)[C@H](OC(C)=O)[C@@]2(C)O1
REMARK SMILES IDX 12 1 14 2 15 3 16 4 17 5 18 6 19 7 20 8 22 9 27 10 28 11
REMARK SMILES IDX 29 12 3 13 4 14 5 15 6 16 7 17 8 18 10 19 11 20 13 21 9 23
REMARK SMILES IDX 21 25 23 27 24 28 25 29 26 30 2 31 1 32
REMARK H PARENT 13 22 9 24 21 26
REMARK Flexibility Score: inf
ROOT
ATOM      1  C   UNL     1      21.057  40.112  -5.965  1.00  0.00     0.124 C 
ATOM      2  C   UNL     1      21.915  39.458  -4.862  1.00  0.00     0.033 C 
ATOM      3  C   UNL     1      21.821  37.933  -4.902  1.00  0.00     0.009 C 
ATOM      4  C   UNL     1      22.259  37.329  -6.263  1.00  0.00    -0.029 C 
ATOM      5  C   UNL     1      21.907  35.819  -6.209  1.00  0.00     0.011 C 
ATOM      6  C   UNL     1      23.802  37.421  -6.389  1.00  0.00     0.011 C 
ATOM      7  C   UNL     1      21.444  38.039  -7.429  1.00  0.00     0.039 C 
ATOM      8  C   UNL     1      21.622  37.402  -8.846  1.00  0.00     0.162 C 
ATOM      9  C   UNL     1      20.642  37.997  -9.893  1.00  0.00     0.240 C 
ATOM     10  C   UNL     1      20.595  39.555  -9.957  1.00  0.00     0.142 C 
ATOM     11  C   UNL     1      21.873  40.080 -10.681  1.00  0.00     0.050 C 
ATOM     12  O   UNL     1      19.454  39.848 -10.769  1.00  0.00    -0.357 OA
ATOM     13  C   UNL     1      19.054  41.217 -10.940  1.00  0.00     0.091 C 
ATOM     14  C   UNL     1      19.758  41.835 -12.172  1.00  0.00     0.047 C 
ATOM     15  C   UNL     1      19.247  42.144  -9.685  1.00  0.00     0.118 C 
ATOM     16  C   UNL     1      20.225  41.623  -8.679  1.00  0.00     0.171 C 
ATOM     17  O   UNL     1      20.792  42.413  -7.940  1.00  0.00    -0.296 OA
ATOM     18  C   UNL     1      20.347  40.116  -8.510  1.00  0.00     0.163 C 
ATOM     19  C   UNL     1      21.440  39.627  -7.428  1.00  0.00     0.038 C 
ATOM     20  C   UNL     1      22.855  40.223  -7.759  1.00  0.00     0.018 C 
ENDROOT
BRANCH   1  21
ATOM     21  O   UNL     1      19.708  39.848  -5.668  1.00  0.00    -0.392 OA
ATOM     22  H   UNL     1      19.648  38.899  -5.380  1.00  0.00     0.210 HD
ENDBRANCH   1  21
BRANCH  18  23
ATOM     23  O   UNL     1      19.079  39.601  -8.129  1.00  0.00    -0.378 OA
ATOM     24  H   UNL     1      18.711  38.992  -8.822  1.00  0.00     0.212 HD
ENDBRANCH  18  23
BRANCH   8  25
ATOM     25  O   UNL     1      22.948  37.471  -9.295  1.00  0.00    -0.389 OA
ATOM     26  H   UNL     1      23.538  37.397  -8.499  1.00  0.00     0.211 HD
ENDBRANCH   8  25
BRANCH   9  27
ATOM     27  O   UNL     1      20.921  37.471 -11.196  1.00  0.00    -0.457 OA
BRANCH  27  28
ATOM     28  C   UNL     1      21.554  36.245 -11.422  1.00  0.00     0.303 C 
ATOM     29  C   UNL     1      22.591  36.146 -12.488  1.00  0.00     0.139 C 
ATOM     30  O   UNL     1      21.223  35.215 -10.774  1.00  0.00    -0.253 OA
ENDBRANCH  27  28
ENDBRANCH   9  27
BRANCH  13  31
ATOM     31  C   UNL     1      17.566  41.174 -11.276  1.00  0.00     0.000 C 
ATOM     32  C   UNL     1      16.621  41.449 -10.368  1.00  0.00     0.007 C 
ENDBRANCH  13  31
TORSDOF 6
ENDMDL
MODEL 4
REMARK VINA RESULT:    -6.227      2.063      6.839
REMARK INTER + INTRA:          -8.526
REMARK INTER:                  -7.947
REMARK INTRA:                  -0.579
REMARK UNBOUND:                -0.661
REMARK SMILES C=C[C@@]1(C)CC(=O)[C@]2(O)[C@@]3(C)[C@@H](O)CCC(C)(C)[C@@H]3[C@H](O)[C@H](OC(C)=O)[C@@]2(C)O1
REMARK SMILES IDX 12 1 14 2 15 3 16 4 17 5 18 6 19 7 20 8 22 9 27 10 28 11
REMARK SMILES IDX 29 12 3 13 4 14 5 15 6 16 7 17 8 18 10 19 11 20 13 21 9 23
REMARK SMILES IDX 21 25 23 27 24 28 25 29 26 30 2 31 1 32
REMARK H PARENT 13 22 9 24 21 26
REMARK Flexibility Score: inf
ROOT
ATOM      1  C   UNL     1      20.770  42.078  -8.509  1.00  0.00     0.124 C 
ATOM      2  C   UNL     1      19.952  42.998  -9.441  1.00  0.00     0.033 C 
ATOM      3  C   UNL     1      20.360  42.826 -10.904  1.00  0.00     0.009 C 
ATOM      4  C   UNL     1      20.200  41.370 -11.416  1.00  0.00    -0.029 C 
ATOM      5  C   UNL     1      20.846  41.325 -12.826  1.00  0.00     0.011 C 
ATOM      6  C   UNL     1      18.693  41.059 -11.608  1.00  0.00     0.011 C 
ATOM      7  C   UNL     1      20.970  40.388 -10.431  1.00  0.00     0.039 C 
ATOM      8  C   UNL     1      21.077  38.906 -10.919  1.00  0.00     0.162 C 
ATOM      9  C   UNL     1      22.019  38.052 -10.028  1.00  0.00     0.240 C 
ATOM     10  C   UNL     1      21.752  38.142  -8.494  1.00  0.00     0.142 C 
ATOM     11  C   UNL     1      20.477  37.315  -8.143  1.00  0.00     0.050 C 
ATOM     12  O   UNL     1      22.888  37.512  -7.894  1.00  0.00    -0.357 OA
ATOM     13  C   UNL     1      23.015  37.523  -6.463  1.00  0.00     0.091 C 
ATOM     14  C   UNL     1      22.333  36.275  -5.851  1.00  0.00     0.047 C 
ATOM     15  C   UNL     1      22.506  38.824  -5.745  1.00  0.00     0.118 C 
ATOM     16  C   UNL     1      21.555  39.646  -6.557  1.00  0.00     0.171 C 
ATOM     17  O   UNL     1      20.764  40.378  -5.984  1.00  0.00    -0.296 OA
ATOM     18  C   UNL     1      21.727  39.655  -8.070  1.00  0.00     0.163 C 
ATOM     19  C   UNL     1      20.649  40.539  -8.883  1.00  0.00     0.038 C 
ATOM     20  C   UNL     1      19.185  40.090  -8.535  1.00  0.00     0.018 C 
ENDROOT
BRANCH   1  21
ATOM     21  O   UNL     1      22.105  42.517  -8.542  1.00  0.00    -0.392 OA
ATOM     22  H   UNL     1      22.212  43.194  -7.822  1.00  0.00     0.210 HD
ENDBRANCH   1  21
BRANCH  18  23
ATOM     23  O   UNL     1      23.027  40.143  -8.373  1.00  0.00    -0.378 OA
ATOM     24  H   UNL     1      23.034  41.134  -8.443  1.00  0.00     0.212 HD
ENDBRANCH  18  23
BRANCH   8  25
ATOM     25  O   UNL     1      19.819  38.302 -11.055  1.00  0.00    -0.389 OA
ATOM     26  H   UNL     1      19.937  37.484 -11.604  1.00  0.00     0.211 HD
ENDBRANCH   8  25
BRANCH   9  27
ATOM     27  O   UNL     1      21.992  36.681 -10.441  1.00  0.00    -0.457 OA
BRANCH  27  28
ATOM     28  C   UNL     1      23.040  36.049 -11.117  1.00  0.00     0.303 C 
ATOM     29  C   UNL     1      24.156  35.448 -10.332  1.00  0.00     0.139 C 
ATOM     30  O   UNL     1      23.079  36.026 -12.377  1.00  0.00    -0.253 OA
ENDBRANCH  27  28
ENDBRANCH   9  27
BRANCH  13  31
ATOM     31  C   UNL     1      24.508  37.375  -6.180  1.00  0.00     0.000 C 
ATOM     32  C   UNL     1      25.161  36.223  -6.382  1.00  0.00     0.007 C 
ENDBRANCH  13  31
TORSDOF 6
ENDMDL
MODEL 5
REMARK VINA RESULT:    -5.965      4.524      7.805
REMARK INTER + INTRA:          -8.195
REMARK INTER:                  -7.725
REMARK INTRA:                  -0.470
REMARK UNBOUND:                -0.661
REMARK SMILES C=C[C@@]1(C)CC(=O)[C@]2(O)[C@@]3(C)[C@@H](O)CCC(C)(C)[C@@H]3[C@H](O)[C@H](OC(C)=O)[C@@]2(C)O1
REMARK SMILES IDX 12 1 14 2 15 3 16 4 17 5 18 6 19 7 20 8 22 9 27 10 28 11
REMARK SMILES IDX 29 12 3 13 4 14 5 15 6 16 7 17 8 18 10 19 11 20 13 21 9 23
REMARK SMILES IDX 21 25 23 27 24 28 25 29 26 30 2 31 1 32
REMARK H PARENT 13 22 9 24 21 26
REMARK Flexibility Score: inf
ROOT
ATOM      1  C   UNL     1      17.514  41.542 -10.289  1.00  0.00     0.124 C 
ATOM      2  C   UNL     1      18.201  41.615  -8.909  1.00  0.00     0.033 C 
ATOM      3  C   UNL     1      18.982  40.338  -8.598  1.00  0.00     0.009 C 
ATOM      4  C   UNL     1      20.072  40.016  -9.654  1.00  0.00    -0.029 C 
ATOM      5  C   UNL     1      20.616  38.604  -9.310  1.00  0.00     0.011 C 
ATOM      6  C   UNL     1      21.257  41.002  -9.480  1.00  0.00     0.011 C 
ATOM      7  C   UNL     1      19.408  40.009 -11.099  1.00  0.00     0.039 C 
ATOM      8  C   UNL     1      20.333  39.501 -12.252  1.00  0.00     0.162 C 
ATOM      9  C   UNL     1      19.567  39.313 -13.590  1.00  0.00     0.240 C 
ATOM     10  C   UNL     1      18.691  40.524 -14.036  1.00  0.00     0.142 C 
ATOM     11  C   UNL     1      19.615  41.653 -14.588  1.00  0.00     0.050 C 
ATOM     12  O   UNL     1      17.895  40.016 -15.111  1.00  0.00    -0.357 OA
ATOM     13  C   UNL     1      16.882  40.857 -15.685  1.00  0.00     0.091 C 
ATOM     14  C   UNL     1      17.466  41.680 -16.860  1.00  0.00     0.047 C 
ATOM     15  C   UNL     1      16.135  41.807 -14.679  1.00  0.00     0.118 C 
ATOM     16  C   UNL     1      16.870  42.050 -13.399  1.00  0.00     0.171 C 
ATOM     17  O   UNL     1      16.648  43.075 -12.773  1.00  0.00    -0.296 OA
ATOM     18  C   UNL     1      17.745  40.932 -12.850  1.00  0.00     0.163 C 
ATOM     19  C   UNL     1      18.529  41.275 -11.482  1.00  0.00     0.038 C 
ATOM     20  C   UNL     1      19.399  42.572 -11.650  1.00  0.00     0.018 C 
ENDROOT
BRANCH   1  21
ATOM     21  O   UNL     1      16.523  40.548 -10.220  1.00  0.00    -0.392 OA
ATOM     22  H   UNL     1      16.390  40.197 -11.140  1.00  0.00     0.210 HD
ENDBRANCH   1  21
BRANCH  18  23
ATOM     23  O   UNL     1      16.928  39.791 -12.623  1.00  0.00    -0.378 OA
ATOM     24  H   UNL     1      16.647  39.730 -11.673  1.00  0.00     0.212 HD
ENDBRANCH  18  23
BRANCH   8  25
ATOM     25  O   UNL     1      21.462  40.315 -12.423  1.00  0.00    -0.389 OA
ATOM     26  H   UNL     1      21.445  41.005 -11.709  1.00  0.00     0.211 HD
ENDBRANCH   8  25
BRANCH   9  27
ATOM     27  O   UNL     1      20.474  38.963 -14.641  1.00  0.00    -0.457 OA
BRANCH  27  28
ATOM     28  C   UNL     1      20.383  37.785 -15.390  1.00  0.00     0.303 C 
ATOM     29  C   UNL     1      21.293  37.589 -16.554  1.00  0.00     0.139 C 
ATOM     30  O   UNL     1      19.512  36.913 -15.123  1.00  0.00    -0.253 OA
ENDBRANCH  27  28
ENDBRANCH   9  27
BRANCH  13  31
ATOM     31  C   UNL     1      15.856  39.909 -16.298  1.00  0.00     0.000 C 
ATOM     32  C   UNL     1      14.574  39.899 -15.911  1.00  0.00     0.007 C 
ENDBRANCH  13  31
TORSDOF 6
ENDMDL
MODEL 6
REMARK VINA RESULT:    -5.942      5.057      7.879
REMARK INTER + INTRA:          -8.166
REMARK INTER:                  -7.516
REMARK INTRA:                  -0.650
REMARK UNBOUND:                -0.661
REMARK SMILES C=C[C@@]1(C)CC(=O)[C@]2(O)[C@@]3(C)[C@@H](O)CCC(C)(C)[C@@H]3[C@H](O)[C@H](OC(C)=O)[C@@]2(C)O1
REMARK SMILES IDX 12 1 14 2 15 3 16 4 17 5 18 6 19 7 20 8 22 9 27 10 28 11
REMARK SMILES IDX 29 12 3 13 4 14 5 15 6 16 7 17 8 18 10 19 11 20 13 21 9 23
REMARK SMILES IDX 21 25 23 27 24 28 25 29 26 30 2 31 1 32
REMARK H PARENT 13 22 9 24 21 26
REMARK Flexibility Score: inf
ROOT
ATOM      1  C   UNL     1      23.496  41.434 -15.511  1.00  0.00     0.124 C 
ATOM      2  C   UNL     1      24.693  41.138 -16.440  1.00  0.00     0.033 C 
ATOM      3  C   UNL     1      25.633  40.095 -15.835  1.00  0.00     0.009 C 
ATOM      4  C   UNL     1      24.931  38.747 -15.522  1.00  0.00    -0.029 C 
ATOM      5  C   UNL     1      25.954  37.889 -14.732  1.00  0.00     0.011 C 
ATOM      6  C   UNL     1      24.654  37.996 -16.850  1.00  0.00     0.011 C 
ATOM      7  C   UNL     1      23.647  39.028 -14.627  1.00  0.00     0.039 C 
ATOM      8  C   UNL     1      22.944  37.753 -14.056  1.00  0.00     0.162 C 
ATOM      9  C   UNL     1      21.837  38.097 -13.022  1.00  0.00     0.240 C 
ATOM     10  C   UNL     1      20.807  39.177 -13.478  1.00  0.00     0.142 C 
ATOM     11  C   UNL     1      19.817  38.544 -14.503  1.00  0.00     0.050 C 
ATOM     12  O   UNL     1      20.086  39.510 -12.288  1.00  0.00    -0.357 OA
ATOM     13  C   UNL     1      19.121  40.572 -12.334  1.00  0.00     0.091 C 
ATOM     14  C   UNL     1      17.724  40.017 -12.706  1.00  0.00     0.047 C 
ATOM     15  C   UNL     1      19.486  41.784 -13.265  1.00  0.00     0.118 C 
ATOM     16  C   UNL     1      20.514  41.473 -14.307  1.00  0.00     0.171 C 
ATOM     17  O   UNL     1      20.540  42.137 -15.332  1.00  0.00    -0.296 OA
ATOM     18  C   UNL     1      21.588  40.447 -13.972  1.00  0.00     0.163 C 
ATOM     19  C   UNL     1      22.645  40.142 -15.153  1.00  0.00     0.038 C 
ATOM     20  C   UNL     1      21.901  39.698 -16.464  1.00  0.00     0.018 C 
ENDROOT
BRANCH   1  21
ATOM     21  O   UNL     1      23.998  42.060 -14.356  1.00  0.00    -0.392 OA
ATOM     22  H   UNL     1      24.393  42.927 -14.637  1.00  0.00     0.210 HD
ENDBRANCH   1  21
BRANCH  18  23
ATOM     23  O   UNL     1      22.307  40.903 -12.835  1.00  0.00    -0.378 OA
ATOM     24  H   UNL     1      22.171  40.303 -12.056  1.00  0.00     0.212 HD
ENDBRANCH  18  23
BRANCH   8  25
ATOM     25  O   UNL     1      22.450  36.922 -15.072  1.00  0.00    -0.389 OA
ATOM     26  H   UNL     1      21.706  37.405 -15.519  1.00  0.00     0.211 HD
ENDBRANCH   8  25
BRANCH   9  27
ATOM     27  O   UNL     1      21.144  36.911 -12.619  1.00  0.00    -0.457 OA
BRANCH  27  28
ATOM     28  C   UNL     1      21.383  36.239 -11.416  1.00  0.00     0.303 C 
ATOM     29  C   UNL     1      21.064  36.916 -10.127  1.00  0.00     0.139 C 
ATOM     30  O   UNL     1      21.909  35.093 -11.406  1.00  0.00    -0.253 OA
ENDBRANCH  27  28
ENDBRANCH   9  27
BRANCH  13  31
ATOM     31  C   UNL     1      19.006  41.089 -10.902  1.00  0.00     0.000 C 
ATOM     32  C   UNL     1      19.653  40.512  -9.882  1.00  0.00     0.007 C 
ENDBRANCH  13  31
TORSDOF 6
ENDMDL
MODEL 7
REMARK VINA RESULT:    -5.875      1.899      5.740
REMARK INTER + INTRA:          -8.081
REMARK INTER:                  -7.600
REMARK INTRA:                  -0.481
REMARK UNBOUND:                -0.661
REMARK SMILES C=C[C@@]1(C)CC(=O)[C@]2(O)[C@@]3(C)[C@@H](O)CCC(C)(C)[C@@H]3[C@H](O)[C@H](OC(C)=O)[C@@]2(C)O1
REMARK SMILES IDX 12 1 14 2 15 3 16 4 17 5 18 6 19 7 20 8 22 9 27 10 28 11
REMARK SMILES IDX 29 12 3 13 4 14 5 15 6 16 7 17 8 18 10 19 11 20 13 21 9 23
REMARK SMILES IDX 21 25 23 27 24 28 25 29 26 30 2 31 1 32
REMARK H PARENT 13 22 9 24 21 26
REMARK Flexibility Score: inf
ROOT
ATOM      1  C   UNL     1      17.581  42.812  -9.978  1.00  0.00     0.124 C 
ATOM      2  C   UNL     1      16.812  44.116  -9.677  1.00  0.00     0.033 C 
ATOM      3  C   UNL     1      16.240  44.120  -8.259  1.00  0.00     0.009 C 
ATOM      4  C   UNL     1      17.324  43.944  -7.163  1.00  0.00    -0.029 C 
ATOM      5  C   UNL     1      16.568  43.759  -5.820  1.00  0.00     0.011 C 
ATOM      6  C   UNL     1      18.139  45.257  -7.035  1.00  0.00     0.011 C 
ATOM      7  C   UNL     1      18.184  42.647  -7.489  1.00  0.00     0.039 C 
ATOM      8  C   UNL     1      19.187  42.216  -6.369  1.00  0.00     0.162 C 
ATOM      9  C   UNL     1      19.834  40.832  -6.650  1.00  0.00     0.240 C 
ATOM     10  C   UNL     1      20.441  40.654  -8.076  1.00  0.00     0.142 C 
ATOM     11  C   UNL     1      21.789  41.434  -8.163  1.00  0.00     0.050 C 
ATOM     12  O   UNL     1      20.713  39.253  -8.179  1.00  0.00    -0.357 OA
ATOM     13  C   UNL     1      21.183  38.726  -9.429  1.00  0.00     0.091 C 
ATOM     14  C   UNL     1      22.730  38.759  -9.482  1.00  0.00     0.047 C 
ATOM     15  C   UNL     1      20.583  39.395 -10.718  1.00  0.00     0.118 C 
ATOM     16  C   UNL     1      19.996  40.752 -10.493  1.00  0.00     0.171 C 
ATOM     17  O   UNL     1      19.932  41.534 -11.429  1.00  0.00    -0.296 OA
ATOM     18  C   UNL     1      19.354  41.041  -9.143  1.00  0.00     0.163 C 
ATOM     19  C   UNL     1      18.768  42.534  -8.961  1.00  0.00     0.038 C 
ATOM     20  C   UNL     1      19.881  43.606  -9.241  1.00  0.00     0.018 C 
ENDROOT
BRANCH   1  21
ATOM     21  O   UNL     1      16.648  41.761  -9.987  1.00  0.00    -0.392 OA
ATOM     22  H   UNL     1      16.590  41.423 -10.920  1.00  0.00     0.210 HD
ENDBRANCH   1  21
BRANCH  18  23
ATOM     23  O   UNL     1      18.295  40.116  -8.941  1.00  0.00    -0.378 OA
ATOM     24  H   UNL     1      18.639  39.192  -8.821  1.00  0.00     0.212 HD
ENDBRANCH  18  23
BRANCH   8  25
ATOM     25  O   UNL     1      20.162  43.193  -6.127  1.00  0.00    -0.389 OA
ATOM     26  H   UNL     1      19.828  44.049  -6.504  1.00  0.00     0.211 HD
ENDBRANCH   8  25
BRANCH   9  27
ATOM     27  O   UNL     1      20.829  40.536  -5.664  1.00  0.00    -0.457 OA
BRANCH  27  28
ATOM     28  C   UNL     1      20.656  39.600  -4.639  1.00  0.00     0.303 C 
ATOM     29  C   UNL     1      21.681  38.535  -4.444  1.00  0.00     0.139 C 
ATOM     30  O   UNL     1      19.625  39.614  -3.914  1.00  0.00    -0.253 OA
ENDBRANCH  27  28
ENDBRANCH   9  27
BRANCH  13  31
ATOM     31  C   UNL     1      20.789  37.251  -9.429  1.00  0.00     0.000 C 
ATOM     32  C   UNL     1      21.134  36.422 -10.422  1.00  0.00     0.007 C 
ENDBRANCH  13  31
TORSDOF 6
ENDMDL
MODEL 8
REMARK VINA RESULT:    -5.811      4.065      7.095
REMARK INTER + INTRA:          -8.001
REMARK INTER:                  -7.503
REMARK INTRA:                  -0.498
REMARK UNBOUND:                -0.661
REMARK SMILES C=C[C@@]1(C)CC(=O)[C@]2(O)[C@@]3(C)[C@@H](O)CCC(C)(C)[C@@H]3[C@H](O)[C@H](OC(C)=O)[C@@]2(C)O1
REMARK SMILES IDX 12 1 14 2 15 3 16 4 17 5 18 6 19 7 20 8 22 9 27 10 28 11
REMARK SMILES IDX 29 12 3 13 4 14 5 15 6 16 7 17 8 18 10 19 11 20 13 21 9 23
REMARK SMILES IDX 21 25 23 27 24 28 25 29 26 30 2 31 1 32
REMARK H PARENT 13 22 9 24 21 26
REMARK Flexibility Score: inf
ROOT
ATOM      1  C   UNL     1      19.674  40.500  -9.529  1.00  0.00     0.124 C 
ATOM      2  C   UNL     1      21.026  39.773  -9.690  1.00  0.00     0.033 C 
ATOM      3  C   UNL     1      20.912  38.565 -10.619  1.00  0.00     0.009 C 
ATOM      4  C   UNL     1      20.399  38.932 -12.037  1.00  0.00    -0.029 C 
ATOM      5  C   UNL     1      20.142  37.591 -12.774  1.00  0.00     0.011 C 
ATOM      6  C   UNL     1      21.528  39.656 -12.817  1.00  0.00     0.011 C 
ATOM      7  C   UNL     1      19.042  39.750 -11.902  1.00  0.00     0.039 C 
ATOM      8  C   UNL     1      18.291  40.018 -13.247  1.00  0.00     0.162 C 
ATOM      9  C   UNL     1      16.878  40.624 -13.029  1.00  0.00     0.240 C 
ATOM     10  C   UNL     1      16.818  41.855 -12.072  1.00  0.00     0.142 C 
ATOM     11  C   UNL     1      17.372  43.111 -12.813  1.00  0.00     0.050 C 
ATOM     12  O   UNL     1      15.423  42.048 -11.821  1.00  0.00    -0.357 OA
ATOM     13  C   UNL     1      15.018  43.048 -10.874  1.00  0.00     0.091 C 
ATOM     14  C   UNL     1      14.806  44.408 -11.582  1.00  0.00     0.047 C 
ATOM     15  C   UNL     1      15.961  43.228  -9.629  1.00  0.00     0.118 C 
ATOM     16  C   UNL     1      17.347  42.700  -9.824  1.00  0.00     0.171 C 
ATOM     17  O   UNL     1      18.260  43.170  -9.163  1.00  0.00    -0.296 OA
ATOM     18  C   UNL     1      17.532  41.485 -10.722  1.00  0.00     0.163 C 
ATOM     19  C   UNL     1      19.057  40.989 -10.909  1.00  0.00     0.038 C 
ATOM     20  C   UNL     1      19.963  42.159 -11.434  1.00  0.00     0.018 C 
ENDROOT
BRANCH   1  21
ATOM     21  O   UNL     1      18.802  39.631  -8.850  1.00  0.00    -0.392 OA
ATOM     22  H   UNL     1      19.355  39.072  -8.243  1.00  0.00     0.210 HD
ENDBRANCH   1  21
BRANCH  18  23
ATOM     23  O   UNL     1      16.773  40.410 -10.188  1.00  0.00    -0.378 OA
ATOM     24  H   UNL     1      17.308  39.872  -9.546  1.00  0.00     0.212 HD
ENDBRANCH  18  23
BRANCH   8  25
ATOM     25  O   UNL     1      19.049  40.800 -14.130  1.00  0.00    -0.389 OA
ATOM     26  H   UNL     1      19.850  40.272 -14.386  1.00  0.00     0.211 HD
ENDBRANCH   8  25
BRANCH   9  27
ATOM     27  O   UNL     1      16.279  40.962 -14.285  1.00  0.00    -0.457 OA
BRANCH  27  28
ATOM     28  C   UNL     1      15.138  40.336 -14.798  1.00  0.00     0.303 C 
ATOM     29  C   UNL     1      14.761  40.563 -16.221  1.00  0.00     0.139 C 
ATOM     30  O   UNL     1      14.402  39.626 -14.061  1.00  0.00    -0.253 OA
ENDBRANCH  27  28
ENDBRANCH   9  27
BRANCH  13  31
ATOM     31  C   UNL     1      13.645  42.611 -10.372  1.00  0.00     0.000 C 
ATOM     32  C   UNL     1      12.820  41.861 -11.114  1.00  0.00     0.007 C 
ENDBRANCH  13  31
TORSDOF 6
ENDMDL
MODEL 9
REMARK VINA RESULT:    -5.596      1.970      4.779
REMARK INTER + INTRA:          -7.729
REMARK INTER:                  -7.198
REMARK INTRA:                  -0.532
REMARK UNBOUND:                -0.661
REMARK SMILES C=C[C@@]1(C)CC(=O)[C@]2(O)[C@@]3(C)[C@@H](O)CCC(C)(C)[C@@H]3[C@H](O)[C@H](OC(C)=O)[C@@]2(C)O1
REMARK SMILES IDX 12 1 14 2 15 3 16 4 17 5 18 6 19 7 20 8 22 9 27 10 28 11
REMARK SMILES IDX 29 12 3 13 4 14 5 15 6 16 7 17 8 18 10 19 11 20 13 21 9 23
REMARK SMILES IDX 21 25 23 27 24 28 25 29 26 30 2 31 1 32
REMARK H PARENT 13 22 9 24 21 26
REMARK Flexibility Score: inf
ROOT
ATOM      1  C   UNL     1      20.924  40.169  -5.974  1.00  0.00     0.124 C 
ATOM      2  C   UNL     1      22.049  39.264  -5.427  1.00  0.00     0.033 C 
ATOM      3  C   UNL     1      22.077  37.909  -6.132  1.00  0.00     0.009 C 
ATOM      4  C   UNL     1      22.267  38.023  -7.668  1.00  0.00    -0.029 C 
ATOM      5  C   UNL     1      22.063  36.597  -8.246  1.00  0.00     0.011 C 
ATOM      6  C   UNL     1      23.735  38.420  -7.974  1.00  0.00     0.011 C 
ATOM      7  C   UNL     1      21.167  39.011  -8.253  1.00  0.00     0.039 C 
ATOM      8  C   UNL     1      21.094  39.076  -9.814  1.00  0.00     0.162 C 
ATOM      9  C   UNL     1      19.868  39.884 -10.319  1.00  0.00     0.240 C 
ATOM     10  C   UNL     1      19.677  41.289  -9.669  1.00  0.00     0.142 C 
ATOM     11  C   UNL     1      20.724  42.279 -10.265  1.00  0.00     0.050 C 
ATOM     12  O   UNL     1      18.370  41.700 -10.078  1.00  0.00    -0.357 OA
ATOM     13  C   UNL     1      17.828  42.922  -9.553  1.00  0.00     0.091 C 
ATOM     14  C   UNL     1      18.201  44.115 -10.468  1.00  0.00     0.047 C 
ATOM     15  C   UNL     1      18.204  43.248  -8.062  1.00  0.00     0.118 C 
ATOM     16  C   UNL     1      19.412  42.524  -7.559  1.00  0.00     0.171 C 
ATOM     17  O   UNL     1      20.054  43.009  -6.640  1.00  0.00    -0.296 OA
ATOM     18  C   UNL     1      19.694  41.131  -8.105  1.00  0.00     0.163 C 
ATOM     19  C   UNL     1      21.029  40.423  -7.538  1.00  0.00     0.038 C 
ATOM     20  C   UNL     1      22.286  41.333  -7.778  1.00  0.00     0.018 C 
ENDROOT
BRANCH   1  21
ATOM     21  O   UNL     1      19.696  39.580  -5.626  1.00  0.00    -0.392 OA
ATOM     22  H   UNL     1      19.061  39.758  -6.368  1.00  0.00     0.210 HD
ENDBRANCH   1  21
BRANCH  18  23
ATOM     23  O   UNL     1      18.584  40.297  -7.808  1.00  0.00    -0.378 OA
ATOM     24  H   UNL     1      17.726  40.736  -8.048  1.00  0.00     0.212 HD
ENDBRANCH  18  23
BRANCH   8  25
ATOM     25  O   UNL     1      22.285  39.552 -10.380  1.00  0.00    -0.389 OA
ATOM     26  H   UNL     1      22.957  38.823 -10.322  1.00  0.00     0.211 HD
ENDBRANCH   8  25
BRANCH   9  27
ATOM     27  O   UNL     1      19.909  40.015 -11.745  1.00  0.00    -0.457 OA
BRANCH  27  28
ATOM     28  C   UNL     1      19.247  39.155 -12.627  1.00  0.00     0.303 C 
ATOM     29  C   UNL     1      19.964  37.958 -13.152  1.00  0.00     0.139 C 
ATOM     30  O   UNL     1      18.076  39.405 -13.021  1.00  0.00    -0.253 OA
ENDBRANCH  27  28
ENDBRANCH   9  27
BRANCH  13  31
ATOM     31  C   UNL     1      16.312  42.775  -9.642  1.00  0.00     0.000 C 
ATOM     32  C   UNL     1      15.731  41.784 -10.330  1.00  0.00     0.007 C 
ENDBRANCH  13  31
TORSDOF 6
ENDMDL
MODEL 10
REMARK VINA RESULT:    -5.589      4.030      7.962
REMARK INTER + INTRA:          -7.720
REMARK INTER:                  -7.109
REMARK INTRA:                  -0.612
REMARK UNBOUND:                -0.661
REMARK SMILES C=C[C@@]1(C)CC(=O)[C@]2(O)[C@@]3(C)[C@@H](O)CCC(C)(C)[C@@H]3[C@H](O)[C@H](OC(C)=O)[C@@]2(C)O1
REMARK SMILES IDX 12 1 14 2 15 3 16 4 17 5 18 6 19 7 20 8 22 9 27 10 28 11
REMARK SMILES IDX 29 12 3 13 4 14 5 15 6 16 7 17 8 18 10 19 11 20 13 21 9 23
REMARK SMILES IDX 21 25 23 27 24 28 25 29 26 30 2 31 1 32
REMARK H PARENT 13 22 9 24 21 26
REMARK Flexibility Score: inf
ROOT
ATOM      1  C   UNL     1      15.209  40.898 -14.228  1.00  0.00     0.124 C 
ATOM      2  C   UNL     1      13.920  41.741 -14.341  1.00  0.00     0.033 C 
ATOM      3  C   UNL     1      13.304  42.018 -12.970  1.00  0.00     0.009 C 
ATOM      4  C   UNL     1      14.268  42.754 -12.004  1.00  0.00    -0.029 C 
ATOM      5  C   UNL     1      13.577  42.768 -10.615  1.00  0.00     0.011 C 
ATOM      6  C   UNL     1      14.403  44.235 -12.446  1.00  0.00     0.011 C 
ATOM      7  C   UNL     1      15.637  41.949 -11.924  1.00  0.00     0.039 C 
ATOM      8  C   UNL     1      16.641  42.450 -10.836  1.00  0.00     0.162 C 
ATOM      9  C   UNL     1      17.854  41.497 -10.661  1.00  0.00     0.240 C 
ATOM     10  C   UNL     1      18.581  41.089 -11.981  1.00  0.00     0.142 C 
ATOM     11  C   UNL     1      19.444  42.287 -12.484  1.00  0.00     0.050 C 
ATOM     12  O   UNL     1      19.454  40.024 -11.596  1.00  0.00    -0.357 OA
ATOM     13  C   UNL     1      20.201  39.335 -12.611  1.00  0.00     0.091 C 
ATOM     14  C   UNL     1      21.571  40.021 -12.834  1.00  0.00     0.047 C 
ATOM     15  C   UNL     1      19.463  39.142 -13.986  1.00  0.00     0.118 C 
ATOM     16  C   UNL     1      18.319  40.080 -14.208  1.00  0.00     0.171 C 
ATOM     17  O   UNL     1      17.983  40.346 -15.352  1.00  0.00    -0.296 OA
ATOM     18  C   UNL     1      17.518  40.535 -12.996  1.00  0.00     0.163 C 
ATOM     19  C   UNL     1      16.317  41.567 -13.308  1.00  0.00     0.038 C 
ATOM     20  C   UNL     1      16.854  42.830 -14.072  1.00  0.00     0.018 C 
ENDROOT
BRANCH   1  21
ATOM     21  O   UNL     1      14.844  39.625 -13.757  1.00  0.00    -0.392 OA
ATOM     22  H   UNL     1      15.543  38.986 -14.059  1.00  0.00     0.210 HD
ENDBRANCH   1  21
BRANCH  18  23
ATOM     23  O   UNL     1      16.968  39.388 -12.363  1.00  0.00    -0.378 OA
ATOM     24  H   UNL     1      15.987  39.477 -12.239  1.00  0.00     0.212 HD
ENDBRANCH  18  23
BRANCH   8  25
ATOM     25  O   UNL     1      17.059  43.768 -11.068  1.00  0.00    -0.389 OA
ATOM     26  H   UNL     1      17.852  43.936 -10.494  1.00  0.00     0.211 HD
ENDBRANCH   8  25
BRANCH   9  27
ATOM     27  O   UNL     1      18.801  42.055  -9.744  1.00  0.00    -0.457 OA
BRANCH  27  28
ATOM     28  C   UNL     1      18.940  41.638  -8.416  1.00  0.00     0.303 C 
ATOM     29  C   UNL     1      19.616  40.342  -8.126  1.00  0.00     0.139 C 
ATOM     30  O   UNL     1      18.458  42.317  -7.469  1.00  0.00    -0.253 OA
ENDBRANCH  27  28
ENDBRANCH   9  27
BRANCH  13  31
ATOM     31  C   UNL     1      20.505  37.954 -12.036  1.00  0.00     0.000 C 
ATOM     32  C   UNL     1      20.837  37.775 -10.751  1.00  0.00     0.007 C 
ENDBRANCH  13  31
TORSDOF 6
ENDMDL
MODEL 11
REMARK VINA RESULT:    -5.512      2.658      5.396
REMARK INTER + INTRA:          -7.623
REMARK INTER:                  -7.177
REMARK INTRA:                  -0.446
REMARK UNBOUND:                -0.661
REMARK SMILES C=C[C@@]1(C)CC(=O)[C@]2(O)[C@@]3(C)[C@@H](O)CCC(C)(C)[C@@H]3[C@H](O)[C@H](OC(C)=O)[C@@]2(C)O1
REMARK SMILES IDX 12 1 14 2 15 3 16 4 17 5 18 6 19 7 20 8 22 9 27 10 28 11
REMARK SMILES IDX 29 12 3 13 4 14 5 15 6 16 7 17 8 18 10 19 11 20 13 21 9 23
REMARK SMILES IDX 21 25 23 27 24 28 25 29 26 30 2 31 1 32
REMARK H PARENT 13 22 9 24 21 26
REMARK Flexibility Score: inf
ROOT
ATOM      1  C   UNL     1      19.688  41.772 -13.435  1.00  0.00     0.124 C 
ATOM      2  C   UNL     1      19.712  40.804 -14.638  1.00  0.00     0.033 C 
ATOM      3  C   UNL     1      20.915  39.864 -14.582  1.00  0.00     0.009 C 
ATOM      4  C   UNL     1      20.965  39.011 -13.286  1.00  0.00    -0.029 C 
ATOM      5  C   UNL     1      22.334  38.280 -13.291  1.00  0.00     0.011 C 
ATOM      6  C   UNL     1      19.875  37.910 -13.358  1.00  0.00     0.011 C 
ATOM      7  C   UNL     1      20.865  39.977 -12.027  1.00  0.00     0.039 C 
ATOM      8  C   UNL     1      21.106  39.291 -10.643  1.00  0.00     0.162 C 
ATOM      9  C   UNL     1      21.210  40.315  -9.481  1.00  0.00     0.240 C 
ATOM     10  C   UNL     1      20.066  41.373  -9.416  1.00  0.00     0.142 C 
ATOM     11  C   UNL     1      18.773  40.700  -8.862  1.00  0.00     0.050 C 
ATOM     12  O   UNL     1      20.523  42.340  -8.466  1.00  0.00    -0.357 OA
ATOM     13  C   UNL     1      19.743  43.526  -8.249  1.00  0.00     0.091 C 
ATOM     14  C   UNL     1      18.711  43.295  -7.117  1.00  0.00     0.047 C 
ATOM     15  C   UNL     1      19.028  44.112  -9.520  1.00  0.00     0.118 C 
ATOM     16  C   UNL     1      18.865  43.135 -10.641  1.00  0.00     0.171 C 
ATOM     17  O   UNL     1      17.964  43.303 -11.448  1.00  0.00    -0.296 OA
ATOM     18  C   UNL     1      19.932  42.064 -10.821  1.00  0.00     0.163 C 
ATOM     19  C   UNL     1      19.675  41.029 -12.032  1.00  0.00     0.038 C 
ATOM     20  C   UNL     1      18.273  40.337 -11.885  1.00  0.00     0.018 C 
ENDROOT
BRANCH   1  21
ATOM     21  O   UNL     1      20.795  42.630 -13.557  1.00  0.00    -0.392 OA
ATOM     22  H   UNL     1      21.418  42.219 -14.213  1.00  0.00     0.210 HD
ENDBRANCH   1  21
BRANCH  18  23
ATOM     23  O   UNL     1      21.181  42.705 -11.036  1.00  0.00    -0.378 OA
ATOM     24  H   UNL     1      21.830  42.486 -10.317  1.00  0.00     0.212 HD
ENDBRANCH  18  23
BRANCH   8  25
ATOM     25  O   UNL     1      20.147  38.305 -10.367  1.00  0.00    -0.389 OA
ATOM     26  H   UNL     1      19.604  38.623  -9.598  1.00  0.00     0.211 HD
ENDBRANCH   8  25
BRANCH   9  27
ATOM     27  O   UNL     1      21.311  39.638  -8.223  1.00  0.00    -0.457 OA
BRANCH  27  28
ATOM     28  C   UNL     1      22.297  39.906  -7.269  1.00  0.00     0.303 C 
ATOM     29  C   UNL     1      23.718  40.026  -7.704  1.00  0.00     0.139 C 
ATOM     30  O   UNL     1      22.008  39.997  -6.045  1.00  0.00    -0.253 OA
ENDBRANCH  27  28
ENDBRANCH   9  27
BRANCH  13  31
ATOM     31  C   UNL     1      20.720  44.575  -7.726  1.00  0.00     0.000 C 
ATOM     32  C   UNL     1      21.234  45.527  -8.514  1.00  0.00     0.007 C 
ENDBRANCH  13  31
TORSDOF 6
ENDMDL
MODEL 12
REMARK VINA RESULT:    -5.432      2.792      7.463
REMARK INTER + INTRA:          -7.522
REMARK INTER:                  -6.976
REMARK INTRA:                  -0.546
REMARK UNBOUND:                -0.661
REMARK SMILES C=C[C@@]1(C)CC(=O)[C@]2(O)[C@@]3(C)[C@@H](O)CCC(C)(C)[C@@H]3[C@H](O)[C@H](OC(C)=O)[C@@]2(C)O1
REMARK SMILES IDX 12 1 14 2 15 3 16 4 17 5 18 6 19 7 20 8 22 9 27 10 28 11
REMARK SMILES IDX 29 12 3 13 4 14 5 15 6 16 7 17 8 18 10 19 11 20 13 21 9 23
REMARK SMILES IDX 21 25 23 27 24 28 25 29 26 30 2 31 1 32
REMARK H PARENT 13 22 9 24 21 26
REMARK Flexibility Score: inf
ROOT
ATOM      1  C   UNL     1      22.021  40.491  -7.108  1.00  0.00     0.124 C 
ATOM      2  C   UNL     1      20.953  41.143  -8.012  1.00  0.00     0.033 C 
ATOM      3  C   UNL     1      21.210  40.853  -9.490  1.00  0.00     0.009 C 
ATOM      4  C   UNL     1      21.248  39.337  -9.818  1.00  0.00    -0.029 C 
ATOM      5  C   UNL     1      21.722  39.215 -11.290  1.00  0.00     0.011 C 
ATOM      6  C   UNL     1      19.806  38.768  -9.768  1.00  0.00     0.011 C 
ATOM      7  C   UNL     1      22.287  38.623  -8.849  1.00  0.00     0.039 C 
ATOM      8  C   UNL     1      22.592  37.127  -9.187  1.00  0.00     0.162 C 
ATOM      9  C   UNL     1      23.766  36.555  -8.347  1.00  0.00     0.240 C 
ATOM     10  C   UNL     1      23.669  36.796  -6.808  1.00  0.00     0.142 C 
ATOM     11  C   UNL     1      22.607  35.829  -6.201  1.00  0.00     0.050 C 
ATOM     12  O   UNL     1      24.959  36.437  -6.306  1.00  0.00    -0.357 OA
ATOM     13  C   UNL     1      25.249  36.651  -4.916  1.00  0.00     0.091 C 
ATOM     14  C   UNL     1      24.871  35.398  -4.087  1.00  0.00     0.047 C 
ATOM     15  C   UNL     1      24.608  37.935  -4.277  1.00  0.00     0.118 C 
ATOM     16  C   UNL     1      23.441  38.484  -5.035  1.00  0.00     0.171 C 
ATOM     17  O   UNL     1      22.606  39.149  -4.439  1.00  0.00    -0.296 OA
ATOM     18  C   UNL     1      23.430  38.328  -6.549  1.00  0.00     0.163 C 
ATOM     19  C   UNL     1      22.127  38.918  -7.296  1.00  0.00     0.038 C 
ATOM     20  C   UNL     1      20.815  38.290  -6.705  1.00  0.00     0.018 C 
ENDROOT
BRANCH   1  21
ATOM     21  O   UNL     1      23.246  41.129  -7.369  1.00  0.00    -0.392 OA
ATOM     22  H   UNL     1      23.940  40.421  -7.439  1.00  0.00     0.210 HD
ENDBRANCH   1  21
BRANCH  18  23
ATOM     23  O   UNL     1      24.580  38.974  -7.076  1.00  0.00    -0.378 OA
ATOM     24  H   UNL     1      24.482  39.961  -7.058  1.00  0.00     0.212 HD
ENDBRANCH  18  23
BRANCH   8  25
ATOM     25  O   UNL     1      21.451  36.318  -9.083  1.00  0.00    -0.389 OA
ATOM     26  H   UNL     1      21.201  36.274  -8.123  1.00  0.00     0.211 HD
ENDBRANCH   8  25
BRANCH   9  27
ATOM     27  O   UNL     1      23.929  35.155  -8.604  1.00  0.00    -0.457 OA
BRANCH  27  28
ATOM     28  C   UNL     1      25.001  34.614  -9.321  1.00  0.00     0.303 C 
ATOM     29  C   UNL     1      25.884  33.609  -8.664  1.00  0.00     0.139 C 
ATOM     30  O   UNL     1      25.259  35.002 -10.493  1.00  0.00    -0.253 OA
ENDBRANCH  27  28
ENDBRANCH   9  27
BRANCH  13  31
ATOM     31  C   UNL     1      26.767  36.779  -4.825  1.00  0.00     0.000 C 
ATOM     32  C   UNL     1      27.591  35.813  -5.250  1.00  0.00     0.007 C 
ENDBRANCH  13  31
TORSDOF 6
ENDMDL
MODEL 13
REMARK VINA RESULT:    -5.390      2.700      5.825
REMARK INTER + INTRA:          -7.469
REMARK INTER:                  -6.911
REMARK INTRA:                  -0.558
REMARK UNBOUND:                -0.661
REMARK SMILES C=C[C@@]1(C)CC(=O)[C@]2(O)[C@@]3(C)[C@@H](O)CCC(C)(C)[C@@H]3[C@H](O)[C@H](OC(C)=O)[C@@]2(C)O1
REMARK SMILES IDX 12 1 14 2 15 3 16 4 17 5 18 6 19 7 20 8 22 9 27 10 28 11
REMARK SMILES IDX 29 12 3 13 4 14 5 15 6 16 7 17 8 18 10 19 11 20 13 21 9 23
REMARK SMILES IDX 21 25 23 27 24 28 25 29 26 30 2 31 1 32
REMARK H PARENT 13 22 9 24 21 26
REMARK Flexibility Score: inf
ROOT
ATOM      1  C   UNL     1      20.287  39.898 -10.904  1.00  0.00     0.124 C 
ATOM      2  C   UNL     1      20.273  39.594 -12.417  1.00  0.00     0.033 C 
ATOM      3  C   UNL     1      18.849  39.554 -12.971  1.00  0.00     0.009 C 
ATOM      4  C   UNL     1      18.067  40.875 -12.746  1.00  0.00    -0.029 C 
ATOM      5  C   UNL     1      16.600  40.598 -13.168  1.00  0.00     0.011 C 
ATOM      6  C   UNL     1      18.609  41.960 -13.713  1.00  0.00     0.011 C 
ATOM      7  C   UNL     1      18.129  41.256 -11.203  1.00  0.00     0.039 C 
ATOM      8  C   UNL     1      17.219  42.454 -10.778  1.00  0.00     0.162 C 
ATOM      9  C   UNL     1      17.157  42.636  -9.237  1.00  0.00     0.240 C 
ATOM     10  C   UNL     1      18.537  42.667  -8.510  1.00  0.00     0.142 C 
ATOM     11  C   UNL     1      19.223  44.044  -8.764  1.00  0.00     0.050 C 
ATOM     12  O   UNL     1      18.215  42.564  -7.120  1.00  0.00    -0.357 OA
ATOM     13  C   UNL     1      19.280  42.449  -6.165  1.00  0.00     0.091 C 
ATOM     14  C   UNL     1      19.728  43.851  -5.684  1.00  0.00     0.047 C 
ATOM     15  C   UNL     1      20.528  41.615  -6.634  1.00  0.00     0.118 C 
ATOM     16  C   UNL     1      20.645  41.463  -8.117  1.00  0.00     0.171 C 
ATOM     17  O   UNL     1      21.746  41.264  -8.608  1.00  0.00    -0.296 OA
ATOM     18  C   UNL     1      19.364  41.400  -8.936  1.00  0.00     0.163 C 
ATOM     19  C   UNL     1      19.568  41.265 -10.531  1.00  0.00     0.038 C 
ATOM     20  C   UNL     1      20.471  42.428 -11.078  1.00  0.00     0.018 C 
ENDROOT
BRANCH   1  21
ATOM     21  O   UNL     1      19.699  38.806 -10.244  1.00  0.00    -0.392 OA
ATOM     22  H   UNL     1      18.740  39.026 -10.103  1.00  0.00     0.210 HD
ENDBRANCH   1  21
BRANCH  18  23
ATOM     23  O   UNL     1      18.596  40.292  -8.487  1.00  0.00    -0.378 OA
ATOM     24  H   UNL     1      18.180  39.808  -9.247  1.00  0.00     0.212 HD
ENDBRANCH  18  23
BRANCH   8  25
ATOM     25  O   UNL     1      17.582  43.648 -11.417  1.00  0.00    -0.389 OA
ATOM     26  H   UNL     1      16.757  44.189 -11.532  1.00  0.00     0.211 HD
ENDBRANCH   8  25
BRANCH   9  27
ATOM     27  O   UNL     1      16.411  43.812  -8.902  1.00  0.00    -0.457 OA
BRANCH  27  28
ATOM     28  C   UNL     1      15.138  43.790  -8.323  1.00  0.00     0.303 C 
ATOM     29  C   UNL     1      14.976  44.213  -6.903  1.00  0.00     0.139 C 
ATOM     30  O   UNL     1      14.140  43.370  -8.968  1.00  0.00    -0.253 OA
ENDBRANCH  27  28
ENDBRANCH   9  27
BRANCH  13  31
ATOM     31  C   UNL     1      18.673  41.755  -4.949  1.00  0.00     0.000 C 
ATOM     32  C   UNL     1      19.269  40.718  -4.348  1.00  0.00     0.007 C 
ENDBRANCH  13  31
TORSDOF 6
ENDMDL
MODEL 14
REMARK VINA RESULT:    -5.367      2.409      4.142
REMARK INTER + INTRA:          -7.441
REMARK INTER:                  -6.909
REMARK INTRA:                  -0.532
REMARK UNBOUND:                -0.661
REMARK SMILES C=C[C@@]1(C)CC(=O)[C@]2(O)[C@@]3(C)[C@@H](O)CCC(C)(C)[C@@H]3[C@H](O)[C@H](OC(C)=O)[C@@]2(C)O1
REMARK SMILES IDX 12 1 14 2 15 3 16 4 17 5 18 6 19 7 20 8 22 9 27 10 28 11
REMARK SMILES IDX 29 12 3 13 4 14 5 15 6 16 7 17 8 18 10 19 11 20 13 21 9 23
REMARK SMILES IDX 21 25 23 27 24 28 25 29 26 30 2 31 1 32
REMARK H PARENT 13 22 9 24 21 26
REMARK Flexibility Score: inf
ROOT
ATOM      1  C   UNL     1      20.341  38.987 -10.412  1.00  0.00     0.124 C 
ATOM      2  C   UNL     1      20.858  37.966  -9.376  1.00  0.00     0.033 C 
ATOM      3  C   UNL     1      22.161  38.430  -8.726  1.00  0.00     0.009 C 
ATOM      4  C   UNL     1      22.034  39.804  -8.016  1.00  0.00    -0.029 C 
ATOM      5  C   UNL     1      23.470  40.221  -7.602  1.00  0.00     0.011 C 
ATOM      6  C   UNL     1      21.228  39.628  -6.703  1.00  0.00     0.011 C 
ATOM      7  C   UNL     1      21.432  40.862  -9.039  1.00  0.00     0.039 C 
ATOM      8  C   UNL     1      21.431  42.344  -8.540  1.00  0.00     0.162 C 
ATOM      9  C   UNL     1      21.036  43.348  -9.656  1.00  0.00     0.240 C 
ATOM     10  C   UNL     1      19.735  42.998 -10.442  1.00  0.00     0.142 C 
ATOM     11  C   UNL     1      18.494  43.317  -9.553  1.00  0.00     0.050 C 
ATOM     12  O   UNL     1      19.740  43.889 -11.561  1.00  0.00    -0.357 OA
ATOM     13  C   UNL     1      18.721  43.753 -12.563  1.00  0.00     0.091 C 
ATOM     14  C   UNL     1      17.495  44.631 -12.209  1.00  0.00     0.047 C 
ATOM     15  C   UNL     1      18.261  42.283 -12.872  1.00  0.00     0.118 C 
ATOM     16  C   UNL     1      18.581  41.297 -11.793  1.00  0.00     0.171 C 
ATOM     17  O   UNL     1      17.904  40.285 -11.693  1.00  0.00    -0.296 OA
ATOM     18  C   UNL     1      19.841  41.521 -10.968  1.00  0.00     0.163 C 
ATOM     19  C   UNL     1      20.107  40.435  -9.804  1.00  0.00     0.038 C 
ATOM     20  C   UNL     1      18.871  40.339  -8.839  1.00  0.00     0.018 C 
ENDROOT
BRANCH   1  21
ATOM     21  O   UNL     1      21.259  39.014 -11.477  1.00  0.00    -0.392 OA
ATOM     22  H   UNL     1      20.927  38.384 -12.170  1.00  0.00     0.210 HD
ENDBRANCH   1  21
BRANCH  18  23
ATOM     23  O   UNL     1      20.959  41.521 -11.844  1.00  0.00    -0.378 OA
ATOM     24  H   UNL     1      21.219  42.445 -12.099  1.00  0.00     0.212 HD
ENDBRANCH  18  23
BRANCH   8  25
ATOM     25  O   UNL     1      20.638  42.517  -7.396  1.00  0.00    -0.389 OA
ATOM     26  H   UNL     1      21.118  42.101  -6.633  1.00  0.00     0.211 HD
ENDBRANCH   8  25
BRANCH   9  27
ATOM     27  O   UNL     1      20.935  44.673  -9.124  1.00  0.00    -0.457 OA
BRANCH  27  28
ATOM     28  C   UNL     1      21.839  45.701  -9.411  1.00  0.00     0.303 C 
ATOM     29  C   UNL     1      22.308  45.887 -10.813  1.00  0.00     0.139 C 
ATOM     30  O   UNL     1      22.298  46.436  -8.495  1.00  0.00    -0.253 OA
ENDBRANCH  27  28
ENDBRANCH   9  27
BRANCH  13  31
ATOM     31  C   UNL     1      19.313  44.346 -13.839  1.00  0.00     0.000 C 
ATOM     32  C   UNL     1      19.820  45.584 -13.882  1.00  0.00     0.007 C 
ENDBRANCH  13  31
TORSDOF 6
ENDMDL
MODEL 15
REMARK VINA RESULT:    -5.303      2.314      5.889
REMARK INTER + INTRA:          -7.359
REMARK INTER:                  -6.821
REMARK INTRA:                  -0.538
REMARK UNBOUND:                -0.661
REMARK SMILES C=C[C@@]1(C)CC(=O)[C@]2(O)[C@@]3(C)[C@@H](O)CCC(C)(C)[C@@H]3[C@H](O)[C@H](OC(C)=O)[C@@]2(C)O1
REMARK SMILES IDX 12 1 14 2 15 3 16 4 17 5 18 6 19 7 20 8 22 9 27 10 28 11
REMARK SMILES IDX 29 12 3 13 4 14 5 15 6 16 7 17 8 18 10 19 11 20 13 21 9 23
REMARK SMILES IDX 21 25 23 27 24 28 25 29 26 30 2 31 1 32
REMARK H PARENT 13 22 9 24 21 26
REMARK Flexibility Score: inf
ROOT
ATOM      1  C   UNL     1      20.656  37.878 -12.073  1.00  0.00     0.124 C 
ATOM      2  C   UNL     1      20.110  38.531 -13.361  1.00  0.00     0.033 C 
ATOM      3  C   UNL     1      18.879  39.392 -13.079  1.00  0.00     0.009 C 
ATOM      4  C   UNL     1      19.147  40.523 -12.050  1.00  0.00    -0.029 C 
ATOM      5  C   UNL     1      17.769  41.157 -11.722  1.00  0.00     0.011 C 
ATOM      6  C   UNL     1      19.997  41.633 -12.722  1.00  0.00     0.011 C 
ATOM      7  C   UNL     1      19.783  39.889 -10.738  1.00  0.00     0.039 C 
ATOM      8  C   UNL     1      19.923  40.869  -9.528  1.00  0.00     0.162 C 
ATOM      9  C   UNL     1      20.344  40.143  -8.221  1.00  0.00     0.240 C 
ATOM     10  C   UNL     1      21.575  39.194  -8.348  1.00  0.00     0.142 C 
ATOM     11  C   UNL     1      22.878  40.048  -8.432  1.00  0.00     0.050 C 
ATOM     12  O   UNL     1      21.589  38.456  -7.123  1.00  0.00    -0.357 OA
ATOM     13  C   UNL     1      22.546  37.398  -6.957  1.00  0.00     0.091 C 
ATOM     14  C   UNL     1      23.853  37.946  -6.332  1.00  0.00     0.047 C 
ATOM     15  C   UNL     1      22.873  36.568  -8.251  1.00  0.00     0.118 C 
ATOM     16  C   UNL     1      22.527  37.260  -9.532  1.00  0.00     0.171 C 
ATOM     17  O   UNL     1      23.125  36.955 -10.552  1.00  0.00    -0.296 OA
ATOM     18  C   UNL     1      21.329  38.199  -9.539  1.00  0.00     0.163 C 
ATOM     19  C   UNL     1      21.033  38.931 -10.946  1.00  0.00     0.038 C 
ATOM     20  C   UNL     1      22.301  39.712 -11.445  1.00  0.00     0.018 C 
ENDROOT
BRANCH   1  21
ATOM     21  O   UNL     1      19.695  36.957 -11.623  1.00  0.00    -0.392 OA
ATOM     22  H   UNL     1      18.917  37.015 -12.238  1.00  0.00     0.210 HD
ENDBRANCH   1  21
BRANCH  18  23
ATOM     23  O   UNL     1      20.174  37.459  -9.167  1.00  0.00    -0.378 OA
ATOM     24  H   UNL     1      19.767  37.817  -8.335  1.00  0.00     0.212 HD
ENDBRANCH  18  23
BRANCH   8  25
ATOM     25  O   UNL     1      20.781  41.941  -9.812  1.00  0.00    -0.389 OA
ATOM     26  H   UNL     1      21.680  41.707  -9.461  1.00  0.00     0.211 HD
ENDBRANCH   8  25
BRANCH   9  27
ATOM     27  O   UNL     1      20.575  41.093  -7.174  1.00  0.00    -0.457 OA
BRANCH  27  28
ATOM     28  C   UNL     1      19.713  41.283  -6.089  1.00  0.00     0.303 C 
ATOM     29  C   UNL     1      19.755  40.325  -4.948  1.00  0.00     0.139 C 
ATOM     30  O   UNL     1      18.870  42.221  -6.088  1.00  0.00    -0.253 OA
ENDBRANCH  27  28
ENDBRANCH   9  27
BRANCH  13  31
ATOM     31  C   UNL     1      21.943  36.452  -5.923  1.00  0.00     0.000 C 
ATOM     32  C   UNL     1      22.220  36.553  -4.617  1.00  0.00     0.007 C 
ENDBRANCH  13  31
TORSDOF 6
ENDMDL
