MODEL 1
REMARK VINA RESULT:    -8.913      0.000      0.000
REMARK INTER + INTRA:          -9.868
REMARK INTER:                  -9.695
REMARK INTRA:                  -0.173
REMARK UNBOUND:                -0.173
REMARK SMILES CC(=O)[C@H]1CC[C@H]2[C@@H]3CC=C4C[C@@H](O)CC[C@]4(C)[C@H]3CC[C@]12C
REMARK SMILES IDX 7 1 6 2 5 3 4 4 22 5 23 6 21 7 20 8 19 9 8 10 9 11 10 12
REMARK SMILES IDX 11 13 12 14 13 15 15 16 16 17 17 18 18 19 2 20 1 21 3 22
REMARK SMILES IDX 14 23
REMARK H PARENT 14 24
REMARK Flexibility Score: inf
ROOT
ATOM      1  C   UNL     1      13.282  78.346  -4.583  1.00  0.00    -0.001 C 
ATOM      2  C   UNL     1      14.107  77.159  -5.066  1.00  0.00     0.005 C 
ATOM      3  C   UNL     1      15.099  77.772  -6.072  1.00  0.00     0.012 C 
ATOM      4  C   UNL     1      14.936  79.310  -5.963  1.00  0.00     0.062 C 
ATOM      5  C   UNL     1      14.259  79.527  -4.589  1.00  0.00    -0.020 C 
ATOM      6  C   UNL     1      15.319  79.471  -3.441  1.00  0.00     0.012 C 
ATOM      7  C   UNL     1      13.424  80.820  -4.484  1.00  0.00     0.008 C 
ATOM      8  C   UNL     1      12.555  80.820  -3.204  1.00  0.00     0.005 C 
ATOM      9  C   UNL     1      11.666  79.537  -3.046  1.00  0.00     0.003 C 
ATOM     10  C   UNL     1      12.491  78.224  -3.263  1.00  0.00     0.000 C 
ATOM     11  C   UNL     1      11.550  77.010  -3.317  1.00  0.00     0.031 C 
ATOM     12  C   UNL     1      10.518  77.008  -2.227  1.00  0.00    -0.027 C 
ATOM     13  C   UNL     1      10.122  78.122  -1.577  1.00  0.00    -0.065 C 
ATOM     14  C   UNL     1       8.820  78.100  -0.807  1.00  0.00     0.063 C 
ATOM     15  C   UNL     1       7.782  79.006  -1.502  1.00  0.00     0.118 C 
ATOM     16  C   UNL     1       8.429  80.203  -2.249  1.00  0.00     0.033 C 
ATOM     17  C   UNL     1       9.773  80.615  -1.624  1.00  0.00     0.014 C 
ATOM     18  C   UNL     1      10.849  79.472  -1.696  1.00  0.00    -0.008 C 
ATOM     19  C   UNL     1      11.777  79.608  -0.461  1.00  0.00     0.016 C 
ENDROOT
BRANCH   4  20
ATOM     20  C   UNL     1      16.223  80.086  -6.181  1.00  0.00     0.133 C 
ATOM     21  C   UNL     1      17.523  79.369  -6.395  1.00  0.00     0.088 C 
ATOM     22  O   UNL     1      16.215  81.308  -6.200  1.00  0.00    -0.300 OA
ENDBRANCH   4  20
BRANCH  15  23
ATOM     23  O   UNL     1       6.870  79.471  -0.541  1.00  0.00    -0.393 OA
ATOM     24  H   UNL     1       6.906  78.836   0.222  1.00  0.00     0.210 HD
ENDBRANCH  15  23
TORSDOF 2
ENDMDL
MODEL 2
REMARK VINA RESULT:    -8.495      1.616      7.040
REMARK INTER + INTRA:          -9.413
REMARK INTER:                  -9.297
REMARK INTRA:                  -0.116
REMARK UNBOUND:                -0.173
REMARK SMILES CC(=O)[C@H]1CC[C@H]2[C@@H]3CC=C4C[C@@H](O)CC[C@]4(C)[C@H]3CC[C@]12C
REMARK SMILES IDX 7 1 6 2 5 3 4 4 22 5 23 6 21 7 20 8 19 9 8 10 9 11 10 12
REMARK SMILES IDX 11 13 12 14 13 15 15 16 16 17 17 18 18 19 2 20 1 21 3 22
REMARK SMILES IDX 14 23
REMARK H PARENT 14 24
REMARK Flexibility Score: inf
ROOT
ATOM      1  C   UNL     1      12.774  78.480  -2.926  1.00  0.00    -0.001 C 
ATOM      2  C   UNL     1      11.623  77.484  -2.999  1.00  0.00     0.005 C 
ATOM      3  C   UNL     1      10.949  77.583  -1.618  1.00  0.00     0.012 C 
ATOM      4  C   UNL     1      11.616  78.780  -0.893  1.00  0.00     0.062 C 
ATOM      5  C   UNL     1      12.255  79.610  -2.030  1.00  0.00    -0.020 C 
ATOM      6  C   UNL     1      11.181  80.513  -2.719  1.00  0.00     0.012 C 
ATOM      7  C   UNL     1      13.471  80.457  -1.600  1.00  0.00     0.008 C 
ATOM      8  C   UNL     1      14.222  81.019  -2.830  1.00  0.00     0.005 C 
ATOM      9  C   UNL     1      14.617  79.924  -3.883  1.00  0.00     0.003 C 
ATOM     10  C   UNL     1      13.410  78.992  -4.237  1.00  0.00     0.000 C 
ATOM     11  C   UNL     1      13.887  77.809  -5.094  1.00  0.00     0.031 C 
ATOM     12  C   UNL     1      14.801  78.216  -6.213  1.00  0.00    -0.027 C 
ATOM     13  C   UNL     1      15.516  79.360  -6.210  1.00  0.00    -0.065 C 
ATOM     14  C   UNL     1      16.692  79.495  -7.151  1.00  0.00     0.063 C 
ATOM     15  C   UNL     1      18.009  79.515  -6.347  1.00  0.00     0.118 C 
ATOM     16  C   UNL     1      17.844  80.133  -4.932  1.00  0.00     0.033 C 
ATOM     17  C   UNL     1      16.687  81.145  -4.876  1.00  0.00     0.014 C 
ATOM     18  C   UNL     1      15.294  80.491  -5.192  1.00  0.00    -0.008 C 
ATOM     19  C   UNL     1      14.404  81.561  -5.875  1.00  0.00     0.016 C 
ENDROOT
BRANCH   4  20
ATOM     20  C   UNL     1      10.679  79.548   0.023  1.00  0.00     0.133 C 
ATOM     21  C   UNL     1      11.210  80.592   0.961  1.00  0.00     0.088 C 
ATOM     22  O   UNL     1       9.476  79.339  -0.003  1.00  0.00    -0.300 OA
ENDBRANCH   4  20
BRANCH  15  23
ATOM     23  O   UNL     1      18.974  80.230  -7.076  1.00  0.00    -0.393 OA
ATOM     24  H   UNL     1      19.834  80.133  -6.588  1.00  0.00     0.210 HD
ENDBRANCH  15  23
TORSDOF 2
ENDMDL
MODEL 3
REMARK VINA RESULT:    -7.699      1.648      2.669
REMARK INTER + INTRA:          -8.548
REMARK INTER:                  -8.495
REMARK INTRA:                  -0.053
REMARK UNBOUND:                -0.173
REMARK SMILES CC(=O)[C@H]1CC[C@H]2[C@@H]3CC=C4C[C@@H](O)CC[C@]4(C)[C@H]3CC[C@]12C
REMARK SMILES IDX 7 1 6 2 5 3 4 4 22 5 23 6 21 7 20 8 19 9 8 10 9 11 10 12
REMARK SMILES IDX 11 13 12 14 13 15 15 16 16 17 17 18 18 19 2 20 1 21 3 22
REMARK SMILES IDX 14 23
REMARK H PARENT 14 24
REMARK Flexibility Score: inf
ROOT
ATOM      1  C   UNL     1      15.238  79.422  -6.025  1.00  0.00    -0.001 C 
ATOM      2  C   UNL     1      16.163  78.462  -6.764  1.00  0.00     0.005 C 
ATOM      3  C   UNL     1      16.850  79.341  -7.825  1.00  0.00     0.012 C 
ATOM      4  C   UNL     1      16.444  80.803  -7.510  1.00  0.00     0.062 C 
ATOM      5  C   UNL     1      15.980  80.763  -6.035  1.00  0.00    -0.020 C 
ATOM      6  C   UNL     1      17.211  80.806  -5.072  1.00  0.00     0.012 C 
ATOM      7  C   UNL     1      14.963  81.859  -5.653  1.00  0.00     0.008 C 
ATOM      8  C   UNL     1      14.334  81.578  -4.268  1.00  0.00     0.005 C 
ATOM      9  C   UNL     1      13.721  80.140  -4.134  1.00  0.00     0.003 C 
ATOM     10  C   UNL     1      14.712  79.033  -4.627  1.00  0.00     0.000 C 
ATOM     11  C   UNL     1      14.000  77.673  -4.686  1.00  0.00     0.031 C 
ATOM     12  C   UNL     1      13.181  77.376  -3.463  1.00  0.00    -0.027 C 
ATOM     13  C   UNL     1      12.713  78.331  -2.632  1.00  0.00    -0.065 C 
ATOM     14  C   UNL     1      11.583  77.993  -1.686  1.00  0.00     0.063 C 
ATOM     15  C   UNL     1      10.302  78.744  -2.106  1.00  0.00     0.118 C 
ATOM     16  C   UNL     1      10.597  80.105  -2.792  1.00  0.00     0.033 C 
ATOM     17  C   UNL     1      11.935  80.706  -2.329  1.00  0.00     0.014 C 
ATOM     18  C   UNL     1      13.165  79.799  -2.696  1.00  0.00    -0.008 C 
ATOM     19  C   UNL     1      14.249  79.997  -1.604  1.00  0.00     0.016 C 
ENDROOT
BRANCH   4  20
ATOM     20  C   UNL     1      17.522  81.826  -7.822  1.00  0.00     0.133 C 
ATOM     21  C   UNL     1      18.974  81.453  -7.759  1.00  0.00     0.088 C 
ATOM     22  O   UNL     1      17.221  82.966  -8.144  1.00  0.00    -0.300 OA
ENDBRANCH   4  20
BRANCH  15  23
ATOM     23  O   UNL     1       9.497  78.938  -0.972  1.00  0.00    -0.393 OA
ATOM     24  H   UNL     1      10.035  78.656  -0.186  1.00  0.00     0.210 HD
ENDBRANCH  15  23
TORSDOF 2
ENDMDL
MODEL 4
REMARK VINA RESULT:    -7.634      2.971      7.059
REMARK INTER + INTRA:          -8.477
REMARK INTER:                  -8.363
REMARK INTRA:                  -0.114
REMARK UNBOUND:                -0.173
REMARK SMILES CC(=O)[C@H]1CC[C@H]2[C@@H]3CC=C4C[C@@H](O)CC[C@]4(C)[C@H]3CC[C@]12C
REMARK SMILES IDX 7 1 6 2 5 3 4 4 22 5 23 6 21 7 20 8 19 9 8 10 9 11 10 12
REMARK SMILES IDX 11 13 12 14 13 15 15 16 16 17 17 18 18 19 2 20 1 21 3 22
REMARK SMILES IDX 14 23
REMARK H PARENT 14 24
REMARK Flexibility Score: inf
ROOT
ATOM      1  C   UNL     1       9.799  76.006  -2.237  1.00  0.00    -0.001 C 
ATOM      2  C   UNL     1       9.640  74.998  -3.370  1.00  0.00     0.005 C 
ATOM      3  C   UNL     1       8.446  74.127  -2.935  1.00  0.00     0.012 C 
ATOM      4  C   UNL     1       7.846  74.806  -1.678  1.00  0.00     0.062 C 
ATOM      5  C   UNL     1       8.372  76.259  -1.738  1.00  0.00    -0.020 C 
ATOM      6  C   UNL     1       7.506  77.114  -2.721  1.00  0.00     0.012 C 
ATOM      7  C   UNL     1       8.477  76.960  -0.368  1.00  0.00     0.008 C 
ATOM      8  C   UNL     1       9.273  78.281  -0.477  1.00  0.00     0.005 C 
ATOM      9  C   UNL     1      10.677  78.117  -1.158  1.00  0.00     0.003 C 
ATOM     10  C   UNL     1      10.588  77.308  -2.495  1.00  0.00     0.000 C 
ATOM     11  C   UNL     1      11.997  76.981  -3.012  1.00  0.00     0.031 C 
ATOM     12  C   UNL     1      12.932  78.156  -2.973  1.00  0.00    -0.027 C 
ATOM     13  C   UNL     1      12.756  79.219  -2.161  1.00  0.00    -0.065 C 
ATOM     14  C   UNL     1      13.927  80.138  -1.889  1.00  0.00     0.063 C 
ATOM     15  C   UNL     1      14.374  79.998  -0.418  1.00  0.00     0.118 C 
ATOM     16  C   UNL     1      13.206  79.633   0.536  1.00  0.00     0.033 C 
ATOM     17  C   UNL     1      11.850  80.127   0.005  1.00  0.00     0.014 C 
ATOM     18  C   UNL     1      11.462  79.470  -1.370  1.00  0.00    -0.008 C 
ATOM     19  C   UNL     1      10.622  80.497  -2.172  1.00  0.00     0.016 C 
ENDROOT
BRANCH   4  20
ATOM     20  C   UNL     1       6.338  74.667  -1.560  1.00  0.00     0.133 C 
ATOM     21  C   UNL     1       5.656  74.820  -0.233  1.00  0.00     0.088 C 
ATOM     22  O   UNL     1       5.656  74.442  -2.549  1.00  0.00    -0.300 OA
ENDBRANCH   4  20
BRANCH  15  23
ATOM     23  O   UNL     1      14.973  81.202  -0.011  1.00  0.00    -0.393 OA
ATOM     24  H   UNL     1      14.932  81.821  -0.786  1.00  0.00     0.210 HD
ENDBRANCH  15  23
TORSDOF 2
ENDMDL
MODEL 5
REMARK VINA RESULT:    -7.583      2.075      7.333
REMARK INTER + INTRA:          -8.421
REMARK INTER:                  -8.284
REMARK INTRA:                  -0.137
REMARK UNBOUND:                -0.173
REMARK SMILES CC(=O)[C@H]1CC[C@H]2[C@@H]3CC=C4C[C@@H](O)CC[C@]4(C)[C@H]3CC[C@]12C
REMARK SMILES IDX 7 1 6 2 5 3 4 4 22 5 23 6 21 7 20 8 19 9 8 10 9 11 10 12
REMARK SMILES IDX 11 13 12 14 13 15 15 16 16 17 17 18 18 19 2 20 1 21 3 22
REMARK SMILES IDX 14 23
REMARK H PARENT 14 24
REMARK Flexibility Score: inf
ROOT
ATOM      1  C   UNL     1       9.126  78.247  -1.389  1.00  0.00    -0.001 C 
ATOM      2  C   UNL     1       8.121  78.790  -0.380  1.00  0.00     0.005 C 
ATOM      3  C   UNL     1       6.956  77.784  -0.428  1.00  0.00     0.012 C 
ATOM      4  C   UNL     1       7.438  76.602  -1.306  1.00  0.00     0.062 C 
ATOM      5  C   UNL     1       8.979  76.724  -1.304  1.00  0.00    -0.020 C 
ATOM      6  C   UNL     1       9.575  76.109   0.004  1.00  0.00     0.012 C 
ATOM      7  C   UNL     1       9.672  76.122  -2.543  1.00  0.00     0.008 C 
ATOM      8  C   UNL     1      11.161  76.537  -2.608  1.00  0.00     0.005 C 
ATOM      9  C   UNL     1      11.388  78.086  -2.508  1.00  0.00     0.003 C 
ATOM     10  C   UNL     1      10.595  78.718  -1.315  1.00  0.00     0.000 C 
ATOM     11  C   UNL     1      10.667  80.251  -1.384  1.00  0.00     0.031 C 
ATOM     12  C   UNL     1      12.050  80.770  -1.649  1.00  0.00    -0.027 C 
ATOM     13  C   UNL     1      13.019  80.037  -2.235  1.00  0.00    -0.065 C 
ATOM     14  C   UNL     1      14.219  80.743  -2.827  1.00  0.00     0.063 C 
ATOM     15  C   UNL     1      14.195  80.620  -4.365  1.00  0.00     0.118 C 
ATOM     16  C   UNL     1      13.519  79.312  -4.856  1.00  0.00     0.033 C 
ATOM     17  C   UNL     1      13.632  78.180  -3.820  1.00  0.00     0.014 C 
ATOM     18  C   UNL     1      12.905  78.522  -2.469  1.00  0.00    -0.008 C 
ATOM     19  C   UNL     1      13.672  77.817  -1.320  1.00  0.00     0.016 C 
ENDROOT
BRANCH   4  20
ATOM     20  C   UNL     1       6.894  75.250  -0.877  1.00  0.00     0.133 C 
ATOM     21  C   UNL     1       5.948  75.138   0.282  1.00  0.00     0.088 C 
ATOM     22  O   UNL     1       7.209  74.235  -1.480  1.00  0.00    -0.300 OA
ENDBRANCH   4  20
BRANCH  15  23
ATOM     23  O   UNL     1      15.513  80.694  -4.846  1.00  0.00    -0.393 OA
ATOM     24  H   UNL     1      15.834  81.616  -4.667  1.00  0.00     0.210 HD
ENDBRANCH  15  23
TORSDOF 2
ENDMDL
MODEL 6
REMARK VINA RESULT:    -7.318      3.371      4.658
REMARK INTER + INTRA:          -8.133
REMARK INTER:                  -8.274
REMARK INTRA:                   0.141
REMARK UNBOUND:                -0.173
REMARK SMILES CC(=O)[C@H]1CC[C@H]2[C@@H]3CC=C4C[C@@H](O)CC[C@]4(C)[C@H]3CC[C@]12C
REMARK SMILES IDX 7 1 6 2 5 3 4 4 22 5 23 6 21 7 20 8 19 9 8 10 9 11 10 12
REMARK SMILES IDX 11 13 12 14 13 15 15 16 16 17 17 18 18 19 2 20 1 21 3 22
REMARK SMILES IDX 14 23
REMARK H PARENT 14 24
REMARK Flexibility Score: inf
ROOT
ATOM      1  C   UNL     1      12.029  77.253  -0.564  1.00  0.00    -0.001 C 
ATOM      2  C   UNL     1      12.970  76.915   0.586  1.00  0.00     0.005 C 
ATOM      3  C   UNL     1      14.237  77.739   0.293  1.00  0.00     0.012 C 
ATOM      4  C   UNL     1      13.886  78.670  -0.896  1.00  0.00     0.062 C 
ATOM      5  C   UNL     1      12.341  78.715  -0.905  1.00  0.00    -0.020 C 
ATOM      6  C   UNL     1      11.816  79.733   0.160  1.00  0.00     0.012 C 
ATOM      7  C   UNL     1      11.716  79.013  -2.284  1.00  0.00     0.008 C 
ATOM      8  C   UNL     1      10.191  78.754  -2.273  1.00  0.00     0.005 C 
ATOM      9  C   UNL     1       9.797  77.328  -1.751  1.00  0.00     0.003 C 
ATOM     10  C   UNL     1      10.518  76.979  -0.406  1.00  0.00     0.000 C 
ATOM     11  C   UNL     1      10.280  75.505  -0.044  1.00  0.00     0.031 C 
ATOM     12  C   UNL     1       8.849  75.079  -0.195  1.00  0.00    -0.027 C 
ATOM     13  C   UNL     1       7.964  75.714  -0.991  1.00  0.00    -0.065 C 
ATOM     14  C   UNL     1       6.694  74.999  -1.397  1.00  0.00     0.063 C 
ATOM     15  C   UNL     1       6.730  74.681  -2.907  1.00  0.00     0.118 C 
ATOM     16  C   UNL     1       7.544  75.720  -3.724  1.00  0.00     0.033 C 
ATOM     17  C   UNL     1       7.555  77.103  -3.051  1.00  0.00     0.014 C 
ATOM     18  C   UNL     1       8.242  77.082  -1.637  1.00  0.00    -0.008 C 
ATOM     19  C   UNL     1       7.557  78.158  -0.755  1.00  0.00     0.016 C 
ENDROOT
BRANCH   4  20
ATOM     20  C   UNL     1      14.574  80.023  -0.846  1.00  0.00     0.133 C 
ATOM     21  C   UNL     1      14.711  80.766   0.451  1.00  0.00     0.088 C 
ATOM     22  O   UNL     1      15.039  80.521  -1.860  1.00  0.00    -0.300 OA
ENDBRANCH   4  20
BRANCH  15  23
ATOM     23  O   UNL     1       5.412  74.612  -3.387  1.00  0.00    -0.393 OA
ATOM     24  H   UNL     1       5.417  73.980  -4.153  1.00  0.00     0.210 HD
ENDBRANCH  15  23
TORSDOF 2
ENDMDL
MODEL 7
REMARK VINA RESULT:    -7.209      1.244      7.131
REMARK INTER + INTRA:          -8.015
REMARK INTER:                  -7.889
REMARK INTRA:                  -0.125
REMARK UNBOUND:                -0.173
REMARK SMILES CC(=O)[C@H]1CC[C@H]2[C@@H]3CC=C4C[C@@H](O)CC[C@]4(C)[C@H]3CC[C@]12C
REMARK SMILES IDX 7 1 6 2 5 3 4 4 22 5 23 6 21 7 20 8 19 9 8 10 9 11 10 12
REMARK SMILES IDX 11 13 12 14 13 15 15 16 16 17 17 18 18 19 2 20 1 21 3 22
REMARK SMILES IDX 14 23
REMARK H PARENT 14 24
REMARK Flexibility Score: inf
ROOT
ATOM      1  C   UNL     1      10.133  79.787  -2.716  1.00  0.00    -0.001 C 
ATOM      2  C   UNL     1       9.336  81.034  -2.350  1.00  0.00     0.005 C 
ATOM      3  C   UNL     1       8.033  80.484  -1.742  1.00  0.00     0.012 C 
ATOM      4  C   UNL     1       8.231  78.954  -1.596  1.00  0.00     0.062 C 
ATOM      5  C   UNL     1       9.764  78.760  -1.640  1.00  0.00    -0.020 C 
ATOM      6  C   UNL     1      10.395  79.062  -0.241  1.00  0.00     0.012 C 
ATOM      7  C   UNL     1      10.220  77.375  -2.145  1.00  0.00     0.008 C 
ATOM      8  C   UNL     1      11.740  77.360  -2.435  1.00  0.00     0.005 C 
ATOM      9  C   UNL     1      12.211  78.514  -3.389  1.00  0.00     0.003 C 
ATOM     10  C   UNL     1      11.656  79.907  -2.941  1.00  0.00     0.000 C 
ATOM     11  C   UNL     1      11.954  80.966  -4.012  1.00  0.00     0.031 C 
ATOM     12  C   UNL     1      13.364  80.914  -4.525  1.00  0.00    -0.027 C 
ATOM     13  C   UNL     1      14.142  79.814  -4.449  1.00  0.00    -0.065 C 
ATOM     14  C   UNL     1      15.365  79.716  -5.333  1.00  0.00     0.063 C 
ATOM     15  C   UNL     1      15.159  78.618  -6.397  1.00  0.00     0.118 C 
ATOM     16  C   UNL     1      14.242  77.465  -5.906  1.00  0.00     0.033 C 
ATOM     17  C   UNL     1      14.290  77.302  -4.377  1.00  0.00     0.014 C 
ATOM     18  C   UNL     1      13.772  78.576  -3.616  1.00  0.00    -0.008 C 
ATOM     19  C   UNL     1      14.540  78.677  -2.272  1.00  0.00     0.016 C 
ENDROOT
BRANCH   4  20
ATOM     20  C   UNL     1       7.535  78.352  -0.387  1.00  0.00     0.133 C 
ATOM     21  C   UNL     1       7.373  76.867  -0.258  1.00  0.00     0.088 C 
ATOM     22  O   UNL     1       7.112  79.070   0.506  1.00  0.00    -0.300 OA
ENDBRANCH   4  20
BRANCH  15  23
ATOM     23  O   UNL     1      16.414  78.110  -6.774  1.00  0.00    -0.393 OA
ATOM     24  H   UNL     1      16.873  78.828  -7.284  1.00  0.00     0.210 HD
ENDBRANCH  15  23
TORSDOF 2
ENDMDL
MODEL 8
REMARK VINA RESULT:    -7.086      2.427      4.468
REMARK INTER + INTRA:          -7.881
REMARK INTER:                  -8.157
REMARK INTRA:                   0.277
REMARK UNBOUND:                -0.173
REMARK SMILES CC(=O)[C@H]1CC[C@H]2[C@@H]3CC=C4C[C@@H](O)CC[C@]4(C)[C@H]3CC[C@]12C
REMARK SMILES IDX 7 1 6 2 5 3 4 4 22 5 23 6 21 7 20 8 19 9 8 10 9 11 10 12
REMARK SMILES IDX 11 13 12 14 13 15 15 16 16 17 17 18 18 19 2 20 1 21 3 22
REMARK SMILES IDX 14 23
REMARK H PARENT 14 24
REMARK Flexibility Score: inf
ROOT
ATOM      1  C   UNL     1      11.371  79.786  -0.752  1.00  0.00    -0.001 C 
ATOM      2  C   UNL     1      11.770  81.254  -0.659  1.00  0.00     0.005 C 
ATOM      3  C   UNL     1      13.296  81.245  -0.870  1.00  0.00     0.012 C 
ATOM      4  C   UNL     1      13.670  79.798  -1.282  1.00  0.00     0.062 C 
ATOM      5  C   UNL     1      12.340  79.183  -1.775  1.00  0.00    -0.020 C 
ATOM      6  C   UNL     1      12.047  79.619  -3.248  1.00  0.00     0.012 C 
ATOM      7  C   UNL     1      12.256  77.648  -1.644  1.00  0.00     0.008 C 
ATOM      8  C   UNL     1      10.812  77.146  -1.878  1.00  0.00     0.005 C 
ATOM      9  C   UNL     1       9.741  77.867  -0.985  1.00  0.00     0.003 C 
ATOM     10  C   UNL     1       9.896  79.424  -1.029  1.00  0.00     0.000 C 
ATOM     11  C   UNL     1       8.982  80.077   0.018  1.00  0.00     0.031 C 
ATOM     12  C   UNL     1       7.588  79.519   0.022  1.00  0.00    -0.027 C 
ATOM     13  C   UNL     1       7.276  78.297  -0.456  1.00  0.00    -0.065 C 
ATOM     14  C   UNL     1       5.965  77.660  -0.049  1.00  0.00     0.063 C 
ATOM     15  C   UNL     1       6.233  76.443   0.862  1.00  0.00     0.118 C 
ATOM     16  C   UNL     1       7.579  75.738   0.548  1.00  0.00     0.033 C 
ATOM     17  C   UNL     1       8.005  75.931  -0.917  1.00  0.00     0.014 C 
ATOM     18  C   UNL     1       8.250  77.440  -1.282  1.00  0.00    -0.008 C 
ATOM     19  C   UNL     1       7.887  77.638  -2.777  1.00  0.00     0.016 C 
ENDROOT
BRANCH   4  20
ATOM     20  C   UNL     1      14.826  79.713  -2.263  1.00  0.00     0.133 C 
ATOM     21  C   UNL     1      14.862  80.585  -3.483  1.00  0.00     0.088 C 
ATOM     22  O   UNL     1      15.754  78.943  -2.064  1.00  0.00    -0.300 OA
ENDBRANCH   4  20
BRANCH  15  23
ATOM     23  O   UNL     1       5.169  75.536   0.729  1.00  0.00    -0.393 OA
ATOM     24  H   UNL     1       4.809  75.379   1.641  1.00  0.00     0.210 HD
ENDBRANCH  15  23
TORSDOF 2
ENDMDL
MODEL 9
REMARK VINA RESULT:    -6.826      1.817      7.383
REMARK INTER + INTRA:          -7.598
REMARK INTER:                  -8.160
REMARK INTRA:                   0.562
REMARK UNBOUND:                -0.173
REMARK SMILES CC(=O)[C@H]1CC[C@H]2[C@@H]3CC=C4C[C@@H](O)CC[C@]4(C)[C@H]3CC[C@]12C
REMARK SMILES IDX 7 1 6 2 5 3 4 4 22 5 23 6 21 7 20 8 19 9 8 10 9 11 10 12
REMARK SMILES IDX 11 13 12 14 13 15 15 16 16 17 17 18 18 19 2 20 1 21 3 22
REMARK SMILES IDX 14 23
REMARK H PARENT 14 24
REMARK Flexibility Score: inf
ROOT
ATOM      1  C   UNL     1       9.103  77.655  -1.184  1.00  0.00    -0.001 C 
ATOM      2  C   UNL     1       8.135  76.542  -1.566  1.00  0.00     0.005 C 
ATOM      3  C   UNL     1       7.030  76.617  -0.496  1.00  0.00     0.012 C 
ATOM      4  C   UNL     1       7.307  77.902   0.326  1.00  0.00     0.062 C 
ATOM      5  C   UNL     1       8.216  78.755  -0.590  1.00  0.00    -0.020 C 
ATOM      6  C   UNL     1       7.361  79.516  -1.655  1.00  0.00     0.012 C 
ATOM      7  C   UNL     1       9.138  79.739   0.159  1.00  0.00     0.008 C 
ATOM      8  C   UNL     1      10.206  80.334  -0.788  1.00  0.00     0.005 C 
ATOM      9  C   UNL     1      11.026  79.250  -1.573  1.00  0.00     0.003 C 
ATOM     10  C   UNL     1      10.095  78.185  -2.242  1.00  0.00     0.000 C 
ATOM     11  C   UNL     1      10.934  77.030  -2.810  1.00  0.00     0.031 C 
ATOM     12  C   UNL     1      12.131  77.492  -3.589  1.00  0.00    -0.027 C 
ATOM     13  C   UNL     1      12.701  78.704  -3.427  1.00  0.00    -0.065 C 
ATOM     14  C   UNL     1      14.109  78.929  -3.933  1.00  0.00     0.063 C 
ATOM     15  C   UNL     1      15.071  79.116  -2.741  1.00  0.00     0.118 C 
ATOM     16  C   UNL     1      14.387  79.761  -1.507  1.00  0.00     0.033 C 
ATOM     17  C   UNL     1      13.195  80.648  -1.906  1.00  0.00     0.014 C 
ATOM     18  C   UNL     1      12.051  79.840  -2.619  1.00  0.00    -0.008 C 
ATOM     19  C   UNL     1      11.353  80.786  -3.630  1.00  0.00     0.016 C 
ENDROOT
BRANCH   4  20
ATOM     20  C   UNL     1       6.054  78.600   0.825  1.00  0.00     0.133 C 
ATOM     21  C   UNL     1       5.634  78.487   2.261  1.00  0.00     0.088 C 
ATOM     22  O   UNL     1       5.376  79.277   0.066  1.00  0.00    -0.300 OA
ENDBRANCH   4  20
BRANCH  15  23
ATOM     23  O   UNL     1      16.159  79.902  -3.157  1.00  0.00    -0.393 OA
ATOM     24  H   UNL     1      16.967  79.327  -3.104  1.00  0.00     0.210 HD
ENDBRANCH  15  23
TORSDOF 2
ENDMDL
MODEL 10
REMARK VINA RESULT:    -6.653      1.673      7.030
REMARK INTER + INTRA:          -7.410
REMARK INTER:                  -7.395
REMARK INTRA:                  -0.014
REMARK UNBOUND:                -0.173
REMARK SMILES CC(=O)[C@H]1CC[C@H]2[C@@H]3CC=C4C[C@@H](O)CC[C@]4(C)[C@H]3CC[C@]12C
REMARK SMILES IDX 7 1 6 2 5 3 4 4 22 5 23 6 21 7 20 8 19 9 8 10 9 11 10 12
REMARK SMILES IDX 11 13 12 14 13 15 15 16 16 17 17 18 18 19 2 20 1 21 3 22
REMARK SMILES IDX 14 23
REMARK H PARENT 14 24
REMARK Flexibility Score: inf
ROOT
ATOM      1  C   UNL     1      10.393  76.581  -2.021  1.00  0.00    -0.001 C 
ATOM      2  C   UNL     1       9.706  75.330  -2.556  1.00  0.00     0.005 C 
ATOM      3  C   UNL     1       8.680  74.967  -1.467  1.00  0.00     0.012 C 
ATOM      4  C   UNL     1       8.681  76.143  -0.458  1.00  0.00     0.062 C 
ATOM      5  C   UNL     1       9.301  77.322  -1.243  1.00  0.00    -0.020 C 
ATOM      6  C   UNL     1       8.226  77.995  -2.159  1.00  0.00     0.012 C 
ATOM      7  C   UNL     1       9.995  78.383  -0.365  1.00  0.00     0.008 C 
ATOM      8  C   UNL     1      10.830  79.360  -1.226  1.00  0.00     0.005 C 
ATOM      9  C   UNL     1      11.843  78.645  -2.187  1.00  0.00     0.003 C 
ATOM     10  C   UNL     1      11.163  77.493  -3.000  1.00  0.00     0.000 C 
ATOM     11  C   UNL     1      12.225  76.682  -3.759  1.00  0.00     0.031 C 
ATOM     12  C   UNL     1      13.227  77.539  -4.477  1.00  0.00    -0.027 C 
ATOM     13  C   UNL     1      13.491  78.817  -4.136  1.00  0.00    -0.065 C 
ATOM     14  C   UNL     1      14.771  79.460  -4.625  1.00  0.00     0.063 C 
ATOM     15  C   UNL     1      15.725  79.702  -3.437  1.00  0.00     0.118 C 
ATOM     16  C   UNL     1      14.975  79.965  -2.103  1.00  0.00     0.033 C 
ATOM     17  C   UNL     1      13.582  80.574  -2.335  1.00  0.00     0.014 C 
ATOM     18  C   UNL     1      12.632  79.621  -3.146  1.00  0.00    -0.008 C 
ATOM     19  C   UNL     1      11.667  80.503  -3.981  1.00  0.00     0.016 C 
ENDROOT
BRANCH   4  20
ATOM     20  C   UNL     1       7.326  76.422   0.168  1.00  0.00     0.133 C 
ATOM     21  C   UNL     1       6.195  75.448   0.015  1.00  0.00     0.088 C 
ATOM     22  O   UNL     1       7.141  77.439   0.820  1.00  0.00    -0.300 OA
ENDBRANCH   4  20
BRANCH  15  23
ATOM     23  O   UNL     1      16.562  80.788  -3.743  1.00  0.00    -0.393 OA
ATOM     24  H   UNL     1      16.091  81.609  -3.443  1.00  0.00     0.210 HD
ENDBRANCH  15  23
TORSDOF 2
ENDMDL
