MODEL 1
REMARK VINA RESULT:    -9.880      0.000      0.000
REMARK INTER + INTRA:         -12.093
REMARK INTER:                 -11.901
REMARK INTRA:                  -0.192
REMARK UNBOUND:                -0.192
REMARK SMILES CN1CC[C@H](c2c(O)cc(O)c3c(=O)cc(-c4ccccc4Cl)oc23)[C@H](O)C1
REMARK SMILES IDX 1 1 2 2 3 3 4 4 5 5 26 6 28 7 27 8 6 10 7 11 25 12 9 13
REMARK SMILES IDX 12 14 24 15 10 16 13 17 16 18 15 19 14 20 8 21 11 23 17 25
REMARK SMILES IDX 18 26 22 27 19 28 21 29 23 30 20 31
REMARK H PARENT 27 9 8 22 11 24
REMARK Flexibility Score: inf
ROOT
ATOM      1  C   UNL     1      20.532  40.322  -6.429  1.00  0.00     0.105 C 
ATOM      2  N   UNL     1      21.433  39.446  -7.196  1.00  0.00    -0.304 NA
ATOM      3  C   UNL     1      22.824  39.961  -7.159  1.00  0.00     0.085 C 
ATOM      4  C   UNL     1      23.864  38.847  -7.316  1.00  0.00     0.027 C 
ATOM      5  C   UNL     1      23.763  37.876  -6.123  1.00  0.00     0.058 C 
ATOM      6  C   UNL     1      22.282  37.579  -5.718  1.00  0.00     0.136 C 
ATOM      7  C   UNL     1      21.277  38.023  -6.800  1.00  0.00     0.116 C 
ENDROOT
BRANCH   6   8
ATOM      8  O   UNL     1      22.078  36.219  -5.429  1.00  0.00    -0.391 OA
ATOM      9  H   UNL     1      21.099  36.093  -5.322  1.00  0.00     0.211 HD
ENDBRANCH   6   8
BRANCH   5  10
ATOM     10  C   UNL     1      24.639  36.631  -6.327  1.00  0.00     0.043 A 
ATOM     11  C   UNL     1      25.540  36.200  -5.331  1.00  0.00     0.126 A 
ATOM     12  C   UNL     1      24.575  35.909  -7.544  1.00  0.00     0.149 A 
ATOM     13  C   UNL     1      26.302  35.046  -5.522  1.00  0.00     0.093 A 
ATOM     14  C   UNL     1      25.374  34.749  -7.750  1.00  0.00     0.107 A 
ATOM     15  O   UNL     1      23.763  36.335  -8.509  1.00  0.00    -0.455 OA
ATOM     16  C   UNL     1      26.205  34.294  -6.691  1.00  0.00     0.134 A 
ATOM     17  C   UNL     1      25.314  34.142  -9.028  1.00  0.00     0.197 A 
ATOM     18  C   UNL     1      23.653  35.755  -9.697  1.00  0.00     0.140 A 
ATOM     19  C   UNL     1      24.437  34.637  -9.992  1.00  0.00     0.100 A 
ATOM     20  O   UNL     1      26.060  33.179  -9.346  1.00  0.00    -0.289 OA
BRANCH  11  21
ATOM     21  O   UNL     1      25.685  36.914  -4.144  1.00  0.00    -0.507 OA
ATOM     22  H   UNL     1      25.026  36.822  -3.379  1.00  0.00     0.293 HD
ENDBRANCH  11  21
BRANCH  16  23
ATOM     23  O   UNL     1      26.935  33.101  -6.729  1.00  0.00    -0.507 OA
ATOM     24  H   UNL     1      27.926  33.040  -6.911  1.00  0.00     0.293 HD
ENDBRANCH  16  23
BRANCH  18  25
ATOM     25  C   UNL     1      22.707  36.312 -10.692  1.00  0.00     0.036 A 
ATOM     26  C   UNL     1      21.430  36.739 -10.279  1.00  0.00     0.013 A 
ATOM     27  C   UNL     1      23.069  36.455 -12.054  1.00  0.00     0.052 A 
ATOM     28  C   UNL     1      20.534  37.292 -11.196  1.00  0.00     0.001 A 
ATOM     29  C   UNL     1      22.160  37.012 -12.962  1.00  0.00     0.021 A 
ATOM     30  Cl  UNL     1      24.619  35.897 -12.678  1.00  0.00    -0.084 Cl
ATOM     31  C   UNL     1      20.899  37.430 -12.536  1.00  0.00     0.002 A 
ENDBRANCH  18  25
ENDBRANCH   5  10
TORSDOF 5
ENDMDL
MODEL 2
REMARK VINA RESULT:    -9.820      1.518      1.762
REMARK INTER + INTRA:         -12.021
REMARK INTER:                 -12.140
REMARK INTRA:                   0.119
REMARK UNBOUND:                -0.192
REMARK SMILES CN1CC[C@H](c2c(O)cc(O)c3c(=O)cc(-c4ccccc4Cl)oc23)[C@H](O)C1
REMARK SMILES IDX 1 1 2 2 3 3 4 4 5 5 26 6 28 7 27 8 6 10 7 11 25 12 9 13
REMARK SMILES IDX 12 14 24 15 10 16 13 17 16 18 15 19 14 20 8 21 11 23 17 25
REMARK SMILES IDX 18 26 22 27 19 28 21 29 23 30 20 31
REMARK H PARENT 27 9 8 22 11 24
REMARK Flexibility Score: inf
ROOT
ATOM      1  C   UNL     1      20.593  39.410  -4.094  1.00  0.00     0.105 C 
ATOM      2  N   UNL     1      21.685  39.019  -5.000  1.00  0.00    -0.304 NA
ATOM      3  C   UNL     1      23.004  39.210  -4.347  1.00  0.00     0.085 C 
ATOM      4  C   UNL     1      24.070  38.255  -4.893  1.00  0.00     0.027 C 
ATOM      5  C   UNL     1      23.671  36.801  -4.573  1.00  0.00     0.058 C 
ATOM      6  C   UNL     1      22.142  36.542  -4.776  1.00  0.00     0.136 C 
ATOM      7  C   UNL     1      21.458  37.669  -5.576  1.00  0.00     0.116 C 
ENDROOT
BRANCH   6   8
ATOM      8  O   UNL     1      21.896  35.312  -5.409  1.00  0.00    -0.391 OA
ATOM      9  H   UNL     1      22.127  34.603  -4.753  1.00  0.00     0.211 HD
ENDBRANCH   6   8
BRANCH   5  10
ATOM     10  C   UNL     1      24.595  35.791  -5.271  1.00  0.00     0.043 A 
ATOM     11  C   UNL     1      25.554  35.054  -4.544  1.00  0.00     0.126 A 
ATOM     12  C   UNL     1      24.517  35.607  -6.673  1.00  0.00     0.149 A 
ATOM     13  C   UNL     1      26.360  34.116  -5.191  1.00  0.00     0.093 A 
ATOM     14  C   UNL     1      25.361  34.672  -7.337  1.00  0.00     0.107 A 
ATOM     15  O   UNL     1      23.650  36.333  -7.375  1.00  0.00    -0.455 OA
ATOM     16  C   UNL     1      26.252  33.884  -6.561  1.00  0.00     0.134 A 
ATOM     17  C   UNL     1      25.279  34.618  -8.750  1.00  0.00     0.197 A 
ATOM     18  C   UNL     1      23.520  36.264  -8.694  1.00  0.00     0.140 A 
ATOM     19  C   UNL     1      24.343  35.402  -9.422  1.00  0.00     0.100 A 
ATOM     20  O   UNL     1      26.055  33.905  -9.437  1.00  0.00    -0.289 OA
BRANCH  11  21
ATOM     21  O   UNL     1      25.711  35.246  -3.173  1.00  0.00    -0.507 OA
ATOM     22  H   UNL     1      26.136  34.545  -2.579  1.00  0.00     0.293 HD
ENDBRANCH  11  21
BRANCH  16  23
ATOM     23  O   UNL     1      27.034  32.848  -7.082  1.00  0.00    -0.507 OA
ATOM     24  H   UNL     1      28.043  32.823  -7.059  1.00  0.00     0.293 HD
ENDBRANCH  16  23
BRANCH  18  25
ATOM     25  C   UNL     1      22.511  37.115  -9.369  1.00  0.00     0.036 A 
ATOM     26  C   UNL     1      22.225  38.396  -8.859  1.00  0.00     0.013 A 
ATOM     27  C   UNL     1      21.845  36.680 -10.540  1.00  0.00     0.052 A 
ATOM     28  C   UNL     1      21.297  39.224  -9.496  1.00  0.00     0.001 A 
ATOM     29  C   UNL     1      20.917  37.521 -11.168  1.00  0.00     0.021 A 
ATOM     30  Cl  UNL     1      22.091  35.073 -11.219  1.00  0.00    -0.084 Cl
ATOM     31  C   UNL     1      20.646  38.788 -10.650  1.00  0.00     0.002 A 
ENDBRANCH  18  25
ENDBRANCH   5  10
TORSDOF 5
ENDMDL
MODEL 3
REMARK VINA RESULT:    -9.077      2.690      5.838
REMARK INTER + INTRA:         -11.126
REMARK INTER:                 -11.901
REMARK INTRA:                   0.775
REMARK UNBOUND:                -0.192
REMARK SMILES CN1CC[C@H](c2c(O)cc(O)c3c(=O)cc(-c4ccccc4Cl)oc23)[C@H](O)C1
REMARK SMILES IDX 1 1 2 2 3 3 4 4 5 5 26 6 28 7 27 8 6 10 7 11 25 12 9 13
REMARK SMILES IDX 12 14 24 15 10 16 13 17 16 18 15 19 14 20 8 21 11 23 17 25
REMARK SMILES IDX 18 26 22 27 19 28 21 29 23 30 20 31
REMARK H PARENT 27 9 8 22 11 24
REMARK Flexibility Score: inf
ROOT
ATOM      1  C   UNL     1      20.080  42.826  -7.088  1.00  0.00     0.105 C 
ATOM      2  N   UNL     1      20.837  41.577  -7.270  1.00  0.00    -0.304 NA
ATOM      3  C   UNL     1      19.984  40.397  -6.980  1.00  0.00     0.085 C 
ATOM      4  C   UNL     1      20.428  39.151  -7.753  1.00  0.00     0.027 C 
ATOM      5  C   UNL     1      20.268  39.400  -9.265  1.00  0.00     0.058 C 
ATOM      6  C   UNL     1      20.713  40.839  -9.685  1.00  0.00     0.136 C 
ATOM      7  C   UNL     1      21.529  41.545  -8.583  1.00  0.00     0.116 C 
ENDROOT
BRANCH   6   8
ATOM      8  O   UNL     1      21.455  40.834 -10.878  1.00  0.00    -0.391 OA
ATOM      9  H   UNL     1      20.878  41.241 -11.575  1.00  0.00     0.211 HD
ENDBRANCH   6   8
BRANCH   5  10
ATOM     10  C   UNL     1      20.886  38.265 -10.096  1.00  0.00     0.043 A 
ATOM     11  C   UNL     1      20.406  37.960 -11.388  1.00  0.00     0.126 A 
ATOM     12  C   UNL     1      21.936  37.482  -9.559  1.00  0.00     0.149 A 
ATOM     13  C   UNL     1      21.004  36.948 -12.140  1.00  0.00     0.093 A 
ATOM     14  C   UNL     1      22.526  36.429 -10.316  1.00  0.00     0.107 A 
ATOM     15  O   UNL     1      22.364  37.730  -8.324  1.00  0.00    -0.455 OA
ATOM     16  C   UNL     1      22.076  36.209 -11.645  1.00  0.00     0.134 A 
ATOM     17  C   UNL     1      23.507  35.640  -9.668  1.00  0.00     0.197 A 
ATOM     18  C   UNL     1      23.315  37.035  -7.713  1.00  0.00     0.140 A 
ATOM     19  C   UNL     1      23.913  35.959  -8.374  1.00  0.00     0.100 A 
ATOM     20  O   UNL     1      24.010  34.622 -10.212  1.00  0.00    -0.289 OA
BRANCH  11  21
ATOM     21  O   UNL     1      19.333  38.661 -11.933  1.00  0.00    -0.507 OA
ATOM     22  H   UNL     1      19.467  39.440 -12.567  1.00  0.00     0.293 HD
ENDBRANCH  11  21
BRANCH  16  23
ATOM     23  O   UNL     1      22.664  35.294 -12.526  1.00  0.00    -0.507 OA
ATOM     24  H   UNL     1      23.604  34.938 -12.440  1.00  0.00     0.293 HD
ENDBRANCH  16  23
BRANCH  18  25
ATOM     25  C   UNL     1      23.718  37.409  -6.337  1.00  0.00     0.036 A 
ATOM     26  C   UNL     1      23.138  38.536  -5.722  1.00  0.00     0.013 A 
ATOM     27  C   UNL     1      24.656  36.639  -5.608  1.00  0.00     0.052 A 
ATOM     28  C   UNL     1      23.484  38.890  -4.416  1.00  0.00     0.001 A 
ATOM     29  C   UNL     1      24.992  37.005  -4.298  1.00  0.00     0.021 A 
ATOM     30  Cl  UNL     1      25.479  35.248  -6.311  1.00  0.00    -0.084 Cl
ATOM     31  C   UNL     1      24.408  38.125  -3.704  1.00  0.00     0.002 A 
ENDBRANCH  18  25
ENDBRANCH   5  10
TORSDOF 5
ENDMDL
MODEL 4
REMARK VINA RESULT:    -9.013      2.210      5.460
REMARK INTER + INTRA:         -11.049
REMARK INTER:                 -11.713
REMARK INTRA:                   0.665
REMARK UNBOUND:                -0.192
REMARK SMILES CN1CC[C@H](c2c(O)cc(O)c3c(=O)cc(-c4ccccc4Cl)oc23)[C@H](O)C1
REMARK SMILES IDX 1 1 2 2 3 3 4 4 5 5 26 6 28 7 27 8 6 10 7 11 25 12 9 13
REMARK SMILES IDX 12 14 24 15 10 16 13 17 16 18 15 19 14 20 8 21 11 23 17 25
REMARK SMILES IDX 18 26 22 27 19 28 21 29 23 30 20 31
REMARK H PARENT 27 9 8 22 11 24
REMARK Flexibility Score: inf
ROOT
ATOM      1  C   UNL     1      20.606  40.012  -5.135  1.00  0.00     0.105 C 
ATOM      2  N   UNL     1      21.650  39.160  -5.725  1.00  0.00    -0.304 NA
ATOM      3  C   UNL     1      21.206  37.745  -5.779  1.00  0.00     0.085 C 
ATOM      4  C   UNL     1      21.873  36.966  -6.917  1.00  0.00     0.027 C 
ATOM      5  C   UNL     1      21.453  37.572  -8.271  1.00  0.00     0.058 C 
ATOM      6  C   UNL     1      21.420  39.135  -8.242  1.00  0.00     0.136 C 
ATOM      7  C   UNL     1      22.145  39.714  -7.010  1.00  0.00     0.116 C 
ENDROOT
BRANCH   6   8
ATOM      8  O   UNL     1      21.972  39.694  -9.408  1.00  0.00    -0.391 OA
ATOM      9  H   UNL     1      22.638  40.369  -9.113  1.00  0.00     0.211 HD
ENDBRANCH   6   8
BRANCH   5  10
ATOM     10  C   UNL     1      22.248  36.963  -9.437  1.00  0.00     0.043 A 
ATOM     11  C   UNL     1      21.775  37.042 -10.763  1.00  0.00     0.126 A 
ATOM     12  C   UNL     1      23.465  36.283  -9.188  1.00  0.00     0.149 A 
ATOM     13  C   UNL     1      22.529  36.513 -11.813  1.00  0.00     0.093 A 
ATOM     14  C   UNL     1      24.219  35.718 -10.256  1.00  0.00     0.107 A 
ATOM     15  O   UNL     1      23.896  36.162  -7.935  1.00  0.00    -0.455 OA
ATOM     16  C   UNL     1      23.756  35.892 -11.587  1.00  0.00     0.134 A 
ATOM     17  C   UNL     1      25.376  34.977  -9.908  1.00  0.00     0.197 A 
ATOM     18  C   UNL     1      25.002  35.515  -7.590  1.00  0.00     0.140 A 
ATOM     19  C   UNL     1      25.774  34.896  -8.575  1.00  0.00     0.100 A 
ATOM     20  O   UNL     1      26.049  34.350 -10.766  1.00  0.00    -0.289 OA
BRANCH  11  21
ATOM     21  O   UNL     1      20.553  37.645 -11.050  1.00  0.00    -0.507 OA
ATOM     22  H   UNL     1      20.092  38.261 -10.391  1.00  0.00     0.293 HD
ENDBRANCH  11  21
BRANCH  16  23
ATOM     23  O   UNL     1      24.473  35.496 -12.722  1.00  0.00    -0.507 OA
ATOM     24  H   UNL     1      24.803  36.125 -13.439  1.00  0.00     0.293 HD
ENDBRANCH  16  23
BRANCH  18  25
ATOM     25  C   UNL     1      25.390  35.453  -6.160  1.00  0.00     0.036 A 
ATOM     26  C   UNL     1      25.198  36.578  -5.335  1.00  0.00     0.013 A 
ATOM     27  C   UNL     1      25.926  34.272  -5.592  1.00  0.00     0.052 A 
ATOM     28  C   UNL     1      25.531  36.532  -3.980  1.00  0.00     0.001 A 
ATOM     29  C   UNL     1      26.256  34.240  -4.231  1.00  0.00     0.021 A 
ATOM     30  Cl  UNL     1      26.259  32.834  -6.554  1.00  0.00    -0.084 Cl
ATOM     31  C   UNL     1      26.058  35.364  -3.428  1.00  0.00     0.002 A 
ENDBRANCH  18  25
ENDBRANCH   5  10
TORSDOF 5
ENDMDL
MODEL 5
REMARK VINA RESULT:    -8.727      1.481      2.063
REMARK INTER + INTRA:         -10.705
REMARK INTER:                 -11.070
REMARK INTRA:                   0.365
REMARK UNBOUND:                -0.192
REMARK SMILES CN1CC[C@H](c2c(O)cc(O)c3c(=O)cc(-c4ccccc4Cl)oc23)[C@H](O)C1
REMARK SMILES IDX 1 1 2 2 3 3 4 4 5 5 26 6 28 7 27 8 6 10 7 11 25 12 9 13
REMARK SMILES IDX 12 14 24 15 10 16 13 17 16 18 15 19 14 20 8 21 11 23 17 25
REMARK SMILES IDX 18 26 22 27 19 28 21 29 23 30 20 31
REMARK H PARENT 27 9 8 22 11 24
REMARK Flexibility Score: inf
ROOT
ATOM      1  C   UNL     1      20.783  40.337  -5.183  1.00  0.00     0.105 C 
ATOM      2  N   UNL     1      21.783  39.331  -4.787  1.00  0.00    -0.304 NA
ATOM      3  C   UNL     1      21.175  37.979  -4.733  1.00  0.00     0.085 C 
ATOM      4  C   UNL     1      22.196  36.868  -4.998  1.00  0.00     0.027 C 
ATOM      5  C   UNL     1      22.744  37.004  -6.432  1.00  0.00     0.058 C 
ATOM      6  C   UNL     1      23.014  38.492  -6.830  1.00  0.00     0.136 C 
ATOM      7  C   UNL     1      23.015  39.435  -5.610  1.00  0.00     0.116 C 
ENDROOT
BRANCH   6   8
ATOM      8  O   UNL     1      24.224  38.639  -7.528  1.00  0.00    -0.391 OA
ATOM      9  H   UNL     1      24.023  38.473  -8.486  1.00  0.00     0.211 HD
ENDBRANCH   6   8
BRANCH   5  10
ATOM     10  C   UNL     1      23.917  36.045  -6.685  1.00  0.00     0.043 A 
ATOM     11  C   UNL     1      24.743  35.604  -5.630  1.00  0.00     0.126 A 
ATOM     12  C   UNL     1      24.208  35.610  -8.001  1.00  0.00     0.149 A 
ATOM     13  C   UNL     1      25.782  34.706  -5.876  1.00  0.00     0.093 A 
ATOM     14  C   UNL     1      25.287  34.716  -8.257  1.00  0.00     0.107 A 
ATOM     15  O   UNL     1      23.465  36.057  -9.011  1.00  0.00    -0.455 OA
ATOM     16  C   UNL     1      26.041  34.225  -7.158  1.00  0.00     0.134 A 
ATOM     17  C   UNL     1      25.561  34.405  -9.611  1.00  0.00     0.197 A 
ATOM     18  C   UNL     1      23.672  35.742 -10.283  1.00  0.00     0.140 A 
ATOM     19  C   UNL     1      24.739  34.904 -10.619  1.00  0.00     0.100 A 
ATOM     20  O   UNL     1      26.557  33.713  -9.948  1.00  0.00    -0.289 OA
BRANCH  11  21
ATOM     21  O   UNL     1      24.536  36.055  -4.328  1.00  0.00    -0.507 OA
ATOM     22  H   UNL     1      23.853  36.771  -4.110  1.00  0.00     0.293 HD
ENDBRANCH  11  21
BRANCH  16  23
ATOM     23  O   UNL     1      27.037  33.248  -7.269  1.00  0.00    -0.507 OA
ATOM     24  H   UNL     1      27.420  32.917  -8.142  1.00  0.00     0.293 HD
ENDBRANCH  16  23
BRANCH  18  25
ATOM     25  C   UNL     1      22.773  36.294 -11.324  1.00  0.00     0.036 A 
ATOM     26  C   UNL     1      23.177  36.283 -12.673  1.00  0.00     0.013 A 
ATOM     27  C   UNL     1      21.495  36.809 -10.997  1.00  0.00     0.052 A 
ATOM     28  C   UNL     1      22.334  36.773 -13.673  1.00  0.00     0.001 A 
ATOM     29  C   UNL     1      20.660  37.297 -12.010  1.00  0.00     0.021 A 
ATOM     30  Cl  UNL     1      20.925  36.920  -9.334  1.00  0.00    -0.084 Cl
ATOM     31  C   UNL     1      21.076  37.278 -13.342  1.00  0.00     0.002 A 
ENDBRANCH  18  25
ENDBRANCH   5  10
TORSDOF 5
ENDMDL
MODEL 6
REMARK VINA RESULT:    -8.724      3.521      6.676
REMARK INTER + INTRA:         -10.701
REMARK INTER:                 -10.356
REMARK INTRA:                  -0.345
REMARK UNBOUND:                -0.192
REMARK SMILES CN1CC[C@H](c2c(O)cc(O)c3c(=O)cc(-c4ccccc4Cl)oc23)[C@H](O)C1
REMARK SMILES IDX 1 1 2 2 3 3 4 4 5 5 26 6 28 7 27 8 6 10 7 11 25 12 9 13
REMARK SMILES IDX 12 14 24 15 10 16 13 17 16 18 15 19 14 20 8 21 11 23 17 25
REMARK SMILES IDX 18 26 22 27 19 28 21 29 23 30 20 31
REMARK H PARENT 27 9 8 22 11 24
REMARK Flexibility Score: inf
ROOT
ATOM      1  C   UNL     1      19.731  43.883  -7.178  1.00  0.00     0.105 C 
ATOM      2  N   UNL     1      20.148  42.502  -7.471  1.00  0.00    -0.304 NA
ATOM      3  C   UNL     1      18.977  41.591  -7.484  1.00  0.00     0.085 C 
ATOM      4  C   UNL     1      19.192  40.376  -8.392  1.00  0.00     0.027 C 
ATOM      5  C   UNL     1      19.352  40.846  -9.851  1.00  0.00     0.058 C 
ATOM      6  C   UNL     1      20.225  42.138  -9.971  1.00  0.00     0.136 C 
ATOM      7  C   UNL     1      21.010  42.438  -8.678  1.00  0.00     0.116 C 
ENDROOT
BRANCH   6   8
ATOM      8  O   UNL     1      21.122  42.069 -11.051  1.00  0.00    -0.391 OA
ATOM      9  H   UNL     1      20.583  41.857 -11.857  1.00  0.00     0.211 HD
ENDBRANCH   6   8
BRANCH   5  10
ATOM     10  C   UNL     1      19.772  39.695 -10.777  1.00  0.00     0.043 A 
ATOM     11  C   UNL     1      19.285  39.604 -12.098  1.00  0.00     0.126 A 
ATOM     12  C   UNL     1      20.639  38.681 -10.302  1.00  0.00     0.149 A 
ATOM     13  C   UNL     1      19.706  38.569 -12.935  1.00  0.00     0.093 A 
ATOM     14  C   UNL     1      21.045  37.608 -11.146  1.00  0.00     0.107 A 
ATOM     15  O   UNL     1      21.066  38.731  -9.042  1.00  0.00    -0.455 OA
ATOM     16  C   UNL     1      20.604  37.598 -12.497  1.00  0.00     0.134 A 
ATOM     17  C   UNL     1      21.839  36.592 -10.563  1.00  0.00     0.197 A 
ATOM     18  C   UNL     1      21.850  37.816  -8.487  1.00  0.00     0.140 A 
ATOM     19  C   UNL     1      22.256  36.710  -9.238  1.00  0.00     0.100 A 
ATOM     20  O   UNL     1      22.159  35.550 -11.192  1.00  0.00    -0.289 OA
BRANCH  11  21
ATOM     21  O   UNL     1      18.380  40.542 -12.590  1.00  0.00    -0.507 OA
ATOM     22  H   UNL     1      17.530  40.268 -13.067  1.00  0.00     0.293 HD
ENDBRANCH  11  21
BRANCH  16  23
ATOM     23  O   UNL     1      21.038  36.672 -13.452  1.00  0.00    -0.507 OA
ATOM     24  H   UNL     1      21.311  36.906 -14.395  1.00  0.00     0.293 HD
ENDBRANCH  16  23
BRANCH  18  25
ATOM     25  C   UNL     1      22.272  37.981  -7.075  1.00  0.00     0.036 A 
ATOM     26  C   UNL     1      21.804  37.082  -6.098  1.00  0.00     0.013 A 
ATOM     27  C   UNL     1      23.163  39.010  -6.688  1.00  0.00     0.052 A 
ATOM     28  C   UNL     1      22.210  37.203  -4.767  1.00  0.00     0.001 A 
ATOM     29  C   UNL     1      23.562  39.120  -5.349  1.00  0.00     0.021 A 
ATOM     30  Cl  UNL     1      23.755  40.219  -7.825  1.00  0.00    -0.084 Cl
ATOM     31  C   UNL     1      23.089  38.220  -4.394  1.00  0.00     0.002 A 
ENDBRANCH  18  25
ENDBRANCH   5  10
TORSDOF 5
ENDMDL
MODEL 7
REMARK VINA RESULT:    -8.602      3.330      6.179
REMARK INTER + INTRA:         -10.554
REMARK INTER:                 -10.095
REMARK INTRA:                  -0.459
REMARK UNBOUND:                -0.192
REMARK SMILES CN1CC[C@H](c2c(O)cc(O)c3c(=O)cc(-c4ccccc4Cl)oc23)[C@H](O)C1
REMARK SMILES IDX 1 1 2 2 3 3 4 4 5 5 26 6 28 7 27 8 6 10 7 11 25 12 9 13
REMARK SMILES IDX 12 14 24 15 10 16 13 17 16 18 15 19 14 20 8 21 11 23 17 25
REMARK SMILES IDX 18 26 22 27 19 28 21 29 23 30 20 31
REMARK H PARENT 27 9 8 22 11 24
REMARK Flexibility Score: inf
ROOT
ATOM      1  C   UNL     1      19.678  42.915 -12.218  1.00  0.00     0.105 C 
ATOM      2  N   UNL     1      19.068  42.627 -10.909  1.00  0.00    -0.304 NA
ATOM      3  C   UNL     1      18.698  41.194 -10.805  1.00  0.00     0.085 C 
ATOM      4  C   UNL     1      18.706  40.691  -9.358  1.00  0.00     0.027 C 
ATOM      5  C   UNL     1      20.137  40.779  -8.791  1.00  0.00     0.058 C 
ATOM      6  C   UNL     1      20.870  42.093  -9.218  1.00  0.00     0.136 C 
ATOM      7  C   UNL     1      19.900  43.145  -9.794  1.00  0.00     0.116 C 
ENDROOT
BRANCH   6   8
ATOM      8  O   UNL     1      21.592  42.662  -8.155  1.00  0.00    -0.391 OA
ATOM      9  H   UNL     1      21.843  43.580  -8.441  1.00  0.00     0.211 HD
ENDBRANCH   6   8
BRANCH   5  10
ATOM     10  C   UNL     1      20.170  40.482  -7.284  1.00  0.00     0.043 A 
ATOM     11  C   UNL     1      19.461  41.284  -6.365  1.00  0.00     0.126 A 
ATOM     12  C   UNL     1      20.946  39.405  -6.789  1.00  0.00     0.149 A 
ATOM     13  C   UNL     1      19.477  40.976  -5.003  1.00  0.00     0.093 A 
ATOM     14  C   UNL     1      20.985  39.110  -5.397  1.00  0.00     0.107 A 
ATOM     15  O   UNL     1      21.656  38.672  -7.643  1.00  0.00    -0.455 OA
ATOM     16  C   UNL     1      20.189  39.885  -4.511  1.00  0.00     0.134 A 
ATOM     17  C   UNL     1      21.856  38.073  -4.981  1.00  0.00     0.197 A 
ATOM     18  C   UNL     1      22.442  37.665  -7.282  1.00  0.00     0.140 A 
ATOM     19  C   UNL     1      22.567  37.341  -5.929  1.00  0.00     0.100 A 
ATOM     20  O   UNL     1      22.044  37.807  -3.765  1.00  0.00    -0.289 OA
BRANCH  11  21
ATOM     21  O   UNL     1      18.736  42.392  -6.797  1.00  0.00    -0.507 OA
ATOM     22  H   UNL     1      18.749  42.698  -7.762  1.00  0.00     0.293 HD
ENDBRANCH  11  21
BRANCH  16  23
ATOM     23  O   UNL     1      20.046  39.609  -3.147  1.00  0.00    -0.507 OA
ATOM     24  H   UNL     1      19.538  40.189  -2.495  1.00  0.00     0.293 HD
ENDBRANCH  16  23
BRANCH  18  25
ATOM     25  C   UNL     1      23.180  36.911  -8.323  1.00  0.00     0.036 A 
ATOM     26  C   UNL     1      24.508  36.507  -8.084  1.00  0.00     0.013 A 
ATOM     27  C   UNL     1      22.568  36.558  -9.551  1.00  0.00     0.052 A 
ATOM     28  C   UNL     1      25.211  35.773  -9.041  1.00  0.00     0.001 A 
ATOM     29  C   UNL     1      23.286  35.821 -10.501  1.00  0.00     0.021 A 
ATOM     30  Cl  UNL     1      20.934  37.067  -9.967  1.00  0.00    -0.084 Cl
ATOM     31  C   UNL     1      24.601  35.428 -10.247  1.00  0.00     0.002 A 
ENDBRANCH  18  25
ENDBRANCH   5  10
TORSDOF 5
ENDMDL
MODEL 8
REMARK VINA RESULT:    -8.453      3.300      6.302
REMARK INTER + INTRA:         -10.375
REMARK INTER:                  -9.969
REMARK INTRA:                  -0.406
REMARK UNBOUND:                -0.192
REMARK SMILES CN1CC[C@H](c2c(O)cc(O)c3c(=O)cc(-c4ccccc4Cl)oc23)[C@H](O)C1
REMARK SMILES IDX 1 1 2 2 3 3 4 4 5 5 26 6 28 7 27 8 6 10 7 11 25 12 9 13
REMARK SMILES IDX 12 14 24 15 10 16 13 17 16 18 15 19 14 20 8 21 11 23 17 25
REMARK SMILES IDX 18 26 22 27 19 28 21 29 23 30 20 31
REMARK H PARENT 27 9 8 22 11 24
REMARK Flexibility Score: inf
ROOT
ATOM      1  C   UNL     1      19.330  43.663  -6.734  1.00  0.00     0.105 C 
ATOM      2  N   UNL     1      19.495  43.214  -8.125  1.00  0.00    -0.304 NA
ATOM      3  C   UNL     1      20.930  43.025  -8.451  1.00  0.00     0.085 C 
ATOM      4  C   UNL     1      21.148  41.977  -9.547  1.00  0.00     0.027 C 
ATOM      5  C   UNL     1      20.665  40.602  -9.048  1.00  0.00     0.058 C 
ATOM      6  C   UNL     1      19.328  40.694  -8.241  1.00  0.00     0.136 C 
ATOM      7  C   UNL     1      18.622  42.051  -8.430  1.00  0.00     0.116 C 
ENDROOT
BRANCH   6   8
ATOM      8  O   UNL     1      18.438  39.659  -8.578  1.00  0.00    -0.391 OA
ATOM      9  H   UNL     1      18.341  39.092  -7.768  1.00  0.00     0.211 HD
ENDBRANCH   6   8
BRANCH   5  10
ATOM     10  C   UNL     1      20.670  39.555 -10.173  1.00  0.00     0.043 A 
ATOM     11  C   UNL     1      19.908  39.740 -11.346  1.00  0.00     0.126 A 
ATOM     12  C   UNL     1      21.423  38.364 -10.032  1.00  0.00     0.149 A 
ATOM     13  C   UNL     1      19.953  38.793 -12.372  1.00  0.00     0.093 A 
ATOM     14  C   UNL     1      21.445  37.385 -11.065  1.00  0.00     0.107 A 
ATOM     15  O   UNL     1      22.106  38.158  -8.909  1.00  0.00    -0.455 OA
ATOM     16  C   UNL     1      20.737  37.645 -12.269  1.00  0.00     0.134 A 
ATOM     17  C   UNL     1      22.150  36.185 -10.803  1.00  0.00     0.197 A 
ATOM     18  C   UNL     1      22.814  37.063  -8.660  1.00  0.00     0.140 A 
ATOM     19  C   UNL     1      22.850  36.037  -9.607  1.00  0.00     0.100 A 
ATOM     20  O   UNL     1      22.141  35.216 -11.606  1.00  0.00    -0.289 OA
BRANCH  11  21
ATOM     21  O   UNL     1      19.103  40.865 -11.503  1.00  0.00    -0.507 OA
ATOM     22  H   UNL     1      18.214  40.825 -11.987  1.00  0.00     0.293 HD
ENDBRANCH  11  21
BRANCH  16  23
ATOM     23  O   UNL     1      20.788  36.822 -13.399  1.00  0.00    -0.507 OA
ATOM     24  H   UNL     1      20.902  35.819 -13.373  1.00  0.00     0.293 HD
ENDBRANCH  16  23
BRANCH  18  25
ATOM     25  C   UNL     1      23.544  36.948  -7.375  1.00  0.00     0.036 A 
ATOM     26  C   UNL     1      24.751  36.223  -7.321  1.00  0.00     0.013 A 
ATOM     27  C   UNL     1      23.070  37.576  -6.198  1.00  0.00     0.052 A 
ATOM     28  C   UNL     1      25.468  36.125  -6.127  1.00  0.00     0.001 A 
ATOM     29  C   UNL     1      23.801  37.469  -5.008  1.00  0.00     0.021 A 
ATOM     30  Cl  UNL     1      21.543  38.453  -6.151  1.00  0.00    -0.084 Cl
ATOM     31  C   UNL     1      24.995  36.748  -4.972  1.00  0.00     0.002 A 
ENDBRANCH  18  25
ENDBRANCH   5  10
TORSDOF 5
ENDMDL
MODEL 9
REMARK VINA RESULT:    -8.400      2.610      5.639
REMARK INTER + INTRA:         -10.311
REMARK INTER:                 -10.379
REMARK INTRA:                   0.068
REMARK UNBOUND:                -0.192
REMARK SMILES CN1CC[C@H](c2c(O)cc(O)c3c(=O)cc(-c4ccccc4Cl)oc23)[C@H](O)C1
REMARK SMILES IDX 1 1 2 2 3 3 4 4 5 5 26 6 28 7 27 8 6 10 7 11 25 12 9 13
REMARK SMILES IDX 12 14 24 15 10 16 13 17 16 18 15 19 14 20 8 21 11 23 17 25
REMARK SMILES IDX 18 26 22 27 19 28 21 29 23 30 20 31
REMARK H PARENT 27 9 8 22 11 24
REMARK Flexibility Score: inf
ROOT
ATOM      1  C   UNL     1      24.545  38.445  -3.615  1.00  0.00     0.105 C 
ATOM      2  N   UNL     1      23.741  37.930  -4.735  1.00  0.00    -0.304 NA
ATOM      3  C   UNL     1      22.302  37.893  -4.376  1.00  0.00     0.085 C 
ATOM      4  C   UNL     1      21.390  38.029  -5.600  1.00  0.00     0.027 C 
ATOM      5  C   UNL     1      21.607  39.409  -6.251  1.00  0.00     0.058 C 
ATOM      6  C   UNL     1      23.114  39.824  -6.288  1.00  0.00     0.136 C 
ATOM      7  C   UNL     1      24.056  38.636  -6.003  1.00  0.00     0.116 C 
ENDROOT
BRANCH   6   8
ATOM      8  O   UNL     1      23.469  40.410  -7.515  1.00  0.00    -0.391 OA
ATOM      9  H   UNL     1      23.749  39.670  -8.114  1.00  0.00     0.211 HD
ENDBRANCH   6   8
BRANCH   5  10
ATOM     10  C   UNL     1      20.872  39.525  -7.596  1.00  0.00     0.043 A 
ATOM     11  C   UNL     1      19.805  40.431  -7.770  1.00  0.00     0.126 A 
ATOM     12  C   UNL     1      21.241  38.693  -8.681  1.00  0.00     0.149 A 
ATOM     13  C   UNL     1      19.173  40.545  -9.009  1.00  0.00     0.093 A 
ATOM     14  C   UNL     1      20.577  38.789  -9.936  1.00  0.00     0.107 A 
ATOM     15  O   UNL     1      22.215  37.802  -8.513  1.00  0.00    -0.455 OA
ATOM     16  C   UNL     1      19.566  39.774 -10.101  1.00  0.00     0.134 A 
ATOM     17  C   UNL     1      20.949  37.858 -10.937  1.00  0.00     0.197 A 
ATOM     18  C   UNL     1      22.614  36.952  -9.450  1.00  0.00     0.140 A 
ATOM     19  C   UNL     1      21.982  36.955 -10.696  1.00  0.00     0.100 A 
ATOM     20  O   UNL     1      20.349  37.790 -12.041  1.00  0.00    -0.289 OA
BRANCH  11  21
ATOM     21  O   UNL     1      19.364  41.224  -6.713  1.00  0.00    -0.507 OA
ATOM     22  H   UNL     1      18.597  40.943  -6.115  1.00  0.00     0.293 HD
ENDBRANCH  11  21
BRANCH  16  23
ATOM     23  O   UNL     1      18.935  40.048 -11.319  1.00  0.00    -0.507 OA
ATOM     24  H   UNL     1      18.908  40.957 -11.759  1.00  0.00     0.293 HD
ENDBRANCH  16  23
BRANCH  18  25
ATOM     25  C   UNL     1      23.718  36.008  -9.152  1.00  0.00     0.036 A 
ATOM     26  C   UNL     1      24.022  35.690  -7.815  1.00  0.00     0.013 A 
ATOM     27  C   UNL     1      24.460  35.391 -10.188  1.00  0.00     0.052 A 
ATOM     28  C   UNL     1      25.041  34.783  -7.513  1.00  0.00     0.001 A 
ATOM     29  C   UNL     1      25.478  34.483  -9.871  1.00  0.00     0.021 A 
ATOM     30  Cl  UNL     1      24.194  35.769 -11.889  1.00  0.00    -0.084 Cl
ATOM     31  C   UNL     1      25.766  34.178  -8.540  1.00  0.00     0.002 A 
ENDBRANCH  18  25
ENDBRANCH   5  10
TORSDOF 5
ENDMDL
MODEL 10
REMARK VINA RESULT:    -8.341      2.989      5.834
REMARK INTER + INTRA:         -10.239
REMARK INTER:                  -9.957
REMARK INTRA:                  -0.282
REMARK UNBOUND:                -0.192
REMARK SMILES CN1CC[C@H](c2c(O)cc(O)c3c(=O)cc(-c4ccccc4Cl)oc23)[C@H](O)C1
REMARK SMILES IDX 1 1 2 2 3 3 4 4 5 5 26 6 28 7 27 8 6 10 7 11 25 12 9 13
REMARK SMILES IDX 12 14 24 15 10 16 13 17 16 18 15 19 14 20 8 21 11 23 17 25
REMARK SMILES IDX 18 26 22 27 19 28 21 29 23 30 20 31
REMARK H PARENT 27 9 8 22 11 24
REMARK Flexibility Score: inf
ROOT
ATOM      1  C   UNL     1      25.450  35.568  -6.765  1.00  0.00     0.105 C 
ATOM      2  N   UNL     1      24.139  36.057  -7.222  1.00  0.00    -0.304 NA
ATOM      3  C   UNL     1      23.073  35.681  -6.261  1.00  0.00     0.085 C 
ATOM      4  C   UNL     1      21.894  36.660  -6.283  1.00  0.00     0.027 C 
ATOM      5  C   UNL     1      22.374  38.052  -5.827  1.00  0.00     0.058 C 
ATOM      6  C   UNL     1      23.774  38.425  -6.415  1.00  0.00     0.136 C 
ATOM      7  C   UNL     1      24.188  37.499  -7.577  1.00  0.00     0.116 C 
ENDROOT
BRANCH   6   8
ATOM      8  O   UNL     1      23.824  39.761  -6.849  1.00  0.00    -0.391 OA
ATOM      9  H   UNL     1      23.219  40.277  -6.255  1.00  0.00     0.211 HD
ENDBRANCH   6   8
BRANCH   5  10
ATOM     10  C   UNL     1      21.286  39.120  -6.022  1.00  0.00     0.043 A 
ATOM     11  C   UNL     1      20.775  39.851  -4.929  1.00  0.00     0.126 A 
ATOM     12  C   UNL     1      20.754  39.365  -7.311  1.00  0.00     0.149 A 
ATOM     13  C   UNL     1      19.812  40.841  -5.132  1.00  0.00     0.093 A 
ATOM     14  C   UNL     1      19.750  40.354  -7.514  1.00  0.00     0.107 A 
ATOM     15  O   UNL     1      21.195  38.647  -8.342  1.00  0.00    -0.455 OA
ATOM     16  C   UNL     1      19.324  41.132  -6.404  1.00  0.00     0.134 A 
ATOM     17  C   UNL     1      19.212  40.470  -8.818  1.00  0.00     0.197 A 
ATOM     18  C   UNL     1      20.740  38.771  -9.582  1.00  0.00     0.140 A 
ATOM     19  C   UNL     1      19.724  39.690  -9.853  1.00  0.00     0.100 A 
ATOM     20  O   UNL     1      18.248  41.237  -9.077  1.00  0.00    -0.289 OA
BRANCH  11  21
ATOM     21  O   UNL     1      21.222  39.601  -3.633  1.00  0.00    -0.507 OA
ATOM     22  H   UNL     1      20.591  39.311  -2.896  1.00  0.00     0.293 HD
ENDBRANCH  11  21
BRANCH  16  23
ATOM     23  O   UNL     1      18.442  42.214  -6.502  1.00  0.00    -0.507 OA
ATOM     24  H   UNL     1      18.137  42.777  -5.722  1.00  0.00     0.293 HD
ENDBRANCH  16  23
BRANCH  18  25
ATOM     25  C   UNL     1      21.313  37.923 -10.654  1.00  0.00     0.036 A 
ATOM     26  C   UNL     1      21.635  36.579 -10.383  1.00  0.00     0.013 A 
ATOM     27  C   UNL     1      21.520  38.426 -11.961  1.00  0.00     0.052 A 
ATOM     28  C   UNL     1      22.151  35.755 -11.386  1.00  0.00     0.001 A 
ATOM     29  C   UNL     1      22.038  37.588 -12.957  1.00  0.00     0.021 A 
ATOM     30  Cl  UNL     1      21.205  40.108 -12.382  1.00  0.00    -0.084 Cl
ATOM     31  C   UNL     1      22.351  36.258 -12.672  1.00  0.00     0.002 A 
ENDBRANCH  18  25
ENDBRANCH   5  10
TORSDOF 5
ENDMDL
MODEL 11
REMARK VINA RESULT:    -8.274      3.320      7.210
REMARK INTER + INTRA:         -10.159
REMARK INTER:                  -9.802
REMARK INTRA:                  -0.358
REMARK UNBOUND:                -0.192
REMARK SMILES CN1CC[C@H](c2c(O)cc(O)c3c(=O)cc(-c4ccccc4Cl)oc23)[C@H](O)C1
REMARK SMILES IDX 1 1 2 2 3 3 4 4 5 5 26 6 28 7 27 8 6 10 7 11 25 12 9 13
REMARK SMILES IDX 12 14 24 15 10 16 13 17 16 18 15 19 14 20 8 21 11 23 17 25
REMARK SMILES IDX 18 26 22 27 19 28 21 29 23 30 20 31
REMARK H PARENT 27 9 8 22 11 24
REMARK Flexibility Score: inf
ROOT
ATOM      1  C   UNL     1      21.566  38.009 -16.284  1.00  0.00     0.105 C 
ATOM      2  N   UNL     1      20.580  38.438 -15.280  1.00  0.00    -0.304 NA
ATOM      3  C   UNL     1      20.220  37.313 -14.381  1.00  0.00     0.085 C 
ATOM      4  C   UNL     1      19.780  37.790 -12.994  1.00  0.00     0.027 C 
ATOM      5  C   UNL     1      20.957  38.500 -12.296  1.00  0.00     0.058 C 
ATOM      6  C   UNL     1      21.766  39.416 -13.272  1.00  0.00     0.136 C 
ATOM      7  C   UNL     1      21.010  39.681 -14.590  1.00  0.00     0.116 C 
ENDROOT
BRANCH   6   8
ATOM      8  O   UNL     1      22.106  40.644 -12.680  1.00  0.00    -0.391 OA
ATOM      9  H   UNL     1      22.094  40.500 -11.698  1.00  0.00     0.211 HD
ENDBRANCH   6   8
BRANCH   5  10
ATOM     10  C   UNL     1      20.519  39.176 -10.989  1.00  0.00     0.043 A 
ATOM     11  C   UNL     1      19.557  40.208 -10.986  1.00  0.00     0.126 A 
ATOM     12  C   UNL     1      21.104  38.790  -9.758  1.00  0.00     0.149 A 
ATOM     13  C   UNL     1      19.147  40.787  -9.784  1.00  0.00     0.093 A 
ATOM     14  C   UNL     1      20.707  39.401  -8.535  1.00  0.00     0.107 A 
ATOM     15  O   UNL     1      22.047  37.850  -9.755  1.00  0.00    -0.455 OA
ATOM     16  C   UNL     1      19.673  40.374  -8.561  1.00  0.00     0.134 A 
ATOM     17  C   UNL     1      21.407  39.017  -7.365  1.00  0.00     0.197 A 
ATOM     18  C   UNL     1      22.683  37.440  -8.665  1.00  0.00     0.140 A 
ATOM     19  C   UNL     1      22.380  38.022  -7.432  1.00  0.00     0.100 A 
ATOM     20  O   UNL     1      21.207  39.575  -6.254  1.00  0.00    -0.289 OA
BRANCH  11  21
ATOM     21  O   UNL     1      19.001  40.666 -12.178  1.00  0.00    -0.507 OA
ATOM     22  H   UNL     1      18.173  40.244 -12.581  1.00  0.00     0.293 HD
ENDBRANCH  11  21
BRANCH  16  23
ATOM     23  O   UNL     1      19.111  40.948  -7.415  1.00  0.00    -0.507 OA
ATOM     24  H   UNL     1      19.625  41.483  -6.731  1.00  0.00     0.293 HD
ENDBRANCH  16  23
BRANCH  18  25
ATOM     25  C   UNL     1      23.711  36.378  -8.780  1.00  0.00     0.036 A 
ATOM     26  C   UNL     1      24.775  36.334  -7.859  1.00  0.00     0.013 A 
ATOM     27  C   UNL     1      23.632  35.382  -9.784  1.00  0.00     0.052 A 
ATOM     28  C   UNL     1      25.739  35.326  -7.935  1.00  0.00     0.001 A 
ATOM     29  C   UNL     1      24.606  34.377  -9.847  1.00  0.00     0.021 A 
ATOM     30  Cl  UNL     1      22.373  35.388 -11.017  1.00  0.00    -0.084 Cl
ATOM     31  C   UNL     1      25.654  34.348  -8.926  1.00  0.00     0.002 A 
ENDBRANCH  18  25
ENDBRANCH   5  10
TORSDOF 5
ENDMDL
MODEL 12
REMARK VINA RESULT:    -8.266      3.789      6.831
REMARK INTER + INTRA:         -10.149
REMARK INTER:                  -9.594
REMARK INTRA:                  -0.555
REMARK UNBOUND:                -0.192
REMARK SMILES CN1CC[C@H](c2c(O)cc(O)c3c(=O)cc(-c4ccccc4Cl)oc23)[C@H](O)C1
REMARK SMILES IDX 1 1 2 2 3 3 4 4 5 5 26 6 28 7 27 8 6 10 7 11 25 12 9 13
REMARK SMILES IDX 12 14 24 15 10 16 13 17 16 18 15 19 14 20 8 21 11 23 17 25
REMARK SMILES IDX 18 26 22 27 19 28 21 29 23 30 20 31
REMARK H PARENT 27 9 8 22 11 24
REMARK Flexibility Score: inf
ROOT
ATOM      1  C   UNL     1      18.251  44.594  -7.950  1.00  0.00     0.105 C 
ATOM      2  N   UNL     1      18.615  43.965  -9.230  1.00  0.00    -0.304 NA
ATOM      3  C   UNL     1      20.084  43.773  -9.323  1.00  0.00     0.085 C 
ATOM      4  C   UNL     1      20.463  42.593 -10.223  1.00  0.00     0.027 C 
ATOM      5  C   UNL     1      19.926  41.285  -9.610  1.00  0.00     0.058 C 
ATOM      6  C   UNL     1      18.487  41.448  -9.018  1.00  0.00     0.136 C 
ATOM      7  C   UNL     1      17.804  42.748  -9.489  1.00  0.00     0.116 C 
ENDROOT
BRANCH   6   8
ATOM      8  O   UNL     1      17.663  40.354  -9.328  1.00  0.00    -0.391 OA
ATOM      9  H   UNL     1      16.972  40.687  -9.959  1.00  0.00     0.211 HD
ENDBRANCH   6   8
BRANCH   5  10
ATOM     10  C   UNL     1      20.098  40.095 -10.567  1.00  0.00     0.043 A 
ATOM     11  C   UNL     1      19.552  40.118 -11.867  1.00  0.00     0.126 A 
ATOM     12  C   UNL     1      20.790  38.935 -10.141  1.00  0.00     0.149 A 
ATOM     13  C   UNL     1      19.750  39.042 -12.734  1.00  0.00     0.093 A 
ATOM     14  C   UNL     1      20.966  37.825 -11.015  1.00  0.00     0.107 A 
ATOM     15  O   UNL     1      21.267  38.884  -8.899  1.00  0.00    -0.455 OA
ATOM     16  C   UNL     1      20.479  37.919 -12.346  1.00  0.00     0.134 A 
ATOM     17  C   UNL     1      21.589  36.672 -10.477  1.00  0.00     0.197 A 
ATOM     18  C   UNL     1      21.898  37.834  -8.389  1.00  0.00     0.140 A 
ATOM     19  C   UNL     1      22.071  36.689  -9.170  1.00  0.00     0.100 A 
ATOM     20  O   UNL     1      21.695  35.603 -11.133  1.00  0.00    -0.289 OA
BRANCH  11  21
ATOM     21  O   UNL     1      18.810  41.211 -12.309  1.00  0.00    -0.507 OA
ATOM     22  H   UNL     1      19.239  42.108 -12.501  1.00  0.00     0.293 HD
ENDBRANCH  11  21
BRANCH  16  23
ATOM     23  O   UNL     1      20.703  36.950 -13.330  1.00  0.00    -0.507 OA
ATOM     24  H   UNL     1      21.541  36.392 -13.404  1.00  0.00     0.293 HD
ENDBRANCH  16  23
BRANCH  18  25
ATOM     25  C   UNL     1      22.396  37.894  -6.994  1.00  0.00     0.036 A 
ATOM     26  C   UNL     1      21.999  36.909  -6.068  1.00  0.00     0.013 A 
ATOM     27  C   UNL     1      23.291  38.907  -6.574  1.00  0.00     0.052 A 
ATOM     28  C   UNL     1      22.479  36.932  -4.756  1.00  0.00     0.001 A 
ATOM     29  C   UNL     1      23.763  38.918  -5.255  1.00  0.00     0.021 A 
ATOM     30  Cl  UNL     1      23.797  40.215  -7.640  1.00  0.00    -0.084 Cl
ATOM     31  C   UNL     1      23.361  37.934  -4.351  1.00  0.00     0.002 A 
ENDBRANCH  18  25
ENDBRANCH   5  10
TORSDOF 5
ENDMDL
MODEL 13
REMARK VINA RESULT:    -8.204      3.553      7.167
REMARK INTER + INTRA:         -10.075
REMARK INTER:                  -9.701
REMARK INTRA:                  -0.374
REMARK UNBOUND:                -0.192
REMARK SMILES CN1CC[C@H](c2c(O)cc(O)c3c(=O)cc(-c4ccccc4Cl)oc23)[C@H](O)C1
REMARK SMILES IDX 1 1 2 2 3 3 4 4 5 5 26 6 28 7 27 8 6 10 7 11 25 12 9 13
REMARK SMILES IDX 12 14 24 15 10 16 13 17 16 18 15 19 14 20 8 21 11 23 17 25
REMARK SMILES IDX 18 26 22 27 19 28 21 29 23 30 20 31
REMARK H PARENT 27 9 8 22 11 24
REMARK Flexibility Score: inf
ROOT
ATOM      1  C   UNL     1      24.793  37.059  -3.784  1.00  0.00     0.105 C 
ATOM      2  N   UNL     1      24.117  36.543  -4.985  1.00  0.00    -0.304 NA
ATOM      3  C   UNL     1      22.644  36.554  -4.805  1.00  0.00     0.085 C 
ATOM      4  C   UNL     1      21.893  36.690  -6.134  1.00  0.00     0.027 C 
ATOM      5  C   UNL     1      22.229  38.049  -6.778  1.00  0.00     0.058 C 
ATOM      6  C   UNL     1      23.742  38.421  -6.636  1.00  0.00     0.136 C 
ATOM      7  C   UNL     1      24.605  37.214  -6.217  1.00  0.00     0.116 C 
ENDROOT
BRANCH   6   8
ATOM      8  O   UNL     1      24.262  38.971  -7.820  1.00  0.00    -0.391 OA
ATOM      9  H   UNL     1      24.991  38.368  -8.119  1.00  0.00     0.211 HD
ENDBRANCH   6   8
BRANCH   5  10
ATOM     10  C   UNL     1      21.668  38.157  -8.204  1.00  0.00     0.043 A 
ATOM     11  C   UNL     1      22.061  37.254  -9.214  1.00  0.00     0.126 A 
ATOM     12  C   UNL     1      20.763  39.195  -8.535  1.00  0.00     0.149 A 
ATOM     13  C   UNL     1      21.513  37.348 -10.495  1.00  0.00     0.093 A 
ATOM     14  C   UNL     1      20.227  39.308  -9.849  1.00  0.00     0.107 A 
ATOM     15  O   UNL     1      20.423  40.081  -7.602  1.00  0.00    -0.455 OA
ATOM     16  C   UNL     1      20.577  38.328 -10.817  1.00  0.00     0.134 A 
ATOM     17  C   UNL     1      19.401  40.427 -10.116  1.00  0.00     0.197 A 
ATOM     18  C   UNL     1      19.612  41.109  -7.815  1.00  0.00     0.140 A 
ATOM     19  C   UNL     1      19.080  41.314  -9.090  1.00  0.00     0.100 A 
ATOM     20  O   UNL     1      18.966  40.676 -11.270  1.00  0.00    -0.289 OA
BRANCH  11  21
ATOM     21  O   UNL     1      22.997  36.256  -8.953  1.00  0.00    -0.507 OA
ATOM     22  H   UNL     1      23.770  36.399  -8.314  1.00  0.00     0.293 HD
ENDBRANCH  11  21
BRANCH  16  23
ATOM     23  O   UNL     1      20.018  38.261 -12.097  1.00  0.00    -0.507 OA
ATOM     24  H   UNL     1      20.249  37.562 -12.788  1.00  0.00     0.293 HD
ENDBRANCH  16  23
BRANCH  18  25
ATOM     25  C   UNL     1      19.296  42.028  -6.695  1.00  0.00     0.036 A 
ATOM     26  C   UNL     1      18.993  43.377  -6.964  1.00  0.00     0.013 A 
ATOM     27  C   UNL     1      19.262  41.573  -5.355  1.00  0.00     0.052 A 
ATOM     28  C   UNL     1      18.666  44.253  -5.926  1.00  0.00     0.001 A 
ATOM     29  C   UNL     1      18.932  42.463  -4.324  1.00  0.00     0.021 A 
ATOM     30  Cl  UNL     1      19.683  39.920  -4.913  1.00  0.00    -0.084 Cl
ATOM     31  C   UNL     1      18.634  43.796  -4.608  1.00  0.00     0.002 A 
ENDBRANCH  18  25
ENDBRANCH   5  10
TORSDOF 5
ENDMDL
MODEL 14
REMARK VINA RESULT:    -8.003      3.283      6.434
REMARK INTER + INTRA:          -9.833
REMARK INTER:                  -9.425
REMARK INTRA:                  -0.408
REMARK UNBOUND:                -0.192
REMARK SMILES CN1CC[C@H](c2c(O)cc(O)c3c(=O)cc(-c4ccccc4Cl)oc23)[C@H](O)C1
REMARK SMILES IDX 1 1 2 2 3 3 4 4 5 5 26 6 28 7 27 8 6 10 7 11 25 12 9 13
REMARK SMILES IDX 12 14 24 15 10 16 13 17 16 18 15 19 14 20 8 21 11 23 17 25
REMARK SMILES IDX 18 26 22 27 19 28 21 29 23 30 20 31
REMARK H PARENT 27 9 8 22 11 24
REMARK Flexibility Score: inf
ROOT
ATOM      1  C   UNL     1      23.435  38.712  -4.000  1.00  0.00     0.105 C 
ATOM      2  N   UNL     1      22.830  39.208  -5.247  1.00  0.00    -0.304 NA
ATOM      3  C   UNL     1      23.868  39.422  -6.286  1.00  0.00     0.085 C 
ATOM      4  C   UNL     1      23.312  39.273  -7.706  1.00  0.00     0.027 C 
ATOM      5  C   UNL     1      22.823  37.827  -7.919  1.00  0.00     0.058 C 
ATOM      6  C   UNL     1      22.072  37.260  -6.670  1.00  0.00     0.136 C 
ATOM      7  C   UNL     1      21.681  38.366  -5.668  1.00  0.00     0.116 C 
ENDROOT
BRANCH   6   8
ATOM      8  O   UNL     1      20.922  36.537  -7.031  1.00  0.00    -0.391 OA
ATOM      9  H   UNL     1      20.440  36.329  -6.188  1.00  0.00     0.211 HD
ENDBRANCH   6   8
BRANCH   5  10
ATOM     10  C   UNL     1      22.072  37.671  -9.250  1.00  0.00     0.043 A 
ATOM     11  C   UNL     1      22.337  36.590 -10.117  1.00  0.00     0.126 A 
ATOM     12  C   UNL     1      21.115  38.638  -9.643  1.00  0.00     0.149 A 
ATOM     13  C   UNL     1      21.619  36.447 -11.306  1.00  0.00     0.093 A 
ATOM     14  C   UNL     1      20.404  38.508 -10.870  1.00  0.00     0.107 A 
ATOM     15  O   UNL     1      20.891  39.687  -8.856  1.00  0.00    -0.455 OA
ATOM     16  C   UNL     1      20.634  37.360 -11.675  1.00  0.00     0.134 A 
ATOM     17  C   UNL     1      19.532  39.566 -11.227  1.00  0.00     0.197 A 
ATOM     18  C   UNL     1      20.044  40.667  -9.146  1.00  0.00     0.140 A 
ATOM     19  C   UNL     1      19.341  40.633 -10.352  1.00  0.00     0.100 A 
ATOM     20  O   UNL     1      18.941  39.598 -12.338  1.00  0.00    -0.289 OA
BRANCH  11  21
ATOM     21  O   UNL     1      23.315  35.649  -9.803  1.00  0.00    -0.507 OA
ATOM     22  H   UNL     1      23.085  34.683  -9.604  1.00  0.00     0.293 HD
ENDBRANCH  11  21
BRANCH  16  23
ATOM     23  O   UNL     1      19.906  37.059 -12.832  1.00  0.00    -0.507 OA
ATOM     24  H   UNL     1      19.744  37.704 -13.591  1.00  0.00     0.293 HD
ENDBRANCH  16  23
BRANCH  18  25
ATOM     25  C   UNL     1      19.869  41.783  -8.186  1.00  0.00     0.036 A 
ATOM     26  C   UNL     1      19.327  41.529  -6.911  1.00  0.00     0.013 A 
ATOM     27  C   UNL     1      20.265  43.103  -8.511  1.00  0.00     0.052 A 
ATOM     28  C   UNL     1      19.179  42.562  -5.983  1.00  0.00     0.001 A 
ATOM     29  C   UNL     1      20.111  44.129  -7.570  1.00  0.00     0.021 A 
ATOM     30  Cl  UNL     1      20.897  43.531 -10.099  1.00  0.00    -0.084 Cl
ATOM     31  C   UNL     1      19.572  43.860  -6.311  1.00  0.00     0.002 A 
ENDBRANCH  18  25
ENDBRANCH   5  10
TORSDOF 5
ENDMDL
MODEL 15
REMARK VINA RESULT:    -7.812      2.937      5.883
REMARK INTER + INTRA:          -9.603
REMARK INTER:                  -9.304
REMARK INTRA:                  -0.299
REMARK UNBOUND:                -0.192
REMARK SMILES CN1CC[C@H](c2c(O)cc(O)c3c(=O)cc(-c4ccccc4Cl)oc23)[C@H](O)C1
REMARK SMILES IDX 1 1 2 2 3 3 4 4 5 5 26 6 28 7 27 8 6 10 7 11 25 12 9 13
REMARK SMILES IDX 12 14 24 15 10 16 13 17 16 18 15 19 14 20 8 21 11 23 17 25
REMARK SMILES IDX 18 26 22 27 19 28 21 29 23 30 20 31
REMARK H PARENT 27 9 8 22 11 24
REMARK Flexibility Score: inf
ROOT
ATOM      1  C   UNL     1      25.269  34.996  -6.991  1.00  0.00     0.105 C 
ATOM      2  N   UNL     1      24.839  36.324  -6.523  1.00  0.00    -0.304 NA
ATOM      3  C   UNL     1      25.006  37.339  -7.593  1.00  0.00     0.085 C 
ATOM      4  C   UNL     1      24.018  38.501  -7.455  1.00  0.00     0.027 C 
ATOM      5  C   UNL     1      22.578  37.976  -7.621  1.00  0.00     0.058 C 
ATOM      6  C   UNL     1      22.355  36.606  -6.899  1.00  0.00     0.136 C 
ATOM      7  C   UNL     1      23.488  36.274  -5.907  1.00  0.00     0.116 C 
ENDROOT
BRANCH   6   8
ATOM      8  O   UNL     1      21.123  36.562  -6.225  1.00  0.00    -0.391 OA
ATOM      9  H   UNL     1      20.475  37.070  -6.780  1.00  0.00     0.211 HD
ENDBRANCH   6   8
BRANCH   5  10
ATOM     10  C   UNL     1      21.537  39.057  -7.291  1.00  0.00     0.043 A 
ATOM     11  C   UNL     1      21.397  39.562  -5.981  1.00  0.00     0.126 A 
ATOM     12  C   UNL     1      20.675  39.544  -8.303  1.00  0.00     0.149 A 
ATOM     13  C   UNL     1      20.468  40.568  -5.710  1.00  0.00     0.093 A 
ATOM     14  C   UNL     1      19.707  40.550  -8.019  1.00  0.00     0.107 A 
ATOM     15  O   UNL     1      20.766  39.040  -9.532  1.00  0.00    -0.455 OA
ATOM     16  C   UNL     1      19.654  41.097  -6.709  1.00  0.00     0.134 A 
ATOM     17  C   UNL     1      18.827  40.913  -9.068  1.00  0.00     0.197 A 
ATOM     18  C   UNL     1      19.985  39.400 -10.542  1.00  0.00     0.140 A 
ATOM     19  C   UNL     1      18.983  40.350 -10.333  1.00  0.00     0.100 A 
ATOM     20  O   UNL     1      17.871  41.712  -8.889  1.00  0.00    -0.289 OA
BRANCH  11  21
ATOM     21  O   UNL     1      22.179  39.068  -4.940  1.00  0.00    -0.507 OA
ATOM     22  H   UNL     1      21.848  38.339  -4.319  1.00  0.00     0.293 HD
ENDBRANCH  11  21
BRANCH  16  23
ATOM     23  O   UNL     1      18.839  42.174  -6.346  1.00  0.00    -0.507 OA
ATOM     24  H   UNL     1      17.998  42.447  -6.833  1.00  0.00     0.293 HD
ENDBRANCH  16  23
BRANCH  18  25
ATOM     25  C   UNL     1      20.185  38.777 -11.872  1.00  0.00     0.036 A 
ATOM     26  C   UNL     1      19.857  39.497 -13.037  1.00  0.00     0.013 A 
ATOM     27  C   UNL     1      20.730  37.476 -12.002  1.00  0.00     0.052 A 
ATOM     28  C   UNL     1      20.063  38.938 -14.300  1.00  0.00     0.001 A 
ATOM     29  C   UNL     1      20.932  36.929 -13.276  1.00  0.00     0.021 A 
ATOM     30  Cl  UNL     1      21.116  36.475 -10.605  1.00  0.00    -0.084 Cl
ATOM     31  C   UNL     1      20.601  37.656 -14.420  1.00  0.00     0.002 A 
ENDBRANCH  18  25
ENDBRANCH   5  10
TORSDOF 5
ENDMDL
