MODEL 1
REMARK VINA RESULT:    -7.850      0.000      0.000
REMARK INTER + INTRA:         -13.228
REMARK INTER:                 -12.898
REMARK INTRA:                  -0.330
REMARK UNBOUND:                -0.330
REMARK SMILES NC[C@H]1O[C@H](O[C@H]2[C@H](O[C@@H]3O[C@H](CO)[C@@H](O)[C@H]3O)[C@@H](O)[C@H](N)C[C@@H]2N)[C@H](N)[C@@H](O)[C@@H]1O
REMARK SMILES IDX 8 1 19 2 21 3 23 4 24 5 7 6 9 7 10 8 11 9 17 10 12 11 15 12
REMARK SMILES IDX 18 13 13 15 14 16 16 18 20 20 6 22 5 23 4 24 26 25 3 26
REMARK SMILES IDX 28 27 30 28 27 29 2 32 1 33 29 36 31 38 22 40 25 43
REMARK H PARENT 18 14 14 17 16 19 20 21 27 30 27 31 1 34 1 35 29 37 31 39
REMARK H PARENT 22 41 22 42 25 44 25 45
REMARK Flexibility Score: inf
ROOT
ATOM      1  C   UNL     1       9.357  77.105  -1.765  1.00  0.00     0.182 C 
ATOM      2  C   UNL     1       7.890  77.502  -1.500  1.00  0.00     0.163 C 
ATOM      3  C   UNL     1       7.795  78.565  -0.383  1.00  0.00     0.084 C 
ATOM      4  C   UNL     1       8.649  79.792  -0.745  1.00  0.00     0.043 C 
ATOM      5  C   UNL     1      10.116  79.402  -1.000  1.00  0.00     0.084 C 
ATOM      6  C   UNL     1      10.203  78.346  -2.134  1.00  0.00     0.170 C 
ENDROOT
BRANCH   1   7
ATOM      7  O   UNL     1       9.377  76.188  -2.850  1.00  0.00    -0.341 OA
BRANCH   7   8
ATOM      8  C   UNL     1       9.825  74.902  -2.459  1.00  0.00     0.282 C 
ATOM      9  O   UNL     1      10.819  74.484  -3.360  1.00  0.00    -0.341 OA
ATOM     10  C   UNL     1       8.700  73.881  -2.543  1.00  0.00     0.202 C 
ATOM     11  C   UNL     1      10.805  73.075  -3.358  1.00  0.00     0.178 C 
ATOM     12  C   UNL     1       9.420  72.594  -2.894  1.00  0.00     0.179 C 
BRANCH  10  13
ATOM     13  O   UNL     1       8.007  73.792  -1.324  1.00  0.00    -0.385 OA
ATOM     14  H   UNL     1       7.040  73.824  -1.547  1.00  0.00     0.211 HD
ENDBRANCH  10  13
BRANCH  11  15
ATOM     15  C   UNL     1      11.156  72.567  -4.761  1.00  0.00     0.191 C 
BRANCH  15  16
ATOM     16  O   UNL     1      12.300  73.212  -5.253  1.00  0.00    -0.394 OA
ATOM     17  H   UNL     1      12.470  73.985  -4.653  1.00  0.00     0.210 HD
ENDBRANCH  15  16
ENDBRANCH  11  15
BRANCH  12  18
ATOM     18  O   UNL     1       9.544  71.760  -1.770  1.00  0.00    -0.387 OA
ATOM     19  H   UNL     1      10.001  72.297  -1.071  1.00  0.00     0.211 HD
ENDBRANCH  12  18
ENDBRANCH   7   8
ENDBRANCH   1   7
BRANCH   2  20
ATOM     20  O   UNL     1       7.175  76.352  -1.122  1.00  0.00    -0.389 OA
ATOM     21  H   UNL     1       6.431  76.240  -1.770  1.00  0.00     0.211 HD
ENDBRANCH   2  20
BRANCH   6  22
ATOM     22  O   UNL     1      11.553  77.935  -2.302  1.00  0.00    -0.343 OA
BRANCH  22  23
ATOM     23  C   UNL     1      12.460  78.676  -1.496  1.00  0.00     0.270 C 
ATOM     24  O   UNL     1      13.058  77.777  -0.582  1.00  0.00    -0.344 OA
ATOM     25  C   UNL     1      13.537  79.310  -2.390  1.00  0.00     0.139 C 
ATOM     26  C   UNL     1      13.913  78.423   0.355  1.00  0.00     0.166 C 
ATOM     27  C   UNL     1      14.522  80.122  -1.524  1.00  0.00     0.167 C 
ATOM     28  C   UNL     1      15.016  79.320  -0.294  1.00  0.00     0.175 C 
BRANCH  25  29
ATOM     29  N   UNL     1      14.219  78.285  -3.187  1.00  0.00    -0.321 NA
ATOM     30  H   UNL     1      14.842  78.754  -3.886  1.00  0.00     0.119 HD
ATOM     31  H   UNL     1      14.819  77.685  -2.580  1.00  0.00     0.119 HD
ENDBRANCH  25  29
BRANCH  26  32
ATOM     32  C   UNL     1      13.136  79.057   1.535  1.00  0.00     0.112 C 
BRANCH  32  33
ATOM     33  N   UNL     1      12.788  80.457   1.305  1.00  0.00    -0.328 NA
ATOM     34  H   UNL     1      12.528  80.562   0.297  1.00  0.00     0.118 HD
ATOM     35  H   UNL     1      11.922  80.673   1.848  1.00  0.00     0.118 HD
ENDBRANCH  32  33
ENDBRANCH  26  32
BRANCH  27  36
ATOM     36  O   UNL     1      13.896  81.312  -1.119  1.00  0.00    -0.388 OA
ATOM     37  H   UNL     1      14.618  81.962  -0.905  1.00  0.00     0.211 HD
ENDBRANCH  27  36
BRANCH  28  38
ATOM     38  O   UNL     1      16.101  78.518  -0.693  1.00  0.00    -0.388 OA
ATOM     39  H   UNL     1      15.726  77.737  -1.178  1.00  0.00     0.211 HD
ENDBRANCH  28  38
ENDBRANCH  22  23
ENDBRANCH   6  22
BRANCH   3  40
ATOM     40  N   UNL     1       6.401  78.976  -0.193  1.00  0.00    -0.325 NA
ATOM     41  H   UNL     1       6.142  79.638  -0.961  1.00  0.00     0.119 HD
ATOM     42  H   UNL     1       6.338  79.536   0.688  1.00  0.00     0.119 HD
ENDBRANCH   3  40
BRANCH   5  43
ATOM     43  N   UNL     1      10.889  80.598  -1.347  1.00  0.00    -0.325 NA
ATOM     44  H   UNL     1      11.185  80.529  -2.348  1.00  0.00     0.119 HD
ATOM     45  H   UNL     1      10.250  81.424  -1.313  1.00  0.00     0.119 HD
ENDBRANCH   5  43
TORSDOF 16
ENDMDL
MODEL 2
REMARK VINA RESULT:    -7.848      2.576      6.553
REMARK INTER + INTRA:         -13.224
REMARK INTER:                 -11.766
REMARK INTRA:                  -1.459
REMARK UNBOUND:                -0.330
REMARK SMILES NC[C@H]1O[C@H](O[C@H]2[C@H](O[C@@H]3O[C@H](CO)[C@@H](O)[C@H]3O)[C@@H](O)[C@H](N)C[C@@H]2N)[C@H](N)[C@@H](O)[C@@H]1O
REMARK SMILES IDX 8 1 19 2 21 3 23 4 24 5 7 6 9 7 10 8 11 9 17 10 12 11 15 12
REMARK SMILES IDX 18 13 13 15 14 16 16 18 20 20 6 22 5 23 4 24 26 25 3 26
REMARK SMILES IDX 28 27 30 28 27 29 2 32 1 33 29 36 31 38 22 40 25 43
REMARK H PARENT 18 14 14 17 16 19 20 21 27 30 27 31 1 34 1 35 29 37 31 39
REMARK H PARENT 22 41 22 42 25 44 25 45
REMARK Flexibility Score: inf
ROOT
ATOM      1  C   UNL     1      11.516  79.932  -1.448  1.00  0.00     0.182 C 
ATOM      2  C   UNL     1      12.080  80.633  -0.195  1.00  0.00     0.163 C 
ATOM      3  C   UNL     1      11.029  81.573   0.437  1.00  0.00     0.084 C 
ATOM      4  C   UNL     1       9.746  80.790   0.764  1.00  0.00     0.043 C 
ATOM      5  C   UNL     1       9.174  80.097  -0.486  1.00  0.00     0.084 C 
ATOM      6  C   UNL     1      10.231  79.144  -1.104  1.00  0.00     0.170 C 
ENDROOT
BRANCH   1   7
ATOM      7  O   UNL     1      12.502  79.030  -1.929  1.00  0.00    -0.341 OA
BRANCH   7   8
ATOM      8  C   UNL     1      13.398  79.647  -2.838  1.00  0.00     0.282 C 
ATOM      9  O   UNL     1      13.050  79.252  -4.141  1.00  0.00    -0.341 OA
ATOM     10  C   UNL     1      14.826  79.177  -2.603  1.00  0.00     0.202 C 
ATOM     11  C   UNL     1      14.223  79.334  -4.918  1.00  0.00     0.178 C 
ATOM     12  C   UNL     1      15.443  79.226  -3.988  1.00  0.00     0.179 C 
BRANCH  10  13
ATOM     13  O   UNL     1      15.489  80.015  -1.691  1.00  0.00    -0.385 OA
ATOM     14  H   UNL     1      16.461  79.865  -1.828  1.00  0.00     0.211 HD
ENDBRANCH  10  13
BRANCH  11  15
ATOM     15  C   UNL     1      14.202  78.227  -5.979  1.00  0.00     0.191 C 
BRANCH  15  16
ATOM     16  O   UNL     1      15.504  77.911  -6.395  1.00  0.00    -0.394 OA
ATOM     17  H   UNL     1      15.990  77.592  -5.590  1.00  0.00     0.210 HD
ENDBRANCH  15  16
ENDBRANCH  11  15
BRANCH  12  18
ATOM     18  O   UNL     1      16.270  80.353  -4.133  1.00  0.00    -0.387 OA
ATOM     19  H   UNL     1      17.104  80.034  -4.569  1.00  0.00     0.211 HD
ENDBRANCH  12  18
ENDBRANCH   7   8
ENDBRANCH   1   7
BRANCH   2  20
ATOM     20  O   UNL     1      13.215  81.375  -0.566  1.00  0.00    -0.389 OA
ATOM     21  H   UNL     1      14.013  80.838  -0.319  1.00  0.00     0.211 HD
ENDBRANCH   2  20
BRANCH   6  22
ATOM     22  O   UNL     1       9.720  78.574  -2.302  1.00  0.00    -0.343 OA
BRANCH  22  23
ATOM     23  C   UNL     1       9.391  77.198  -2.161  1.00  0.00     0.270 C 
ATOM     24  O   UNL     1       9.151  76.949  -0.790  1.00  0.00    -0.344 OA
ATOM     25  C   UNL     1       8.127  76.890  -2.980  1.00  0.00     0.139 C 
ATOM     26  C   UNL     1       8.914  75.575  -0.507  1.00  0.00     0.166 C 
ATOM     27  C   UNL     1       7.765  75.398  -2.839  1.00  0.00     0.167 C 
ATOM     28  C   UNL     1       7.774  74.931  -1.362  1.00  0.00     0.175 C 
BRANCH  25  29
ATOM     29  N   UNL     1       7.021  77.766  -2.576  1.00  0.00    -0.321 NA
ATOM     30  H   UNL     1       7.253  78.753  -2.839  1.00  0.00     0.119 HD
ATOM     31  H   UNL     1       6.142  77.503  -3.073  1.00  0.00     0.119 HD
ENDBRANCH  25  29
BRANCH  26  32
ATOM     32  C   UNL     1      10.222  74.752  -0.396  1.00  0.00     0.112 C 
BRANCH  32  33
ATOM     33  N   UNL     1      10.169  73.493  -1.133  1.00  0.00    -0.328 NA
ATOM     34  H   UNL     1      10.997  73.458  -1.771  1.00  0.00     0.118 HD
ATOM     35  H   UNL     1      10.298  72.709  -0.453  1.00  0.00     0.118 HD
ENDBRANCH  32  33
ENDBRANCH  26  32
BRANCH  27  36
ATOM     36  O   UNL     1       8.667  74.638  -3.602  1.00  0.00    -0.388 OA
ATOM     37  H   UNL     1       9.415  74.384  -3.000  1.00  0.00     0.211 HD
ENDBRANCH  27  36
BRANCH  28  38
ATOM     38  O   UNL     1       6.526  75.239  -0.790  1.00  0.00    -0.388 OA
ATOM     39  H   UNL     1       6.296  74.498  -0.171  1.00  0.00     0.211 HD
ENDBRANCH  28  38
ENDBRANCH  22  23
ENDBRANCH   6  22
BRANCH   3  40
ATOM     40  N   UNL     1      11.560  82.178   1.661  1.00  0.00    -0.325 NA
ATOM     41  H   UNL     1      10.867  82.032   2.432  1.00  0.00     0.119 HD
ATOM     42  H   UNL     1      11.610  83.213   1.526  1.00  0.00     0.119 HD
ENDBRANCH   3  40
BRANCH   5  43
ATOM     43  N   UNL     1       7.959  79.360  -0.128  1.00  0.00    -0.325 NA
ATOM     44  H   UNL     1       8.141  78.336  -0.243  1.00  0.00     0.119 HD
ATOM     45  H   UNL     1       7.787  79.488   0.896  1.00  0.00     0.119 HD
ENDBRANCH   5  43
TORSDOF 16
ENDMDL
MODEL 3
REMARK VINA RESULT:    -7.793      2.694      6.773
REMARK INTER + INTRA:         -13.134
REMARK INTER:                 -12.026
REMARK INTRA:                  -1.108
REMARK UNBOUND:                -0.330
REMARK SMILES NC[C@H]1O[C@H](O[C@H]2[C@H](O[C@@H]3O[C@H](CO)[C@@H](O)[C@H]3O)[C@@H](O)[C@H](N)C[C@@H]2N)[C@H](N)[C@@H](O)[C@@H]1O
REMARK SMILES IDX 8 1 19 2 21 3 23 4 24 5 7 6 9 7 10 8 11 9 17 10 12 11 15 12
REMARK SMILES IDX 18 13 13 15 14 16 16 18 20 20 6 22 5 23 4 24 26 25 3 26
REMARK SMILES IDX 28 27 30 28 27 29 2 32 1 33 29 36 31 38 22 40 25 43
REMARK H PARENT 18 14 14 17 16 19 20 21 27 30 27 31 1 34 1 35 29 37 31 39
REMARK H PARENT 22 41 22 42 25 44 25 45
REMARK Flexibility Score: inf
ROOT
ATOM      1  C   UNL     1      12.999  79.455  -1.805  1.00  0.00     0.182 C 
ATOM      2  C   UNL     1      14.117  79.504  -0.744  1.00  0.00     0.163 C 
ATOM      3  C   UNL     1      13.877  80.651   0.263  1.00  0.00     0.084 C 
ATOM      4  C   UNL     1      12.493  80.503   0.916  1.00  0.00     0.043 C 
ATOM      5  C   UNL     1      11.373  80.464  -0.140  1.00  0.00     0.084 C 
ATOM      6  C   UNL     1      11.613  79.299  -1.136  1.00  0.00     0.170 C 
ENDROOT
BRANCH   1   7
ATOM      7  O   UNL     1      13.239  78.336  -2.647  1.00  0.00    -0.341 OA
BRANCH   7   8
ATOM      8  C   UNL     1      14.243  78.594  -3.612  1.00  0.00     0.282 C 
ATOM      9  O   UNL     1      14.355  79.984  -3.777  1.00  0.00    -0.341 OA
ATOM     10  C   UNL     1      13.859  78.021  -4.969  1.00  0.00     0.202 C 
ATOM     11  C   UNL     1      14.845  80.202  -5.080  1.00  0.00     0.178 C 
ATOM     12  C   UNL     1      14.502  78.982  -5.950  1.00  0.00     0.179 C 
BRANCH  10  13
ATOM     13  O   UNL     1      14.335  76.707  -5.116  1.00  0.00    -0.385 OA
ATOM     14  H   UNL     1      13.535  76.122  -5.165  1.00  0.00     0.211 HD
ENDBRANCH  10  13
BRANCH  11  15
ATOM     15  C   UNL     1      14.242  81.499  -5.634  1.00  0.00     0.191 C 
BRANCH  15  16
ATOM     16  O   UNL     1      15.207  82.239  -6.333  1.00  0.00    -0.394 OA
ATOM     17  H   UNL     1      14.833  82.413  -7.236  1.00  0.00     0.210 HD
ENDBRANCH  15  16
ENDBRANCH  11  15
BRANCH  12  18
ATOM     18  O   UNL     1      15.671  78.433  -6.504  1.00  0.00    -0.387 OA
ATOM     19  H   UNL     1      15.393  77.609  -6.984  1.00  0.00     0.211 HD
ENDBRANCH  12  18
ENDBRANCH   7   8
ENDBRANCH   1   7
BRANCH   2  20
ATOM     20  O   UNL     1      15.348  79.695  -1.396  1.00  0.00    -0.389 OA
ATOM     21  H   UNL     1      16.030  79.175  -0.898  1.00  0.00     0.211 HD
ENDBRANCH   2  20
BRANCH   6  22
ATOM     22  O   UNL     1      10.619  79.325  -2.152  1.00  0.00    -0.343 OA
BRANCH  22  23
ATOM     23  C   UNL     1       9.808  78.157  -2.159  1.00  0.00     0.270 C 
ATOM     24  O   UNL     1      10.000  77.490  -0.927  1.00  0.00    -0.344 OA
ATOM     25  C   UNL     1       8.333  78.561  -2.314  1.00  0.00     0.139 C 
ATOM     26  C   UNL     1       9.318  76.243  -0.857  1.00  0.00     0.166 C 
ATOM     27  C   UNL     1       7.446  77.300  -2.330  1.00  0.00     0.167 C 
ATOM     28  C   UNL     1       7.789  76.329  -1.173  1.00  0.00     0.175 C 
BRANCH  25  29
ATOM     29  N   UNL     1       7.939  79.499  -1.257  1.00  0.00    -0.321 NA
ATOM     30  H   UNL     1       7.656  80.407  -1.695  1.00  0.00     0.119 HD
ATOM     31  H   UNL     1       7.118  79.133  -0.727  1.00  0.00     0.119 HD
ENDBRANCH  25  29
BRANCH  26  32
ATOM     32  C   UNL     1      10.089  75.099  -1.561  1.00  0.00     0.112 C 
BRANCH  32  33
ATOM     33  N   UNL     1       9.221  74.219  -2.339  1.00  0.00    -0.328 NA
ATOM     34  H   UNL     1       9.811  73.735  -3.055  1.00  0.00     0.118 HD
ATOM     35  H   UNL     1       8.865  73.466  -1.706  1.00  0.00     0.118 HD
ENDBRANCH  32  33
ENDBRANCH  26  32
BRANCH  27  36
ATOM     36  O   UNL     1       7.591  76.658  -3.571  1.00  0.00    -0.388 OA
ATOM     37  H   UNL     1       6.691  76.634  -3.993  1.00  0.00     0.211 HD
ENDBRANCH  27  36
BRANCH  28  38
ATOM     38  O   UNL     1       7.094  76.746  -0.022  1.00  0.00    -0.388 OA
ATOM     39  H   UNL     1       6.190  77.035  -0.314  1.00  0.00     0.211 HD
ENDBRANCH  28  38
ENDBRANCH  22  23
ENDBRANCH   6  22
BRANCH   3  40
ATOM     40  N   UNL     1      14.913  80.640   1.300  1.00  0.00    -0.325 NA
ATOM     41  H   UNL     1      14.684  79.886   1.990  1.00  0.00     0.119 HD
ATOM     42  H   UNL     1      14.854  81.534   1.838  1.00  0.00     0.119 HD
ENDBRANCH   3  40
BRANCH   5  43
ATOM     43  N   UNL     1      10.075  80.315   0.526  1.00  0.00    -0.325 NA
ATOM     44  H   UNL     1      10.064  79.406   1.043  1.00  0.00     0.119 HD
ATOM     45  H   UNL     1      10.001  81.048   1.268  1.00  0.00     0.119 HD
ENDBRANCH   5  43
TORSDOF 16
ENDMDL
MODEL 4
REMARK VINA RESULT:    -7.792      3.073      7.257
REMARK INTER + INTRA:         -13.133
REMARK INTER:                 -12.323
REMARK INTRA:                  -0.810
REMARK UNBOUND:                -0.330
REMARK SMILES NC[C@H]1O[C@H](O[C@H]2[C@H](O[C@@H]3O[C@H](CO)[C@@H](O)[C@H]3O)[C@@H](O)[C@H](N)C[C@@H]2N)[C@H](N)[C@@H](O)[C@@H]1O
REMARK SMILES IDX 8 1 19 2 21 3 23 4 24 5 7 6 9 7 10 8 11 9 17 10 12 11 15 12
REMARK SMILES IDX 18 13 13 15 14 16 16 18 20 20 6 22 5 23 4 24 26 25 3 26
REMARK SMILES IDX 28 27 30 28 27 29 2 32 1 33 29 36 31 38 22 40 25 43
REMARK H PARENT 18 14 14 17 16 19 20 21 27 30 27 31 1 34 1 35 29 37 31 39
REMARK H PARENT 22 41 22 42 25 44 25 45
REMARK Flexibility Score: inf
ROOT
ATOM      1  C   UNL     1      13.698  79.664  -2.749  1.00  0.00     0.182 C 
ATOM      2  C   UNL     1      14.921  78.894  -2.213  1.00  0.00     0.163 C 
ATOM      3  C   UNL     1      15.367  79.444  -0.840  1.00  0.00     0.084 C 
ATOM      4  C   UNL     1      14.195  79.396   0.157  1.00  0.00     0.043 C 
ATOM      5  C   UNL     1      12.975  80.173  -0.371  1.00  0.00     0.084 C 
ATOM      6  C   UNL     1      12.526  79.603  -1.742  1.00  0.00     0.170 C 
ENDROOT
BRANCH   1   7
ATOM      7  O   UNL     1      13.296  79.059  -3.970  1.00  0.00    -0.341 OA
BRANCH   7   8
ATOM      8  C   UNL     1      13.832  79.723  -5.102  1.00  0.00     0.282 C 
ATOM      9  O   UNL     1      14.866  78.933  -5.632  1.00  0.00    -0.341 OA
ATOM     10  C   UNL     1      14.453  81.056  -4.711  1.00  0.00     0.202 C 
ATOM     11  C   UNL     1      15.746  79.809  -6.298  1.00  0.00     0.178 C 
ATOM     12  C   UNL     1      15.586  81.219  -5.707  1.00  0.00     0.179 C 
BRANCH  10  13
ATOM     13  O   UNL     1      13.512  82.096  -4.796  1.00  0.00    -0.385 OA
ATOM     14  H   UNL     1      13.933  82.890  -4.373  1.00  0.00     0.211 HD
ENDBRANCH  10  13
BRANCH  11  15
ATOM     15  C   UNL     1      17.180  79.281  -6.162  1.00  0.00     0.191 C 
BRANCH  15  16
ATOM     16  O   UNL     1      17.783  79.773  -4.996  1.00  0.00    -0.394 OA
ATOM     17  H   UNL     1      17.142  79.613  -4.254  1.00  0.00     0.210 HD
ENDBRANCH  15  16
ENDBRANCH  11  15
BRANCH  12  18
ATOM     18  O   UNL     1      15.245  82.137  -6.715  1.00  0.00    -0.387 OA
ATOM     19  H   UNL     1      16.078  82.315  -7.225  1.00  0.00     0.211 HD
ENDBRANCH  12  18
ENDBRANCH   7   8
ENDBRANCH   1   7
BRANCH   2  20
ATOM     20  O   UNL     1      15.973  79.019  -3.137  1.00  0.00    -0.389 OA
ATOM     21  H   UNL     1      16.710  79.505  -2.683  1.00  0.00     0.211 HD
ENDBRANCH   2  20
BRANCH   6  22
ATOM     22  O   UNL     1      11.452  80.381  -2.255  1.00  0.00    -0.343 OA
BRANCH  22  23
ATOM     23  C   UNL     1      10.207  79.696  -2.215  1.00  0.00     0.270 C 
ATOM     24  O   UNL     1      10.375  78.540  -1.418  1.00  0.00    -0.344 OA
ATOM     25  C   UNL     1       9.140  80.612  -1.594  1.00  0.00     0.139 C 
ATOM     26  C   UNL     1       9.219  77.711  -1.388  1.00  0.00     0.166 C 
ATOM     27  C   UNL     1       7.784  79.879  -1.552  1.00  0.00     0.167 C 
ATOM     28  C   UNL     1       7.908  78.451  -0.966  1.00  0.00     0.175 C 
BRANCH  25  29
ATOM     29  N   UNL     1       9.561  81.070  -0.265  1.00  0.00    -0.321 NA
ATOM     30  H   UNL     1      10.257  80.393   0.125  1.00  0.00     0.119 HD
ATOM     31  H   UNL     1      10.026  82.003  -0.327  1.00  0.00     0.119 HD
ENDBRANCH  25  29
BRANCH  26  32
ATOM     32  C   UNL     1       9.106  76.797  -2.634  1.00  0.00     0.112 C 
BRANCH  32  33
ATOM     33  N   UNL     1       7.798  76.868  -3.278  1.00  0.00    -0.328 NA
ATOM     34  H   UNL     1       7.895  77.456  -4.138  1.00  0.00     0.118 HD
ATOM     35  H   UNL     1       7.544  75.911  -3.614  1.00  0.00     0.118 HD
ENDBRANCH  32  33
ENDBRANCH  26  32
BRANCH  27  36
ATOM     36  O   UNL     1       7.252  79.834  -2.852  1.00  0.00    -0.388 OA
ATOM     37  H   UNL     1       7.226  80.769  -3.188  1.00  0.00     0.211 HD
ENDBRANCH  27  36
BRANCH  28  38
ATOM     38  O   UNL     1       7.850  78.541   0.438  1.00  0.00    -0.388 OA
ATOM     39  H   UNL     1       8.001  77.627   0.796  1.00  0.00     0.211 HD
ENDBRANCH  28  38
ENDBRANCH  22  23
ENDBRANCH   6  22
BRANCH   3  40
ATOM     40  N   UNL     1      16.487  78.657  -0.317  1.00  0.00    -0.325 NA
ATOM     41  H   UNL     1      16.106  77.789   0.126  1.00  0.00     0.119 HD
ATOM     42  H   UNL     1      16.934  79.192   0.462  1.00  0.00     0.119 HD
ENDBRANCH   3  40
BRANCH   5  43
ATOM     43  N   UNL     1      11.884  80.095   0.604  1.00  0.00    -0.325 NA
ATOM     44  H   UNL     1      11.792  81.022   1.081  1.00  0.00     0.119 HD
ATOM     45  H   UNL     1      10.986  79.971   0.083  1.00  0.00     0.119 HD
ENDBRANCH   5  43
TORSDOF 16
ENDMDL
MODEL 5
REMARK VINA RESULT:    -7.674      1.864      2.347
REMARK INTER + INTRA:         -12.939
REMARK INTER:                 -12.847
REMARK INTRA:                  -0.093
REMARK UNBOUND:                -0.330
REMARK SMILES NC[C@H]1O[C@H](O[C@H]2[C@H](O[C@@H]3O[C@H](CO)[C@@H](O)[C@H]3O)[C@@H](O)[C@H](N)C[C@@H]2N)[C@H](N)[C@@H](O)[C@@H]1O
REMARK SMILES IDX 8 1 19 2 21 3 23 4 24 5 7 6 9 7 10 8 11 9 17 10 12 11 15 12
REMARK SMILES IDX 18 13 13 15 14 16 16 18 20 20 6 22 5 23 4 24 26 25 3 26
REMARK SMILES IDX 28 27 30 28 27 29 2 32 1 33 29 36 31 38 22 40 25 43
REMARK H PARENT 18 14 14 17 16 19 20 21 27 30 27 31 1 34 1 35 29 37 31 39
REMARK H PARENT 22 41 22 42 25 44 25 45
REMARK Flexibility Score: inf
ROOT
ATOM      1  C   UNL     1       9.484  77.828  -0.707  1.00  0.00     0.182 C 
ATOM      2  C   UNL     1       7.981  77.744  -0.374  1.00  0.00     0.163 C 
ATOM      3  C   UNL     1       7.412  79.135  -0.016  1.00  0.00     0.084 C 
ATOM      4  C   UNL     1       7.676  80.127  -1.162  1.00  0.00     0.043 C 
ATOM      5  C   UNL     1       9.177  80.221  -1.491  1.00  0.00     0.084 C 
ATOM      6  C   UNL     1       9.735  78.823  -1.865  1.00  0.00     0.170 C 
ENDROOT
BRANCH   1   7
ATOM      7  O   UNL     1       9.922  76.535  -1.101  1.00  0.00    -0.341 OA
BRANCH   7   8
ATOM      8  C   UNL     1       8.859  75.729  -1.579  1.00  0.00     0.282 C 
ATOM      9  O   UNL     1       9.164  74.384  -1.310  1.00  0.00    -0.341 OA
ATOM     10  C   UNL     1       8.714  75.853  -3.089  1.00  0.00     0.202 C 
ATOM     11  C   UNL     1       8.483  73.612  -2.271  1.00  0.00     0.178 C 
ATOM     12  C   UNL     1       8.205  74.486  -3.504  1.00  0.00     0.179 C 
BRANCH  10  13
ATOM     13  O   UNL     1       7.821  76.883  -3.427  1.00  0.00    -0.385 OA
ATOM     14  H   UNL     1       6.921  76.583  -3.134  1.00  0.00     0.211 HD
ENDBRANCH  10  13
BRANCH  11  15
ATOM     15  C   UNL     1       9.325  72.376  -2.612  1.00  0.00     0.191 C 
BRANCH  15  16
ATOM     16  O   UNL     1       9.936  71.856  -1.462  1.00  0.00    -0.394 OA
ATOM     17  H   UNL     1       9.783  70.875  -1.478  1.00  0.00     0.210 HD
ENDBRANCH  15  16
ENDBRANCH  11  15
BRANCH  12  18
ATOM     18  O   UNL     1       6.827  74.522  -3.779  1.00  0.00    -0.387 OA
ATOM     19  H   UNL     1       6.516  75.433  -3.535  1.00  0.00     0.211 HD
ENDBRANCH  12  18
ENDBRANCH   7   8
ENDBRANCH   1   7
BRANCH   2  20
ATOM     20  O   UNL     1       7.809  76.868   0.713  1.00  0.00    -0.389 OA
ATOM     21  H   UNL     1       7.701  75.954   0.342  1.00  0.00     0.211 HD
ENDBRANCH   2  20
BRANCH   6  22
ATOM     22  O   UNL     1      11.137  78.910  -2.086  1.00  0.00    -0.343 OA
BRANCH  22  23
ATOM     23  C   UNL     1      11.891  78.824  -0.883  1.00  0.00     0.270 C 
ATOM     24  O   UNL     1      12.961  77.928  -1.107  1.00  0.00    -0.344 OA
ATOM     25  C   UNL     1      12.437  80.215  -0.523  1.00  0.00     0.139 C 
ATOM     26  C   UNL     1      13.731  77.676   0.063  1.00  0.00     0.166 C 
ATOM     27  C   UNL     1      13.251  80.134   0.784  1.00  0.00     0.167 C 
ATOM     28  C   UNL     1      14.267  78.964   0.768  1.00  0.00     0.175 C 
BRANCH  25  29
ATOM     29  N   UNL     1      13.226  80.764  -1.631  1.00  0.00    -0.321 NA
ATOM     30  H   UNL     1      12.632  81.433  -2.175  1.00  0.00     0.119 HD
ATOM     31  H   UNL     1      14.050  81.294  -1.270  1.00  0.00     0.119 HD
ENDBRANCH  25  29
BRANCH  26  32
ATOM     32  C   UNL     1      13.081  76.620   0.991  1.00  0.00     0.112 C 
BRANCH  32  33
ATOM     33  N   UNL     1      13.443  76.792   2.395  1.00  0.00    -0.328 NA
ATOM     34  H   UNL     1      13.365  75.861   2.864  1.00  0.00     0.118 HD
ATOM     35  H   UNL     1      14.455  77.053   2.443  1.00  0.00     0.118 HD
ENDBRANCH  32  33
ENDBRANCH  26  32
BRANCH  27  36
ATOM     36  O   UNL     1      12.364  80.001   1.864  1.00  0.00    -0.388 OA
ATOM     37  H   UNL     1      12.723  80.557   2.606  1.00  0.00     0.211 HD
ENDBRANCH  27  36
BRANCH  28  38
ATOM     38  O   UNL     1      15.438  79.402   0.121  1.00  0.00    -0.388 OA
ATOM     39  H   UNL     1      16.186  79.293   0.764  1.00  0.00     0.211 HD
ENDBRANCH  28  38
ENDBRANCH  22  23
ENDBRANCH   6  22
BRANCH   3  40
ATOM     40  N   UNL     1       5.971  79.045   0.232  1.00  0.00    -0.325 NA
ATOM     41  H   UNL     1       5.518  79.922  -0.114  1.00  0.00     0.119 HD
ATOM     42  H   UNL     1       5.811  79.041   1.266  1.00  0.00     0.119 HD
ENDBRANCH   3  40
BRANCH   5  43
ATOM     43  N   UNL     1       9.380  81.169  -2.590  1.00  0.00    -0.325 NA
ATOM     44  H   UNL     1       9.991  80.722  -3.312  1.00  0.00     0.119 HD
ATOM     45  H   UNL     1       8.463  81.318  -3.069  1.00  0.00     0.119 HD
ENDBRANCH   5  43
TORSDOF 16
ENDMDL
MODEL 6
REMARK VINA RESULT:    -7.657      2.346      6.376
REMARK INTER + INTRA:         -12.911
REMARK INTER:                 -11.610
REMARK INTRA:                  -1.301
REMARK UNBOUND:                -0.330
REMARK SMILES NC[C@H]1O[C@H](O[C@H]2[C@H](O[C@@H]3O[C@H](CO)[C@@H](O)[C@H]3O)[C@@H](O)[C@H](N)C[C@@H]2N)[C@H](N)[C@@H](O)[C@@H]1O
REMARK SMILES IDX 8 1 19 2 21 3 23 4 24 5 7 6 9 7 10 8 11 9 17 10 12 11 15 12
REMARK SMILES IDX 18 13 13 15 14 16 16 18 20 20 6 22 5 23 4 24 26 25 3 26
REMARK SMILES IDX 28 27 30 28 27 29 2 32 1 33 29 36 31 38 22 40 25 43
REMARK H PARENT 18 14 14 17 16 19 20 21 27 30 27 31 1 34 1 35 29 37 31 39
REMARK H PARENT 22 41 22 42 25 44 25 45
REMARK Flexibility Score: inf
ROOT
ATOM      1  C   UNL     1      11.284  79.859  -1.468  1.00  0.00     0.182 C 
ATOM      2  C   UNL     1      11.870  80.658  -0.286  1.00  0.00     0.163 C 
ATOM      3  C   UNL     1      10.823  81.629   0.302  1.00  0.00     0.084 C 
ATOM      4  C   UNL     1       9.560  80.857   0.721  1.00  0.00     0.043 C 
ATOM      5  C   UNL     1       8.966  80.066  -0.458  1.00  0.00     0.084 C 
ATOM      6  C   UNL     1      10.020  79.082  -1.032  1.00  0.00     0.170 C 
ENDROOT
BRANCH   1   7
ATOM      7  O   UNL     1      12.270  78.935  -1.908  1.00  0.00    -0.341 OA
BRANCH   7   8
ATOM      8  C   UNL     1      13.221  79.534  -2.772  1.00  0.00     0.282 C 
ATOM      9  O   UNL     1      12.918  79.162  -4.092  1.00  0.00    -0.341 OA
ATOM     10  C   UNL     1      14.624  79.019  -2.482  1.00  0.00     0.202 C 
ATOM     11  C   UNL     1      14.124  79.217  -4.818  1.00  0.00     0.178 C 
ATOM     12  C   UNL     1      15.300  79.064  -3.839  1.00  0.00     0.179 C 
BRANCH  10  13
ATOM     13  O   UNL     1      15.272  79.827  -1.533  1.00  0.00    -0.385 OA
ATOM     14  H   UNL     1      14.782  79.705  -0.678  1.00  0.00     0.211 HD
ENDBRANCH  10  13
BRANCH  11  15
ATOM     15  C   UNL     1      14.116  78.122  -5.891  1.00  0.00     0.191 C 
BRANCH  15  16
ATOM     16  O   UNL     1      15.424  77.776  -6.260  1.00  0.00    -0.394 OA
ATOM     17  H   UNL     1      15.722  77.073  -5.625  1.00  0.00     0.210 HD
ENDBRANCH  15  16
ENDBRANCH  11  15
BRANCH  12  18
ATOM     18  O   UNL     1      16.165  80.167  -3.936  1.00  0.00    -0.387 OA
ATOM     19  H   UNL     1      15.936  80.770  -3.181  1.00  0.00     0.211 HD
ENDBRANCH  12  18
ENDBRANCH   7   8
ENDBRANCH   1   7
BRANCH   2  20
ATOM     20  O   UNL     1      12.985  81.383  -0.743  1.00  0.00    -0.389 OA
ATOM     21  H   UNL     1      13.227  82.032  -0.032  1.00  0.00     0.211 HD
ENDBRANCH   2  20
BRANCH   6  22
ATOM     22  O   UNL     1       9.486  78.419  -2.170  1.00  0.00    -0.343 OA
BRANCH  22  23
ATOM     23  C   UNL     1       9.161  77.058  -1.913  1.00  0.00     0.270 C 
ATOM     24  O   UNL     1       8.352  76.599  -2.978  1.00  0.00    -0.344 OA
ATOM     25  C   UNL     1      10.454  76.231  -1.840  1.00  0.00     0.139 C 
ATOM     26  C   UNL     1       7.873  75.274  -2.782  1.00  0.00     0.166 C 
ATOM     27  C   UNL     1      10.112  74.754  -1.556  1.00  0.00     0.167 C 
ATOM     28  C   UNL     1       8.992  74.224  -2.485  1.00  0.00     0.175 C 
BRANCH  25  29
ATOM     29  N   UNL     1      11.240  76.388  -3.069  1.00  0.00    -0.321 NA
ATOM     30  H   UNL     1      11.593  77.372  -3.125  1.00  0.00     0.119 HD
ATOM     31  H   UNL     1      12.069  75.754  -3.060  1.00  0.00     0.119 HD
ENDBRANCH  25  29
BRANCH  26  32
ATOM     32  C   UNL     1       6.632  75.217  -1.856  1.00  0.00     0.112 C 
BRANCH  32  33
ATOM     33  N   UNL     1       6.736  74.192  -0.822  1.00  0.00    -0.328 NA
ATOM     34  H   UNL     1       5.827  74.162  -0.306  1.00  0.00     0.118 HD
ATOM     35  H   UNL     1       6.830  73.262  -1.290  1.00  0.00     0.118 HD
ENDBRANCH  32  33
ENDBRANCH  26  32
BRANCH  27  36
ATOM     36  O   UNL     1       9.737  74.626  -0.208  1.00  0.00    -0.388 OA
ATOM     37  H   UNL     1       9.784  75.534   0.194  1.00  0.00     0.211 HD
ENDBRANCH  27  36
BRANCH  28  38
ATOM     38  O   UNL     1       9.579  73.806  -3.694  1.00  0.00    -0.388 OA
ATOM     39  H   UNL     1       9.655  74.607  -4.275  1.00  0.00     0.211 HD
ENDBRANCH  28  38
ENDBRANCH  22  23
ENDBRANCH   6  22
BRANCH   3  40
ATOM     40  N   UNL     1      11.377  82.330   1.463  1.00  0.00    -0.325 NA
ATOM     41  H   UNL     1      10.755  83.140   1.691  1.00  0.00     0.119 HD
ATOM     42  H   UNL     1      12.293  82.753   1.190  1.00  0.00     0.119 HD
ENDBRANCH   3  40
BRANCH   5  43
ATOM     43  N   UNL     1       7.772  79.343  -0.013  1.00  0.00    -0.325 NA
ATOM     44  H   UNL     1       7.692  79.432   1.026  1.00  0.00     0.119 HD
ATOM     45  H   UNL     1       6.930  79.835  -0.390  1.00  0.00     0.119 HD
ENDBRANCH   5  43
TORSDOF 16
ENDMDL
MODEL 7
REMARK VINA RESULT:    -7.657      3.160      5.479
REMARK INTER + INTRA:         -12.911
REMARK INTER:                 -10.818
REMARK INTRA:                  -2.093
REMARK UNBOUND:                -0.330
REMARK SMILES NC[C@H]1O[C@H](O[C@H]2[C@H](O[C@@H]3O[C@H](CO)[C@@H](O)[C@H]3O)[C@@H](O)[C@H](N)C[C@@H]2N)[C@H](N)[C@@H](O)[C@@H]1O
REMARK SMILES IDX 8 1 19 2 21 3 23 4 24 5 7 6 9 7 10 8 11 9 17 10 12 11 15 12
REMARK SMILES IDX 18 13 13 15 14 16 16 18 20 20 6 22 5 23 4 24 26 25 3 26
REMARK SMILES IDX 28 27 30 28 27 29 2 32 1 33 29 36 31 38 22 40 25 43
REMARK H PARENT 18 14 14 17 16 19 20 21 27 30 27 31 1 34 1 35 29 37 31 39
REMARK H PARENT 22 41 22 42 25 44 25 45
REMARK Flexibility Score: inf
ROOT
ATOM      1  C   UNL     1      12.025  79.779  -0.980  1.00  0.00     0.182 C 
ATOM      2  C   UNL     1      11.697  80.727   0.192  1.00  0.00     0.163 C 
ATOM      3  C   UNL     1      12.346  80.234   1.504  1.00  0.00     0.084 C 
ATOM      4  C   UNL     1      13.866  80.080   1.319  1.00  0.00     0.043 C 
ATOM      5  C   UNL     1      14.198  79.126   0.157  1.00  0.00     0.084 C 
ATOM      6  C   UNL     1      13.555  79.638  -1.159  1.00  0.00     0.170 C 
ENDROOT
BRANCH   1   7
ATOM      7  O   UNL     1      11.466  80.330  -2.163  1.00  0.00    -0.341 OA
BRANCH   7   8
ATOM      8  C   UNL     1      10.345  79.595  -2.622  1.00  0.00     0.282 C 
ATOM      9  O   UNL     1       9.179  80.222  -2.153  1.00  0.00    -0.341 OA
ATOM     10  C   UNL     1      10.344  78.184  -2.050  1.00  0.00     0.202 C 
ATOM     11  C   UNL     1       8.186  79.226  -2.068  1.00  0.00     0.178 C 
ATOM     12  C   UNL     1       8.868  77.856  -1.931  1.00  0.00     0.179 C 
BRANCH  10  13
ATOM     13  O   UNL     1      11.024  77.295  -2.899  1.00  0.00    -0.385 OA
ATOM     14  H   UNL     1      10.456  77.187  -3.706  1.00  0.00     0.211 HD
ENDBRANCH  10  13
BRANCH  11  15
ATOM     15  C   UNL     1       7.263  79.536  -0.883  1.00  0.00     0.191 C 
BRANCH  15  16
ATOM     16  O   UNL     1       7.877  79.194   0.330  1.00  0.00    -0.394 OA
ATOM     17  H   UNL     1       8.833  79.020   0.126  1.00  0.00     0.210 HD
ENDBRANCH  15  16
ENDBRANCH  11  15
BRANCH  12  18
ATOM     18  O   UNL     1       8.456  76.998  -2.965  1.00  0.00    -0.387 OA
ATOM     19  H   UNL     1       9.171  76.316  -3.066  1.00  0.00     0.211 HD
ENDBRANCH  12  18
ENDBRANCH   7   8
ENDBRANCH   1   7
BRANCH   2  20
ATOM     20  O   UNL     1      10.301  80.784   0.346  1.00  0.00    -0.389 OA
ATOM     21  H   UNL     1      10.115  80.890   1.316  1.00  0.00     0.211 HD
ENDBRANCH   2  20
BRANCH   6  22
ATOM     22  O   UNL     1      13.800  78.707  -2.205  1.00  0.00    -0.343 OA
BRANCH  22  23
ATOM     23  C   UNL     1      14.252  79.328  -3.402  1.00  0.00     0.270 C 
ATOM     24  O   UNL     1      15.643  79.095  -3.510  1.00  0.00    -0.344 OA
ATOM     25  C   UNL     1      13.520  78.711  -4.604  1.00  0.00     0.139 C 
ATOM     26  C   UNL     1      16.233  79.761  -4.620  1.00  0.00     0.166 C 
ATOM     27  C   UNL     1      14.000  79.383  -5.907  1.00  0.00     0.167 C 
ATOM     28  C   UNL     1      15.544  79.460  -5.991  1.00  0.00     0.175 C 
BRANCH  25  29
ATOM     29  N   UNL     1      13.707  77.256  -4.634  1.00  0.00    -0.321 NA
ATOM     30  H   UNL     1      13.900  76.917  -3.662  1.00  0.00     0.119 HD
ATOM     31  H   UNL     1      12.840  76.780  -4.969  1.00  0.00     0.119 HD
ENDBRANCH  25  29
BRANCH  26  32
ATOM     32  C   UNL     1      16.537  81.253  -4.331  1.00  0.00     0.112 C 
BRANCH  32  33
ATOM     33  N   UNL     1      17.849  81.673  -4.815  1.00  0.00    -0.328 NA
ATOM     34  H   UNL     1      17.720  82.104  -5.759  1.00  0.00     0.118 HD
ATOM     35  H   UNL     1      18.197  82.440  -4.195  1.00  0.00     0.118 HD
ENDBRANCH  32  33
ENDBRANCH  26  32
BRANCH  27  36
ATOM     36  O   UNL     1      13.437  80.667  -5.990  1.00  0.00    -0.388 OA
ATOM     37  H   UNL     1      12.470  80.575  -5.779  1.00  0.00     0.211 HD
ENDBRANCH  27  36
BRANCH  28  38
ATOM     38  O   UNL     1      16.024  78.239  -6.500  1.00  0.00    -0.388 OA
ATOM     39  H   UNL     1      15.559  78.078  -7.362  1.00  0.00     0.211 HD
ENDBRANCH  28  38
ENDBRANCH  22  23
ENDBRANCH   6  22
BRANCH   3  40
ATOM     40  N   UNL     1      12.078  81.182   2.589  1.00  0.00    -0.325 NA
ATOM     41  H   UNL     1      11.665  80.657   3.395  1.00  0.00     0.119 HD
ATOM     42  H   UNL     1      11.331  81.842   2.276  1.00  0.00     0.119 HD
ENDBRANCH   3  40
BRANCH   5  43
ATOM     43  N   UNL     1      15.652  79.015   0.013  1.00  0.00    -0.325 NA
ATOM     44  H   UNL     1      16.088  79.926   0.285  1.00  0.00     0.119 HD
ATOM     45  H   UNL     1      16.001  78.329   0.720  1.00  0.00     0.119 HD
ENDBRANCH   5  43
TORSDOF 16
ENDMDL
MODEL 8
REMARK VINA RESULT:    -7.618      1.873      3.006
REMARK INTER + INTRA:         -12.847
REMARK INTER:                 -10.290
REMARK INTRA:                  -2.556
REMARK UNBOUND:                -0.330
REMARK SMILES NC[C@H]1O[C@H](O[C@H]2[C@H](O[C@@H]3O[C@H](CO)[C@@H](O)[C@H]3O)[C@@H](O)[C@H](N)C[C@@H]2N)[C@H](N)[C@@H](O)[C@@H]1O
REMARK SMILES IDX 8 1 19 2 21 3 23 4 24 5 7 6 9 7 10 8 11 9 17 10 12 11 15 12
REMARK SMILES IDX 18 13 13 15 14 16 16 18 20 20 6 22 5 23 4 24 26 25 3 26
REMARK SMILES IDX 28 27 30 28 27 29 2 32 1 33 29 36 31 38 22 40 25 43
REMARK H PARENT 18 14 14 17 16 19 20 21 27 30 27 31 1 34 1 35 29 37 31 39
REMARK H PARENT 22 41 22 42 25 44 25 45
REMARK Flexibility Score: inf
ROOT
ATOM      1  C   UNL     1       9.480  78.186  -1.621  1.00  0.00     0.182 C 
ATOM      2  C   UNL     1       8.374  78.973  -2.352  1.00  0.00     0.163 C 
ATOM      3  C   UNL     1       7.570  79.849  -1.366  1.00  0.00     0.084 C 
ATOM      4  C   UNL     1       8.516  80.793  -0.602  1.00  0.00     0.043 C 
ATOM      5  C   UNL     1       9.616  80.010   0.138  1.00  0.00     0.084 C 
ATOM      6  C   UNL     1      10.427  79.145  -0.864  1.00  0.00     0.170 C 
ENDROOT
BRANCH   1   7
ATOM      7  O   UNL     1      10.225  77.466  -2.593  1.00  0.00    -0.341 OA
BRANCH   7   8
ATOM      8  C   UNL     1       9.995  76.069  -2.521  1.00  0.00     0.282 C 
ATOM      9  O   UNL     1       8.911  75.754  -3.358  1.00  0.00    -0.341 OA
ATOM     10  C   UNL     1       9.597  75.651  -1.113  1.00  0.00     0.202 C 
ATOM     11  C   UNL     1       8.322  74.584  -2.839  1.00  0.00     0.178 C 
ATOM     12  C   UNL     1       8.671  74.473  -1.346  1.00  0.00     0.179 C 
BRANCH  10  13
ATOM     13  O   UNL     1      10.726  75.302  -0.353  1.00  0.00    -0.385 OA
ATOM     14  H   UNL     1      11.466  75.158  -0.999  1.00  0.00     0.211 HD
ENDBRANCH  10  13
BRANCH  11  15
ATOM     15  C   UNL     1       6.808  74.633  -3.080  1.00  0.00     0.191 C 
BRANCH  15  16
ATOM     16  O   UNL     1       6.497  75.526  -4.116  1.00  0.00    -0.394 OA
ATOM     17  H   UNL     1       5.686  75.169  -4.565  1.00  0.00     0.210 HD
ENDBRANCH  15  16
ENDBRANCH  11  15
BRANCH  12  18
ATOM     18  O   UNL     1       9.323  73.256  -1.085  1.00  0.00    -0.387 OA
ATOM     19  H   UNL     1       9.473  72.824  -1.966  1.00  0.00     0.211 HD
ENDBRANCH  12  18
ENDBRANCH   7   8
ENDBRANCH   1   7
BRANCH   2  20
ATOM     20  O   UNL     1       7.512  78.058  -2.982  1.00  0.00    -0.389 OA
ATOM     21  H   UNL     1       6.702  77.976  -2.415  1.00  0.00     0.211 HD
ENDBRANCH   2  20
BRANCH   6  22
ATOM     22  O   UNL     1      11.384  78.366  -0.157  1.00  0.00    -0.343 OA
BRANCH  22  23
ATOM     23  C   UNL     1      12.725  78.707  -0.488  1.00  0.00     0.270 C 
ATOM     24  O   UNL     1      12.710  79.989  -1.085  1.00  0.00    -0.344 OA
ATOM     25  C   UNL     1      13.575  78.733   0.792  1.00  0.00     0.139 C 
ATOM     26  C   UNL     1      13.988  80.397  -1.558  1.00  0.00     0.166 C 
ATOM     27  C   UNL     1      15.032  79.096   0.443  1.00  0.00     0.167 C 
ATOM     28  C   UNL     1      15.121  80.335  -0.483  1.00  0.00     0.175 C 
BRANCH  25  29
ATOM     29  N   UNL     1      12.999  79.655   1.778  1.00  0.00    -0.321 NA
ATOM     30  H   UNL     1      13.242  79.321   2.740  1.00  0.00     0.119 HD
ATOM     31  H   UNL     1      13.397  80.613   1.664  1.00  0.00     0.119 HD
ENDBRANCH  25  29
BRANCH  26  32
ATOM     32  C   UNL     1      14.336  79.792  -2.941  1.00  0.00     0.112 C 
BRANCH  32  33
ATOM     33  N   UNL     1      15.691  79.253  -3.004  1.00  0.00    -0.328 NA
ATOM     34  H   UNL     1      15.779  78.515  -2.268  1.00  0.00     0.118 HD
ATOM     35  H   UNL     1      15.806  78.759  -3.919  1.00  0.00     0.118 HD
ENDBRANCH  32  33
ENDBRANCH  26  32
BRANCH  27  36
ATOM     36  O   UNL     1      15.645  77.985  -0.161  1.00  0.00    -0.388 OA
ATOM     37  H   UNL     1      16.625  78.150  -0.147  1.00  0.00     0.211 HD
ENDBRANCH  27  36
BRANCH  28  38
ATOM     38  O   UNL     1      15.074  81.492   0.317  1.00  0.00    -0.388 OA
ATOM     39  H   UNL     1      15.349  81.226   1.233  1.00  0.00     0.211 HD
ENDBRANCH  28  38
ENDBRANCH  22  23
ENDBRANCH   6  22
BRANCH   3  40
ATOM     40  N   UNL     1       6.569  80.639  -2.088  1.00  0.00    -0.325 NA
ATOM     41  H   UNL     1       5.975  81.143  -1.389  1.00  0.00     0.119 HD
ATOM     42  H   UNL     1       5.921  79.982  -2.580  1.00  0.00     0.119 HD
ENDBRANCH   3  40
BRANCH   5  43
ATOM     43  N   UNL     1      10.496  80.946   0.843  1.00  0.00    -0.325 NA
ATOM     44  H   UNL     1       9.928  81.481   1.540  1.00  0.00     0.119 HD
ATOM     45  H   UNL     1      11.172  80.392   1.417  1.00  0.00     0.119 HD
ENDBRANCH   5  43
TORSDOF 16
ENDMDL
MODEL 9
REMARK VINA RESULT:    -7.499      2.928      7.257
REMARK INTER + INTRA:         -12.652
REMARK INTER:                 -11.311
REMARK INTRA:                  -1.340
REMARK UNBOUND:                -0.330
REMARK SMILES NC[C@H]1O[C@H](O[C@H]2[C@H](O[C@@H]3O[C@H](CO)[C@@H](O)[C@H]3O)[C@@H](O)[C@H](N)C[C@@H]2N)[C@H](N)[C@@H](O)[C@@H]1O
REMARK SMILES IDX 8 1 19 2 21 3 23 4 24 5 7 6 9 7 10 8 11 9 17 10 12 11 15 12
REMARK SMILES IDX 18 13 13 15 14 16 16 18 20 20 6 22 5 23 4 24 26 25 3 26
REMARK SMILES IDX 28 27 30 28 27 29 2 32 1 33 29 36 31 38 22 40 25 43
REMARK H PARENT 18 14 14 17 16 19 20 21 27 30 27 31 1 34 1 35 29 37 31 39
REMARK H PARENT 22 41 22 42 25 44 25 45
REMARK Flexibility Score: inf
ROOT
ATOM      1  C   UNL     1      13.470  78.844  -2.731  1.00  0.00     0.182 C 
ATOM      2  C   UNL     1      14.820  78.523  -2.057  1.00  0.00     0.163 C 
ATOM      3  C   UNL     1      14.874  79.095  -0.623  1.00  0.00     0.084 C 
ATOM      4  C   UNL     1      13.693  78.560   0.207  1.00  0.00     0.043 C 
ATOM      5  C   UNL     1      12.344  78.888  -0.459  1.00  0.00     0.084 C 
ATOM      6  C   UNL     1      12.293  78.296  -1.892  1.00  0.00     0.170 C 
ENDROOT
BRANCH   1   7
ATOM      7  O   UNL     1      13.459  78.226  -4.010  1.00  0.00    -0.341 OA
BRANCH   7   8
ATOM      8  C   UNL     1      13.793  79.131  -5.049  1.00  0.00     0.282 C 
ATOM      9  O   UNL     1      15.109  78.865  -5.464  1.00  0.00    -0.341 OA
ATOM     10  C   UNL     1      13.772  80.569  -4.550  1.00  0.00     0.202 C 
ATOM     11  C   UNL     1      15.620  80.067  -5.992  1.00  0.00     0.178 C 
ATOM     12  C   UNL     1      14.838  81.246  -5.390  1.00  0.00     0.179 C 
BRANCH  10  13
ATOM     13  O   UNL     1      12.504  81.146  -4.726  1.00  0.00    -0.385 OA
ATOM     14  H   UNL     1      12.132  80.758  -5.561  1.00  0.00     0.211 HD
ENDBRANCH  10  13
BRANCH  11  15
ATOM     15  C   UNL     1      17.121  80.151  -5.690  1.00  0.00     0.191 C 
BRANCH  15  16
ATOM     16  O   UNL     1      17.350  80.848  -4.495  1.00  0.00    -0.394 OA
ATOM     17  H   UNL     1      16.554  81.421  -4.343  1.00  0.00     0.210 HD
ENDBRANCH  15  16
ENDBRANCH  11  15
BRANCH  12  18
ATOM     18  O   UNL     1      14.260  82.021  -6.410  1.00  0.00    -0.387 OA
ATOM     19  H   UNL     1      13.525  82.538  -5.987  1.00  0.00     0.211 HD
ENDBRANCH  12  18
ENDBRANCH   7   8
ENDBRANCH   1   7
BRANCH   2  20
ATOM     20  O   UNL     1      15.853  79.082  -2.829  1.00  0.00    -0.389 OA
ATOM     21  H   UNL     1      16.570  79.366  -2.203  1.00  0.00     0.211 HD
ENDBRANCH   2  20
BRANCH   6  22
ATOM     22  O   UNL     1      11.077  78.675  -2.524  1.00  0.00    -0.343 OA
BRANCH  22  23
ATOM     23  C   UNL     1      10.152  77.600  -2.630  1.00  0.00     0.270 C 
ATOM     24  O   UNL     1      10.538  76.605  -1.702  1.00  0.00    -0.344 OA
ATOM     25  C   UNL     1       8.740  78.108  -2.299  1.00  0.00     0.139 C 
ATOM     26  C   UNL     1       9.746  75.426  -1.788  1.00  0.00     0.166 C 
ATOM     27  C   UNL     1       7.729  76.949  -2.417  1.00  0.00     0.167 C 
ATOM     28  C   UNL     1       8.207  75.677  -1.676  1.00  0.00     0.175 C 
BRANCH  25  29
ATOM     29  N   UNL     1       8.711  78.731  -0.971  1.00  0.00    -0.321 NA
ATOM     30  H   UNL     1       8.635  79.769  -1.083  1.00  0.00     0.119 HD
ATOM     31  H   UNL     1       7.878  78.409  -0.431  1.00  0.00     0.119 HD
ENDBRANCH  25  29
BRANCH  26  32
ATOM     32  C   UNL     1      10.195  74.486  -2.935  1.00  0.00     0.112 C 
BRANCH  32  33
ATOM     33  N   UNL     1       9.081  73.792  -3.574  1.00  0.00    -0.328 NA
ATOM     34  H   UNL     1       8.200  74.296  -3.320  1.00  0.00     0.118 HD
ATOM     35  H   UNL     1       9.180  73.896  -4.610  1.00  0.00     0.118 HD
ENDBRANCH  32  33
ENDBRANCH  26  32
BRANCH  27  36
ATOM     36  O   UNL     1       7.510  76.675  -3.777  1.00  0.00    -0.388 OA
ATOM     37  H   UNL     1       6.582  76.963  -3.987  1.00  0.00     0.211 HD
ENDBRANCH  27  36
BRANCH  28  38
ATOM     38  O   UNL     1       7.847  75.790  -0.320  1.00  0.00    -0.388 OA
ATOM     39  H   UNL     1       7.476  74.913  -0.040  1.00  0.00     0.211 HD
ENDBRANCH  28  38
ENDBRANCH  22  23
ENDBRANCH   6  22
BRANCH   3  40
ATOM     40  N   UNL     1      16.135  78.723   0.025  1.00  0.00    -0.325 NA
ATOM     41  H   UNL     1      15.947  77.943   0.696  1.00  0.00     0.119 HD
ATOM     42  H   UNL     1      16.455  79.525   0.614  1.00  0.00     0.119 HD
ENDBRANCH   3  40
BRANCH   5  43
ATOM     43  N   UNL     1      11.250  78.356   0.359  1.00  0.00    -0.325 NA
ATOM     44  H   UNL     1      10.655  79.151   0.685  1.00  0.00     0.119 HD
ATOM     45  H   UNL     1      10.625  77.788  -0.257  1.00  0.00     0.119 HD
ENDBRANCH   5  43
TORSDOF 16
ENDMDL
MODEL 10
REMARK VINA RESULT:    -7.452      2.986      6.688
REMARK INTER + INTRA:         -12.573
REMARK INTER:                 -12.179
REMARK INTRA:                  -0.394
REMARK UNBOUND:                -0.330
REMARK SMILES NC[C@H]1O[C@H](O[C@H]2[C@H](O[C@@H]3O[C@H](CO)[C@@H](O)[C@H]3O)[C@@H](O)[C@H](N)C[C@@H]2N)[C@H](N)[C@@H](O)[C@@H]1O
REMARK SMILES IDX 8 1 19 2 21 3 23 4 24 5 7 6 9 7 10 8 11 9 17 10 12 11 15 12
REMARK SMILES IDX 18 13 13 15 14 16 16 18 20 20 6 22 5 23 4 24 26 25 3 26
REMARK SMILES IDX 28 27 30 28 27 29 2 32 1 33 29 36 31 38 22 40 25 43
REMARK H PARENT 18 14 14 17 16 19 20 21 27 30 27 31 1 34 1 35 29 37 31 39
REMARK H PARENT 22 41 22 42 25 44 25 45
REMARK Flexibility Score: inf
ROOT
ATOM      1  C   UNL     1      12.545  79.111  -1.889  1.00  0.00     0.182 C 
ATOM      2  C   UNL     1      13.958  79.302  -1.301  1.00  0.00     0.163 C 
ATOM      3  C   UNL     1      14.003  78.887   0.186  1.00  0.00     0.084 C 
ATOM      4  C   UNL     1      13.524  77.433   0.345  1.00  0.00     0.043 C 
ATOM      5  C   UNL     1      12.109  77.241  -0.231  1.00  0.00     0.084 C 
ATOM      6  C   UNL     1      12.078  77.645  -1.728  1.00  0.00     0.170 C 
ENDROOT
BRANCH   1   7
ATOM      7  O   UNL     1      12.595  79.436  -3.271  1.00  0.00    -0.341 OA
BRANCH   7   8
ATOM      8  C   UNL     1      13.889  79.258  -3.820  1.00  0.00     0.282 C 
ATOM      9  O   UNL     1      14.423  80.522  -4.120  1.00  0.00    -0.341 OA
ATOM     10  C   UNL     1      13.826  78.485  -5.130  1.00  0.00     0.202 C 
ATOM     11  C   UNL     1      15.350  80.335  -5.164  1.00  0.00     0.178 C 
ATOM     12  C   UNL     1      14.990  79.048  -5.923  1.00  0.00     0.179 C 
BRANCH  10  13
ATOM     13  O   UNL     1      13.947  77.104  -4.907  1.00  0.00    -0.385 OA
ATOM     14  H   UNL     1      14.352  76.999  -4.007  1.00  0.00     0.211 HD
ENDBRANCH  10  13
BRANCH  11  15
ATOM     15  C   UNL     1      15.337  81.569  -6.075  1.00  0.00     0.191 C 
BRANCH  15  16
ATOM     16  O   UNL     1      14.191  82.345  -5.848  1.00  0.00    -0.394 OA
ATOM     17  H   UNL     1      14.322  82.795  -4.972  1.00  0.00     0.210 HD
ENDBRANCH  15  16
ENDBRANCH  11  15
BRANCH  12  18
ATOM     18  O   UNL     1      16.078  78.159  -5.923  1.00  0.00    -0.387 OA
ATOM     19  H   UNL     1      15.745  77.307  -6.311  1.00  0.00     0.211 HD
ENDBRANCH  12  18
ENDBRANCH   7   8
ENDBRANCH   1   7
BRANCH   2  20
ATOM     20  O   UNL     1      14.318  80.656  -1.425  1.00  0.00    -0.389 OA
ATOM     21  H   UNL     1      15.116  80.697  -2.014  1.00  0.00     0.211 HD
ENDBRANCH   2  20
BRANCH   6  22
ATOM     22  O   UNL     1      10.750  77.541  -2.225  1.00  0.00    -0.343 OA
BRANCH  22  23
ATOM     23  C   UNL     1       9.803  78.226  -1.416  1.00  0.00     0.270 C 
ATOM     24  O   UNL     1       9.780  79.578  -1.829  1.00  0.00    -0.344 OA
ATOM     25  C   UNL     1       8.416  77.594  -1.608  1.00  0.00     0.139 C 
ATOM     26  C   UNL     1       8.941  80.394  -1.019  1.00  0.00     0.166 C 
ATOM     27  C   UNL     1       7.382  78.327  -0.729  1.00  0.00     0.167 C 
ATOM     28  C   UNL     1       7.477  79.866  -0.875  1.00  0.00     0.175 C 
BRANCH  25  29
ATOM     29  N   UNL     1       8.036  77.598  -3.025  1.00  0.00    -0.321 NA
ATOM     30  H   UNL     1       7.132  78.115  -3.135  1.00  0.00     0.119 HD
ATOM     31  H   UNL     1       8.755  78.092  -3.598  1.00  0.00     0.119 HD
ENDBRANCH  25  29
BRANCH  26  32
ATOM     32  C   UNL     1       9.630  80.840   0.295  1.00  0.00     0.112 C 
BRANCH  32  33
ATOM     33  N   UNL     1      10.888  81.546   0.070  1.00  0.00    -0.328 NA
ATOM     34  H   UNL     1      10.662  82.541  -0.161  1.00  0.00     0.118 HD
ATOM     35  H   UNL     1      11.415  81.574   0.973  1.00  0.00     0.118 HD
ENDBRANCH  32  33
ENDBRANCH  26  32
BRANCH  27  36
ATOM     36  O   UNL     1       7.573  77.946   0.610  1.00  0.00    -0.388 OA
ATOM     37  H   UNL     1       7.217  78.681   1.175  1.00  0.00     0.211 HD
ENDBRANCH  27  36
BRANCH  28  38
ATOM     38  O   UNL     1       6.725  80.253  -2.000  1.00  0.00    -0.388 OA
ATOM     39  H   UNL     1       5.847  79.793  -1.938  1.00  0.00     0.211 HD
ENDBRANCH  28  38
ENDBRANCH  22  23
ENDBRANCH   6  22
BRANCH   3  40
ATOM     40  N   UNL     1      15.367  79.013   0.707  1.00  0.00    -0.325 NA
ATOM     41  H   UNL     1      15.339  79.603   1.571  1.00  0.00     0.119 HD
ATOM     42  H   UNL     1      15.936  79.556   0.019  1.00  0.00     0.119 HD
ENDBRANCH   3  40
BRANCH   5  43
ATOM     43  N   UNL     1      11.697  75.844  -0.064  1.00  0.00    -0.325 NA
ATOM     44  H   UNL     1      11.467  75.679   0.942  1.00  0.00     0.119 HD
ATOM     45  H   UNL     1      10.793  75.706  -0.572  1.00  0.00     0.119 HD
ENDBRANCH   5  43
TORSDOF 16
ENDMDL
MODEL 11
REMARK VINA RESULT:    -7.401      2.229      6.320
REMARK INTER + INTRA:         -12.490
REMARK INTER:                 -11.344
REMARK INTRA:                  -1.146
REMARK UNBOUND:                -0.330
REMARK SMILES NC[C@H]1O[C@H](O[C@H]2[C@H](O[C@@H]3O[C@H](CO)[C@@H](O)[C@H]3O)[C@@H](O)[C@H](N)C[C@@H]2N)[C@H](N)[C@@H](O)[C@@H]1O
REMARK SMILES IDX 8 1 19 2 21 3 23 4 24 5 7 6 9 7 10 8 11 9 17 10 12 11 15 12
REMARK SMILES IDX 18 13 13 15 14 16 16 18 20 20 6 22 5 23 4 24 26 25 3 26
REMARK SMILES IDX 28 27 30 28 27 29 2 32 1 33 29 36 31 38 22 40 25 43
REMARK H PARENT 18 14 14 17 16 19 20 21 27 30 27 31 1 34 1 35 29 37 31 39
REMARK H PARENT 22 41 22 42 25 44 25 45
REMARK Flexibility Score: inf
ROOT
ATOM      1  C   UNL     1      11.486  79.176  -1.071  1.00  0.00     0.182 C 
ATOM      2  C   UNL     1      11.717  80.160   0.095  1.00  0.00     0.163 C 
ATOM      3  C   UNL     1      10.797  81.394  -0.029  1.00  0.00     0.084 C 
ATOM      4  C   UNL     1       9.325  80.953  -0.105  1.00  0.00     0.043 C 
ATOM      5  C   UNL     1       9.088  79.980  -1.274  1.00  0.00     0.084 C 
ATOM      6  C   UNL     1      10.005  78.736  -1.132  1.00  0.00     0.170 C 
ENDROOT
BRANCH   1   7
ATOM      7  O   UNL     1      12.303  78.035  -0.854  1.00  0.00    -0.341 OA
BRANCH   7   8
ATOM      8  C   UNL     1      13.220  77.820  -1.913  1.00  0.00     0.282 C 
ATOM      9  O   UNL     1      14.248  78.771  -1.811  1.00  0.00    -0.341 OA
ATOM     10  C   UNL     1      12.555  78.035  -3.265  1.00  0.00     0.202 C 
ATOM     11  C   UNL     1      14.762  78.956  -3.110  1.00  0.00     0.178 C 
ATOM     12  C   UNL     1      13.685  78.557  -4.131  1.00  0.00     0.179 C 
BRANCH  10  13
ATOM     13  O   UNL     1      12.011  76.837  -3.757  1.00  0.00    -0.385 OA
ATOM     14  H   UNL     1      12.101  76.872  -4.745  1.00  0.00     0.211 HD
ENDBRANCH  10  13
BRANCH  11  15
ATOM     15  C   UNL     1      15.204  80.416  -3.273  1.00  0.00     0.191 C 
BRANCH  15  16
ATOM     16  O   UNL     1      16.333  80.505  -4.100  1.00  0.00    -0.394 OA
ATOM     17  H   UNL     1      16.213  79.830  -4.818  1.00  0.00     0.210 HD
ENDBRANCH  15  16
ENDBRANCH  11  15
BRANCH  12  18
ATOM     18  O   UNL     1      14.170  77.553  -4.987  1.00  0.00    -0.387 OA
ATOM     19  H   UNL     1      14.438  76.794  -4.406  1.00  0.00     0.211 HD
ENDBRANCH  12  18
ENDBRANCH   7   8
ENDBRANCH   1   7
BRANCH   2  20
ATOM     20  O   UNL     1      13.062  80.568   0.080  1.00  0.00    -0.389 OA
ATOM     21  H   UNL     1      13.520  80.106   0.829  1.00  0.00     0.211 HD
ENDBRANCH   2  20
BRANCH   6  22
ATOM     22  O   UNL     1       9.836  77.886  -2.260  1.00  0.00    -0.343 OA
BRANCH  22  23
ATOM     23  C   UNL     1       8.930  76.818  -2.014  1.00  0.00     0.270 C 
ATOM     24  O   UNL     1       9.115  75.852  -3.030  1.00  0.00    -0.344 OA
ATOM     25  C   UNL     1       9.231  76.200  -0.639  1.00  0.00     0.139 C 
ATOM     26  C   UNL     1       8.186  74.777  -2.952  1.00  0.00     0.166 C 
ATOM     27  C   UNL     1       8.249  75.044  -0.361  1.00  0.00     0.167 C 
ATOM     28  C   UNL     1       8.139  74.069  -1.559  1.00  0.00     0.175 C 
BRANCH  25  29
ATOM     29  N   UNL     1      10.630  75.766  -0.562  1.00  0.00    -0.321 NA
ATOM     30  H   UNL     1      10.746  74.888  -1.121  1.00  0.00     0.119 HD
ATOM     31  H   UNL     1      11.264  76.488  -0.969  1.00  0.00     0.119 HD
ENDBRANCH  25  29
BRANCH  26  32
ATOM     32  C   UNL     1       6.813  75.127  -3.578  1.00  0.00     0.112 C 
BRANCH  32  33
ATOM     33  N   UNL     1       6.883  76.234  -4.527  1.00  0.00    -0.328 NA
ATOM     34  H   UNL     1       5.997  76.237  -5.084  1.00  0.00     0.118 HD
ATOM     35  H   UNL     1       6.883  77.129  -3.987  1.00  0.00     0.118 HD
ENDBRANCH  32  33
ENDBRANCH  26  32
BRANCH  27  36
ATOM     36  O   UNL     1       6.990  75.583  -0.047  1.00  0.00    -0.388 OA
ATOM     37  H   UNL     1       6.967  76.504  -0.420  1.00  0.00     0.211 HD
ENDBRANCH  27  36
BRANCH  28  38
ATOM     38  O   UNL     1       9.189  73.136  -1.470  1.00  0.00    -0.388 OA
ATOM     39  H   UNL     1       9.502  72.957  -2.395  1.00  0.00     0.211 HD
ENDBRANCH  28  38
ENDBRANCH  22  23
ENDBRANCH   6  22
BRANCH   3  40
ATOM     40  N   UNL     1      10.983  82.283   1.122  1.00  0.00    -0.325 NA
ATOM     41  H   UNL     1      11.083  83.264   0.771  1.00  0.00     0.119 HD
ATOM     42  H   UNL     1      11.899  82.055   1.572  1.00  0.00     0.119 HD
ENDBRANCH   3  40
BRANCH   5  43
ATOM     43  N   UNL     1       7.678  79.582  -1.305  1.00  0.00    -0.325 NA
ATOM     44  H   UNL     1       7.605  78.631  -1.735  1.00  0.00     0.119 HD
ATOM     45  H   UNL     1       7.351  79.456  -0.319  1.00  0.00     0.119 HD
ENDBRANCH   5  43
TORSDOF 16
ENDMDL
MODEL 12
REMARK VINA RESULT:    -7.352      3.006      5.382
REMARK INTER + INTRA:         -12.410
REMARK INTER:                 -11.903
REMARK INTRA:                  -0.506
REMARK UNBOUND:                -0.330
REMARK SMILES NC[C@H]1O[C@H](O[C@H]2[C@H](O[C@@H]3O[C@H](CO)[C@@H](O)[C@H]3O)[C@@H](O)[C@H](N)C[C@@H]2N)[C@H](N)[C@@H](O)[C@@H]1O
REMARK SMILES IDX 8 1 19 2 21 3 23 4 24 5 7 6 9 7 10 8 11 9 17 10 12 11 15 12
REMARK SMILES IDX 18 13 13 15 14 16 16 18 20 20 6 22 5 23 4 24 26 25 3 26
REMARK SMILES IDX 28 27 30 28 27 29 2 32 1 33 29 36 31 38 22 40 25 43
REMARK H PARENT 18 14 14 17 16 19 20 21 27 30 27 31 1 34 1 35 29 37 31 39
REMARK H PARENT 22 41 22 42 25 44 25 45
REMARK Flexibility Score: inf
ROOT
ATOM      1  C   UNL     1      11.818  79.534  -0.939  1.00  0.00     0.182 C 
ATOM      2  C   UNL     1      11.595  80.614   0.140  1.00  0.00     0.163 C 
ATOM      3  C   UNL     1      12.237  80.199   1.482  1.00  0.00     0.084 C 
ATOM      4  C   UNL     1      13.735  79.906   1.286  1.00  0.00     0.043 C 
ATOM      5  C   UNL     1      13.961  78.821   0.216  1.00  0.00     0.084 C 
ATOM      6  C   UNL     1      13.326  79.254  -1.131  1.00  0.00     0.170 C 
ENDROOT
BRANCH   1   7
ATOM      7  O   UNL     1      11.272  80.012  -2.160  1.00  0.00    -0.341 OA
BRANCH   7   8
ATOM      8  C   UNL     1      10.158  79.248  -2.588  1.00  0.00     0.282 C 
ATOM      9  O   UNL     1       8.995  79.812  -2.039  1.00  0.00    -0.341 OA
ATOM     10  C   UNL     1      10.241  77.820  -2.068  1.00  0.00     0.202 C 
ATOM     11  C   UNL     1       8.047  78.775  -1.940  1.00  0.00     0.178 C 
ATOM     12  C   UNL     1       8.787  77.429  -1.886  1.00  0.00     0.179 C 
BRANCH  10  13
ATOM     13  O   UNL     1      10.910  76.988  -2.981  1.00  0.00    -0.385 OA
ATOM     14  H   UNL     1      10.813  76.061  -2.639  1.00  0.00     0.211 HD
ENDBRANCH  10  13
BRANCH  11  15
ATOM     15  C   UNL     1       7.174  79.007  -0.700  1.00  0.00     0.191 C 
BRANCH  15  16
ATOM     16  O   UNL     1       7.968  79.277   0.424  1.00  0.00    -0.394 OA
ATOM     17  H   UNL     1       8.768  79.765   0.096  1.00  0.00     0.210 HD
ENDBRANCH  15  16
ENDBRANCH  11  15
BRANCH  12  18
ATOM     18  O   UNL     1       8.355  76.591  -2.929  1.00  0.00    -0.387 OA
ATOM     19  H   UNL     1       8.836  76.889  -3.745  1.00  0.00     0.211 HD
ENDBRANCH  12  18
ENDBRANCH   7   8
ENDBRANCH   1   7
BRANCH   2  20
ATOM     20  O   UNL     1      10.212  80.797   0.314  1.00  0.00    -0.389 OA
ATOM     21  H   UNL     1      10.080  81.698   0.709  1.00  0.00     0.211 HD
ENDBRANCH   2  20
BRANCH   6  22
ATOM     22  O   UNL     1      13.470  78.210  -2.086  1.00  0.00    -0.343 OA
BRANCH  22  23
ATOM     23  C   UNL     1      14.216  78.607  -3.230  1.00  0.00     0.270 C 
ATOM     24  O   UNL     1      13.317  78.711  -4.316  1.00  0.00    -0.344 OA
ATOM     25  C   UNL     1      14.875  79.969  -2.961  1.00  0.00     0.139 C 
ATOM     26  C   UNL     1      13.965  79.001  -5.549  1.00  0.00     0.166 C 
ATOM     27  C   UNL     1      15.691  80.406  -4.195  1.00  0.00     0.167 C 
ATOM     28  C   UNL     1      14.884  80.265  -5.509  1.00  0.00     0.175 C 
BRANCH  25  29
ATOM     29  N   UNL     1      13.867  80.968  -2.585  1.00  0.00    -0.321 NA
ATOM     30  H   UNL     1      13.003  80.812  -3.156  1.00  0.00     0.119 HD
ATOM     31  H   UNL     1      13.605  80.866  -1.580  1.00  0.00     0.119 HD
ENDBRANCH  25  29
BRANCH  26  32
ATOM     32  C   UNL     1      14.576  77.743  -6.215  1.00  0.00     0.112 C 
BRANCH  32  33
ATOM     33  N   UNL     1      15.988  77.902  -6.549  1.00  0.00    -0.328 NA
ATOM     34  H   UNL     1      16.519  77.133  -6.078  1.00  0.00     0.118 HD
ATOM     35  H   UNL     1      16.103  77.741  -7.576  1.00  0.00     0.118 HD
ENDBRANCH  32  33
ENDBRANCH  26  32
BRANCH  27  36
ATOM     36  O   UNL     1      16.868  79.642  -4.254  1.00  0.00    -0.388 OA
ATOM     37  H   UNL     1      17.250  79.767  -5.163  1.00  0.00     0.211 HD
ENDBRANCH  27  36
BRANCH  28  38
ATOM     38  O   UNL     1      14.101  81.422  -5.676  1.00  0.00    -0.388 OA
ATOM     39  H   UNL     1      13.548  81.287  -6.490  1.00  0.00     0.211 HD
ENDBRANCH  28  38
ENDBRANCH  22  23
ENDBRANCH   6  22
BRANCH   3  40
ATOM     40  N   UNL     1      12.073  81.265   2.474  1.00  0.00    -0.325 NA
ATOM     41  H   UNL     1      12.394  80.907   3.404  1.00  0.00     0.119 HD
ATOM     42  H   UNL     1      11.051  81.456   2.590  1.00  0.00     0.119 HD
ENDBRANCH   3  40
BRANCH   5  43
ATOM     43  N   UNL     1      15.398  78.580   0.057  1.00  0.00    -0.325 NA
ATOM     44  H   UNL     1      15.538  77.610  -0.308  1.00  0.00     0.119 HD
ATOM     45  H   UNL     1      15.754  79.206  -0.701  1.00  0.00     0.119 HD
ENDBRANCH   5  43
TORSDOF 16
ENDMDL
MODEL 13
REMARK VINA RESULT:    -7.341      1.802      2.764
REMARK INTER + INTRA:         -12.391
REMARK INTER:                 -12.182
REMARK INTRA:                  -0.209
REMARK UNBOUND:                -0.330
REMARK SMILES NC[C@H]1O[C@H](O[C@H]2[C@H](O[C@@H]3O[C@H](CO)[C@@H](O)[C@H]3O)[C@@H](O)[C@H](N)C[C@@H]2N)[C@H](N)[C@@H](O)[C@@H]1O
REMARK SMILES IDX 8 1 19 2 21 3 23 4 24 5 7 6 9 7 10 8 11 9 17 10 12 11 15 12
REMARK SMILES IDX 18 13 13 15 14 16 16 18 20 20 6 22 5 23 4 24 26 25 3 26
REMARK SMILES IDX 28 27 30 28 27 29 2 32 1 33 29 36 31 38 22 40 25 43
REMARK H PARENT 18 14 14 17 16 19 20 21 27 30 27 31 1 34 1 35 29 37 31 39
REMARK H PARENT 22 41 22 42 25 44 25 45
REMARK Flexibility Score: inf
ROOT
ATOM      1  C   UNL     1       9.537  77.804  -0.748  1.00  0.00     0.182 C 
ATOM      2  C   UNL     1       8.029  77.745  -0.428  1.00  0.00     0.163 C 
ATOM      3  C   UNL     1       7.476  79.149  -0.097  1.00  0.00     0.084 C 
ATOM      4  C   UNL     1       7.764  80.120  -1.255  1.00  0.00     0.043 C 
ATOM      5  C   UNL     1       9.269  80.190  -1.570  1.00  0.00     0.084 C 
ATOM      6  C   UNL     1       9.811  78.778  -1.918  1.00  0.00     0.170 C 
ENDROOT
BRANCH   1   7
ATOM      7  O   UNL     1       9.960  76.500  -1.118  1.00  0.00    -0.341 OA
BRANCH   7   8
ATOM      8  C   UNL     1       9.228  75.988  -2.219  1.00  0.00     0.282 C 
ATOM      9  O   UNL     1       7.859  76.052  -1.910  1.00  0.00    -0.341 OA
ATOM     10  C   UNL     1       9.555  74.521  -2.459  1.00  0.00     0.202 C 
ATOM     11  C   UNL     1       7.224  75.043  -2.660  1.00  0.00     0.178 C 
ATOM     12  C   UNL     1       8.258  73.959  -3.008  1.00  0.00     0.179 C 
BRANCH  10  13
ATOM     13  O   UNL     1      10.623  74.383  -3.361  1.00  0.00    -0.385 OA
ATOM     14  H   UNL     1      10.875  75.302  -3.640  1.00  0.00     0.211 HD
ENDBRANCH  10  13
BRANCH  11  15
ATOM     15  C   UNL     1       6.045  74.484  -1.855  1.00  0.00     0.191 C 
BRANCH  15  16
ATOM     16  O   UNL     1       6.345  74.456  -0.485  1.00  0.00    -0.394 OA
ATOM     17  H   UNL     1       5.639  74.984  -0.029  1.00  0.00     0.210 HD
ENDBRANCH  15  16
ENDBRANCH  11  15
BRANCH  12  18
ATOM     18  O   UNL     1       8.332  73.782  -4.400  1.00  0.00    -0.387 OA
ATOM     19  H   UNL     1       7.405  73.875  -4.745  1.00  0.00     0.211 HD
ENDBRANCH  12  18
ENDBRANCH   7   8
ENDBRANCH   1   7
BRANCH   2  20
ATOM     20  O   UNL     1       7.835  76.888   0.669  1.00  0.00    -0.389 OA
ATOM     21  H   UNL     1       8.680  76.879   1.190  1.00  0.00     0.211 HD
ENDBRANCH   2  20
BRANCH   6  22
ATOM     22  O   UNL     1      11.216  78.843  -2.127  1.00  0.00    -0.343 OA
BRANCH  22  23
ATOM     23  C   UNL     1      11.958  78.772  -0.915  1.00  0.00     0.270 C 
ATOM     24  O   UNL     1      13.018  77.857  -1.111  1.00  0.00    -0.344 OA
ATOM     25  C   UNL     1      12.518  80.163  -0.578  1.00  0.00     0.139 C 
ATOM     26  C   UNL     1      13.773  77.620   0.072  1.00  0.00     0.166 C 
ATOM     27  C   UNL     1      13.319  80.097   0.739  1.00  0.00     0.167 C 
ATOM     28  C   UNL     1      14.319  78.915   0.756  1.00  0.00     0.175 C 
BRANCH  25  29
ATOM     29  N   UNL     1      13.325  80.679  -1.689  1.00  0.00    -0.321 NA
ATOM     30  H   UNL     1      14.325  80.408  -1.539  1.00  0.00     0.119 HD
ATOM     31  H   UNL     1      13.015  80.263  -2.594  1.00  0.00     0.119 HD
ENDBRANCH  25  29
BRANCH  26  32
ATOM     32  C   UNL     1      13.101  76.590   1.014  1.00  0.00     0.112 C 
BRANCH  32  33
ATOM     33  N   UNL     1      13.462  76.779   2.416  1.00  0.00    -0.328 NA
ATOM     34  H   UNL     1      14.500  76.678   2.498  1.00  0.00     0.118 HD
ATOM     35  H   UNL     1      13.249  77.768   2.680  1.00  0.00     0.118 HD
ENDBRANCH  32  33
ENDBRANCH  26  32
BRANCH  27  36
ATOM     36  O   UNL     1      12.419  79.997   1.813  1.00  0.00    -0.388 OA
ATOM     37  H   UNL     1      12.224  80.923   2.116  1.00  0.00     0.211 HD
ENDBRANCH  27  36
BRANCH  28  38
ATOM     38  O   UNL     1      15.502  79.324   0.112  1.00  0.00    -0.388 OA
ATOM     39  H   UNL     1      15.949  78.506  -0.228  1.00  0.00     0.211 HD
ENDBRANCH  28  38
ENDBRANCH  22  23
ENDBRANCH   6  22
BRANCH   3  40
ATOM     40  N   UNL     1       6.031  79.082   0.139  1.00  0.00    -0.325 NA
ATOM     41  H   UNL     1       5.547  79.002  -0.785  1.00  0.00     0.119 HD
ATOM     42  H   UNL     1       5.717  79.996   0.538  1.00  0.00     0.119 HD
ENDBRANCH   3  40
BRANCH   5  43
ATOM     43  N   UNL     1       9.496  81.118  -2.681  1.00  0.00    -0.325 NA
ATOM     44  H   UNL     1       9.721  82.062  -2.290  1.00  0.00     0.119 HD
ATOM     45  H   UNL     1      10.363  80.823  -3.185  1.00  0.00     0.119 HD
ENDBRANCH   5  43
TORSDOF 16
ENDMDL
MODEL 14
REMARK VINA RESULT:    -7.152      2.638      6.757
REMARK INTER + INTRA:         -12.081
REMARK INTER:                 -10.838
REMARK INTRA:                  -1.243
REMARK UNBOUND:                -0.330
REMARK SMILES NC[C@H]1O[C@H](O[C@H]2[C@H](O[C@@H]3O[C@H](CO)[C@@H](O)[C@H]3O)[C@@H](O)[C@H](N)C[C@@H]2N)[C@H](N)[C@@H](O)[C@@H]1O
REMARK SMILES IDX 8 1 19 2 21 3 23 4 24 5 7 6 9 7 10 8 11 9 17 10 12 11 15 12
REMARK SMILES IDX 18 13 13 15 14 16 16 18 20 20 6 22 5 23 4 24 26 25 3 26
REMARK SMILES IDX 28 27 30 28 27 29 2 32 1 33 29 36 31 38 22 40 25 43
REMARK H PARENT 18 14 14 17 16 19 20 21 27 30 27 31 1 34 1 35 29 37 31 39
REMARK H PARENT 22 41 22 42 25 44 25 45
REMARK Flexibility Score: inf
ROOT
ATOM      1  C   UNL     1      11.828  79.221  -1.689  1.00  0.00     0.182 C 
ATOM      2  C   UNL     1      12.568  80.302  -0.876  1.00  0.00     0.163 C 
ATOM      3  C   UNL     1      12.548  79.974   0.633  1.00  0.00     0.084 C 
ATOM      4  C   UNL     1      13.149  78.579   0.881  1.00  0.00     0.043 C 
ATOM      5  C   UNL     1      12.406  77.495   0.079  1.00  0.00     0.084 C 
ATOM      6  C   UNL     1      12.446  77.826  -1.437  1.00  0.00     0.170 C 
ENDROOT
BRANCH   1   7
ATOM      7  O   UNL     1      11.953  79.543  -3.067  1.00  0.00    -0.341 OA
BRANCH   7   8
ATOM      8  C   UNL     1      13.306  79.641  -3.477  1.00  0.00     0.282 C 
ATOM      9  O   UNL     1      13.575  80.981  -3.804  1.00  0.00    -0.341 OA
ATOM     10  C   UNL     1      13.557  78.823  -4.736  1.00  0.00     0.202 C 
ATOM     11  C   UNL     1      14.628  80.967  -4.741  1.00  0.00     0.178 C 
ATOM     12  C   UNL     1      14.645  79.603  -5.448  1.00  0.00     0.179 C 
BRANCH  10  13
ATOM     13  O   UNL     1      13.956  77.515  -4.417  1.00  0.00    -0.385 OA
ATOM     14  H   UNL     1      14.825  77.594  -3.943  1.00  0.00     0.211 HD
ENDBRANCH  10  13
BRANCH  11  15
ATOM     15  C   UNL     1      14.441  82.129  -5.724  1.00  0.00     0.191 C 
BRANCH  15  16
ATOM     16  O   UNL     1      15.549  82.244  -6.576  1.00  0.00    -0.394 OA
ATOM     17  H   UNL     1      15.784  83.209  -6.608  1.00  0.00     0.210 HD
ENDBRANCH  15  16
ENDBRANCH  11  15
BRANCH  12  18
ATOM     18  O   UNL     1      15.897  78.984  -5.288  1.00  0.00    -0.387 OA
ATOM     19  H   UNL     1      16.580  79.679  -5.480  1.00  0.00     0.211 HD
ENDBRANCH  12  18
ENDBRANCH   7   8
ENDBRANCH   1   7
BRANCH   2  20
ATOM     20  O   UNL     1      11.942  81.541  -1.099  1.00  0.00    -0.389 OA
ATOM     21  H   UNL     1      11.759  81.944  -0.211  1.00  0.00     0.211 HD
ENDBRANCH   2  20
BRANCH   6  22
ATOM     22  O   UNL     1      11.688  76.862  -2.157  1.00  0.00    -0.343 OA
BRANCH  22  23
ATOM     23  C   UNL     1      10.324  76.824  -1.758  1.00  0.00     0.270 C 
ATOM     24  O   UNL     1       9.551  77.374  -2.807  1.00  0.00    -0.344 OA
ATOM     25  C   UNL     1       9.907  75.366  -1.506  1.00  0.00     0.139 C 
ATOM     26  C   UNL     1       8.171  77.488  -2.481  1.00  0.00     0.166 C 
ATOM     27  C   UNL     1       8.430  75.315  -1.066  1.00  0.00     0.167 C 
ATOM     28  C   UNL     1       7.515  76.156  -1.991  1.00  0.00     0.175 C 
BRANCH  25  29
ATOM     29  N   UNL     1      10.157  74.543  -2.694  1.00  0.00    -0.321 NA
ATOM     30  H   UNL     1       9.714  73.604  -2.558  1.00  0.00     0.119 HD
ATOM     31  H   UNL     1       9.727  74.977  -3.540  1.00  0.00     0.119 HD
ENDBRANCH  25  29
BRANCH  26  32
ATOM     32  C   UNL     1       7.858  78.746  -1.633  1.00  0.00     0.112 C 
BRANCH  32  33
ATOM     33  N   UNL     1       7.381  79.870  -2.433  1.00  0.00    -0.328 NA
ATOM     34  H   UNL     1       6.373  80.026  -2.201  1.00  0.00     0.118 HD
ATOM     35  H   UNL     1       7.883  80.732  -2.120  1.00  0.00     0.118 HD
ENDBRANCH  32  33
ENDBRANCH  26  32
BRANCH  27  36
ATOM     36  O   UNL     1       8.335  75.764   0.262  1.00  0.00    -0.388 OA
ATOM     37  H   UNL     1       7.368  75.798   0.489  1.00  0.00     0.211 HD
ENDBRANCH  27  36
BRANCH  28  38
ATOM     38  O   UNL     1       7.162  75.368  -3.102  1.00  0.00    -0.388 OA
ATOM     39  H   UNL     1       7.010  74.445  -2.771  1.00  0.00     0.211 HD
ENDBRANCH  28  38
ENDBRANCH  22  23
ENDBRANCH   6  22
BRANCH   3  40
ATOM     40  N   UNL     1      13.312  80.977   1.381  1.00  0.00    -0.325 NA
ATOM     41  H   UNL     1      12.728  81.841   1.470  1.00  0.00     0.119 HD
ATOM     42  H   UNL     1      14.139  81.260   0.808  1.00  0.00     0.119 HD
ENDBRANCH   3  40
BRANCH   5  43
ATOM     43  N   UNL     1      13.015  76.188   0.339  1.00  0.00    -0.325 NA
ATOM     44  H   UNL     1      13.472  75.849  -0.538  1.00  0.00     0.119 HD
ATOM     45  H   UNL     1      13.800  76.320   1.017  1.00  0.00     0.119 HD
ENDBRANCH   5  43
TORSDOF 16
ENDMDL
MODEL 15
REMARK VINA RESULT:    -6.631      1.828      2.997
REMARK INTER + INTRA:         -11.225
REMARK INTER:                 -11.501
REMARK INTRA:                   0.276
REMARK UNBOUND:                -0.330
REMARK SMILES NC[C@H]1O[C@H](O[C@H]2[C@H](O[C@@H]3O[C@H](CO)[C@@H](O)[C@H]3O)[C@@H](O)[C@H](N)C[C@@H]2N)[C@H](N)[C@@H](O)[C@@H]1O
REMARK SMILES IDX 8 1 19 2 21 3 23 4 24 5 7 6 9 7 10 8 11 9 17 10 12 11 15 12
REMARK SMILES IDX 18 13 13 15 14 16 16 18 20 20 6 22 5 23 4 24 26 25 3 26
REMARK SMILES IDX 28 27 30 28 27 29 2 32 1 33 29 36 31 38 22 40 25 43
REMARK H PARENT 18 14 14 17 16 19 20 21 27 30 27 31 1 34 1 35 29 37 31 39
REMARK H PARENT 22 41 22 42 25 44 25 45
REMARK Flexibility Score: inf
ROOT
ATOM      1  C   UNL     1       9.878  77.895  -0.374  1.00  0.00     0.182 C 
ATOM      2  C   UNL     1       8.391  78.058  -0.754  1.00  0.00     0.163 C 
ATOM      3  C   UNL     1       7.765  79.275  -0.038  1.00  0.00     0.084 C 
ATOM      4  C   UNL     1       8.567  80.549  -0.359  1.00  0.00     0.043 C 
ATOM      5  C   UNL     1      10.049  80.394   0.029  1.00  0.00     0.084 C 
ATOM      6  C   UNL     1      10.673  79.179  -0.707  1.00  0.00     0.170 C 
ENDROOT
BRANCH   1   7
ATOM      7  O   UNL     1      10.408  76.811  -1.123  1.00  0.00    -0.341 OA
BRANCH   7   8
ATOM      8  C   UNL     1       9.412  75.870  -1.486  1.00  0.00     0.282 C 
ATOM      9  O   UNL     1       9.856  74.589  -1.118  1.00  0.00    -0.341 OA
ATOM     10  C   UNL     1       9.206  75.846  -2.994  1.00  0.00     0.202 C 
ATOM     11  C   UNL     1       9.220  73.674  -1.981  1.00  0.00     0.178 C 
ATOM     12  C   UNL     1       8.818  74.406  -3.271  1.00  0.00     0.179 C 
BRANCH  10  13
ATOM     13  O   UNL     1       8.206  76.755  -3.381  1.00  0.00    -0.385 OA
ATOM     14  H   UNL     1       8.114  77.405  -2.636  1.00  0.00     0.211 HD
ENDBRANCH  10  13
BRANCH  11  15
ATOM     15  C   UNL     1      10.166  72.497  -2.252  1.00  0.00     0.191 C 
BRANCH  15  16
ATOM     16  O   UNL     1       9.733  71.345  -1.580  1.00  0.00    -0.394 OA
ATOM     17  H   UNL     1       9.811  71.537  -0.608  1.00  0.00     0.210 HD
ENDBRANCH  15  16
ENDBRANCH  11  15
BRANCH  12  18
ATOM     18  O   UNL     1       7.435  74.289  -3.490  1.00  0.00    -0.387 OA
ATOM     19  H   UNL     1       7.198  73.345  -3.290  1.00  0.00     0.211 HD
ENDBRANCH  12  18
ENDBRANCH   7   8
ENDBRANCH   1   7
BRANCH   2  20
ATOM     20  O   UNL     1       7.703  76.888  -0.388  1.00  0.00    -0.389 OA
ATOM     21  H   UNL     1       7.193  77.091   0.439  1.00  0.00     0.211 HD
ENDBRANCH   2  20
BRANCH   6  22
ATOM     22  O   UNL     1      12.016  78.998  -0.278  1.00  0.00    -0.343 OA
BRANCH  22  23
ATOM     23  C   UNL     1      12.930  78.883  -1.362  1.00  0.00     0.270 C 
ATOM     24  O   UNL     1      12.223  79.162  -2.554  1.00  0.00    -0.344 OA
ATOM     25  C   UNL     1      14.070  79.896  -1.178  1.00  0.00     0.139 C 
ATOM     26  C   UNL     1      13.010  78.974  -3.725  1.00  0.00     0.166 C 
ATOM     27  C   UNL     1      15.070  79.774  -2.345  1.00  0.00     0.167 C 
ATOM     28  C   UNL     1      14.362  79.759  -3.723  1.00  0.00     0.175 C 
BRANCH  25  29
ATOM     29  N   UNL     1      13.538  81.257  -1.048  1.00  0.00    -0.321 NA
ATOM     30  H   UNL     1      12.558  81.207  -0.684  1.00  0.00     0.119 HD
ATOM     31  H   UNL     1      14.102  81.810  -0.365  1.00  0.00     0.119 HD
ENDBRANCH  25  29
BRANCH  26  32
ATOM     32  C   UNL     1      13.093  77.489  -4.158  1.00  0.00     0.112 C 
BRANCH  32  33
ATOM     33  N   UNL     1      14.218  77.215  -5.048  1.00  0.00    -0.328 NA
ATOM     34  H   UNL     1      14.949  77.943  -4.875  1.00  0.00     0.118 HD
ATOM     35  H   UNL     1      14.647  76.305  -4.764  1.00  0.00     0.118 HD
ENDBRANCH  32  33
ENDBRANCH  26  32
BRANCH  27  36
ATOM     36  O   UNL     1      15.833  78.607  -2.170  1.00  0.00    -0.388 OA
ATOM     37  H   UNL     1      16.785  78.860  -2.297  1.00  0.00     0.211 HD
ENDBRANCH  27  36
BRANCH  28  38
ATOM     38  O   UNL     1      14.133  81.090  -4.119  1.00  0.00    -0.388 OA
ATOM     39  H   UNL     1      14.162  81.109  -5.111  1.00  0.00     0.211 HD
ENDBRANCH  28  38
ENDBRANCH  22  23
ENDBRANCH   6  22
BRANCH   3  40
ATOM     40  N   UNL     1       6.374  79.452  -0.462  1.00  0.00    -0.325 NA
ATOM     41  H   UNL     1       6.369  79.864  -1.425  1.00  0.00     0.119 HD
ATOM     42  H   UNL     1       5.929  80.174   0.149  1.00  0.00     0.119 HD
ENDBRANCH   3  40
BRANCH   5  43
ATOM     43  N   UNL     1      10.774  81.625  -0.299  1.00  0.00    -0.325 NA
ATOM     44  H   UNL     1      11.553  81.392  -0.956  1.00  0.00     0.119 HD
ATOM     45  H   UNL     1      10.136  82.245  -0.850  1.00  0.00     0.119 HD
ENDBRANCH   5  43
TORSDOF 16
ENDMDL
