MODEL 1
REMARK VINA RESULT:    -8.433      0.000      0.000
REMARK INTER + INTRA:         -10.471
REMARK INTER:                 -10.158
REMARK INTRA:                  -0.313
REMARK UNBOUND:                -0.313
REMARK SMILES O=c1c(O)c(-c2ccc(O)c(O)c2)oc2cc(O)cc(O)c12
REMARK SMILES IDX 17 1 16 2 15 3 22 4 20 5 19 6 2 7 1 8 3 9 5 10 14 11 18 12
REMARK SMILES IDX 21 14 6 16 7 17 13 18 8 19 11 20 9 21 12 22 10 24 4 26
REMARK H PARENT 18 13 21 15 12 23 10 25 4 27
REMARK Flexibility Score: inf
ROOT
ATOM      1  C   UNL     1      12.299  80.183  -1.119  1.00  0.00     0.123 A 
ATOM      2  C   UNL     1      13.370  80.650  -1.882  1.00  0.00     0.094 A 
ATOM      3  C   UNL     1      13.808  79.933  -2.999  1.00  0.00     0.146 A 
ATOM      4  C   UNL     1      13.171  78.724  -3.366  1.00  0.00     0.111 A 
ATOM      5  C   UNL     1      12.085  78.254  -2.589  1.00  0.00     0.134 A 
ATOM      6  C   UNL     1      11.659  78.989  -1.472  1.00  0.00     0.093 A 
ATOM      7  C   UNL     1      13.664  78.040  -4.496  1.00  0.00     0.238 A 
ATOM      8  O   UNL     1      13.149  76.951  -4.869  1.00  0.00    -0.285 OA
ATOM      9  C   UNL     1      14.748  78.572  -5.211  1.00  0.00     0.208 A 
ATOM     10  C   UNL     1      15.308  79.793  -4.790  1.00  0.00     0.180 A 
ATOM     11  O   UNL     1      14.826  80.404  -3.711  1.00  0.00    -0.452 OA
ENDROOT
BRANCH   1  12
ATOM     12  O   UNL     1      11.877  80.912  -0.010  1.00  0.00    -0.508 OA
ATOM     13  H   UNL     1      12.498  81.550   0.474  1.00  0.00     0.293 HD
ENDBRANCH   1  12
BRANCH   5  14
ATOM     14  O   UNL     1      11.428  77.067  -2.917  1.00  0.00    -0.507 OA
ATOM     15  H   UNL     1      11.516  76.646  -3.834  1.00  0.00     0.293 HD
ENDBRANCH   5  14
BRANCH  10  16
ATOM     16  C   UNL     1      16.440  80.427  -5.502  1.00  0.00     0.025 A 
ATOM     17  C   UNL     1      17.768  80.046  -5.252  1.00  0.00     0.016 A 
ATOM     18  C   UNL     1      16.184  81.388  -6.493  1.00  0.00     0.062 A 
ATOM     19  C   UNL     1      18.818  80.641  -5.953  1.00  0.00     0.051 A 
ATOM     20  C   UNL     1      17.231  81.991  -7.202  1.00  0.00     0.158 A 
ATOM     21  C   UNL     1      18.567  81.615  -6.925  1.00  0.00     0.157 A 
BRANCH  20  22
ATOM     22  O   UNL     1      16.900  82.948  -8.163  1.00  0.00    -0.504 OA
ATOM     23  H   UNL     1      17.457  83.768  -8.358  1.00  0.00     0.293 HD
ENDBRANCH  20  22
BRANCH  21  24
ATOM     24  O   UNL     1      19.660  82.174  -7.588  1.00  0.00    -0.504 OA
ATOM     25  H   UNL     1      20.248  81.668  -8.234  1.00  0.00     0.293 HD
ENDBRANCH  21  24
ENDBRANCH  10  16
BRANCH   9  26
ATOM     26  O   UNL     1      15.288  77.889  -6.304  1.00  0.00    -0.502 OA
ATOM     27  H   UNL     1      15.991  77.166  -6.199  1.00  0.00     0.293 HD
ENDBRANCH   9  26
TORSDOF 6
ENDMDL
MODEL 2
REMARK VINA RESULT:    -8.393      2.020      2.491
REMARK INTER + INTRA:         -10.423
REMARK INTER:                 -10.252
REMARK INTRA:                  -0.170
REMARK UNBOUND:                -0.313
REMARK SMILES O=c1c(O)c(-c2ccc(O)c(O)c2)oc2cc(O)cc(O)c12
REMARK SMILES IDX 17 1 16 2 15 3 22 4 20 5 19 6 2 7 1 8 3 9 5 10 14 11 18 12
REMARK SMILES IDX 21 14 6 16 7 17 13 18 8 19 11 20 9 21 12 22 10 24 4 26
REMARK H PARENT 18 13 21 15 12 23 10 25 4 27
REMARK Flexibility Score: inf
ROOT
ATOM      1  C   UNL     1      14.155  78.318   0.433  1.00  0.00     0.123 A 
ATOM      2  C   UNL     1      15.043  78.582  -0.611  1.00  0.00     0.094 A 
ATOM      3  C   UNL     1      14.584  79.146  -1.804  1.00  0.00     0.146 A 
ATOM      4  C   UNL     1      13.212  79.453  -1.967  1.00  0.00     0.111 A 
ATOM      5  C   UNL     1      12.315  79.185  -0.905  1.00  0.00     0.134 A 
ATOM      6  C   UNL     1      12.796  78.619   0.286  1.00  0.00     0.093 A 
ATOM      7  C   UNL     1      12.806  80.011  -3.196  1.00  0.00     0.238 A 
ATOM      8  O   UNL     1      11.597  80.297  -3.410  1.00  0.00    -0.285 OA
ATOM      9  C   UNL     1      13.758  80.243  -4.201  1.00  0.00     0.208 A 
ATOM     10  C   UNL     1      15.107  79.929  -3.946  1.00  0.00     0.180 A 
ATOM     11  O   UNL     1      15.452  79.391  -2.780  1.00  0.00    -0.452 OA
ENDROOT
BRANCH   1  12
ATOM     12  O   UNL     1      14.633  77.756   1.615  1.00  0.00    -0.508 OA
ATOM     13  H   UNL     1      15.410  77.105   1.617  1.00  0.00     0.293 HD
ENDBRANCH   1  12
BRANCH   5  14
ATOM     14  O   UNL     1      10.955  79.474  -1.023  1.00  0.00    -0.507 OA
ATOM     15  H   UNL     1      10.417  79.831  -0.242  1.00  0.00     0.293 HD
ENDBRANCH   5  14
BRANCH  10  16
ATOM     16  C   UNL     1      16.172  80.163  -4.948  1.00  0.00     0.025 A 
ATOM     17  C   UNL     1      16.199  79.462  -6.164  1.00  0.00     0.016 A 
ATOM     18  C   UNL     1      17.144  81.146  -4.708  1.00  0.00     0.062 A 
ATOM     19  C   UNL     1      17.200  79.716  -7.103  1.00  0.00     0.051 A 
ATOM     20  C   UNL     1      18.152  81.408  -5.644  1.00  0.00     0.158 A 
ATOM     21  C   UNL     1      18.183  80.680  -6.857  1.00  0.00     0.157 A 
BRANCH  20  22
ATOM     22  O   UNL     1      19.093  82.391  -5.331  1.00  0.00    -0.504 OA
ATOM     23  H   UNL     1      20.053  82.373  -5.643  1.00  0.00     0.293 HD
ENDBRANCH  20  22
BRANCH  21  24
ATOM     24  O   UNL     1      19.158  80.883  -7.835  1.00  0.00    -0.504 OA
ATOM     25  H   UNL     1      20.117  80.580  -7.749  1.00  0.00     0.293 HD
ENDBRANCH  21  24
ENDBRANCH  10  16
BRANCH   9  26
ATOM     26  O   UNL     1      13.375  80.748  -5.446  1.00  0.00    -0.502 OA
ATOM     27  H   UNL     1      14.030  81.201  -6.073  1.00  0.00     0.293 HD
ENDBRANCH   9  26
TORSDOF 6
ENDMDL
MODEL 3
REMARK VINA RESULT:    -8.335      3.151      6.092
REMARK INTER + INTRA:         -10.353
REMARK INTER:                 -10.060
REMARK INTRA:                  -0.293
REMARK UNBOUND:                -0.313
REMARK SMILES O=c1c(O)c(-c2ccc(O)c(O)c2)oc2cc(O)cc(O)c12
REMARK SMILES IDX 17 1 16 2 15 3 22 4 20 5 19 6 2 7 1 8 3 9 5 10 14 11 18 12
REMARK SMILES IDX 21 14 6 16 7 17 13 18 8 19 11 20 9 21 12 22 10 24 4 26
REMARK H PARENT 18 13 21 15 12 23 10 25 4 27
REMARK Flexibility Score: inf
ROOT
ATOM      1  C   UNL     1       7.966  75.311  -1.201  1.00  0.00     0.123 A 
ATOM      2  C   UNL     1       9.181  75.771  -1.710  1.00  0.00     0.094 A 
ATOM      3  C   UNL     1       9.581  77.093  -1.498  1.00  0.00     0.146 A 
ATOM      4  C   UNL     1       8.757  77.980  -0.765  1.00  0.00     0.111 A 
ATOM      5  C   UNL     1       7.525  77.508  -0.249  1.00  0.00     0.134 A 
ATOM      6  C   UNL     1       7.142  76.177  -0.472  1.00  0.00     0.093 A 
ATOM      7  C   UNL     1       9.208  79.304  -0.593  1.00  0.00     0.238 A 
ATOM      8  O   UNL     1       8.516  80.147   0.040  1.00  0.00    -0.285 OA
ATOM      9  C   UNL     1      10.441  79.693  -1.139  1.00  0.00     0.208 A 
ATOM     10  C   UNL     1      11.209  78.740  -1.834  1.00  0.00     0.180 A 
ATOM     11  O   UNL     1      10.744  77.503  -1.991  1.00  0.00    -0.452 OA
ENDROOT
BRANCH   1  12
ATOM     12  O   UNL     1       7.585  73.989  -1.422  1.00  0.00    -0.508 OA
ATOM     13  H   UNL     1       7.239  73.681  -2.324  1.00  0.00     0.293 HD
ENDBRANCH   1  12
BRANCH   5  14
ATOM     14  O   UNL     1       6.683  78.348   0.480  1.00  0.00    -0.507 OA
ATOM     15  H   UNL     1       7.013  79.223   0.872  1.00  0.00     0.293 HD
ENDBRANCH   5  14
BRANCH  10  16
ATOM     16  C   UNL     1      12.527  79.069  -2.423  1.00  0.00     0.025 A 
ATOM     17  C   UNL     1      12.633  79.746  -3.649  1.00  0.00     0.016 A 
ATOM     18  C   UNL     1      13.698  78.752  -1.717  1.00  0.00     0.062 A 
ATOM     19  C   UNL     1      13.886  80.066  -4.172  1.00  0.00     0.051 A 
ATOM     20  C   UNL     1      14.960  79.070  -2.235  1.00  0.00     0.158 A 
ATOM     21  C   UNL     1      15.056  79.732  -3.482  1.00  0.00     0.157 A 
BRANCH  20  22
ATOM     22  O   UNL     1      16.082  78.712  -1.483  1.00  0.00    -0.504 OA
ATOM     23  H   UNL     1      16.050  78.103  -0.678  1.00  0.00     0.293 HD
ENDBRANCH  20  22
BRANCH  21  24
ATOM     24  O   UNL     1      16.278  80.078  -4.061  1.00  0.00    -0.504 OA
ATOM     25  H   UNL     1      16.521  79.887  -5.023  1.00  0.00     0.293 HD
ENDBRANCH  21  24
ENDBRANCH  10  16
BRANCH   9  26
ATOM     26  O   UNL     1      10.888  81.012  -1.025  1.00  0.00    -0.502 OA
ATOM     27  H   UNL     1      10.380  81.794  -1.422  1.00  0.00     0.293 HD
ENDBRANCH   9  26
TORSDOF 6
ENDMDL
MODEL 4
REMARK VINA RESULT:    -8.243      7.117      9.672
REMARK INTER + INTRA:         -10.243
REMARK INTER:                 -10.074
REMARK INTRA:                  -0.168
REMARK UNBOUND:                -0.313
REMARK SMILES O=c1c(O)c(-c2ccc(O)c(O)c2)oc2cc(O)cc(O)c12
REMARK SMILES IDX 17 1 16 2 15 3 22 4 20 5 19 6 2 7 1 8 3 9 5 10 14 11 18 12
REMARK SMILES IDX 21 14 6 16 7 17 13 18 8 19 11 20 9 21 12 22 10 24 4 26
REMARK H PARENT 18 13 21 15 12 23 10 25 4 27
REMARK Flexibility Score: inf
ROOT
ATOM      1  C   UNL     1       9.055  79.971  -1.259  1.00  0.00     0.123 A 
ATOM      2  C   UNL     1       9.344  78.742  -1.852  1.00  0.00     0.094 A 
ATOM      3  C   UNL     1       8.624  77.598  -1.497  1.00  0.00     0.146 A 
ATOM      4  C   UNL     1       7.594  77.675  -0.529  1.00  0.00     0.111 A 
ATOM      5  C   UNL     1       7.304  78.924   0.070  1.00  0.00     0.134 A 
ATOM      6  C   UNL     1       8.038  80.061  -0.301  1.00  0.00     0.093 A 
ATOM      7  C   UNL     1       6.910  76.486  -0.204  1.00  0.00     0.238 A 
ATOM      8  O   UNL     1       5.990  76.484   0.658  1.00  0.00    -0.285 OA
ATOM      9  C   UNL     1       7.261  75.286  -0.842  1.00  0.00     0.208 A 
ATOM     10  C   UNL     1       8.283  75.304  -1.811  1.00  0.00     0.180 A 
ATOM     11  O   UNL     1       8.917  76.442  -2.082  1.00  0.00    -0.452 OA
ENDROOT
BRANCH   1  12
ATOM     12  O   UNL     1       9.784  81.100  -1.627  1.00  0.00    -0.508 OA
ATOM     13  H   UNL     1      10.468  81.069  -2.375  1.00  0.00     0.293 HD
ENDBRANCH   1  12
BRANCH   5  14
ATOM     14  O   UNL     1       6.296  79.044   1.027  1.00  0.00    -0.507 OA
ATOM     15  H   UNL     1       6.482  79.411   1.953  1.00  0.00     0.293 HD
ENDBRANCH   5  14
BRANCH  10  16
ATOM     16  C   UNL     1       8.698  74.084  -2.540  1.00  0.00     0.025 A 
ATOM     17  C   UNL     1       8.533  73.971  -3.930  1.00  0.00     0.016 A 
ATOM     18  C   UNL     1       9.324  73.041  -1.841  1.00  0.00     0.062 A 
ATOM     19  C   UNL     1       8.953  72.820  -4.598  1.00  0.00     0.051 A 
ATOM     20  C   UNL     1       9.749  71.882  -2.504  1.00  0.00     0.158 A 
ATOM     21  C   UNL     1       9.557  71.768  -3.902  1.00  0.00     0.157 A 
BRANCH  20  22
ATOM     22  O   UNL     1      10.352  70.880  -1.742  1.00  0.00    -0.504 OA
ATOM     23  H   UNL     1      11.349  70.807  -1.592  1.00  0.00     0.293 HD
ENDBRANCH  20  22
BRANCH  21  24
ATOM     24  O   UNL     1       9.952  70.644  -4.629  1.00  0.00    -0.504 OA
ATOM     25  H   UNL     1      10.735  70.057  -4.380  1.00  0.00     0.293 HD
ENDBRANCH  21  24
ENDBRANCH  10  16
BRANCH   9  26
ATOM     26  O   UNL     1       6.633  74.085  -0.502  1.00  0.00    -0.502 OA
ATOM     27  H   UNL     1       7.148  73.224  -0.363  1.00  0.00     0.293 HD
ENDBRANCH   9  26
TORSDOF 6
ENDMDL
MODEL 5
REMARK VINA RESULT:    -8.051      3.079      5.813
REMARK INTER + INTRA:         -10.011
REMARK INTER:                  -9.705
REMARK INTRA:                  -0.306
REMARK UNBOUND:                -0.313
REMARK SMILES O=c1c(O)c(-c2ccc(O)c(O)c2)oc2cc(O)cc(O)c12
REMARK SMILES IDX 17 1 16 2 15 3 22 4 20 5 19 6 2 7 1 8 3 9 5 10 14 11 18 12
REMARK SMILES IDX 21 14 6 16 7 17 13 18 8 19 11 20 9 21 12 22 10 24 4 26
REMARK H PARENT 18 13 21 15 12 23 10 25 4 27
REMARK Flexibility Score: inf
ROOT
ATOM      1  C   UNL     1       8.152  75.207  -1.274  1.00  0.00     0.123 A 
ATOM      2  C   UNL     1       9.363  75.714  -1.746  1.00  0.00     0.094 A 
ATOM      3  C   UNL     1       9.715  77.044  -1.506  1.00  0.00     0.146 A 
ATOM      4  C   UNL     1       8.845  77.893  -0.781  1.00  0.00     0.111 A 
ATOM      5  C   UNL     1       7.618  77.374  -0.302  1.00  0.00     0.134 A 
ATOM      6  C   UNL     1       7.283  76.035  -0.553  1.00  0.00     0.093 A 
ATOM      7  C   UNL     1       9.250  79.228  -0.578  1.00  0.00     0.238 A 
ATOM      8  O   UNL     1       8.516  80.039   0.050  1.00  0.00    -0.285 OA
ATOM      9  C   UNL     1      10.482  79.665  -1.088  1.00  0.00     0.208 A 
ATOM     10  C   UNL     1      11.297  78.747  -1.778  1.00  0.00     0.180 A 
ATOM     11  O   UNL     1      10.877  77.499  -1.963  1.00  0.00    -0.452 OA
ENDROOT
BRANCH   1  12
ATOM     12  O   UNL     1       7.820  73.877  -1.523  1.00  0.00    -0.508 OA
ATOM     13  H   UNL     1       6.864  73.595  -1.712  1.00  0.00     0.293 HD
ENDBRANCH   1  12
BRANCH   5  14
ATOM     14  O   UNL     1       6.732  78.176   0.418  1.00  0.00    -0.507 OA
ATOM     15  H   UNL     1       5.862  77.810   0.788  1.00  0.00     0.293 HD
ENDBRANCH   5  14
BRANCH  10  16
ATOM     16  C   UNL     1      12.618  79.127  -2.329  1.00  0.00     0.025 A 
ATOM     17  C   UNL     1      13.809  78.829  -1.648  1.00  0.00     0.016 A 
ATOM     18  C   UNL     1      12.690  79.745  -3.587  1.00  0.00     0.062 A 
ATOM     19  C   UNL     1      15.043  79.176  -2.199  1.00  0.00     0.051 A 
ATOM     20  C   UNL     1      13.924  80.097  -4.148  1.00  0.00     0.158 A 
ATOM     21  C   UNL     1      15.117  79.812  -3.443  1.00  0.00     0.157 A 
BRANCH  20  22
ATOM     22  O   UNL     1      13.918  80.721  -5.398  1.00  0.00    -0.504 OA
ATOM     23  H   UNL     1      14.752  80.947  -5.920  1.00  0.00     0.293 HD
ENDBRANCH  20  22
BRANCH  21  24
ATOM     24  O   UNL     1      16.382  80.135  -3.937  1.00  0.00    -0.504 OA
ATOM     25  H   UNL     1      16.918  80.937  -3.637  1.00  0.00     0.293 HD
ENDBRANCH  21  24
ENDBRANCH  10  16
BRANCH   9  26
ATOM     26  O   UNL     1      10.884  80.996  -0.945  1.00  0.00    -0.502 OA
ATOM     27  H   UNL     1      10.695  81.532  -0.106  1.00  0.00     0.293 HD
ENDBRANCH   9  26
TORSDOF 6
ENDMDL
MODEL 6
REMARK VINA RESULT:    -7.977      2.236      4.266
REMARK INTER + INTRA:          -9.922
REMARK INTER:                  -9.837
REMARK INTRA:                  -0.084
REMARK UNBOUND:                -0.313
REMARK SMILES O=c1c(O)c(-c2ccc(O)c(O)c2)oc2cc(O)cc(O)c12
REMARK SMILES IDX 17 1 16 2 15 3 22 4 20 5 19 6 2 7 1 8 3 9 5 10 14 11 18 12
REMARK SMILES IDX 21 14 6 16 7 17 13 18 8 19 11 20 9 21 12 22 10 24 4 26
REMARK H PARENT 18 13 21 15 12 23 10 25 4 27
REMARK Flexibility Score: inf
ROOT
ATOM      1  C   UNL     1       8.386  80.243  -1.379  1.00  0.00     0.123 A 
ATOM      2  C   UNL     1       9.367  80.058  -2.355  1.00  0.00     0.094 A 
ATOM      3  C   UNL     1      10.721  80.120  -2.016  1.00  0.00     0.146 A 
ATOM      4  C   UNL     1      11.112  80.373  -0.679  1.00  0.00     0.111 A 
ATOM      5  C   UNL     1      10.113  80.559   0.307  1.00  0.00     0.134 A 
ATOM      6  C   UNL     1       8.759  80.492  -0.053  1.00  0.00     0.093 A 
ATOM      7  C   UNL     1      12.492  80.434  -0.400  1.00  0.00     0.238 A 
ATOM      8  O   UNL     1      12.907  80.667   0.768  1.00  0.00    -0.285 OA
ATOM      9  C   UNL     1      13.419  80.241  -1.435  1.00  0.00     0.208 A 
ATOM     10  C   UNL     1      12.944  79.971  -2.733  1.00  0.00     0.180 A 
ATOM     11  O   UNL     1      11.634  79.935  -2.963  1.00  0.00    -0.452 OA
ENDROOT
BRANCH   1  12
ATOM     12  O   UNL     1       7.041  80.177  -1.738  1.00  0.00    -0.508 OA
ATOM     13  H   UNL     1       6.685  80.659  -2.555  1.00  0.00     0.293 HD
ENDBRANCH   1  12
BRANCH   5  14
ATOM     14  O   UNL     1      10.455  80.809   1.636  1.00  0.00    -0.507 OA
ATOM     15  H   UNL     1      11.392  81.088   1.902  1.00  0.00     0.293 HD
ENDBRANCH   5  14
BRANCH  10  16
ATOM     16  C   UNL     1      13.858  79.738  -3.874  1.00  0.00     0.025 A 
ATOM     17  C   UNL     1      13.804  78.553  -4.625  1.00  0.00     0.016 A 
ATOM     18  C   UNL     1      14.760  80.745  -4.253  1.00  0.00     0.062 A 
ATOM     19  C   UNL     1      14.661  78.367  -5.711  1.00  0.00     0.051 A 
ATOM     20  C   UNL     1      15.623  80.566  -5.342  1.00  0.00     0.158 A 
ATOM     21  C   UNL     1      15.576  79.359  -6.079  1.00  0.00     0.157 A 
BRANCH  20  22
ATOM     22  O   UNL     1      16.503  81.606  -5.653  1.00  0.00    -0.504 OA
ATOM     23  H   UNL     1      17.424  81.704  -5.252  1.00  0.00     0.293 HD
ENDBRANCH  20  22
BRANCH  21  24
ATOM     24  O   UNL     1      16.407  79.109  -7.172  1.00  0.00    -0.504 OA
ATOM     25  H   UNL     1      16.809  78.206  -7.382  1.00  0.00     0.293 HD
ENDBRANCH  21  24
ENDBRANCH  10  16
BRANCH   9  26
ATOM     26  O   UNL     1      14.792  80.346  -1.195  1.00  0.00    -0.502 OA
ATOM     27  H   UNL     1      15.451  79.638  -1.496  1.00  0.00     0.293 HD
ENDBRANCH   9  26
TORSDOF 6
ENDMDL
MODEL 7
REMARK VINA RESULT:    -7.939      1.393      6.799
REMARK INTER + INTRA:          -9.876
REMARK INTER:                  -9.594
REMARK INTRA:                  -0.283
REMARK UNBOUND:                -0.313
REMARK SMILES O=c1c(O)c(-c2ccc(O)c(O)c2)oc2cc(O)cc(O)c12
REMARK SMILES IDX 17 1 16 2 15 3 22 4 20 5 19 6 2 7 1 8 3 9 5 10 14 11 18 12
REMARK SMILES IDX 21 14 6 16 7 17 13 18 8 19 11 20 9 21 12 22 10 24 4 26
REMARK H PARENT 18 13 21 15 12 23 10 25 4 27
REMARK Flexibility Score: inf
ROOT
ATOM      1  C   UNL     1      16.497  81.137  -6.483  1.00  0.00     0.123 A 
ATOM      2  C   UNL     1      15.551  81.369  -5.484  1.00  0.00     0.094 A 
ATOM      3  C   UNL     1      14.783  80.316  -4.980  1.00  0.00     0.146 A 
ATOM      4  C   UNL     1      14.956  79.003  -5.479  1.00  0.00     0.111 A 
ATOM      5  C   UNL     1      15.918  78.772  -6.492  1.00  0.00     0.134 A 
ATOM      6  C   UNL     1      16.680  79.842  -6.984  1.00  0.00     0.093 A 
ATOM      7  C   UNL     1      14.145  77.985  -4.938  1.00  0.00     0.238 A 
ATOM      8  O   UNL     1      14.241  76.795  -5.347  1.00  0.00    -0.285 OA
ATOM      9  C   UNL     1      13.212  78.297  -3.938  1.00  0.00     0.208 A 
ATOM     10  C   UNL     1      13.122  79.627  -3.482  1.00  0.00     0.180 A 
ATOM     11  O   UNL     1      13.893  80.565  -4.026  1.00  0.00    -0.452 OA
ENDROOT
BRANCH   1  12
ATOM     12  O   UNL     1      17.254  82.199  -6.973  1.00  0.00    -0.508 OA
ATOM     13  H   UNL     1      16.912  83.153  -6.942  1.00  0.00     0.293 HD
ENDBRANCH   1  12
BRANCH   5  14
ATOM     14  O   UNL     1      16.121  77.493  -7.010  1.00  0.00    -0.507 OA
ATOM     15  H   UNL     1      16.602  77.345  -7.890  1.00  0.00     0.293 HD
ENDBRANCH   5  14
BRANCH  10  16
ATOM     16  C   UNL     1      12.177  80.032  -2.417  1.00  0.00     0.025 A 
ATOM     17  C   UNL     1      10.808  80.204  -2.681  1.00  0.00     0.016 A 
ATOM     18  C   UNL     1      12.642  80.190  -1.103  1.00  0.00     0.062 A 
ATOM     19  C   UNL     1       9.932  80.563  -1.655  1.00  0.00     0.051 A 
ATOM     20  C   UNL     1      11.770  80.551  -0.068  1.00  0.00     0.158 A 
ATOM     21  C   UNL     1      10.397  80.744  -0.348  1.00  0.00     0.157 A 
BRANCH  20  22
ATOM     22  O   UNL     1      12.307  80.704   1.213  1.00  0.00    -0.504 OA
ATOM     23  H   UNL     1      12.241  81.554   1.754  1.00  0.00     0.293 HD
ENDBRANCH  20  22
BRANCH  21  24
ATOM     24  O   UNL     1       9.470  81.106   0.630  1.00  0.00    -0.504 OA
ATOM     25  H   UNL     1       9.720  81.446   1.548  1.00  0.00     0.293 HD
ENDBRANCH  21  24
ENDBRANCH  10  16
BRANCH   9  26
ATOM     26  O   UNL     1      12.362  77.316  -3.421  1.00  0.00    -0.502 OA
ATOM     27  H   UNL     1      11.550  77.543  -2.858  1.00  0.00     0.293 HD
ENDBRANCH   9  26
TORSDOF 6
ENDMDL
MODEL 8
REMARK VINA RESULT:    -7.839      5.214      9.019
REMARK INTER + INTRA:          -9.756
REMARK INTER:                  -9.424
REMARK INTRA:                  -0.332
REMARK UNBOUND:                -0.313
REMARK SMILES O=c1c(O)c(-c2ccc(O)c(O)c2)oc2cc(O)cc(O)c12
REMARK SMILES IDX 17 1 16 2 15 3 22 4 20 5 19 6 2 7 1 8 3 9 5 10 14 11 18 12
REMARK SMILES IDX 21 14 6 16 7 17 13 18 8 19 11 20 9 21 12 22 10 24 4 26
REMARK H PARENT 18 13 21 15 12 23 10 25 4 27
REMARK Flexibility Score: inf
ROOT
ATOM      1  C   UNL     1      11.869  79.792  -1.653  1.00  0.00     0.123 A 
ATOM      2  C   UNL     1      11.759  78.460  -2.055  1.00  0.00     0.094 A 
ATOM      3  C   UNL     1      10.591  77.738  -1.796  1.00  0.00     0.146 A 
ATOM      4  C   UNL     1       9.508  78.349  -1.121  1.00  0.00     0.111 A 
ATOM      5  C   UNL     1       9.624  79.701  -0.715  1.00  0.00     0.134 A 
ATOM      6  C   UNL     1      10.805  80.410  -0.986  1.00  0.00     0.093 A 
ATOM      7  C   UNL     1       8.361  77.568  -0.879  1.00  0.00     0.238 A 
ATOM      8  O   UNL     1       7.365  78.049  -0.272  1.00  0.00    -0.285 OA
ATOM      9  C   UNL     1       8.326  76.233  -1.310  1.00  0.00     0.208 A 
ATOM     10  C   UNL     1       9.439  75.711  -1.996  1.00  0.00     0.180 A 
ATOM     11  O   UNL     1      10.511  76.473  -2.194  1.00  0.00    -0.452 OA
ENDROOT
BRANCH   1  12
ATOM     12  O   UNL     1      13.041  80.495  -1.921  1.00  0.00    -0.508 OA
ATOM     13  H   UNL     1      13.037  81.498  -2.069  1.00  0.00     0.293 HD
ENDBRANCH   1  12
BRANCH   5  14
ATOM     14  O   UNL     1       8.580  80.343  -0.048  1.00  0.00    -0.507 OA
ATOM     15  H   UNL     1       7.853  80.840  -0.550  1.00  0.00     0.293 HD
ENDBRANCH   5  14
BRANCH  10  16
ATOM     16  C   UNL     1       9.472  74.318  -2.499  1.00  0.00     0.025 A 
ATOM     17  C   UNL     1       8.995  73.991  -3.779  1.00  0.00     0.016 A 
ATOM     18  C   UNL     1      10.045  73.311  -1.708  1.00  0.00     0.062 A 
ATOM     19  C   UNL     1       9.058  72.675  -4.240  1.00  0.00     0.051 A 
ATOM     20  C   UNL     1      10.112  71.987  -2.163  1.00  0.00     0.158 A 
ATOM     21  C   UNL     1       9.608  71.664  -3.445  1.00  0.00     0.157 A 
BRANCH  20  22
ATOM     22  O   UNL     1      10.684  71.036  -1.315  1.00  0.00    -0.504 OA
ATOM     23  H   UNL     1      11.561  71.166  -0.831  1.00  0.00     0.293 HD
ENDBRANCH  20  22
BRANCH  21  24
ATOM     24  O   UNL     1       9.638  70.369  -3.963  1.00  0.00    -0.504 OA
ATOM     25  H   UNL     1       9.713  70.156  -4.948  1.00  0.00     0.293 HD
ENDBRANCH  21  24
ENDBRANCH  10  16
BRANCH   9  26
ATOM     26  O   UNL     1       7.221  75.422  -1.039  1.00  0.00    -0.502 OA
ATOM     27  H   UNL     1       6.777  74.853  -1.751  1.00  0.00     0.293 HD
ENDBRANCH   9  26
TORSDOF 6
ENDMDL
MODEL 9
REMARK VINA RESULT:    -7.822      3.572      6.702
REMARK INTER + INTRA:          -9.736
REMARK INTER:                  -9.709
REMARK INTRA:                  -0.026
REMARK UNBOUND:                -0.313
REMARK SMILES O=c1c(O)c(-c2ccc(O)c(O)c2)oc2cc(O)cc(O)c12
REMARK SMILES IDX 17 1 16 2 15 3 22 4 20 5 19 6 2 7 1 8 3 9 5 10 14 11 18 12
REMARK SMILES IDX 21 14 6 16 7 17 13 18 8 19 11 20 9 21 12 22 10 24 4 26
REMARK H PARENT 18 13 21 15 12 23 10 25 4 27
REMARK Flexibility Score: inf
ROOT
ATOM      1  C   UNL     1       7.093  75.751   0.006  1.00  0.00     0.123 A 
ATOM      2  C   UNL     1       8.365  76.031  -0.493  1.00  0.00     0.094 A 
ATOM      3  C   UNL     1       8.784  77.354  -0.659  1.00  0.00     0.146 A 
ATOM      4  C   UNL     1       7.921  78.424  -0.323  1.00  0.00     0.111 A 
ATOM      5  C   UNL     1       6.631  78.135   0.184  1.00  0.00     0.134 A 
ATOM      6  C   UNL     1       6.229  76.800   0.344  1.00  0.00     0.093 A 
ATOM      7  C   UNL     1       8.395  79.736  -0.521  1.00  0.00     0.238 A 
ATOM      8  O   UNL     1       7.671  80.734  -0.253  1.00  0.00    -0.285 OA
ATOM      9  C   UNL     1       9.686  79.938  -1.032  1.00  0.00     0.208 A 
ATOM     10  C   UNL     1      10.488  78.817  -1.317  1.00  0.00     0.180 A 
ATOM     11  O   UNL     1      10.003  77.592  -1.132  1.00  0.00    -0.452 OA
ENDROOT
BRANCH   1  12
ATOM     12  O   UNL     1       6.694  74.426   0.165  1.00  0.00    -0.508 OA
ATOM     13  H   UNL     1       6.746  73.959   1.063  1.00  0.00     0.293 HD
ENDBRANCH   1  12
BRANCH   5  14
ATOM     14  O   UNL     1       5.749  79.159   0.529  1.00  0.00    -0.507 OA
ATOM     15  H   UNL     1       5.525  79.367   1.495  1.00  0.00     0.293 HD
ENDBRANCH   5  14
BRANCH  10  16
ATOM     16  C   UNL     1      11.867  78.947  -1.840  1.00  0.00     0.025 A 
ATOM     17  C   UNL     1      12.808  79.787  -1.222  1.00  0.00     0.016 A 
ATOM     18  C   UNL     1      12.265  78.174  -2.941  1.00  0.00     0.062 A 
ATOM     19  C   UNL     1      14.109  79.875  -1.720  1.00  0.00     0.051 A 
ATOM     20  C   UNL     1      13.569  78.256  -3.447  1.00  0.00     0.158 A 
ATOM     21  C   UNL     1      14.503  79.122  -2.831  1.00  0.00     0.157 A 
BRANCH  20  22
ATOM     22  O   UNL     1      13.889  77.466  -4.554  1.00  0.00    -0.504 OA
ATOM     23  H   UNL     1      13.274  77.323  -5.342  1.00  0.00     0.293 HD
ENDBRANCH  20  22
BRANCH  21  24
ATOM     24  O   UNL     1      15.817  79.259  -3.281  1.00  0.00    -0.504 OA
ATOM     25  H   UNL     1      16.145  80.035  -3.837  1.00  0.00     0.293 HD
ENDBRANCH  21  24
ENDBRANCH  10  16
BRANCH   9  26
ATOM     26  O   UNL     1      10.162  81.227  -1.285  1.00  0.00    -0.502 OA
ATOM     27  H   UNL     1       9.737  81.837  -1.974  1.00  0.00     0.293 HD
ENDBRANCH   9  26
TORSDOF 6
ENDMDL
MODEL 10
REMARK VINA RESULT:    -7.778      1.325      6.653
REMARK INTER + INTRA:          -9.682
REMARK INTER:                  -9.653
REMARK INTRA:                  -0.029
REMARK UNBOUND:                -0.313
REMARK SMILES O=c1c(O)c(-c2ccc(O)c(O)c2)oc2cc(O)cc(O)c12
REMARK SMILES IDX 17 1 16 2 15 3 22 4 20 5 19 6 2 7 1 8 3 9 5 10 14 11 18 12
REMARK SMILES IDX 21 14 6 16 7 17 13 18 8 19 11 20 9 21 12 22 10 24 4 26
REMARK H PARENT 18 13 21 15 12 23 10 25 4 27
REMARK Flexibility Score: inf
ROOT
ATOM      1  C   UNL     1      18.209  81.304  -6.288  1.00  0.00     0.123 A 
ATOM      2  C   UNL     1      17.212  81.391  -5.316  1.00  0.00     0.094 A 
ATOM      3  C   UNL     1      16.262  80.374  -5.185  1.00  0.00     0.146 A 
ATOM      4  C   UNL     1      16.301  79.246  -6.038  1.00  0.00     0.111 A 
ATOM      5  C   UNL     1      17.315  79.162  -7.023  1.00  0.00     0.134 A 
ATOM      6  C   UNL     1      18.260  80.193  -7.138  1.00  0.00     0.093 A 
ATOM      7  C   UNL     1      15.311  78.258  -5.865  1.00  0.00     0.238 A 
ATOM      8  O   UNL     1      15.282  77.234  -6.600  1.00  0.00    -0.285 OA
ATOM      9  C   UNL     1      14.337  78.419  -4.867  1.00  0.00     0.208 A 
ATOM     10  C   UNL     1      14.387  79.561  -4.046  1.00  0.00     0.180 A 
ATOM     11  O   UNL     1      15.327  80.481  -4.247  1.00  0.00    -0.452 OA
ENDROOT
BRANCH   1  12
ATOM     12  O   UNL     1      19.147  82.328  -6.403  1.00  0.00    -0.508 OA
ATOM     13  H   UNL     1      19.416  82.703  -7.305  1.00  0.00     0.293 HD
ENDBRANCH   1  12
BRANCH   5  14
ATOM     14  O   UNL     1      17.391  78.067  -7.884  1.00  0.00    -0.507 OA
ATOM     15  H   UNL     1      17.093  77.142  -7.596  1.00  0.00     0.293 HD
ENDBRANCH   5  14
BRANCH  10  16
ATOM     16  C   UNL     1      13.407  79.793  -2.960  1.00  0.00     0.025 A 
ATOM     17  C   UNL     1      12.024  79.756  -3.201  1.00  0.00     0.016 A 
ATOM     18  C   UNL     1      13.864  79.995  -1.648  1.00  0.00     0.062 A 
ATOM     19  C   UNL     1      11.120  79.954  -2.157  1.00  0.00     0.051 A 
ATOM     20  C   UNL     1      12.964  80.195  -0.594  1.00  0.00     0.158 A 
ATOM     21  C   UNL     1      11.572  80.178  -0.852  1.00  0.00     0.157 A 
BRANCH  20  22
ATOM     22  O   UNL     1      13.491  80.403   0.683  1.00  0.00    -0.504 OA
ATOM     23  H   UNL     1      14.340  79.972   1.019  1.00  0.00     0.293 HD
ENDBRANCH  20  22
BRANCH  21  24
ATOM     24  O   UNL     1      10.617  80.372   0.146  1.00  0.00    -0.504 OA
ATOM     25  H   UNL     1       9.769  80.908   0.021  1.00  0.00     0.293 HD
ENDBRANCH  21  24
ENDBRANCH  10  16
BRANCH   9  26
ATOM     26  O   UNL     1      13.315  77.479  -4.707  1.00  0.00    -0.502 OA
ATOM     27  H   UNL     1      13.081  76.805  -5.426  1.00  0.00     0.293 HD
ENDBRANCH   9  26
TORSDOF 6
ENDMDL
MODEL 11
REMARK VINA RESULT:    -7.611      2.080      3.007
REMARK INTER + INTRA:          -9.481
REMARK INTER:                  -9.457
REMARK INTRA:                  -0.024
REMARK UNBOUND:                -0.313
REMARK SMILES O=c1c(O)c(-c2ccc(O)c(O)c2)oc2cc(O)cc(O)c12
REMARK SMILES IDX 17 1 16 2 15 3 22 4 20 5 19 6 2 7 1 8 3 9 5 10 14 11 18 12
REMARK SMILES IDX 21 14 6 16 7 17 13 18 8 19 11 20 9 21 12 22 10 24 4 26
REMARK H PARENT 18 13 21 15 12 23 10 25 4 27
REMARK Flexibility Score: inf
ROOT
ATOM      1  C   UNL     1       8.916  80.071  -0.736  1.00  0.00     0.123 A 
ATOM      2  C   UNL     1      10.067  80.538  -1.372  1.00  0.00     0.094 A 
ATOM      3  C   UNL     1      10.860  79.669  -2.125  1.00  0.00     0.146 A 
ATOM      4  C   UNL     1      10.506  78.304  -2.248  1.00  0.00     0.111 A 
ATOM      5  C   UNL     1       9.337  77.835  -1.601  1.00  0.00     0.134 A 
ATOM      6  C   UNL     1       8.553  78.724  -0.851  1.00  0.00     0.093 A 
ATOM      7  C   UNL     1      11.350  77.473  -3.012  1.00  0.00     0.238 A 
ATOM      8  O   UNL     1      11.097  76.246  -3.151  1.00  0.00    -0.285 OA
ATOM      9  C   UNL     1      12.493  78.016  -3.619  1.00  0.00     0.208 A 
ATOM     10  C   UNL     1      12.759  79.390  -3.465  1.00  0.00     0.180 A 
ATOM     11  O   UNL     1      11.948  80.141  -2.725  1.00  0.00    -0.452 OA
ENDROOT
BRANCH   1  12
ATOM     12  O   UNL     1       8.138  80.954   0.010  1.00  0.00    -0.508 OA
ATOM     13  H   UNL     1       8.554  81.606   0.664  1.00  0.00     0.293 HD
ENDBRANCH   1  12
BRANCH   5  14
ATOM     14  O   UNL     1       8.950  76.498  -1.697  1.00  0.00    -0.507 OA
ATOM     15  H   UNL     1       8.224  76.110  -1.107  1.00  0.00     0.293 HD
ENDBRANCH   5  14
BRANCH  10  16
ATOM     16  C   UNL     1      13.933  80.039  -4.089  1.00  0.00     0.025 A 
ATOM     17  C   UNL     1      15.231  79.535  -3.908  1.00  0.00     0.016 A 
ATOM     18  C   UNL     1      13.745  81.148  -4.929  1.00  0.00     0.062 A 
ATOM     19  C   UNL     1      16.320  80.151  -4.527  1.00  0.00     0.051 A 
ATOM     20  C   UNL     1      14.833  81.772  -5.554  1.00  0.00     0.158 A 
ATOM     21  C   UNL     1      16.139  81.269  -5.346  1.00  0.00     0.157 A 
BRANCH  20  22
ATOM     22  O   UNL     1      14.570  82.879  -6.365  1.00  0.00    -0.504 OA
ATOM     23  H   UNL     1      14.766  82.911  -7.355  1.00  0.00     0.293 HD
ENDBRANCH  20  22
BRANCH  21  24
ATOM     24  O   UNL     1      17.270  81.840  -5.932  1.00  0.00    -0.504 OA
ATOM     25  H   UNL     1      18.200  81.780  -5.543  1.00  0.00     0.293 HD
ENDBRANCH  21  24
ENDBRANCH  10  16
BRANCH   9  26
ATOM     26  O   UNL     1      13.373  77.204  -4.340  1.00  0.00    -0.502 OA
ATOM     27  H   UNL     1      13.051  76.501  -4.994  1.00  0.00     0.293 HD
ENDBRANCH   9  26
TORSDOF 6
ENDMDL
MODEL 12
REMARK VINA RESULT:    -7.607      6.184      8.906
REMARK INTER + INTRA:          -9.477
REMARK INTER:                  -9.174
REMARK INTRA:                  -0.303
REMARK UNBOUND:                -0.313
REMARK SMILES O=c1c(O)c(-c2ccc(O)c(O)c2)oc2cc(O)cc(O)c12
REMARK SMILES IDX 17 1 16 2 15 3 22 4 20 5 19 6 2 7 1 8 3 9 5 10 14 11 18 12
REMARK SMILES IDX 21 14 6 16 7 17 13 18 8 19 11 20 9 21 12 22 10 24 4 26
REMARK H PARENT 18 13 21 15 12 23 10 25 4 27
REMARK Flexibility Score: inf
ROOT
ATOM      1  C   UNL     1       9.326  71.577  -5.122  1.00  0.00     0.123 A 
ATOM      2  C   UNL     1       9.281  72.956  -4.912  1.00  0.00     0.094 A 
ATOM      3  C   UNL     1       9.590  73.490  -3.659  1.00  0.00     0.146 A 
ATOM      4  C   UNL     1       9.950  72.638  -2.588  1.00  0.00     0.111 A 
ATOM      5  C   UNL     1       9.994  71.240  -2.806  1.00  0.00     0.134 A 
ATOM      6  C   UNL     1       9.682  70.723  -4.072  1.00  0.00     0.093 A 
ATOM      7  C   UNL     1      10.240  73.234  -1.344  1.00  0.00     0.238 A 
ATOM      8  O   UNL     1      10.556  72.530  -0.346  1.00  0.00    -0.285 OA
ATOM      9  C   UNL     1      10.170  74.629  -1.210  1.00  0.00     0.208 A 
ATOM     10  C   UNL     1       9.827  75.405  -2.334  1.00  0.00     0.180 A 
ATOM     11  O   UNL     1       9.544  74.807  -3.488  1.00  0.00    -0.452 OA
ENDROOT
BRANCH   1  12
ATOM     12  O   UNL     1       9.015  71.064  -6.379  1.00  0.00    -0.508 OA
ATOM     13  H   UNL     1       9.494  70.253  -6.755  1.00  0.00     0.293 HD
ENDBRANCH   1  12
BRANCH   5  14
ATOM     14  O   UNL     1      10.345  70.364  -1.778  1.00  0.00    -0.507 OA
ATOM     15  H   UNL     1       9.670  70.052  -1.090  1.00  0.00     0.293 HD
ENDBRANCH   5  14
BRANCH  10  16
ATOM     16  C   UNL     1       9.749  76.882  -2.277  1.00  0.00     0.025 A 
ATOM     17  C   UNL     1      10.906  77.678  -2.308  1.00  0.00     0.016 A 
ATOM     18  C   UNL     1       8.493  77.508  -2.250  1.00  0.00     0.062 A 
ATOM     19  C   UNL     1      10.806  79.069  -2.277  1.00  0.00     0.051 A 
ATOM     20  C   UNL     1       8.384  78.904  -2.219  1.00  0.00     0.158 A 
ATOM     21  C   UNL     1       9.557  79.696  -2.228  1.00  0.00     0.157 A 
BRANCH  20  22
ATOM     22  O   UNL     1       7.101  79.457  -2.180  1.00  0.00    -0.504 OA
ATOM     23  H   UNL     1       6.913  80.448  -2.217  1.00  0.00     0.293 HD
ENDBRANCH  20  22
BRANCH  21  24
ATOM     24  O   UNL     1       9.526  81.091  -2.196  1.00  0.00    -0.504 OA
ATOM     25  H   UNL     1       8.677  81.637  -2.172  1.00  0.00     0.293 HD
ENDBRANCH  21  24
ENDBRANCH  10  16
BRANCH   9  26
ATOM     26  O   UNL     1      10.404  75.241   0.024  1.00  0.00    -0.502 OA
ATOM     27  H   UNL     1      10.530  74.711   0.879  1.00  0.00     0.293 HD
ENDBRANCH   9  26
TORSDOF 6
ENDMDL
MODEL 13
REMARK VINA RESULT:    -7.570      6.389      9.050
REMARK INTER + INTRA:          -9.432
REMARK INTER:                  -9.142
REMARK INTRA:                  -0.289
REMARK UNBOUND:                -0.313
REMARK SMILES O=c1c(O)c(-c2ccc(O)c(O)c2)oc2cc(O)cc(O)c12
REMARK SMILES IDX 17 1 16 2 15 3 22 4 20 5 19 6 2 7 1 8 3 9 5 10 14 11 18 12
REMARK SMILES IDX 21 14 6 16 7 17 13 18 8 19 11 20 9 21 12 22 10 24 4 26
REMARK H PARENT 18 13 21 15 12 23 10 25 4 27
REMARK Flexibility Score: inf
ROOT
ATOM      1  C   UNL     1       6.725  78.975   0.313  1.00  0.00     0.123 A 
ATOM      2  C   UNL     1       6.940  77.691  -0.190  1.00  0.00     0.094 A 
ATOM      3  C   UNL     1       8.065  77.418  -0.973  1.00  0.00     0.146 A 
ATOM      4  C   UNL     1       8.997  78.441  -1.265  1.00  0.00     0.111 A 
ATOM      5  C   UNL     1       8.775  79.742  -0.752  1.00  0.00     0.134 A 
ATOM      6  C   UNL     1       7.641  79.996   0.033  1.00  0.00     0.093 A 
ATOM      7  C   UNL     1      10.107  78.108  -2.068  1.00  0.00     0.238 A 
ATOM      8  O   UNL     1      10.968  78.977  -2.375  1.00  0.00    -0.285 OA
ATOM      9  C   UNL     1      10.252  76.795  -2.541  1.00  0.00     0.208 A 
ATOM     10  C   UNL     1       9.289  75.832  -2.182  1.00  0.00     0.180 A 
ATOM     11  O   UNL     1       8.247  76.186  -1.435  1.00  0.00    -0.452 OA
ENDROOT
BRANCH   1  12
ATOM     12  O   UNL     1       5.598  79.227   1.092  1.00  0.00    -0.508 OA
ATOM     13  H   UNL     1       5.481  80.103   1.588  1.00  0.00     0.293 HD
ENDBRANCH   1  12
BRANCH   5  14
ATOM     14  O   UNL     1       9.670  80.780  -1.015  1.00  0.00    -0.507 OA
ATOM     15  H   UNL     1       9.403  81.587  -1.566  1.00  0.00     0.293 HD
ENDBRANCH   5  14
BRANCH  10  16
ATOM     16  C   UNL     1       9.383  74.422  -2.626  1.00  0.00     0.025 A 
ATOM     17  C   UNL     1       9.006  74.036  -3.922  1.00  0.00     0.016 A 
ATOM     18  C   UNL     1       9.915  73.458  -1.756  1.00  0.00     0.062 A 
ATOM     19  C   UNL     1       9.125  72.705  -4.324  1.00  0.00     0.051 A 
ATOM     20  C   UNL     1      10.038  72.120  -2.151  1.00  0.00     0.158 A 
ATOM     21  C   UNL     1       9.634  71.737  -3.452  1.00  0.00     0.157 A 
BRANCH  20  22
ATOM     22  O   UNL     1      10.564  71.213  -1.228  1.00  0.00    -0.504 OA
ATOM     23  H   UNL     1      11.457  71.328  -0.770  1.00  0.00     0.293 HD
ENDBRANCH  20  22
BRANCH  21  24
ATOM     24  O   UNL     1       9.724  70.423  -3.915  1.00  0.00    -0.504 OA
ATOM     25  H   UNL     1       9.113  69.676  -3.619  1.00  0.00     0.293 HD
ENDBRANCH  21  24
ENDBRANCH  10  16
BRANCH   9  26
ATOM     26  O   UNL     1      11.316  76.450  -3.379  1.00  0.00    -0.502 OA
ATOM     27  H   UNL     1      12.241  76.851  -3.275  1.00  0.00     0.293 HD
ENDBRANCH   9  26
TORSDOF 6
ENDMDL
MODEL 14
REMARK VINA RESULT:    -7.405      5.086      8.570
REMARK INTER + INTRA:          -9.233
REMARK INTER:                  -9.008
REMARK INTRA:                  -0.225
REMARK UNBOUND:                -0.313
REMARK SMILES O=c1c(O)c(-c2ccc(O)c(O)c2)oc2cc(O)cc(O)c12
REMARK SMILES IDX 17 1 16 2 15 3 22 4 20 5 19 6 2 7 1 8 3 9 5 10 14 11 18 12
REMARK SMILES IDX 21 14 6 16 7 17 13 18 8 19 11 20 9 21 12 22 10 24 4 26
REMARK H PARENT 18 13 21 15 12 23 10 25 4 27
REMARK Flexibility Score: inf
ROOT
ATOM      1  C   UNL     1      14.824  79.028  -0.517  1.00  0.00     0.123 A 
ATOM      2  C   UNL     1      13.748  78.169  -0.743  1.00  0.00     0.094 A 
ATOM      3  C   UNL     1      12.452  78.676  -0.867  1.00  0.00     0.146 A 
ATOM      4  C   UNL     1      12.218  80.068  -0.763  1.00  0.00     0.111 A 
ATOM      5  C   UNL     1      13.312  80.936  -0.535  1.00  0.00     0.134 A 
ATOM      6  C   UNL     1      14.606  80.407  -0.414  1.00  0.00     0.093 A 
ATOM      7  C   UNL     1      10.888  80.520  -0.887  1.00  0.00     0.238 A 
ATOM      8  O   UNL     1      10.609  81.746  -0.793  1.00  0.00    -0.285 OA
ATOM      9  C   UNL     1       9.858  79.593  -1.110  1.00  0.00     0.208 A 
ATOM     10  C   UNL     1      10.184  78.228  -1.224  1.00  0.00     0.180 A 
ATOM     11  O   UNL     1      11.447  77.836  -1.087  1.00  0.00    -0.452 OA
ENDROOT
BRANCH   1  12
ATOM     12  O   UNL     1      16.109  78.503  -0.396  1.00  0.00    -0.508 OA
ATOM     13  H   UNL     1      16.361  77.615  -0.815  1.00  0.00     0.293 HD
ENDBRANCH   1  12
BRANCH   5  14
ATOM     14  O   UNL     1      13.125  82.314  -0.427  1.00  0.00    -0.507 OA
ATOM     15  H   UNL     1      13.740  82.973  -0.891  1.00  0.00     0.293 HD
ENDBRANCH   5  14
BRANCH  10  16
ATOM     16  C   UNL     1       9.156  77.192  -1.477  1.00  0.00     0.025 A 
ATOM     17  C   UNL     1       8.752  76.301  -0.470  1.00  0.00     0.016 A 
ATOM     18  C   UNL     1       8.527  77.134  -2.730  1.00  0.00     0.062 A 
ATOM     19  C   UNL     1       7.764  75.348  -0.725  1.00  0.00     0.051 A 
ATOM     20  C   UNL     1       7.535  76.181  -2.995  1.00  0.00     0.158 A 
ATOM     21  C   UNL     1       7.151  75.273  -1.980  1.00  0.00     0.157 A 
BRANCH  20  22
ATOM     22  O   UNL     1       6.963  76.174  -4.269  1.00  0.00    -0.504 OA
ATOM     23  H   UNL     1       6.141  76.705  -4.522  1.00  0.00     0.293 HD
ENDBRANCH  20  22
BRANCH  21  24
ATOM     24  O   UNL     1       6.173  74.296  -2.172  1.00  0.00    -0.504 OA
ATOM     25  H   UNL     1       5.596  74.228  -2.998  1.00  0.00     0.293 HD
ENDBRANCH  21  24
ENDBRANCH  10  16
BRANCH   9  26
ATOM     26  O   UNL     1       8.526  80.009  -1.186  1.00  0.00    -0.502 OA
ATOM     27  H   UNL     1       7.870  79.610  -1.848  1.00  0.00     0.293 HD
ENDBRANCH   9  26
TORSDOF 6
ENDMDL
MODEL 15
REMARK VINA RESULT:    -7.374      3.085      8.096
REMARK INTER + INTRA:          -9.195
REMARK INTER:                  -8.894
REMARK INTRA:                  -0.301
REMARK UNBOUND:                -0.313
REMARK SMILES O=c1c(O)c(-c2ccc(O)c(O)c2)oc2cc(O)cc(O)c12
REMARK SMILES IDX 17 1 16 2 15 3 22 4 20 5 19 6 2 7 1 8 3 9 5 10 14 11 18 12
REMARK SMILES IDX 21 14 6 16 7 17 13 18 8 19 11 20 9 21 12 22 10 24 4 26
REMARK H PARENT 18 13 21 15 12 23 10 25 4 27
REMARK Flexibility Score: inf
ROOT
ATOM      1  C   UNL     1      14.777  79.952  -4.366  1.00  0.00     0.123 A 
ATOM      2  C   UNL     1      13.573  79.250  -4.430  1.00  0.00     0.094 A 
ATOM      3  C   UNL     1      13.041  78.654  -3.283  1.00  0.00     0.146 A 
ATOM      4  C   UNL     1      13.720  78.755  -2.046  1.00  0.00     0.111 A 
ATOM      5  C   UNL     1      14.941  79.469  -1.986  1.00  0.00     0.134 A 
ATOM      6  C   UNL     1      15.458  80.061  -3.148  1.00  0.00     0.093 A 
ATOM      7  C   UNL     1      13.140  78.124  -0.926  1.00  0.00     0.238 A 
ATOM      8  O   UNL     1      13.699  78.166   0.203  1.00  0.00    -0.285 OA
ATOM      9  C   UNL     1      11.927  77.432  -1.071  1.00  0.00     0.208 A 
ATOM     10  C   UNL     1      11.307  77.402  -2.334  1.00  0.00     0.180 A 
ATOM     11  O   UNL     1      11.891  77.995  -3.372  1.00  0.00    -0.452 OA
ENDROOT
BRANCH   1  12
ATOM     12  O   UNL     1      15.291  80.540  -5.520  1.00  0.00    -0.508 OA
ATOM     13  H   UNL     1      14.711  80.706  -6.334  1.00  0.00     0.293 HD
ENDBRANCH   1  12
BRANCH   5  14
ATOM     14  O   UNL     1      15.641  79.593  -0.786  1.00  0.00    -0.507 OA
ATOM     15  H   UNL     1      15.190  79.910   0.064  1.00  0.00     0.293 HD
ENDBRANCH   5  14
BRANCH  10  16
ATOM     16  C   UNL     1      10.018  76.709  -2.562  1.00  0.00     0.025 A 
ATOM     17  C   UNL     1       8.808  77.418  -2.631  1.00  0.00     0.016 A 
ATOM     18  C   UNL     1      10.007  75.321  -2.774  1.00  0.00     0.062 A 
ATOM     19  C   UNL     1       7.609  76.745  -2.871  1.00  0.00     0.051 A 
ATOM     20  C   UNL     1       8.809  74.638  -3.015  1.00  0.00     0.158 A 
ATOM     21  C   UNL     1       7.592  75.359  -3.060  1.00  0.00     0.157 A 
BRANCH  20  22
ATOM     22  O   UNL     1       8.873  73.255  -3.203  1.00  0.00    -0.504 OA
ATOM     23  H   UNL     1       9.466  72.640  -2.664  1.00  0.00     0.293 HD
ENDBRANCH  20  22
BRANCH  21  24
ATOM     24  O   UNL     1       6.360  74.747  -3.292  1.00  0.00    -0.504 OA
ATOM     25  H   UNL     1       6.071  74.378  -4.187  1.00  0.00     0.293 HD
ENDBRANCH  21  24
ENDBRANCH  10  16
BRANCH   9  26
ATOM     26  O   UNL     1      11.356  76.756   0.011  1.00  0.00    -0.502 OA
ATOM     27  H   UNL     1      10.400  76.421  -0.002  1.00  0.00     0.293 HD
ENDBRANCH   9  26
TORSDOF 6
ENDMDL
