MODEL 1
REMARK VINA RESULT:    -7.757      0.000      0.000
REMARK INTER + INTRA:          -9.642
REMARK INTER:                  -9.344
REMARK INTRA:                  -0.298
REMARK UNBOUND:                -0.298
REMARK SMILES O=c1c(O)c(-c2ccc(O)c(O)c2)oc2cc(O)cc(O)c12
REMARK SMILES IDX 17 1 16 2 15 3 22 4 20 5 19 6 2 7 1 8 3 9 5 10 14 11 18 12
REMARK SMILES IDX 21 14 6 16 7 17 13 18 8 19 11 20 9 21 12 22 10 24 4 26
REMARK H PARENT 18 13 21 15 12 23 10 25 4 27
REMARK Flexibility Score: inf
ROOT
ATOM      1  C   UNL     1      12.925  14.279  10.583  1.00  0.00     0.123 A 
ATOM      2  C   UNL     1      13.217  13.245  11.474  1.00  0.00     0.094 A 
ATOM      3  C   UNL     1      12.411  13.030  12.595  1.00  0.00     0.146 A 
ATOM      4  C   UNL     1      11.292  13.860  12.840  1.00  0.00     0.111 A 
ATOM      5  C   UNL     1      10.999  14.907  11.932  1.00  0.00     0.134 A 
ATOM      6  C   UNL     1      11.820  15.106  10.812  1.00  0.00     0.093 A 
ATOM      7  C   UNL     1      10.522  13.602  13.992  1.00  0.00     0.238 A 
ATOM      8  O   UNL     1       9.519  14.311  14.274  1.00  0.00    -0.285 OA
ATOM      9  C   UNL     1      10.882  12.545  14.844  1.00  0.00     0.208 A 
ATOM     10  C   UNL     1      11.998  11.754  14.512  1.00  0.00     0.180 A 
ATOM     11  O   UNL     1      12.709  12.036  13.425  1.00  0.00    -0.452 OA
ENDROOT
BRANCH   1  12
ATOM     12  O   UNL     1      13.740  14.476   9.470  1.00  0.00    -0.508 OA
ATOM     13  H   UNL     1      14.693  14.131   9.442  1.00  0.00     0.293 HD
ENDBRANCH   1  12
BRANCH   5  14
ATOM     14  O   UNL     1       9.904  15.748  12.135  1.00  0.00    -0.507 OA
ATOM     15  H   UNL     1       9.989  16.756  12.079  1.00  0.00     0.293 HD
ENDBRANCH   5  14
BRANCH  10  16
ATOM     16  C   UNL     1      12.429  10.611  15.350  1.00  0.00     0.025 A 
ATOM     17  C   UNL     1      11.759   9.377  15.305  1.00  0.00     0.016 A 
ATOM     18  C   UNL     1      13.566  10.739  16.162  1.00  0.00     0.062 A 
ATOM     19  C   UNL     1      12.198   8.308  16.086  1.00  0.00     0.051 A 
ATOM     20  C   UNL     1      14.014   9.670  16.949  1.00  0.00     0.158 A 
ATOM     21  C   UNL     1      13.318   8.439  16.914  1.00  0.00     0.157 A 
BRANCH  20  22
ATOM     22  O   UNL     1      15.145   9.876  17.743  1.00  0.00    -0.504 OA
ATOM     23  H   UNL     1      15.686  10.728  17.744  1.00  0.00     0.293 HD
ENDBRANCH  20  22
BRANCH  21  24
ATOM     24  O   UNL     1      13.703   7.332  17.672  1.00  0.00    -0.504 OA
ATOM     25  H   UNL     1      13.192   6.462  17.703  1.00  0.00     0.293 HD
ENDBRANCH  21  24
ENDBRANCH  10  16
BRANCH   9  26
ATOM     26  O   UNL     1      10.166  12.299  16.018  1.00  0.00    -0.502 OA
ATOM     27  H   UNL     1       9.181  12.521  16.111  1.00  0.00     0.293 HD
ENDBRANCH   9  26
TORSDOF 6
ENDMDL
MODEL 2
REMARK VINA RESULT:    -7.751      5.904      9.238
REMARK INTER + INTRA:          -9.635
REMARK INTER:                  -9.349
REMARK INTRA:                  -0.286
REMARK UNBOUND:                -0.298
REMARK SMILES O=c1c(O)c(-c2ccc(O)c(O)c2)oc2cc(O)cc(O)c12
REMARK SMILES IDX 17 1 16 2 15 3 22 4 20 5 19 6 2 7 1 8 3 9 5 10 14 11 18 12
REMARK SMILES IDX 21 14 6 16 7 17 13 18 8 19 11 20 9 21 12 22 10 24 4 26
REMARK H PARENT 18 13 21 15 12 23 10 25 4 27
REMARK Flexibility Score: inf
ROOT
ATOM      1  C   UNL     1      10.401   9.486  18.060  1.00  0.00     0.123 A 
ATOM      2  C   UNL     1      10.583   9.885  19.385  1.00  0.00     0.094 A 
ATOM      3  C   UNL     1      11.664   9.400  20.127  1.00  0.00     0.146 A 
ATOM      4  C   UNL     1      12.584   8.498  19.542  1.00  0.00     0.111 A 
ATOM      5  C   UNL     1      12.395   8.097  18.197  1.00  0.00     0.134 A 
ATOM      6  C   UNL     1      11.305   8.596  17.469  1.00  0.00     0.093 A 
ATOM      7  C   UNL     1      13.648   8.035  20.342  1.00  0.00     0.238 A 
ATOM      8  O   UNL     1      14.496   7.221  19.885  1.00  0.00    -0.285 OA
ATOM      9  C   UNL     1      13.762   8.478  21.669  1.00  0.00     0.208 A 
ATOM     10  C   UNL     1      12.816   9.396  22.164  1.00  0.00     0.180 A 
ATOM     11  O   UNL     1      11.816   9.800  21.385  1.00  0.00    -0.452 OA
ENDROOT
BRANCH   1  12
ATOM     12  O   UNL     1       9.318   9.982  17.338  1.00  0.00    -0.508 OA
ATOM     13  H   UNL     1       9.419  10.759  16.695  1.00  0.00     0.293 HD
ENDBRANCH   1  12
BRANCH   5  14
ATOM     14  O   UNL     1      13.279   7.210  17.581  1.00  0.00    -0.507 OA
ATOM     15  H   UNL     1      13.920   7.514  16.858  1.00  0.00     0.293 HD
ENDBRANCH   5  14
BRANCH  10  16
ATOM     16  C   UNL     1      12.880   9.924  23.546  1.00  0.00     0.025 A 
ATOM     17  C   UNL     1      13.349  11.220  23.813  1.00  0.00     0.016 A 
ATOM     18  C   UNL     1      12.407   9.139  24.608  1.00  0.00     0.062 A 
ATOM     19  C   UNL     1      13.378  11.704  25.121  1.00  0.00     0.051 A 
ATOM     20  C   UNL     1      12.431   9.617  25.925  1.00  0.00     0.158 A 
ATOM     21  C   UNL     1      12.928  10.917  26.186  1.00  0.00     0.157 A 
BRANCH  20  22
ATOM     22  O   UNL     1      11.956   8.775  26.933  1.00  0.00    -0.504 OA
ATOM     23  H   UNL     1      11.198   9.013  27.556  1.00  0.00     0.293 HD
ENDBRANCH  20  22
BRANCH  21  24
ATOM     24  O   UNL     1      12.986  11.459  27.470  1.00  0.00    -0.504 OA
ATOM     25  H   UNL     1      13.845  11.632  27.972  1.00  0.00     0.293 HD
ENDBRANCH  21  24
ENDBRANCH  10  16
BRANCH   9  26
ATOM     26  O   UNL     1      14.778   7.997  22.498  1.00  0.00    -0.502 OA
ATOM     27  H   UNL     1      15.532   8.587  22.832  1.00  0.00     0.293 HD
ENDBRANCH   9  26
TORSDOF 6
ENDMDL
MODEL 3
REMARK VINA RESULT:    -7.507      1.537      2.115
REMARK INTER + INTRA:          -9.341
REMARK INTER:                  -9.134
REMARK INTRA:                  -0.207
REMARK UNBOUND:                -0.298
REMARK SMILES O=c1c(O)c(-c2ccc(O)c(O)c2)oc2cc(O)cc(O)c12
REMARK SMILES IDX 17 1 16 2 15 3 22 4 20 5 19 6 2 7 1 8 3 9 5 10 14 11 18 12
REMARK SMILES IDX 21 14 6 16 7 17 13 18 8 19 11 20 9 21 12 22 10 24 4 26
REMARK H PARENT 18 13 21 15 12 23 10 25 4 27
REMARK Flexibility Score: inf
ROOT
ATOM      1  C   UNL     1      10.332  14.014  10.026  1.00  0.00     0.123 A 
ATOM      2  C   UNL     1      11.101  13.244  10.900  1.00  0.00     0.094 A 
ATOM      3  C   UNL     1      10.836  13.256  12.272  1.00  0.00     0.146 A 
ATOM      4  C   UNL     1       9.786  14.050  12.790  1.00  0.00     0.111 A 
ATOM      5  C   UNL     1       9.008  14.828  11.899  1.00  0.00     0.134 A 
ATOM      6  C   UNL     1       9.289  14.802  10.525  1.00  0.00     0.093 A 
ATOM      7  C   UNL     1       9.573  14.029  14.183  1.00  0.00     0.238 A 
ATOM      8  O   UNL     1       8.661  14.723  14.710  1.00  0.00    -0.285 OA
ATOM      9  C   UNL     1      10.392  13.232  14.998  1.00  0.00     0.208 A 
ATOM     10  C   UNL     1      11.399  12.454  14.397  1.00  0.00     0.180 A 
ATOM     11  O   UNL     1      11.581  12.510  13.081  1.00  0.00    -0.452 OA
ENDROOT
BRANCH   1  12
ATOM     12  O   UNL     1      10.612  13.988   8.662  1.00  0.00    -0.508 OA
ATOM     13  H   UNL     1      10.169  13.319   8.042  1.00  0.00     0.293 HD
ENDBRANCH   1  12
BRANCH   5  14
ATOM     14  O   UNL     1       7.962  15.624  12.368  1.00  0.00    -0.507 OA
ATOM     15  H   UNL     1       7.243  15.979  11.747  1.00  0.00     0.293 HD
ENDBRANCH   5  14
BRANCH  10  16
ATOM     16  C   UNL     1      12.291  11.574  15.187  1.00  0.00     0.025 A 
ATOM     17  C   UNL     1      13.246  12.103  16.071  1.00  0.00     0.016 A 
ATOM     18  C   UNL     1      12.143  10.181  15.100  1.00  0.00     0.062 A 
ATOM     19  C   UNL     1      14.058  11.253  16.822  1.00  0.00     0.051 A 
ATOM     20  C   UNL     1      12.954   9.321  15.850  1.00  0.00     0.158 A 
ATOM     21  C   UNL     1      13.929   9.865  16.721  1.00  0.00     0.157 A 
BRANCH  20  22
ATOM     22  O   UNL     1      12.759   7.946  15.701  1.00  0.00    -0.504 OA
ATOM     23  H   UNL     1      11.925   7.534  15.307  1.00  0.00     0.293 HD
ENDBRANCH  20  22
BRANCH  21  24
ATOM     24  O   UNL     1      14.775   9.071  17.497  1.00  0.00    -0.504 OA
ATOM     25  H   UNL     1      14.830   9.121  18.504  1.00  0.00     0.293 HD
ENDBRANCH  21  24
ENDBRANCH  10  16
BRANCH   9  26
ATOM     26  O   UNL     1      10.234  13.231  16.387  1.00  0.00    -0.502 OA
ATOM     27  H   UNL     1      10.577  13.985  16.972  1.00  0.00     0.293 HD
ENDBRANCH   9  26
TORSDOF 6
ENDMDL
MODEL 4
REMARK VINA RESULT:    -7.493      1.632      6.694
REMARK INTER + INTRA:          -9.324
REMARK INTER:                  -9.069
REMARK INTRA:                  -0.256
REMARK UNBOUND:                -0.298
REMARK SMILES O=c1c(O)c(-c2ccc(O)c(O)c2)oc2cc(O)cc(O)c12
REMARK SMILES IDX 17 1 16 2 15 3 22 4 20 5 19 6 2 7 1 8 3 9 5 10 14 11 18 12
REMARK SMILES IDX 21 14 6 16 7 17 13 18 8 19 11 20 9 21 12 22 10 24 4 26
REMARK H PARENT 18 13 21 15 12 23 10 25 4 27
REMARK Flexibility Score: inf
ROOT
ATOM      1  C   UNL     1      11.768   8.345  16.779  1.00  0.00     0.123 A 
ATOM      2  C   UNL     1      12.089   9.072  15.632  1.00  0.00     0.094 A 
ATOM      3  C   UNL     1      11.561  10.351  15.436  1.00  0.00     0.146 A 
ATOM      4  C   UNL     1      10.694  10.921  16.397  1.00  0.00     0.111 A 
ATOM      5  C   UNL     1      10.372  10.180  17.560  1.00  0.00     0.134 A 
ATOM      6  C   UNL     1      10.913   8.898  17.740  1.00  0.00     0.093 A 
ATOM      7  C   UNL     1      10.185  12.210  16.139  1.00  0.00     0.238 A 
ATOM      8  O   UNL     1       9.398  12.770  16.950  1.00  0.00    -0.285 OA
ATOM      9  C   UNL     1      10.550  12.878  14.960  1.00  0.00     0.208 A 
ATOM     10  C   UNL     1      11.438  12.246  14.068  1.00  0.00     0.180 A 
ATOM     11  O   UNL     1      11.887  11.023  14.337  1.00  0.00    -0.452 OA
ENDROOT
BRANCH   1  12
ATOM     12  O   UNL     1      12.305   7.072  16.957  1.00  0.00    -0.508 OA
ATOM     13  H   UNL     1      13.282   6.877  16.771  1.00  0.00     0.293 HD
ENDBRANCH   1  12
BRANCH   5  14
ATOM     14  O   UNL     1       9.522  10.705  18.534  1.00  0.00    -0.507 OA
ATOM     15  H   UNL     1       9.779  11.516  19.084  1.00  0.00     0.293 HD
ENDBRANCH   5  14
BRANCH  10  16
ATOM     16  C   UNL     1      11.885  12.892  12.813  1.00  0.00     0.025 A 
ATOM     17  C   UNL     1      13.191  13.388  12.670  1.00  0.00     0.016 A 
ATOM     18  C   UNL     1      11.008  12.960  11.720  1.00  0.00     0.062 A 
ATOM     19  C   UNL     1      13.596  13.972  11.469  1.00  0.00     0.051 A 
ATOM     20  C   UNL     1      11.406  13.544  10.510  1.00  0.00     0.158 A 
ATOM     21  C   UNL     1      12.717  14.061  10.385  1.00  0.00     0.157 A 
BRANCH  20  22
ATOM     22  O   UNL     1      10.475  13.588   9.470  1.00  0.00    -0.504 OA
ATOM     23  H   UNL     1       9.488  13.409   9.589  1.00  0.00     0.293 HD
ENDBRANCH  20  22
BRANCH  21  24
ATOM     24  O   UNL     1      13.184  14.660   9.213  1.00  0.00    -0.504 OA
ATOM     25  H   UNL     1      13.623  15.569   9.179  1.00  0.00     0.293 HD
ENDBRANCH  21  24
ENDBRANCH  10  16
BRANCH   9  26
ATOM     26  O   UNL     1      10.021  14.135  14.656  1.00  0.00    -0.502 OA
ATOM     27  H   UNL     1      10.149  14.573  13.751  1.00  0.00     0.293 HD
ENDBRANCH   9  26
TORSDOF 6
ENDMDL
MODEL 5
REMARK VINA RESULT:    -7.484      2.089      6.802
REMARK INTER + INTRA:          -9.314
REMARK INTER:                  -8.986
REMARK INTRA:                  -0.328
REMARK UNBOUND:                -0.298
REMARK SMILES O=c1c(O)c(-c2ccc(O)c(O)c2)oc2cc(O)cc(O)c12
REMARK SMILES IDX 17 1 16 2 15 3 22 4 20 5 19 6 2 7 1 8 3 9 5 10 14 11 18 12
REMARK SMILES IDX 21 14 6 16 7 17 13 18 8 19 11 20 9 21 12 22 10 24 4 26
REMARK H PARENT 18 13 21 15 12 23 10 25 4 27
REMARK Flexibility Score: inf
ROOT
ATOM      1  C   UNL     1      13.015   8.078  18.094  1.00  0.00     0.123 A 
ATOM      2  C   UNL     1      13.389   9.063  17.178  1.00  0.00     0.094 A 
ATOM      3  C   UNL     1      12.475  10.043  16.783  1.00  0.00     0.146 A 
ATOM      4  C   UNL     1      11.160  10.045  17.305  1.00  0.00     0.111 A 
ATOM      5  C   UNL     1      10.785   9.044  18.234  1.00  0.00     0.134 A 
ATOM      6  C   UNL     1      11.718   8.070  18.620  1.00  0.00     0.093 A 
ATOM      7  C   UNL     1      10.279  11.053  16.862  1.00  0.00     0.238 A 
ATOM      8  O   UNL     1       9.091  11.105  17.279  1.00  0.00    -0.285 OA
ATOM      9  C   UNL     1      10.727  12.007  15.935  1.00  0.00     0.208 A 
ATOM     10  C   UNL     1      12.060  11.945  15.485  1.00  0.00     0.180 A 
ATOM     11  O   UNL     1      12.858  10.971  15.914  1.00  0.00    -0.452 OA
ENDROOT
BRANCH   1  12
ATOM     12  O   UNL     1      13.941   7.109  18.476  1.00  0.00    -0.508 OA
ATOM     13  H   UNL     1      13.866   6.149  18.161  1.00  0.00     0.293 HD
ENDBRANCH   1  12
BRANCH   5  14
ATOM     14  O   UNL     1       9.500   9.011  18.775  1.00  0.00    -0.507 OA
ATOM     15  H   UNL     1       8.690   8.787  18.209  1.00  0.00     0.293 HD
ENDBRANCH   5  14
BRANCH  10  16
ATOM     16  C   UNL     1      12.612  12.926  14.523  1.00  0.00     0.025 A 
ATOM     17  C   UNL     1      13.118  14.164  14.949  1.00  0.00     0.016 A 
ATOM     18  C   UNL     1      12.688  12.592  13.161  1.00  0.00     0.062 A 
ATOM     19  C   UNL     1      13.656  15.063  14.026  1.00  0.00     0.051 A 
ATOM     20  C   UNL     1      13.226  13.488  12.228  1.00  0.00     0.158 A 
ATOM     21  C   UNL     1      13.712  14.742  12.666  1.00  0.00     0.157 A 
BRANCH  20  22
ATOM     22  O   UNL     1      13.256  13.092  10.889  1.00  0.00    -0.504 OA
ATOM     23  H   UNL     1      13.240  13.735  10.110  1.00  0.00     0.293 HD
ENDBRANCH  20  22
BRANCH  21  24
ATOM     24  O   UNL     1      14.258  15.686  11.794  1.00  0.00    -0.504 OA
ATOM     25  H   UNL     1      13.783  16.043  10.978  1.00  0.00     0.293 HD
ENDBRANCH  21  24
ENDBRANCH  10  16
BRANCH   9  26
ATOM     26  O   UNL     1       9.861  12.986  15.441  1.00  0.00    -0.502 OA
ATOM     27  H   UNL     1      10.158  13.686  14.771  1.00  0.00     0.293 HD
ENDBRANCH   9  26
TORSDOF 6
ENDMDL
MODEL 6
REMARK VINA RESULT:    -7.467      1.818      6.739
REMARK INTER + INTRA:          -9.293
REMARK INTER:                  -8.970
REMARK INTRA:                  -0.324
REMARK UNBOUND:                -0.298
REMARK SMILES O=c1c(O)c(-c2ccc(O)c(O)c2)oc2cc(O)cc(O)c12
REMARK SMILES IDX 17 1 16 2 15 3 22 4 20 5 19 6 2 7 1 8 3 9 5 10 14 11 18 12
REMARK SMILES IDX 21 14 6 16 7 17 13 18 8 19 11 20 9 21 12 22 10 24 4 26
REMARK H PARENT 18 13 21 15 12 23 10 25 4 27
REMARK Flexibility Score: inf
ROOT
ATOM      1  C   UNL     1      13.575   8.934  16.989  1.00  0.00     0.123 A 
ATOM      2  C   UNL     1      13.113   9.436  15.771  1.00  0.00     0.094 A 
ATOM      3  C   UNL     1      13.043  10.815  15.556  1.00  0.00     0.146 A 
ATOM      4  C   UNL     1      13.438  11.717  16.572  1.00  0.00     0.111 A 
ATOM      5  C   UNL     1      13.906  11.203  17.806  1.00  0.00     0.134 A 
ATOM      6  C   UNL     1      13.970   9.815  18.002  1.00  0.00     0.093 A 
ATOM      7  C   UNL     1      13.335  13.097  16.301  1.00  0.00     0.238 A 
ATOM      8  O   UNL     1      13.660  13.953  17.168  1.00  0.00    -0.285 OA
ATOM      9  C   UNL     1      12.857  13.525  15.053  1.00  0.00     0.208 A 
ATOM     10  C   UNL     1      12.509  12.559  14.090  1.00  0.00     0.180 A 
ATOM     11  O   UNL     1      12.604  11.265  14.386  1.00  0.00    -0.452 OA
ENDROOT
BRANCH   1  12
ATOM     12  O   UNL     1      13.638   7.556  17.184  1.00  0.00    -0.508 OA
ATOM     13  H   UNL     1      12.983   6.926  16.734  1.00  0.00     0.293 HD
ENDBRANCH   1  12
BRANCH   5  14
ATOM     14  O   UNL     1      14.307  12.057  18.834  1.00  0.00    -0.507 OA
ATOM     15  H   UNL     1      14.383  13.059  18.695  1.00  0.00     0.293 HD
ENDBRANCH   5  14
BRANCH  10  16
ATOM     16  C   UNL     1      12.015  12.931  12.745  1.00  0.00     0.025 A 
ATOM     17  C   UNL     1      10.644  13.090  12.486  1.00  0.00     0.016 A 
ATOM     18  C   UNL     1      12.935  13.190  11.717  1.00  0.00     0.062 A 
ATOM     19  C   UNL     1      10.204  13.464  11.216  1.00  0.00     0.051 A 
ATOM     20  C   UNL     1      12.503  13.567  10.439  1.00  0.00     0.158 A 
ATOM     21  C   UNL     1      11.117  13.701  10.184  1.00  0.00     0.157 A 
BRANCH  20  22
ATOM     22  O   UNL     1      13.476  13.795   9.463  1.00  0.00    -0.504 OA
ATOM     23  H   UNL     1      13.338  13.620   8.478  1.00  0.00     0.293 HD
ENDBRANCH  20  22
BRANCH  21  24
ATOM     24  O   UNL     1      10.612  14.070   8.936  1.00  0.00    -0.504 OA
ATOM     25  H   UNL     1      11.169  14.480   8.200  1.00  0.00     0.293 HD
ENDBRANCH  21  24
ENDBRANCH  10  16
BRANCH   9  26
ATOM     26  O   UNL     1      12.699  14.885  14.776  1.00  0.00    -0.502 OA
ATOM     27  H   UNL     1      13.304  15.382  14.133  1.00  0.00     0.293 HD
ENDBRANCH   9  26
TORSDOF 6
ENDMDL
MODEL 7
REMARK VINA RESULT:    -7.384      2.755      6.879
REMARK INTER + INTRA:          -9.193
REMARK INTER:                  -8.891
REMARK INTRA:                  -0.301
REMARK UNBOUND:                -0.298
REMARK SMILES O=c1c(O)c(-c2ccc(O)c(O)c2)oc2cc(O)cc(O)c12
REMARK SMILES IDX 17 1 16 2 15 3 22 4 20 5 19 6 2 7 1 8 3 9 5 10 14 11 18 12
REMARK SMILES IDX 21 14 6 16 7 17 13 18 8 19 11 20 9 21 12 22 10 24 4 26
REMARK H PARENT 18 13 21 15 12 23 10 25 4 27
REMARK Flexibility Score: inf
ROOT
ATOM      1  C   UNL     1       8.611  13.574  18.738  1.00  0.00     0.123 A 
ATOM      2  C   UNL     1       9.190  13.871  17.504  1.00  0.00     0.094 A 
ATOM      3  C   UNL     1       9.831  12.873  16.765  1.00  0.00     0.146 A 
ATOM      4  C   UNL     1       9.899  11.550  17.262  1.00  0.00     0.111 A 
ATOM      5  C   UNL     1       9.309  11.253  18.514  1.00  0.00     0.134 A 
ATOM      6  C   UNL     1       8.670  12.269  19.240  1.00  0.00     0.093 A 
ATOM      7  C   UNL     1      10.567  10.588  16.477  1.00  0.00     0.238 A 
ATOM      8  O   UNL     1      10.674   9.394  16.867  1.00  0.00    -0.285 OA
ATOM      9  C   UNL     1      11.129  10.965  15.247  1.00  0.00     0.208 A 
ATOM     10  C   UNL     1      10.993  12.298  14.817  1.00  0.00     0.180 A 
ATOM     11  O   UNL     1      10.370  13.183  15.591  1.00  0.00    -0.452 OA
ENDROOT
BRANCH   1  12
ATOM     12  O   UNL     1       7.976  14.583  19.459  1.00  0.00    -0.508 OA
ATOM     13  H   UNL     1       6.985  14.543  19.668  1.00  0.00     0.293 HD
ENDBRANCH   1  12
BRANCH   5  14
ATOM     14  O   UNL     1       9.353   9.961  19.040  1.00  0.00    -0.507 OA
ATOM     15  H   UNL     1       8.588   9.309  18.915  1.00  0.00     0.293 HD
ENDBRANCH   5  14
BRANCH  10  16
ATOM     16  C   UNL     1      11.542  12.768  13.524  1.00  0.00     0.025 A 
ATOM     17  C   UNL     1      12.899  13.100  13.382  1.00  0.00     0.016 A 
ATOM     18  C   UNL     1      10.705  12.829  12.399  1.00  0.00     0.062 A 
ATOM     19  C   UNL     1      13.398  13.518  12.148  1.00  0.00     0.051 A 
ATOM     20  C   UNL     1      11.198  13.246  11.156  1.00  0.00     0.158 A 
ATOM     21  C   UNL     1      12.562  13.600  11.029  1.00  0.00     0.157 A 
BRANCH  20  22
ATOM     22  O   UNL     1      10.303  13.294  10.084  1.00  0.00    -0.504 OA
ATOM     23  H   UNL     1       9.363  12.927  10.117  1.00  0.00     0.293 HD
ENDBRANCH  20  22
BRANCH  21  24
ATOM     24  O   UNL     1      13.122  14.028   9.825  1.00  0.00    -0.504 OA
ATOM     25  H   UNL     1      13.780  14.790   9.747  1.00  0.00     0.293 HD
ENDBRANCH  21  24
ENDBRANCH  10  16
BRANCH   9  26
ATOM     26  O   UNL     1      11.839  10.043  14.473  1.00  0.00    -0.502 OA
ATOM     27  H   UNL     1      12.383   9.293  14.885  1.00  0.00     0.293 HD
ENDBRANCH   9  26
TORSDOF 6
ENDMDL
MODEL 8
REMARK VINA RESULT:    -7.309      4.540      7.549
REMARK INTER + INTRA:          -9.103
REMARK INTER:                  -8.770
REMARK INTRA:                  -0.333
REMARK UNBOUND:                -0.298
REMARK SMILES O=c1c(O)c(-c2ccc(O)c(O)c2)oc2cc(O)cc(O)c12
REMARK SMILES IDX 17 1 16 2 15 3 22 4 20 5 19 6 2 7 1 8 3 9 5 10 14 11 18 12
REMARK SMILES IDX 21 14 6 16 7 17 13 18 8 19 11 20 9 21 12 22 10 24 4 26
REMARK H PARENT 18 13 21 15 12 23 10 25 4 27
REMARK Flexibility Score: inf
ROOT
ATOM      1  C   UNL     1      19.556  13.686  19.156  1.00  0.00     0.123 A 
ATOM      2  C   UNL     1      18.647  13.007  18.343  1.00  0.00     0.094 A 
ATOM      3  C   UNL     1      17.344  12.765  18.788  1.00  0.00     0.146 A 
ATOM      4  C   UNL     1      16.934  13.205  20.069  1.00  0.00     0.111 A 
ATOM      5  C   UNL     1      17.860  13.894  20.890  1.00  0.00     0.134 A 
ATOM      6  C   UNL     1      19.163  14.128  20.424  1.00  0.00     0.093 A 
ATOM      7  C   UNL     1      15.612  12.923  20.468  1.00  0.00     0.238 A 
ATOM      8  O   UNL     1      15.188  13.277  21.601  1.00  0.00    -0.285 OA
ATOM      9  C   UNL     1      14.757  12.231  19.596  1.00  0.00     0.208 A 
ATOM     10  C   UNL     1      15.240  11.851  18.329  1.00  0.00     0.180 A 
ATOM     11  O   UNL     1      16.498  12.121  17.992  1.00  0.00    -0.452 OA
ENDROOT
BRANCH   1  12
ATOM     12  O   UNL     1      20.849  13.918  18.693  1.00  0.00    -0.508 OA
ATOM     13  H   UNL     1      21.657  13.804  19.295  1.00  0.00     0.293 HD
ENDBRANCH   1  12
BRANCH   5  14
ATOM     14  O   UNL     1      17.497  14.345  22.159  1.00  0.00    -0.507 OA
ATOM     15  H   UNL     1      16.747  13.911  22.685  1.00  0.00     0.293 HD
ENDBRANCH   5  14
BRANCH  10  16
ATOM     16  C   UNL     1      14.394  11.135  17.346  1.00  0.00     0.025 A 
ATOM     17  C   UNL     1      13.604  11.831  16.416  1.00  0.00     0.016 A 
ATOM     18  C   UNL     1      14.423   9.733  17.300  1.00  0.00     0.062 A 
ATOM     19  C   UNL     1      12.834  11.134  15.485  1.00  0.00     0.051 A 
ATOM     20  C   UNL     1      13.653   9.026  16.368  1.00  0.00     0.158 A 
ATOM     21  C   UNL     1      12.843   9.736  15.450  1.00  0.00     0.157 A 
BRANCH  20  22
ATOM     22  O   UNL     1      13.723   7.631  16.390  1.00  0.00    -0.504 OA
ATOM     23  H   UNL     1      13.865   7.086  17.229  1.00  0.00     0.293 HD
ENDBRANCH  20  22
BRANCH  21  24
ATOM     24  O   UNL     1      12.048   9.100  14.497  1.00  0.00    -0.504 OA
ATOM     25  H   UNL     1      11.314   9.559  13.976  1.00  0.00     0.293 HD
ENDBRANCH  21  24
ENDBRANCH  10  16
BRANCH   9  26
ATOM     26  O   UNL     1      13.458  11.895  19.985  1.00  0.00    -0.502 OA
ATOM     27  H   UNL     1      12.957  12.407  20.703  1.00  0.00     0.293 HD
ENDBRANCH   9  26
TORSDOF 6
ENDMDL
MODEL 9
REMARK VINA RESULT:    -7.199      1.869      3.764
REMARK INTER + INTRA:          -8.970
REMARK INTER:                  -8.648
REMARK INTRA:                  -0.321
REMARK UNBOUND:                -0.298
REMARK SMILES O=c1c(O)c(-c2ccc(O)c(O)c2)oc2cc(O)cc(O)c12
REMARK SMILES IDX 17 1 16 2 15 3 22 4 20 5 19 6 2 7 1 8 3 9 5 10 14 11 18 12
REMARK SMILES IDX 21 14 6 16 7 17 13 18 8 19 11 20 9 21 12 22 10 24 4 26
REMARK H PARENT 18 13 21 15 12 23 10 25 4 27
REMARK Flexibility Score: inf
ROOT
ATOM      1  C   UNL     1       7.553  15.197  15.743  1.00  0.00     0.123 A 
ATOM      2  C   UNL     1       8.392  14.137  16.086  1.00  0.00     0.094 A 
ATOM      3  C   UNL     1       9.416  13.738  15.222  1.00  0.00     0.146 A 
ATOM      4  C   UNL     1       9.610  14.405  13.989  1.00  0.00     0.111 A 
ATOM      5  C   UNL     1       8.756  15.481  13.646  1.00  0.00     0.134 A 
ATOM      6  C   UNL     1       7.735  15.867  14.528  1.00  0.00     0.093 A 
ATOM      7  C   UNL     1      10.651  13.951  13.155  1.00  0.00     0.238 A 
ATOM      8  O   UNL     1      10.870  14.495  12.038  1.00  0.00    -0.285 OA
ATOM      9  C   UNL     1      11.452  12.875  13.567  1.00  0.00     0.208 A 
ATOM     10  C   UNL     1      11.205  12.284  14.821  1.00  0.00     0.180 A 
ATOM     11  O   UNL     1      10.204  12.728  15.575  1.00  0.00    -0.452 OA
ENDROOT
BRANCH   1  12
ATOM     12  O   UNL     1       6.539  15.580  16.619  1.00  0.00    -0.508 OA
ATOM     13  H   UNL     1       5.580  15.279  16.485  1.00  0.00     0.293 HD
ENDBRANCH   1  12
BRANCH   5  14
ATOM     14  O   UNL     1       8.913  16.166  12.441  1.00  0.00    -0.507 OA
ATOM     15  H   UNL     1       9.361  15.738  11.639  1.00  0.00     0.293 HD
ENDBRANCH   5  14
BRANCH  10  16
ATOM     16  C   UNL     1      12.017  11.157  15.334  1.00  0.00     0.025 A 
ATOM     17  C   UNL     1      11.715   9.827  15.003  1.00  0.00     0.016 A 
ATOM     18  C   UNL     1      13.149  11.423  16.119  1.00  0.00     0.062 A 
ATOM     19  C   UNL     1      12.509   8.783  15.479  1.00  0.00     0.051 A 
ATOM     20  C   UNL     1      13.953  10.381  16.602  1.00  0.00     0.158 A 
ATOM     21  C   UNL     1      13.626   9.042  16.281  1.00  0.00     0.157 A 
BRANCH  20  22
ATOM     22  O   UNL     1      15.056  10.720  17.388  1.00  0.00    -0.504 OA
ATOM     23  H   UNL     1      15.674  11.494  17.190  1.00  0.00     0.293 HD
ENDBRANCH  20  22
BRANCH  21  24
ATOM     24  O   UNL     1      14.377   7.954  16.727  1.00  0.00    -0.504 OA
ATOM     25  H   UNL     1      14.156   7.416  17.553  1.00  0.00     0.293 HD
ENDBRANCH  21  24
ENDBRANCH  10  16
BRANCH   9  26
ATOM     26  O   UNL     1      12.459  12.374  12.738  1.00  0.00    -0.502 OA
ATOM     27  H   UNL     1      13.155  12.971  12.308  1.00  0.00     0.293 HD
ENDBRANCH   9  26
TORSDOF 6
ENDMDL
MODEL 10
REMARK VINA RESULT:    -7.078      2.462      4.232
REMARK INTER + INTRA:          -8.825
REMARK INTER:                  -8.559
REMARK INTRA:                  -0.266
REMARK UNBOUND:                -0.298
REMARK SMILES O=c1c(O)c(-c2ccc(O)c(O)c2)oc2cc(O)cc(O)c12
REMARK SMILES IDX 17 1 16 2 15 3 22 4 20 5 19 6 2 7 1 8 3 9 5 10 14 11 18 12
REMARK SMILES IDX 21 14 6 16 7 17 13 18 8 19 11 20 9 21 12 22 10 24 4 26
REMARK H PARENT 18 13 21 15 12 23 10 25 4 27
REMARK Flexibility Score: inf
ROOT
ATOM      1  C   UNL     1       7.098  16.060  12.276  1.00  0.00     0.123 A 
ATOM      2  C   UNL     1       7.918  15.305  13.115  1.00  0.00     0.094 A 
ATOM      3  C   UNL     1       8.989  14.578  12.589  1.00  0.00     0.146 A 
ATOM      4  C   UNL     1       9.252  14.598  11.199  1.00  0.00     0.111 A 
ATOM      5  C   UNL     1       8.418  15.367  10.351  1.00  0.00     0.134 A 
ATOM      6  C   UNL     1       7.348  16.091  10.899  1.00  0.00     0.093 A 
ATOM      7  C   UNL     1      10.340  13.837  10.726  1.00  0.00     0.238 A 
ATOM      8  O   UNL     1      10.621  13.803   9.497  1.00  0.00    -0.285 OA
ATOM      9  C   UNL     1      11.117  13.099  11.632  1.00  0.00     0.208 A 
ATOM     10  C   UNL     1      10.799  13.154  13.003  1.00  0.00     0.180 A 
ATOM     11  O   UNL     1       9.756  13.871  13.412  1.00  0.00    -0.452 OA
ENDROOT
BRANCH   1  12
ATOM     12  O   UNL     1       6.035  16.779  12.819  1.00  0.00    -0.508 OA
ATOM     13  H   UNL     1       6.188  17.552  13.456  1.00  0.00     0.293 HD
ENDBRANCH   1  12
BRANCH   5  14
ATOM     14  O   UNL     1       8.643  15.415   8.975  1.00  0.00    -0.507 OA
ATOM     15  H   UNL     1       9.573  15.534   8.591  1.00  0.00     0.293 HD
ENDBRANCH   5  14
BRANCH  10  16
ATOM     16  C   UNL     1      11.582  12.419  14.022  1.00  0.00     0.025 A 
ATOM     17  C   UNL     1      12.464  13.085  14.889  1.00  0.00     0.016 A 
ATOM     18  C   UNL     1      11.399  11.035  14.170  1.00  0.00     0.062 A 
ATOM     19  C   UNL     1      13.173  12.373  15.857  1.00  0.00     0.051 A 
ATOM     20  C   UNL     1      12.106  10.313  15.140  1.00  0.00     0.158 A 
ATOM     21  C   UNL     1      13.010  10.991  15.993  1.00  0.00     0.157 A 
BRANCH  20  22
ATOM     22  O   UNL     1      11.882   8.937  15.219  1.00  0.00    -0.504 OA
ATOM     23  H   UNL     1      11.421   8.398  14.501  1.00  0.00     0.293 HD
ENDBRANCH  20  22
BRANCH  21  24
ATOM     24  O   UNL     1      13.751  10.338  16.979  1.00  0.00    -0.504 OA
ATOM     25  H   UNL     1      13.922   9.343  16.991  1.00  0.00     0.293 HD
ENDBRANCH  21  24
ENDBRANCH  10  16
BRANCH   9  26
ATOM     26  O   UNL     1      12.170  12.297  11.184  1.00  0.00    -0.502 OA
ATOM     27  H   UNL     1      12.832  11.866  11.819  1.00  0.00     0.293 HD
ENDBRANCH   9  26
TORSDOF 6
ENDMDL
MODEL 11
REMARK VINA RESULT:    -7.061      4.430      7.451
REMARK INTER + INTRA:          -8.804
REMARK INTER:                  -8.520
REMARK INTRA:                  -0.285
REMARK UNBOUND:                -0.298
REMARK SMILES O=c1c(O)c(-c2ccc(O)c(O)c2)oc2cc(O)cc(O)c12
REMARK SMILES IDX 17 1 16 2 15 3 22 4 20 5 19 6 2 7 1 8 3 9 5 10 14 11 18 12
REMARK SMILES IDX 21 14 6 16 7 17 13 18 8 19 11 20 9 21 12 22 10 24 4 26
REMARK H PARENT 18 13 21 15 12 23 10 25 4 27
REMARK Flexibility Score: inf
ROOT
ATOM      1  C   UNL     1      14.499  10.707  17.939  1.00  0.00     0.123 A 
ATOM      2  C   UNL     1      13.523  11.695  17.809  1.00  0.00     0.094 A 
ATOM      3  C   UNL     1      12.169  11.351  17.775  1.00  0.00     0.146 A 
ATOM      4  C   UNL     1      11.774   9.996  17.869  1.00  0.00     0.111 A 
ATOM      5  C   UNL     1      12.769   8.996  18.001  1.00  0.00     0.134 A 
ATOM      6  C   UNL     1      14.123   9.362  18.035  1.00  0.00     0.093 A 
ATOM      7  C   UNL     1      10.395   9.709  17.818  1.00  0.00     0.238 A 
ATOM      8  O   UNL     1       9.978   8.521  17.885  1.00  0.00    -0.285 OA
ATOM      9  C   UNL     1       9.473  10.758  17.683  1.00  0.00     0.208 A 
ATOM     10  C   UNL     1       9.951  12.081  17.620  1.00  0.00     0.180 A 
ATOM     11  O   UNL     1      11.260  12.313  17.656  1.00  0.00    -0.452 OA
ENDROOT
BRANCH   1  12
ATOM     12  O   UNL     1      15.844  11.070  17.972  1.00  0.00    -0.508 OA
ATOM     13  H   UNL     1      16.401  10.969  18.813  1.00  0.00     0.293 HD
ENDBRANCH   1  12
BRANCH   5  14
ATOM     14  O   UNL     1      12.423   7.648  18.098  1.00  0.00    -0.507 OA
ATOM     15  H   UNL     1      12.494   7.021  17.304  1.00  0.00     0.293 HD
ENDBRANCH   5  14
BRANCH  10  16
ATOM     16  C   UNL     1       9.041  13.242  17.496  1.00  0.00     0.025 A 
ATOM     17  C   UNL     1       8.446  13.578  16.269  1.00  0.00     0.016 A 
ATOM     18  C   UNL     1       8.715  13.990  18.638  1.00  0.00     0.062 A 
ATOM     19  C   UNL     1       7.573  14.663  16.182  1.00  0.00     0.051 A 
ATOM     20  C   UNL     1       7.839  15.081  18.560  1.00  0.00     0.158 A 
ATOM     21  C   UNL     1       7.263  15.425  17.314  1.00  0.00     0.157 A 
BRANCH  20  22
ATOM     22  O   UNL     1       7.572  15.787  19.735  1.00  0.00    -0.504 OA
ATOM     23  H   UNL     1       6.787  15.597  20.341  1.00  0.00     0.293 HD
ENDBRANCH  20  22
BRANCH  21  24
ATOM     24  O   UNL     1       6.385  16.499  17.159  1.00  0.00    -0.504 OA
ATOM     25  H   UNL     1       5.724  16.795  17.863  1.00  0.00     0.293 HD
ENDBRANCH  21  24
ENDBRANCH  10  16
BRANCH   9  26
ATOM     26  O   UNL     1       8.104  10.498  17.580  1.00  0.00    -0.502 OA
ATOM     27  H   UNL     1       7.510  10.384  18.393  1.00  0.00     0.293 HD
ENDBRANCH   9  26
TORSDOF 6
ENDMDL
MODEL 12
REMARK VINA RESULT:    -7.047      2.032      6.897
REMARK INTER + INTRA:          -8.787
REMARK INTER:                  -8.493
REMARK INTRA:                  -0.294
REMARK UNBOUND:                -0.298
REMARK SMILES O=c1c(O)c(-c2ccc(O)c(O)c2)oc2cc(O)cc(O)c12
REMARK SMILES IDX 17 1 16 2 15 3 22 4 20 5 19 6 2 7 1 8 3 9 5 10 14 11 18 12
REMARK SMILES IDX 21 14 6 16 7 17 13 18 8 19 11 20 9 21 12 22 10 24 4 26
REMARK H PARENT 18 13 21 15 12 23 10 25 4 27
REMARK Flexibility Score: inf
ROOT
ATOM      1  C   UNL     1      15.420  12.711  18.731  1.00  0.00     0.123 A 
ATOM      2  C   UNL     1      14.673  13.182  17.651  1.00  0.00     0.094 A 
ATOM      3  C   UNL     1      13.941  12.295  16.857  1.00  0.00     0.146 A 
ATOM      4  C   UNL     1      13.952  10.909  17.140  1.00  0.00     0.111 A 
ATOM      5  C   UNL     1      14.710  10.435  18.238  1.00  0.00     0.134 A 
ATOM      6  C   UNL     1      15.437  11.342  19.024  1.00  0.00     0.093 A 
ATOM      7  C   UNL     1      13.203  10.062  16.298  1.00  0.00     0.238 A 
ATOM      8  O   UNL     1      13.179   8.816  16.488  1.00  0.00    -0.285 OA
ATOM      9  C   UNL     1      12.480  10.611  15.227  1.00  0.00     0.208 A 
ATOM     10  C   UNL     1      12.506  12.005  15.032  1.00  0.00     0.180 A 
ATOM     11  O   UNL     1      13.236  12.772  15.837  1.00  0.00    -0.452 OA
ENDROOT
BRANCH   1  12
ATOM     12  O   UNL     1      16.142  13.612  19.511  1.00  0.00    -0.508 OA
ATOM     13  H   UNL     1      15.822  13.893  20.431  1.00  0.00     0.293 HD
ENDBRANCH   1  12
BRANCH   5  14
ATOM     14  O   UNL     1      14.747   9.077  18.552  1.00  0.00    -0.507 OA
ATOM     15  H   UNL     1      15.572   8.644  18.952  1.00  0.00     0.293 HD
ENDBRANCH   5  14
BRANCH  10  16
ATOM     16  C   UNL     1      11.755  12.660  13.936  1.00  0.00     0.025 A 
ATOM     17  C   UNL     1      10.541  13.324  14.176  1.00  0.00     0.016 A 
ATOM     18  C   UNL     1      12.293  12.673  12.640  1.00  0.00     0.062 A 
ATOM     19  C   UNL     1       9.864  13.955  13.132  1.00  0.00     0.051 A 
ATOM     20  C   UNL     1      11.620  13.303  11.586  1.00  0.00     0.158 A 
ATOM     21  C   UNL     1      10.386  13.950  11.834  1.00  0.00     0.157 A 
BRANCH  20  22
ATOM     22  O   UNL     1      12.210  13.263  10.320  1.00  0.00    -0.504 OA
ATOM     23  H   UNL     1      11.701  13.392   9.457  1.00  0.00     0.293 HD
ENDBRANCH  20  22
BRANCH  21  24
ATOM     24  O   UNL     1       9.658  14.596  10.834  1.00  0.00    -0.504 OA
ATOM     25  H   UNL     1       8.738  14.310  10.531  1.00  0.00     0.293 HD
ENDBRANCH  21  24
ENDBRANCH  10  16
BRANCH   9  26
ATOM     26  O   UNL     1      11.770   9.789  14.348  1.00  0.00    -0.502 OA
ATOM     27  H   UNL     1      10.798   9.544  14.499  1.00  0.00     0.293 HD
ENDBRANCH   9  26
TORSDOF 6
ENDMDL
MODEL 13
REMARK VINA RESULT:    -6.914      2.747      7.082
REMARK INTER + INTRA:          -8.627
REMARK INTER:                  -8.300
REMARK INTRA:                  -0.327
REMARK UNBOUND:                -0.298
REMARK SMILES O=c1c(O)c(-c2ccc(O)c(O)c2)oc2cc(O)cc(O)c12
REMARK SMILES IDX 17 1 16 2 15 3 22 4 20 5 19 6 2 7 1 8 3 9 5 10 14 11 18 12
REMARK SMILES IDX 21 14 6 16 7 17 13 18 8 19 11 20 9 21 12 22 10 24 4 26
REMARK H PARENT 18 13 21 15 12 23 10 25 4 27
REMARK Flexibility Score: inf
ROOT
ATOM      1  C   UNL     1       8.991  11.299  19.404  1.00  0.00     0.123 A 
ATOM      2  C   UNL     1       9.417  12.004  18.278  1.00  0.00     0.094 A 
ATOM      3  C   UNL     1      10.165  11.365  17.285  1.00  0.00     0.146 A 
ATOM      4  C   UNL     1      10.501   9.996  17.414  1.00  0.00     0.111 A 
ATOM      5  C   UNL     1      10.066   9.285  18.558  1.00  0.00     0.134 A 
ATOM      6  C   UNL     1       9.315   9.944  19.543  1.00  0.00     0.093 A 
ATOM      7  C   UNL     1      11.266   9.409  16.386  1.00  0.00     0.238 A 
ATOM      8  O   UNL     1      11.609   8.197  16.445  1.00  0.00    -0.285 OA
ATOM      9  C   UNL     1      11.661  10.185  15.285  1.00  0.00     0.208 A 
ATOM     10  C   UNL     1      11.262  11.535  15.226  1.00  0.00     0.180 A 
ATOM     11  O   UNL     1      10.553  12.059  16.221  1.00  0.00    -0.452 OA
ENDROOT
BRANCH   1  12
ATOM     12  O   UNL     1       8.245  11.953  20.382  1.00  0.00    -0.508 OA
ATOM     13  H   UNL     1       8.459  11.854  21.368  1.00  0.00     0.293 HD
ENDBRANCH   1  12
BRANCH   5  14
ATOM     14  O   UNL     1      10.374   7.934  18.724  1.00  0.00    -0.507 OA
ATOM     15  H   UNL     1      10.904   7.603  19.521  1.00  0.00     0.293 HD
ENDBRANCH   5  14
BRANCH  10  16
ATOM     16  C   UNL     1      11.623  12.413  14.089  1.00  0.00     0.025 A 
ATOM     17  C   UNL     1      10.859  12.436  12.911  1.00  0.00     0.016 A 
ATOM     18  C   UNL     1      12.716  13.285  14.209  1.00  0.00     0.062 A 
ATOM     19  C   UNL     1      11.205  13.289  11.862  1.00  0.00     0.051 A 
ATOM     20  C   UNL     1      13.070  14.145  13.161  1.00  0.00     0.158 A 
ATOM     21  C   UNL     1      12.307  14.144  11.970  1.00  0.00     0.157 A 
BRANCH  20  22
ATOM     22  O   UNL     1      14.177  14.976  13.347  1.00  0.00    -0.504 OA
ATOM     23  H   UNL     1      14.894  14.814  14.040  1.00  0.00     0.293 HD
ENDBRANCH  20  22
BRANCH  21  24
ATOM     24  O   UNL     1      12.601  14.970  10.884  1.00  0.00    -0.504 OA
ATOM     25  H   UNL     1      12.414  14.727   9.922  1.00  0.00     0.293 HD
ENDBRANCH  21  24
ENDBRANCH  10  16
BRANCH   9  26
ATOM     26  O   UNL     1      12.461   9.642  14.277  1.00  0.00    -0.502 OA
ATOM     27  H   UNL     1      12.696   8.656  14.243  1.00  0.00     0.293 HD
ENDBRANCH   9  26
TORSDOF 6
ENDMDL
MODEL 14
REMARK VINA RESULT:    -6.912      2.100      7.485
REMARK INTER + INTRA:          -8.624
REMARK INTER:                  -8.328
REMARK INTRA:                  -0.296
REMARK UNBOUND:                -0.298
REMARK SMILES O=c1c(O)c(-c2ccc(O)c(O)c2)oc2cc(O)cc(O)c12
REMARK SMILES IDX 17 1 16 2 15 3 22 4 20 5 19 6 2 7 1 8 3 9 5 10 14 11 18 12
REMARK SMILES IDX 21 14 6 16 7 17 13 18 8 19 11 20 9 21 12 22 10 24 4 26
REMARK H PARENT 18 13 21 15 12 23 10 25 4 27
REMARK Flexibility Score: inf
ROOT
ATOM      1  C   UNL     1      14.002  10.537  20.537  1.00  0.00     0.123 A 
ATOM      2  C   UNL     1      13.525  11.341  19.501  1.00  0.00     0.094 A 
ATOM      3  C   UNL     1      13.188  10.778  18.267  1.00  0.00     0.146 A 
ATOM      4  C   UNL     1      13.329   9.386  18.055  1.00  0.00     0.111 A 
ATOM      5  C   UNL     1      13.812   8.574  19.109  1.00  0.00     0.134 A 
ATOM      6  C   UNL     1      14.144   9.158  20.341  1.00  0.00     0.093 A 
ATOM      7  C   UNL     1      12.983   8.878  16.787  1.00  0.00     0.238 A 
ATOM      8  O   UNL     1      13.096   7.648  16.529  1.00  0.00    -0.285 OA
ATOM      9  C   UNL     1      12.514   9.751  15.793  1.00  0.00     0.208 A 
ATOM     10  C   UNL     1      12.382  11.119  16.097  1.00  0.00     0.180 A 
ATOM     11  O   UNL     1      12.732  11.567  17.300  1.00  0.00    -0.452 OA
ENDROOT
BRANCH   1  12
ATOM     12  O   UNL     1      14.332  11.117  21.760  1.00  0.00    -0.508 OA
ATOM     13  H   UNL     1      13.705  11.071  22.556  1.00  0.00     0.293 HD
ENDBRANCH   1  12
BRANCH   5  14
ATOM     14  O   UNL     1      13.965   7.198  18.943  1.00  0.00    -0.507 OA
ATOM     15  H   UNL     1      14.250   6.597  19.708  1.00  0.00     0.293 HD
ENDBRANCH   5  14
BRANCH  10  16
ATOM     16  C   UNL     1      11.877  12.100  15.109  1.00  0.00     0.025 A 
ATOM     17  C   UNL     1      10.556  12.573  15.156  1.00  0.00     0.016 A 
ATOM     18  C   UNL     1      12.750  12.616  14.139  1.00  0.00     0.062 A 
ATOM     19  C   UNL     1      10.110  13.515  14.228  1.00  0.00     0.051 A 
ATOM     20  C   UNL     1      12.312  13.562  13.203  1.00  0.00     0.158 A 
ATOM     21  C   UNL     1      10.971  14.015  13.246  1.00  0.00     0.157 A 
BRANCH  20  22
ATOM     22  O   UNL     1      13.233  14.020  12.259  1.00  0.00    -0.504 OA
ATOM     23  H   UNL     1      13.037  14.747  11.586  1.00  0.00     0.293 HD
ENDBRANCH  20  22
BRANCH  21  24
ATOM     24  O   UNL     1      10.463  14.952  12.346  1.00  0.00    -0.504 OA
ATOM     25  H   UNL     1      10.157  15.879  12.607  1.00  0.00     0.293 HD
ENDBRANCH  21  24
ENDBRANCH  10  16
BRANCH   9  26
ATOM     26  O   UNL     1      12.212   9.281  14.513  1.00  0.00    -0.502 OA
ATOM     27  H   UNL     1      11.258   9.158  14.190  1.00  0.00     0.293 HD
ENDBRANCH   9  26
TORSDOF 6
ENDMDL
MODEL 15
REMARK VINA RESULT:    -6.891      5.383      7.996
REMARK INTER + INTRA:          -8.600
REMARK INTER:                  -8.311
REMARK INTRA:                  -0.289
REMARK UNBOUND:                -0.298
REMARK SMILES O=c1c(O)c(-c2ccc(O)c(O)c2)oc2cc(O)cc(O)c12
REMARK SMILES IDX 17 1 16 2 15 3 22 4 20 5 19 6 2 7 1 8 3 9 5 10 14 11 18 12
REMARK SMILES IDX 21 14 6 16 7 17 13 18 8 19 11 20 9 21 12 22 10 24 4 26
REMARK H PARENT 18 13 21 15 12 23 10 25 4 27
REMARK Flexibility Score: inf
ROOT
ATOM      1  C   UNL     1      12.844   8.019  17.296  1.00  0.00     0.123 A 
ATOM      2  C   UNL     1      13.624   9.125  16.953  1.00  0.00     0.094 A 
ATOM      3  C   UNL     1      14.139   9.961  17.947  1.00  0.00     0.146 A 
ATOM      4  C   UNL     1      13.873   9.698  19.311  1.00  0.00     0.111 A 
ATOM      5  C   UNL     1      13.081   8.574  19.654  1.00  0.00     0.134 A 
ATOM      6  C   UNL     1      12.574   7.746  18.642  1.00  0.00     0.093 A 
ATOM      7  C   UNL     1      14.410  10.582  20.268  1.00  0.00     0.238 A 
ATOM      8  O   UNL     1      14.201  10.410  21.499  1.00  0.00    -0.285 OA
ATOM      9  C   UNL     1      15.182  11.676  19.845  1.00  0.00     0.208 A 
ATOM     10  C   UNL     1      15.418  11.850  18.468  1.00  0.00     0.180 A 
ATOM     11  O   UNL     1      14.882  11.004  17.593  1.00  0.00    -0.452 OA
ENDROOT
BRANCH   1  12
ATOM     12  O   UNL     1      12.340   7.197  16.290  1.00  0.00    -0.508 OA
ATOM     13  H   UNL     1      11.873   6.323  16.504  1.00  0.00     0.293 HD
ENDBRANCH   1  12
BRANCH   5  14
ATOM     14  O   UNL     1      12.796   8.277  20.987  1.00  0.00    -0.507 OA
ATOM     15  H   UNL     1      11.864   8.388  21.370  1.00  0.00     0.293 HD
ENDBRANCH   5  14
BRANCH  10  16
ATOM     16  C   UNL     1      16.237  12.968  17.945  1.00  0.00     0.025 A 
ATOM     17  C   UNL     1      15.644  14.132  17.430  1.00  0.00     0.016 A 
ATOM     18  C   UNL     1      17.636  12.892  18.018  1.00  0.00     0.062 A 
ATOM     19  C   UNL     1      16.437  15.181  16.965  1.00  0.00     0.051 A 
ATOM     20  C   UNL     1      18.440  13.941  17.553  1.00  0.00     0.158 A 
ATOM     21  C   UNL     1      17.833  15.100  17.015  1.00  0.00     0.157 A 
BRANCH  20  22
ATOM     22  O   UNL     1      19.826  13.789  17.645  1.00  0.00    -0.504 OA
ATOM     23  H   UNL     1      20.392  14.209  18.368  1.00  0.00     0.293 HD
ENDBRANCH  20  22
BRANCH  21  24
ATOM     24  O   UNL     1      18.568  16.183  16.531  1.00  0.00    -0.504 OA
ATOM     25  H   UNL     1      18.697  16.385  15.550  1.00  0.00     0.293 HD
ENDBRANCH  21  24
ENDBRANCH  10  16
BRANCH   9  26
ATOM     26  O   UNL     1      15.685  12.596  20.768  1.00  0.00    -0.502 OA
ATOM     27  H   UNL     1      15.699  12.412  21.765  1.00  0.00     0.293 HD
ENDBRANCH   9  26
TORSDOF 6
ENDMDL
