MODEL 1
REMARK VINA RESULT:    -7.852      0.000      0.000
REMARK INTER + INTRA:         -10.147
REMARK INTER:                  -9.688
REMARK INTRA:                  -0.460
REMARK UNBOUND:                -0.460
REMARK SMILES C[C@]12CCC(=O)C=C1CC[C@@H]1[C@@H]2[C@@H](O)C[C@]2(C=O)[C@@H](C(=O)CO)CC[C@@H]12
REMARK SMILES IDX 20 1 21 2 19 3 24 4 16 5 25 6 26 7 15 8 11 9 13 10 10 11
REMARK SMILES IDX 12 12 9 13 2 14 8 15 3 16 1 17 7 18 4 19 5 20 6 21 17 22
REMARK SMILES IDX 18 23 14 24 22 26 23 27
REMARK H PARENT 14 25 23 28
REMARK Flexibility Score: inf
ROOT
ATOM      1  C   UNL     1      26.251  15.279  30.758  1.00  0.00     0.162 C 
ATOM      2  O   UNL     1      26.871  14.323  31.203  1.00  0.00    -0.297 OA
ENDROOT
BRANCH   1   3
ATOM      3  C   UNL     1      25.928  16.432  31.698  1.00  0.00     0.072 C 
ATOM      4  C   UNL     1      26.101  16.150  33.214  1.00  0.00     0.013 C 
ATOM      5  C   UNL     1      26.762  17.711  31.473  1.00  0.00     0.041 C 
ATOM      6  C   UNL     1      26.459  17.498  33.869  1.00  0.00     0.006 C 
ATOM      7  C   UNL     1      26.372  18.513  32.730  1.00  0.00     0.007 C 
ATOM      8  C   UNL     1      26.383  18.549  30.225  1.00  0.00     0.047 C 
ATOM      9  C   UNL     1      27.150  19.849  32.824  1.00  0.00    -0.000 C 
ATOM     10  C   UNL     1      27.052  19.956  30.243  1.00  0.00     0.119 C 
ATOM     11  C   UNL     1      26.934  20.600  34.169  1.00  0.00     0.009 C 
ATOM     12  C   UNL     1      26.755  20.710  31.578  1.00  0.00     0.031 C 
ATOM     13  C   UNL     1      26.128  21.900  34.052  1.00  0.00     0.032 C 
ATOM     14  C   UNL     1      27.273  22.192  31.689  1.00  0.00    -0.005 C 
ATOM     15  C   UNL     1      26.645  22.802  32.949  1.00  0.00    -0.060 C 
ATOM     16  C   UNL     1      26.817  23.016  30.446  1.00  0.00     0.020 C 
ATOM     17  C   UNL     1      28.817  22.272  31.820  1.00  0.00     0.016 C 
ATOM     18  C   UNL     1      26.420  24.123  33.047  1.00  0.00     0.047 C 
ATOM     19  C   UNL     1      27.106  24.519  30.585  1.00  0.00     0.081 C 
ATOM     20  C   UNL     1      26.679  25.038  31.926  1.00  0.00     0.155 C 
ATOM     21  O   UNL     1      26.548  26.279  32.096  1.00  0.00    -0.295 OA
BRANCH   5  22
ATOM     22  C   UNL     1      28.251  17.346  31.440  1.00  0.00     0.232 C 
ATOM     23  O   UNL     1      28.811  17.108  30.382  1.00  0.00    -0.303 OA
ENDBRANCH   5  22
BRANCH  10  24
ATOM     24  O   UNL     1      28.436  19.843  30.037  1.00  0.00    -0.393 OA
ATOM     25  H   UNL     1      28.796  19.305  30.789  1.00  0.00     0.210 HD
ENDBRANCH  10  24
ENDBRANCH   1   3
BRANCH   1  26
ATOM     26  C   UNL     1      25.842  15.275  29.304  1.00  0.00     0.231 C 
BRANCH  26  27
ATOM     27  O   UNL     1      26.853  15.807  28.490  1.00  0.00    -0.389 OA
ATOM     28  H   UNL     1      27.667  15.871  29.054  1.00  0.00     0.211 HD
ENDBRANCH  26  27
ENDBRANCH   1  26
TORSDOF 5
ENDMDL
MODEL 2
REMARK VINA RESULT:    -7.718      2.206      3.822
REMARK INTER + INTRA:          -9.982
REMARK INTER:                  -9.470
REMARK INTRA:                  -0.512
REMARK UNBOUND:                -0.460
REMARK SMILES C[C@]12CCC(=O)C=C1CC[C@@H]1[C@@H]2[C@@H](O)C[C@]2(C=O)[C@@H](C(=O)CO)CC[C@@H]12
REMARK SMILES IDX 20 1 21 2 19 3 24 4 16 5 25 6 26 7 15 8 11 9 13 10 10 11
REMARK SMILES IDX 12 12 9 13 2 14 8 15 3 16 1 17 7 18 4 19 5 20 6 21 17 22
REMARK SMILES IDX 18 23 14 24 22 26 23 27
REMARK H PARENT 14 25 23 28
REMARK Flexibility Score: inf
ROOT
ATOM      1  C   UNL     1      29.091  14.551  34.021  1.00  0.00     0.162 C 
ATOM      2  O   UNL     1      29.459  13.446  33.647  1.00  0.00    -0.297 OA
ENDROOT
BRANCH   1   3
ATOM      3  C   UNL     1      29.625  15.776  33.292  1.00  0.00     0.072 C 
ATOM      4  C   UNL     1      30.697  15.512  32.203  1.00  0.00     0.013 C 
ATOM      5  C   UNL     1      28.559  16.612  32.552  1.00  0.00     0.041 C 
ATOM      6  C   UNL     1      30.544  16.635  31.159  1.00  0.00     0.006 C 
ATOM      7  C   UNL     1      29.469  17.554  31.741  1.00  0.00     0.007 C 
ATOM      8  C   UNL     1      27.641  17.478  33.451  1.00  0.00     0.047 C 
ATOM      9  C   UNL     1      28.652  18.477  30.803  1.00  0.00    -0.000 C 
ATOM     10  C   UNL     1      26.815  18.506  32.622  1.00  0.00     0.119 C 
ATOM     11  C   UNL     1      29.534  19.308  29.827  1.00  0.00     0.009 C 
ATOM     12  C   UNL     1      27.739  19.371  31.706  1.00  0.00     0.031 C 
ATOM     13  C   UNL     1      29.560  20.814  30.116  1.00  0.00     0.032 C 
ATOM     14  C   UNL     1      27.051  20.533  30.895  1.00  0.00    -0.005 C 
ATOM     15  C   UNL     1      28.170  21.392  30.293  1.00  0.00    -0.060 C 
ATOM     16  C   UNL     1      26.189  21.417  31.847  1.00  0.00     0.020 C 
ATOM     17  C   UNL     1      26.161  20.003  29.741  1.00  0.00     0.016 C 
ATOM     18  C   UNL     1      27.984  22.698  30.035  1.00  0.00     0.047 C 
ATOM     19  C   UNL     1      25.659  22.688  31.166  1.00  0.00     0.081 C 
ATOM     20  C   UNL     1      26.738  23.390  30.396  1.00  0.00     0.155 C 
ATOM     21  O   UNL     1      26.569  24.587  30.045  1.00  0.00    -0.295 OA
BRANCH   5  22
ATOM     22  C   UNL     1      27.718  15.688  31.663  1.00  0.00     0.232 C 
ATOM     23  O   UNL     1      26.653  15.242  32.057  1.00  0.00    -0.303 OA
ENDBRANCH   5  22
BRANCH  10  24
ATOM     24  O   UNL     1      25.839  17.849  31.857  1.00  0.00    -0.393 OA
ATOM     25  H   UNL     1      25.193  17.449  32.496  1.00  0.00     0.210 HD
ENDBRANCH  10  24
ENDBRANCH   1   3
BRANCH   1  26
ATOM     26  C   UNL     1      28.123  14.649  35.176  1.00  0.00     0.231 C 
BRANCH  26  27
ATOM     27  O   UNL     1      26.846  14.196  34.811  1.00  0.00    -0.389 OA
ATOM     28  H   UNL     1      26.960  13.673  33.974  1.00  0.00     0.211 HD
ENDBRANCH  26  27
ENDBRANCH   1  26
TORSDOF 5
ENDMDL
MODEL 3
REMARK VINA RESULT:    -7.511      2.106      6.997
REMARK INTER + INTRA:          -9.727
REMARK INTER:                  -9.657
REMARK INTRA:                  -0.069
REMARK UNBOUND:                -0.460
REMARK SMILES C[C@]12CCC(=O)C=C1CC[C@@H]1[C@@H]2[C@@H](O)C[C@]2(C=O)[C@@H](C(=O)CO)CC[C@@H]12
REMARK SMILES IDX 20 1 21 2 19 3 24 4 16 5 25 6 26 7 15 8 11 9 13 10 10 11
REMARK SMILES IDX 12 12 9 13 2 14 8 15 3 16 1 17 7 18 4 19 5 20 6 21 17 22
REMARK SMILES IDX 18 23 14 24 22 26 23 27
REMARK H PARENT 14 25 23 28
REMARK Flexibility Score: inf
ROOT
ATOM      1  C   UNL     1      27.478  23.918  31.431  1.00  0.00     0.162 C 
ATOM      2  O   UNL     1      28.462  24.546  31.065  1.00  0.00    -0.297 OA
ENDROOT
BRANCH   1   3
ATOM      3  C   UNL     1      27.691  22.667  32.272  1.00  0.00     0.072 C 
ATOM      4  C   UNL     1      26.590  22.348  33.316  1.00  0.00     0.013 C 
ATOM      5  C   UNL     1      27.816  21.354  31.470  1.00  0.00     0.041 C 
ATOM      6  C   UNL     1      26.579  20.816  33.484  1.00  0.00     0.006 C 
ATOM      7  C   UNL     1      27.738  20.328  32.616  1.00  0.00     0.007 C 
ATOM      8  C   UNL     1      29.159  21.148  30.723  1.00  0.00     0.047 C 
ATOM      9  C   UNL     1      27.748  18.872  32.087  1.00  0.00    -0.000 C 
ATOM     10  C   UNL     1      29.319  19.689  30.203  1.00  0.00     0.119 C 
ATOM     11  C   UNL     1      27.477  17.809  33.190  1.00  0.00     0.009 C 
ATOM     12  C   UNL     1      29.111  18.650  31.352  1.00  0.00     0.031 C 
ATOM     13  C   UNL     1      28.686  16.934  33.543  1.00  0.00     0.032 C 
ATOM     14  C   UNL     1      29.358  17.137  30.996  1.00  0.00    -0.005 C 
ATOM     15  C   UNL     1      29.356  16.352  32.314  1.00  0.00    -0.060 C 
ATOM     16  C   UNL     1      30.745  16.964  30.304  1.00  0.00     0.020 C 
ATOM     17  C   UNL     1      28.251  16.557  30.076  1.00  0.00     0.016 C 
ATOM     18  C   UNL     1      30.052  15.209  32.447  1.00  0.00     0.047 C 
ATOM     19  C   UNL     1      31.143  15.492  30.119  1.00  0.00     0.081 C 
ATOM     20  C   UNL     1      30.917  14.700  31.373  1.00  0.00     0.155 C 
ATOM     21  O   UNL     1      31.469  13.576  31.503  1.00  0.00    -0.295 OA
BRANCH   5  22
ATOM     22  C   UNL     1      26.640  21.243  30.492  1.00  0.00     0.232 C 
ATOM     23  O   UNL     1      26.760  21.594  29.329  1.00  0.00    -0.303 OA
ENDBRANCH   5  22
BRANCH  10  24
ATOM     24  O   UNL     1      28.427  19.443  29.149  1.00  0.00    -0.393 OA
ATOM     25  H   UNL     1      27.523  19.696  29.471  1.00  0.00     0.210 HD
ENDBRANCH  10  24
ENDBRANCH   1   3
BRANCH   1  26
ATOM     26  C   UNL     1      26.105  24.413  31.041  1.00  0.00     0.231 C 
BRANCH  26  27
ATOM     27  O   UNL     1      26.146  25.754  30.628  1.00  0.00    -0.389 OA
ATOM     28  H   UNL     1      25.376  25.885  30.015  1.00  0.00     0.211 HD
ENDBRANCH  26  27
ENDBRANCH   1  26
TORSDOF 5
ENDMDL
MODEL 4
REMARK VINA RESULT:    -7.399      2.247      3.900
REMARK INTER + INTRA:          -9.589
REMARK INTER:                  -9.347
REMARK INTRA:                  -0.242
REMARK UNBOUND:                -0.460
REMARK SMILES C[C@]12CCC(=O)C=C1CC[C@@H]1[C@@H]2[C@@H](O)C[C@]2(C=O)[C@@H](C(=O)CO)CC[C@@H]12
REMARK SMILES IDX 20 1 21 2 19 3 24 4 16 5 25 6 26 7 15 8 11 9 13 10 10 11
REMARK SMILES IDX 12 12 9 13 2 14 8 15 3 16 1 17 7 18 4 19 5 20 6 21 17 22
REMARK SMILES IDX 18 23 14 24 22 26 23 27
REMARK H PARENT 14 25 23 28
REMARK Flexibility Score: inf
ROOT
ATOM      1  C   UNL     1      30.658  15.350  31.142  1.00  0.00     0.162 C 
ATOM      2  O   UNL     1      30.637  14.423  30.345  1.00  0.00    -0.297 OA
ENDROOT
BRANCH   1   3
ATOM      3  C   UNL     1      30.704  16.771  30.597  1.00  0.00     0.072 C 
ATOM      4  C   UNL     1      31.000  16.915  29.082  1.00  0.00     0.013 C 
ATOM      5  C   UNL     1      29.406  17.584  30.788  1.00  0.00     0.041 C 
ATOM      6  C   UNL     1      30.298  18.206  28.621  1.00  0.00     0.006 C 
ATOM      7  C   UNL     1      29.720  18.805  29.903  1.00  0.00     0.007 C 
ATOM      8  C   UNL     1      29.133  18.086  32.229  1.00  0.00     0.047 C 
ATOM      9  C   UNL     1      28.522  19.784  29.826  1.00  0.00    -0.000 C 
ATOM     10  C   UNL     1      27.987  19.140  32.272  1.00  0.00     0.119 C 
ATOM     11  C   UNL     1      28.721  20.931  28.794  1.00  0.00     0.009 C 
ATOM     12  C   UNL     1      28.255  20.313  31.275  1.00  0.00     0.031 C 
ATOM     13  C   UNL     1      28.901  22.322  29.413  1.00  0.00     0.032 C 
ATOM     14  C   UNL     1      27.235  21.511  31.295  1.00  0.00    -0.005 C 
ATOM     15  C   UNL     1      27.837  22.637  30.445  1.00  0.00    -0.060 C 
ATOM     16  C   UNL     1      27.037  22.026  32.754  1.00  0.00     0.020 C 
ATOM     17  C   UNL     1      25.856  21.126  30.696  1.00  0.00     0.016 C 
ATOM     18  C   UNL     1      27.540  23.926  30.683  1.00  0.00     0.047 C 
ATOM     19  C   UNL     1      26.219  23.326  32.824  1.00  0.00     0.081 C 
ATOM     20  C   UNL     1      26.697  24.330  31.818  1.00  0.00     0.155 C 
ATOM     21  O   UNL     1      26.363  25.538  31.943  1.00  0.00    -0.295 OA
BRANCH   5  22
ATOM     22  C   UNL     1      28.215  16.768  30.273  1.00  0.00     0.232 C 
ATOM     23  O   UNL     1      27.634  15.982  31.004  1.00  0.00    -0.303 OA
ENDBRANCH   5  22
BRANCH  10  24
ATOM     24  O   UNL     1      26.752  18.533  31.999  1.00  0.00    -0.393 OA
ATOM     25  H   UNL     1      26.895  17.553  32.051  1.00  0.00     0.210 HD
ENDBRANCH  10  24
ENDBRANCH   1   3
BRANCH   1  26
ATOM     26  C   UNL     1      30.632  15.046  32.622  1.00  0.00     0.231 C 
BRANCH  26  27
ATOM     27  O   UNL     1      31.469  15.916  33.335  1.00  0.00    -0.389 OA
ATOM     28  H   UNL     1      31.054  16.817  33.282  1.00  0.00     0.211 HD
ENDBRANCH  26  27
ENDBRANCH   1  26
TORSDOF 5
ENDMDL
MODEL 5
REMARK VINA RESULT:    -7.255     15.299     18.580
REMARK INTER + INTRA:          -9.411
REMARK INTER:                  -8.867
REMARK INTRA:                  -0.544
REMARK UNBOUND:                -0.460
REMARK SMILES C[C@]12CCC(=O)C=C1CC[C@@H]1[C@@H]2[C@@H](O)C[C@]2(C=O)[C@@H](C(=O)CO)CC[C@@H]12
REMARK SMILES IDX 20 1 21 2 19 3 24 4 16 5 25 6 26 7 15 8 11 9 13 10 10 11
REMARK SMILES IDX 12 12 9 13 2 14 8 15 3 16 1 17 7 18 4 19 5 20 6 21 17 22
REMARK SMILES IDX 18 23 14 24 22 26 23 27
REMARK H PARENT 14 25 23 28
REMARK Flexibility Score: inf
ROOT
ATOM      1  C   UNL     1      10.941  28.510  44.051  1.00  0.00     0.162 C 
ATOM      2  O   UNL     1       9.789  28.461  43.644  1.00  0.00    -0.297 OA
ENDROOT
BRANCH   1   3
ATOM      3  C   UNL     1      11.912  27.426  43.603  1.00  0.00     0.072 C 
ATOM      4  C   UNL     1      11.284  26.181  42.924  1.00  0.00     0.013 C 
ATOM      5  C   UNL     1      12.982  27.886  42.590  1.00  0.00     0.041 C 
ATOM      6  C   UNL     1      12.342  25.638  41.945  1.00  0.00     0.006 C 
ATOM      7  C   UNL     1      13.567  26.522  42.177  1.00  0.00     0.007 C 
ATOM      8  C   UNL     1      14.129  28.752  43.170  1.00  0.00     0.047 C 
ATOM      9  C   UNL     1      14.636  26.667  41.065  1.00  0.00    -0.000 C 
ATOM     10  C   UNL     1      15.306  28.911  42.162  1.00  0.00     0.119 C 
ATOM     11  C   UNL     1      15.115  25.307  40.482  1.00  0.00     0.009 C 
ATOM     12  C   UNL     1      15.809  27.522  41.652  1.00  0.00     0.031 C 
ATOM     13  C   UNL     1      16.560  24.935  40.835  1.00  0.00     0.032 C 
ATOM     14  C   UNL     1      17.074  27.524  40.715  1.00  0.00    -0.005 C 
ATOM     15  C   UNL     1      17.530  26.067  40.564  1.00  0.00    -0.060 C 
ATOM     16  C   UNL     1      18.224  28.352  41.364  1.00  0.00     0.020 C 
ATOM     17  C   UNL     1      16.765  28.091  39.304  1.00  0.00     0.016 C 
ATOM     18  C   UNL     1      18.817  25.761  40.322  1.00  0.00     0.047 C 
ATOM     19  C   UNL     1      19.556  28.223  40.607  1.00  0.00     0.081 C 
ATOM     20  C   UNL     1      19.864  26.793  40.277  1.00  0.00     0.155 C 
ATOM     21  O   UNL     1      21.036  26.472  39.948  1.00  0.00    -0.295 OA
BRANCH   5  22
ATOM     22  C   UNL     1      12.298  28.615  41.427  1.00  0.00     0.232 C 
ATOM     23  O   UNL     1      12.140  29.825  41.455  1.00  0.00    -0.303 OA
ENDBRANCH   5  22
BRANCH  10  24
ATOM     24  O   UNL     1      14.924  29.723  41.084  1.00  0.00    -0.393 OA
ATOM     25  H   UNL     1      14.088  30.185  41.354  1.00  0.00     0.210 HD
ENDBRANCH  10  24
ENDBRANCH   1   3
BRANCH   1  26
ATOM     26  C   UNL     1      11.349  29.640  44.967  1.00  0.00     0.231 C 
BRANCH  26  27
ATOM     27  O   UNL     1      11.528  30.835  44.253  1.00  0.00    -0.389 OA
ATOM     28  H   UNL     1      11.511  30.595  43.289  1.00  0.00     0.211 HD
ENDBRANCH  26  27
ENDBRANCH   1  26
TORSDOF 5
ENDMDL
MODEL 6
REMARK VINA RESULT:    -6.746     16.544     17.747
REMARK INTER + INTRA:          -8.783
REMARK INTER:                  -8.307
REMARK INTRA:                  -0.476
REMARK UNBOUND:                -0.460
REMARK SMILES C[C@]12CCC(=O)C=C1CC[C@@H]1[C@@H]2[C@@H](O)C[C@]2(C=O)[C@@H](C(=O)CO)CC[C@@H]12
REMARK SMILES IDX 20 1 21 2 19 3 24 4 16 5 25 6 26 7 15 8 11 9 13 10 10 11
REMARK SMILES IDX 12 12 9 13 2 14 8 15 3 16 1 17 7 18 4 19 5 20 6 21 17 22
REMARK SMILES IDX 18 23 14 24 22 26 23 27
REMARK H PARENT 14 25 23 28
REMARK Flexibility Score: inf
ROOT
ATOM      1  C   UNL     1      13.743  18.159  39.253  1.00  0.00     0.162 C 
ATOM      2  O   UNL     1      13.710  17.968  40.460  1.00  0.00    -0.297 OA
ENDROOT
BRANCH   1   3
ATOM      3  C   UNL     1      12.686  17.489  38.385  1.00  0.00     0.072 C 
ATOM      4  C   UNL     1      11.693  16.551  39.118  1.00  0.00     0.013 C 
ATOM      5  C   UNL     1      11.764  18.458  37.616  1.00  0.00     0.041 C 
ATOM      6  C   UNL     1      10.378  16.596  38.316  1.00  0.00     0.006 C 
ATOM      7  C   UNL     1      10.700  17.469  37.104  1.00  0.00     0.007 C 
ATOM      8  C   UNL     1      12.401  19.164  36.392  1.00  0.00     0.047 C 
ATOM      9  C   UNL     1       9.557  18.193  36.348  1.00  0.00    -0.000 C 
ATOM     10  C   UNL     1      11.334  19.872  35.506  1.00  0.00     0.119 C 
ATOM     11  C   UNL     1       8.367  17.260  35.981  1.00  0.00     0.009 C 
ATOM     12  C   UNL     1      10.191  18.889  35.097  1.00  0.00     0.031 C 
ATOM     13  C   UNL     1       8.218  16.977  34.481  1.00  0.00     0.032 C 
ATOM     14  C   UNL     1       9.100  19.439  34.104  1.00  0.00    -0.005 C 
ATOM     15  C   UNL     1       8.254  18.242  33.648  1.00  0.00    -0.060 C 
ATOM     16  C   UNL     1       9.781  20.083  32.858  1.00  0.00     0.020 C 
ATOM     17  C   UNL     1       8.162  20.479  34.771  1.00  0.00     0.016 C 
ATOM     18  C   UNL     1       7.642  18.237  32.451  1.00  0.00     0.047 C 
ATOM     19  C   UNL     1       8.781  20.451  31.752  1.00  0.00     0.081 C 
ATOM     20  C   UNL     1       7.820  19.330  31.485  1.00  0.00     0.155 C 
ATOM     21  O   UNL     1       7.149  19.331  30.419  1.00  0.00    -0.295 OA
BRANCH   5  22
ATOM     22  C   UNL     1      11.191  19.494  38.590  1.00  0.00     0.232 C 
ATOM     23  O   UNL     1      11.700  20.599  38.699  1.00  0.00    -0.303 OA
ENDBRANCH   5  22
BRANCH  10  24
ATOM     24  O   UNL     1      10.808  20.990  36.171  1.00  0.00    -0.393 OA
ATOM     25  H   UNL     1      11.044  21.786  35.628  1.00  0.00     0.210 HD
ENDBRANCH  10  24
ENDBRANCH   1   3
BRANCH   1  26
ATOM     26  C   UNL     1      14.820  19.051  38.681  1.00  0.00     0.231 C 
BRANCH  26  27
ATOM     27  O   UNL     1      14.551  20.403  38.938  1.00  0.00    -0.389 OA
ATOM     28  H   UNL     1      14.927  20.602  39.835  1.00  0.00     0.211 HD
ENDBRANCH  26  27
ENDBRANCH   1  26
TORSDOF 5
ENDMDL
MODEL 7
REMARK VINA RESULT:    -6.506     17.887     19.481
REMARK INTER + INTRA:          -8.486
REMARK INTER:                  -8.245
REMARK INTRA:                  -0.241
REMARK UNBOUND:                -0.460
REMARK SMILES C[C@]12CCC(=O)C=C1CC[C@@H]1[C@@H]2[C@@H](O)C[C@]2(C=O)[C@@H](C(=O)CO)CC[C@@H]12
REMARK SMILES IDX 20 1 21 2 19 3 24 4 16 5 25 6 26 7 15 8 11 9 13 10 10 11
REMARK SMILES IDX 12 12 9 13 2 14 8 15 3 16 1 17 7 18 4 19 5 20 6 21 17 22
REMARK SMILES IDX 18 23 14 24 22 26 23 27
REMARK H PARENT 14 25 23 28
REMARK Flexibility Score: inf
ROOT
ATOM      1  C   UNL     1       8.345  19.974  31.666  1.00  0.00     0.162 C 
ATOM      2  O   UNL     1       8.280  21.179  31.461  1.00  0.00    -0.297 OA
ENDROOT
BRANCH   1   3
ATOM      3  C   UNL     1       9.359  19.468  32.681  1.00  0.00     0.072 C 
ATOM      4  C   UNL     1      10.445  20.481  33.130  1.00  0.00     0.013 C 
ATOM      5  C   UNL     1       8.758  18.973  34.014  1.00  0.00     0.041 C 
ATOM      6  C   UNL     1      10.835  20.092  34.569  1.00  0.00     0.006 C 
ATOM      7  C   UNL     1      10.042  18.816  34.849  1.00  0.00     0.007 C 
ATOM      8  C   UNL     1       8.043  17.598  33.958  1.00  0.00     0.047 C 
ATOM      9  C   UNL     1       9.733  18.404  36.310  1.00  0.00    -0.000 C 
ATOM     10  C   UNL     1       7.742  17.040  35.381  1.00  0.00     0.119 C 
ATOM     11  C   UNL     1      10.981  18.421  37.238  1.00  0.00     0.009 C 
ATOM     12  C   UNL     1       9.031  17.006  36.263  1.00  0.00     0.031 C 
ATOM     13  C   UNL     1      11.452  17.037  37.700  1.00  0.00     0.032 C 
ATOM     14  C   UNL     1       8.899  16.356  37.691  1.00  0.00    -0.005 C 
ATOM     15  C   UNL     1      10.318  16.196  38.251  1.00  0.00    -0.060 C 
ATOM     16  C   UNL     1       8.234  14.950  37.584  1.00  0.00     0.020 C 
ATOM     17  C   UNL     1       8.080  17.238  38.670  1.00  0.00     0.016 C 
ATOM     18  C   UNL     1      10.614  15.227  39.136  1.00  0.00     0.047 C 
ATOM     19  C   UNL     1       8.264  14.170  38.908  1.00  0.00     0.081 C 
ATOM     20  C   UNL     1       9.621  14.222  39.544  1.00  0.00     0.155 C 
ATOM     21  O   UNL     1       9.912  13.397  40.450  1.00  0.00    -0.295 OA
BRANCH   5  22
ATOM     22  C   UNL     1       7.813  20.043  34.572  1.00  0.00     0.232 C 
ATOM     23  O   UNL     1       6.623  20.029  34.301  1.00  0.00    -0.303 OA
ENDBRANCH   5  22
BRANCH  10  24
ATOM     24  O   UNL     1       6.739  17.799  36.004  1.00  0.00    -0.393 OA
ATOM     25  H   UNL     1       6.056  17.998  35.311  1.00  0.00     0.210 HD
ENDBRANCH  10  24
ENDBRANCH   1   3
BRANCH   1  26
ATOM     26  C   UNL     1       7.417  19.051  30.912  1.00  0.00     0.231 C 
BRANCH  26  27
ATOM     27  O   UNL     1       7.733  19.016  29.545  1.00  0.00    -0.389 OA
ATOM     28  H   UNL     1       7.423  18.136  29.204  1.00  0.00     0.211 HD
ENDBRANCH  26  27
ENDBRANCH   1  26
TORSDOF 5
ENDMDL
MODEL 8
REMARK VINA RESULT:    -6.427      1.463      1.586
REMARK INTER + INTRA:          -8.390
REMARK INTER:                  -8.149
REMARK INTRA:                  -0.241
REMARK UNBOUND:                -0.460
REMARK SMILES C[C@]12CCC(=O)C=C1CC[C@@H]1[C@@H]2[C@@H](O)C[C@]2(C=O)[C@@H](C(=O)CO)CC[C@@H]12
REMARK SMILES IDX 20 1 21 2 19 3 24 4 16 5 25 6 26 7 15 8 11 9 13 10 10 11
REMARK SMILES IDX 12 12 9 13 2 14 8 15 3 16 1 17 7 18 4 19 5 20 6 21 17 22
REMARK SMILES IDX 18 23 14 24 22 26 23 27
REMARK H PARENT 14 25 23 28
REMARK Flexibility Score: inf
ROOT
ATOM      1  C   UNL     1      27.785  14.342  30.803  1.00  0.00     0.162 C 
ATOM      2  O   UNL     1      28.658  13.534  31.084  1.00  0.00    -0.297 OA
ENDROOT
BRANCH   1   3
ATOM      3  C   UNL     1      27.558  15.517  31.743  1.00  0.00     0.072 C 
ATOM      4  C   UNL     1      28.276  15.445  33.116  1.00  0.00     0.013 C 
ATOM      5  C   UNL     1      27.986  16.892  31.186  1.00  0.00     0.041 C 
ATOM      6  C   UNL     1      28.541  16.901  33.546  1.00  0.00     0.006 C 
ATOM      7  C   UNL     1      27.875  17.747  32.462  1.00  0.00     0.007 C 
ATOM      8  C   UNL     1      27.052  17.501  30.109  1.00  0.00     0.047 C 
ATOM      9  C   UNL     1      28.345  19.204  32.222  1.00  0.00    -0.000 C 
ATOM     10  C   UNL     1      27.382  18.998  29.831  1.00  0.00     0.119 C 
ATOM     11  C   UNL     1      28.432  20.051  33.523  1.00  0.00     0.009 C 
ATOM     12  C   UNL     1      27.391  19.833  31.152  1.00  0.00     0.031 C 
ATOM     13  C   UNL     1      27.382  21.163  33.633  1.00  0.00     0.032 C 
ATOM     14  C   UNL     1      27.597  21.387  31.009  1.00  0.00    -0.005 C 
ATOM     15  C   UNL     1      27.307  22.012  32.380  1.00  0.00    -0.060 C 
ATOM     16  C   UNL     1      26.596  21.969  29.964  1.00  0.00     0.020 C 
ATOM     17  C   UNL     1      29.045  21.758  30.595  1.00  0.00     0.016 C 
ATOM     18  C   UNL     1      26.857  23.274  32.490  1.00  0.00     0.047 C 
ATOM     19  C   UNL     1      26.596  23.505  29.927  1.00  0.00     0.081 C 
ATOM     20  C   UNL     1      26.536  24.088  31.308  1.00  0.00     0.155 C 
ATOM     21  O   UNL     1      26.214  25.296  31.456  1.00  0.00    -0.295 OA
BRANCH   5  22
ATOM     22  C   UNL     1      29.422  16.799  30.657  1.00  0.00     0.232 C 
ATOM     23  O   UNL     1      29.639  16.574  29.477  1.00  0.00    -0.303 OA
ENDBRANCH   5  22
BRANCH  10  24
ATOM     24  O   UNL     1      28.611  19.114  29.165  1.00  0.00    -0.393 OA
ATOM     25  H   UNL     1      28.928  18.191  28.983  1.00  0.00     0.210 HD
ENDBRANCH  10  24
ENDBRANCH   1   3
BRANCH   1  26
ATOM     26  C   UNL     1      26.982  14.144  29.539  1.00  0.00     0.231 C 
BRANCH  26  27
ATOM     27  O   UNL     1      25.814  13.406  29.788  1.00  0.00    -0.389 OA
ATOM     28  H   UNL     1      25.236  13.976  30.361  1.00  0.00     0.211 HD
ENDBRANCH  26  27
ENDBRANCH   1  26
TORSDOF 5
ENDMDL
MODEL 9
REMARK VINA RESULT:    -6.390     17.016     18.287
REMARK INTER + INTRA:          -8.344
REMARK INTER:                  -7.975
REMARK INTRA:                  -0.369
REMARK UNBOUND:                -0.460
REMARK SMILES C[C@]12CCC(=O)C=C1CC[C@@H]1[C@@H]2[C@@H](O)C[C@]2(C=O)[C@@H](C(=O)CO)CC[C@@H]12
REMARK SMILES IDX 20 1 21 2 19 3 24 4 16 5 25 6 26 7 15 8 11 9 13 10 10 11
REMARK SMILES IDX 12 12 9 13 2 14 8 15 3 16 1 17 7 18 4 19 5 20 6 21 17 22
REMARK SMILES IDX 18 23 14 24 22 26 23 27
REMARK H PARENT 14 25 23 28
REMARK Flexibility Score: inf
ROOT
ATOM      1  C   UNL     1       8.274  19.107  32.868  1.00  0.00     0.162 C 
ATOM      2  O   UNL     1       7.180  18.714  33.249  1.00  0.00    -0.297 OA
ENDROOT
BRANCH   1   3
ATOM      3  C   UNL     1       9.504  18.717  33.676  1.00  0.00     0.072 C 
ATOM      4  C   UNL     1      10.873  19.146  33.089  1.00  0.00     0.013 C 
ATOM      5  C   UNL     1       9.541  19.270  35.116  1.00  0.00     0.041 C 
ATOM      6  C   UNL     1      11.819  19.345  34.289  1.00  0.00     0.006 C 
ATOM      7  C   UNL     1      10.991  18.922  35.502  1.00  0.00     0.007 C 
ATOM      8  C   UNL     1       8.590  18.579  36.126  1.00  0.00     0.047 C 
ATOM      9  C   UNL     1      11.356  19.454  36.910  1.00  0.00    -0.000 C 
ATOM     10  C   UNL     1       8.908  18.982  37.597  1.00  0.00     0.119 C 
ATOM     11  C   UNL     1      12.863  19.296  37.263  1.00  0.00     0.009 C 
ATOM     12  C   UNL     1      10.414  18.743  37.938  1.00  0.00     0.031 C 
ATOM     13  C   UNL     1      13.156  18.263  38.358  1.00  0.00     0.032 C 
ATOM     14  C   UNL     1      10.855  18.998  39.428  1.00  0.00    -0.005 C 
ATOM     15  C   UNL     1      12.281  18.453  39.580  1.00  0.00    -0.060 C 
ATOM     16  C   UNL     1       9.912  18.235  40.408  1.00  0.00     0.020 C 
ATOM     17  C   UNL     1      10.863  20.506  39.793  1.00  0.00     0.016 C 
ATOM     18  C   UNL     1      12.736  18.011  40.766  1.00  0.00     0.047 C 
ATOM     19  C   UNL     1      10.407  18.267  41.862  1.00  0.00     0.081 C 
ATOM     20  C   UNL     1      11.869  17.944  41.952  1.00  0.00     0.155 C 
ATOM     21  O   UNL     1      12.364  17.620  43.064  1.00  0.00    -0.295 OA
BRANCH   5  22
ATOM     22  C   UNL     1       9.281  20.781  35.086  1.00  0.00     0.232 C 
ATOM     23  O   UNL     1       8.143  21.220  35.136  1.00  0.00    -0.303 OA
ENDBRANCH   5  22
BRANCH  10  24
ATOM     24  O   UNL     1       8.558  20.321  37.825  1.00  0.00    -0.393 OA
ATOM     25  H   UNL     1       7.821  20.537  37.196  1.00  0.00     0.210 HD
ENDBRANCH  10  24
ENDBRANCH   1   3
BRANCH   1  26
ATOM     26  C   UNL     1       8.355  19.950  31.617  1.00  0.00     0.231 C 
BRANCH  26  27
ATOM     27  O   UNL     1       8.411  21.317  31.927  1.00  0.00    -0.389 OA
ATOM     28  H   UNL     1       7.630  21.507  32.511  1.00  0.00     0.211 HD
ENDBRANCH  26  27
ENDBRANCH   1  26
TORSDOF 5
ENDMDL
MODEL 10
REMARK VINA RESULT:    -6.334     16.808     18.245
REMARK INTER + INTRA:          -8.274
REMARK INTER:                  -7.989
REMARK INTRA:                  -0.285
REMARK UNBOUND:                -0.460
REMARK SMILES C[C@]12CCC(=O)C=C1CC[C@@H]1[C@@H]2[C@@H](O)C[C@]2(C=O)[C@@H](C(=O)CO)CC[C@@H]12
REMARK SMILES IDX 20 1 21 2 19 3 24 4 16 5 25 6 26 7 15 8 11 9 13 10 10 11
REMARK SMILES IDX 12 12 9 13 2 14 8 15 3 16 1 17 7 18 4 19 5 20 6 21 17 22
REMARK SMILES IDX 18 23 14 24 22 26 23 27
REMARK H PARENT 14 25 23 28
REMARK Flexibility Score: inf
ROOT
ATOM      1  C   UNL     1       9.360  20.913  33.428  1.00  0.00     0.162 C 
ATOM      2  O   UNL     1       9.664  22.033  33.814  1.00  0.00    -0.297 OA
ENDROOT
BRANCH   1   3
ATOM      3  C   UNL     1       8.931  19.883  34.463  1.00  0.00     0.072 C 
ATOM      4  C   UNL     1       8.323  18.568  33.911  1.00  0.00     0.013 C 
ATOM      5  C   UNL     1      10.055  19.392  35.400  1.00  0.00     0.041 C 
ATOM      6  C   UNL     1       8.654  17.469  34.938  1.00  0.00     0.006 C 
ATOM      7  C   UNL     1       9.342  18.211  36.084  1.00  0.00     0.007 C 
ATOM      8  C   UNL     1      10.500  20.393  36.498  1.00  0.00     0.047 C 
ATOM      9  C   UNL     1      10.286  17.445  37.044  1.00  0.00    -0.000 C 
ATOM     10  C   UNL     1      11.403  19.716  37.572  1.00  0.00     0.119 C 
ATOM     11  C   UNL     1       9.668  16.134  37.608  1.00  0.00     0.009 C 
ATOM     12  C   UNL     1      10.721  18.443  38.168  1.00  0.00     0.031 C 
ATOM     13  C   UNL     1       9.342  16.175  39.106  1.00  0.00     0.032 C 
ATOM     14  C   UNL     1      11.470  17.722  39.350  1.00  0.00    -0.005 C 
ATOM     15  C   UNL     1      10.504  16.684  39.936  1.00  0.00    -0.060 C 
ATOM     16  C   UNL     1      11.843  18.752  40.460  1.00  0.00     0.020 C 
ATOM     17  C   UNL     1      12.753  16.989  38.878  1.00  0.00     0.016 C 
ATOM     18  C   UNL     1      10.583  16.306  41.223  1.00  0.00     0.047 C 
ATOM     19  C   UNL     1      12.387  18.088  41.734  1.00  0.00     0.081 C 
ATOM     20  C   UNL     1      11.535  16.928  42.156  1.00  0.00     0.155 C 
ATOM     21  O   UNL     1      11.643  16.473  43.325  1.00  0.00    -0.295 OA
BRANCH   5  22
ATOM     22  C   UNL     1      11.260  18.952  34.560  1.00  0.00     0.232 C 
ATOM     23  O   UNL     1      12.208  19.701  34.387  1.00  0.00    -0.303 OA
ENDBRANCH   5  22
BRANCH  10  24
ATOM     24  O   UNL     1      12.656  19.395  37.028  1.00  0.00    -0.393 OA
ATOM     25  H   UNL     1      13.335  19.887  37.558  1.00  0.00     0.210 HD
ENDBRANCH  10  24
ENDBRANCH   1   3
BRANCH   1  26
ATOM     26  C   UNL     1       9.416  20.607  31.949  1.00  0.00     0.231 C 
BRANCH  26  27
ATOM     27  O   UNL     1       8.231  20.993  31.305  1.00  0.00    -0.389 OA
ATOM     28  H   UNL     1       7.536  21.070  32.010  1.00  0.00     0.211 HD
ENDBRANCH  26  27
ENDBRANCH   1  26
TORSDOF 5
ENDMDL
MODEL 11
REMARK VINA RESULT:    -6.255     17.401     18.526
REMARK INTER + INTRA:          -8.177
REMARK INTER:                  -7.767
REMARK INTRA:                  -0.410
REMARK UNBOUND:                -0.460
REMARK SMILES C[C@]12CCC(=O)C=C1CC[C@@H]1[C@@H]2[C@@H](O)C[C@]2(C=O)[C@@H](C(=O)CO)CC[C@@H]12
REMARK SMILES IDX 20 1 21 2 19 3 24 4 16 5 25 6 26 7 15 8 11 9 13 10 10 11
REMARK SMILES IDX 12 12 9 13 2 14 8 15 3 16 1 17 7 18 4 19 5 20 6 21 17 22
REMARK SMILES IDX 18 23 14 24 22 26 23 27
REMARK H PARENT 14 25 23 28
REMARK Flexibility Score: inf
ROOT
ATOM      1  C   UNL     1      11.740  15.669  39.739  1.00  0.00     0.162 C 
ATOM      2  O   UNL     1      12.902  16.024  39.601  1.00  0.00    -0.297 OA
ENDROOT
BRANCH   1   3
ATOM      3  C   UNL     1      10.867  15.556  38.497  1.00  0.00     0.072 C 
ATOM      4  C   UNL     1       9.553  14.746  38.654  1.00  0.00     0.013 C 
ATOM      5  C   UNL     1      10.391  16.901  37.908  1.00  0.00     0.041 C 
ATOM      6  C   UNL     1       8.549  15.345  37.651  1.00  0.00     0.006 C 
ATOM      7  C   UNL     1       9.354  16.397  36.887  1.00  0.00     0.007 C 
ATOM      8  C   UNL     1      11.466  17.718  37.146  1.00  0.00     0.047 C 
ATOM      9  C   UNL     1       8.622  17.568  36.184  1.00  0.00    -0.000 C 
ATOM     10  C   UNL     1      10.839  18.890  36.334  1.00  0.00     0.119 C 
ATOM     11  C   UNL     1       7.435  17.111  35.289  1.00  0.00     0.009 C 
ATOM     12  C   UNL     1       9.699  18.384  35.394  1.00  0.00     0.031 C 
ATOM     13  C   UNL     1       7.666  17.289  33.783  1.00  0.00     0.032 C 
ATOM     14  C   UNL     1       9.052  19.445  34.426  1.00  0.00    -0.005 C 
ATOM     15  C   UNL     1       8.166  18.677  33.436  1.00  0.00    -0.060 C 
ATOM     16  C   UNL     1      10.163  20.200  33.634  1.00  0.00     0.020 C 
ATOM     17  C   UNL     1       8.170  20.474  35.180  1.00  0.00     0.016 C 
ATOM     18  C   UNL     1       7.926  19.152  32.202  1.00  0.00     0.047 C 
ATOM     19  C   UNL     1       9.599  21.098  32.522  1.00  0.00     0.081 C 
ATOM     20  C   UNL     1       8.566  20.380  31.706  1.00  0.00     0.155 C 
ATOM     21  O   UNL     1       8.234  20.841  30.582  1.00  0.00    -0.295 OA
BRANCH   5  22
ATOM     22  C   UNL     1       9.766  17.749  39.022  1.00  0.00     0.232 C 
ATOM     23  O   UNL     1      10.459  18.469  39.722  1.00  0.00    -0.303 OA
ENDBRANCH   5  22
BRANCH  10  24
ATOM     24  O   UNL     1      10.360  19.885  37.200  1.00  0.00    -0.393 OA
ATOM     25  H   UNL     1       9.379  19.939  37.061  1.00  0.00     0.210 HD
ENDBRANCH  10  24
ENDBRANCH   1   3
BRANCH   1  26
ATOM     26  C   UNL     1      11.228  15.355  41.125  1.00  0.00     0.231 C 
BRANCH  26  27
ATOM     27  O   UNL     1      11.489  16.408  42.015  1.00  0.00    -0.389 OA
ATOM     28  H   UNL     1      12.056  16.033  42.739  1.00  0.00     0.211 HD
ENDBRANCH  26  27
ENDBRANCH   1  26
TORSDOF 5
ENDMDL
MODEL 12
REMARK VINA RESULT:    -6.200     17.598     20.634
REMARK INTER + INTRA:          -8.109
REMARK INTER:                  -7.872
REMARK INTRA:                  -0.237
REMARK UNBOUND:                -0.460
REMARK SMILES C[C@]12CCC(=O)C=C1CC[C@@H]1[C@@H]2[C@@H](O)C[C@]2(C=O)[C@@H](C(=O)CO)CC[C@@H]12
REMARK SMILES IDX 20 1 21 2 19 3 24 4 16 5 25 6 26 7 15 8 11 9 13 10 10 11
REMARK SMILES IDX 12 12 9 13 2 14 8 15 3 16 1 17 7 18 4 19 5 20 6 21 17 22
REMARK SMILES IDX 18 23 14 24 22 26 23 27
REMARK H PARENT 14 25 23 28
REMARK Flexibility Score: inf
ROOT
ATOM      1  C   UNL     1       7.621  30.095  39.747  1.00  0.00     0.162 C 
ATOM      2  O   UNL     1       6.746  30.438  40.529  1.00  0.00    -0.297 OA
ENDROOT
BRANCH   1   3
ATOM      3  C   UNL     1       9.073  30.344  40.132  1.00  0.00     0.072 C 
ATOM      4  C   UNL     1       9.316  31.390  41.251  1.00  0.00     0.013 C 
ATOM      5  C   UNL     1       9.838  29.100  40.632  1.00  0.00     0.041 C 
ATOM      6  C   UNL     1      10.613  30.970  41.967  1.00  0.00     0.006 C 
ATOM      7  C   UNL     1      11.118  29.768  41.170  1.00  0.00     0.007 C 
ATOM      8  C   UNL     1      10.244  28.077  39.541  1.00  0.00     0.047 C 
ATOM      9  C   UNL     1      12.067  28.741  41.837  1.00  0.00    -0.000 C 
ATOM     10  C   UNL     1      11.262  27.027  40.077  1.00  0.00     0.119 C 
ATOM     11  C   UNL     1      13.278  29.394  42.562  1.00  0.00     0.009 C 
ATOM     12  C   UNL     1      12.499  27.718  40.735  1.00  0.00     0.031 C 
ATOM     13  C   UNL     1      14.634  29.141  41.893  1.00  0.00     0.032 C 
ATOM     14  C   UNL     1      13.666  26.777  41.218  1.00  0.00    -0.005 C 
ATOM     15  C   UNL     1      14.857  27.676  41.575  1.00  0.00    -0.060 C 
ATOM     16  C   UNL     1      14.087  25.808  40.071  1.00  0.00     0.020 C 
ATOM     17  C   UNL     1      13.280  25.951  42.472  1.00  0.00     0.016 C 
ATOM     18  C   UNL     1      16.121  27.227  41.485  1.00  0.00     0.047 C 
ATOM     19  C   UNL     1      15.357  25.008  40.400  1.00  0.00     0.081 C 
ATOM     20  C   UNL     1      16.433  25.890  40.960  1.00  0.00     0.155 C 
ATOM     21  O   UNL     1      17.621  25.475  40.989  1.00  0.00    -0.295 OA
BRANCH   5  22
ATOM     22  C   UNL     1       9.022  28.411  41.732  1.00  0.00     0.232 C 
ATOM     23  O   UNL     1       8.239  27.514  41.460  1.00  0.00    -0.303 OA
ENDBRANCH   5  22
BRANCH  10  24
ATOM     24  O   UNL     1      10.639  26.160  40.987  1.00  0.00    -0.393 OA
ATOM     25  H   UNL     1       9.665  26.342  40.938  1.00  0.00     0.210 HD
ENDBRANCH  10  24
ENDBRANCH   1   3
BRANCH   1  26
ATOM     26  C   UNL     1       7.226  29.437  38.446  1.00  0.00     0.231 C 
BRANCH  26  27
ATOM     27  O   UNL     1       7.082  30.383  37.420  1.00  0.00    -0.389 OA
ATOM     28  H   UNL     1       6.909  31.256  37.861  1.00  0.00     0.211 HD
ENDBRANCH  26  27
ENDBRANCH   1  26
TORSDOF 5
ENDMDL
MODEL 13
REMARK VINA RESULT:    -6.164     16.461     17.714
REMARK INTER + INTRA:          -8.065
REMARK INTER:                  -7.595
REMARK INTRA:                  -0.470
REMARK UNBOUND:                -0.460
REMARK SMILES C[C@]12CCC(=O)C=C1CC[C@@H]1[C@@H]2[C@@H](O)C[C@]2(C=O)[C@@H](C(=O)CO)CC[C@@H]12
REMARK SMILES IDX 20 1 21 2 19 3 24 4 16 5 25 6 26 7 15 8 11 9 13 10 10 11
REMARK SMILES IDX 12 12 9 13 2 14 8 15 3 16 1 17 7 18 4 19 5 20 6 21 17 22
REMARK SMILES IDX 18 23 14 24 22 26 23 27
REMARK H PARENT 14 25 23 28
REMARK Flexibility Score: inf
ROOT
ATOM      1  C   UNL     1      11.468  17.079  42.151  1.00  0.00     0.162 C 
ATOM      2  O   UNL     1      12.344  17.142  43.003  1.00  0.00    -0.297 OA
ENDROOT
BRANCH   1   3
ATOM      3  C   UNL     1      11.175  18.323  41.324  1.00  0.00     0.072 C 
ATOM      4  C   UNL     1      11.968  19.601  41.703  1.00  0.00     0.013 C 
ATOM      5  C   UNL     1      11.435  18.176  39.809  1.00  0.00     0.041 C 
ATOM      6  C   UNL     1      12.110  20.426  40.409  1.00  0.00     0.006 C 
ATOM      7  C   UNL     1      11.306  19.646  39.368  1.00  0.00     0.007 C 
ATOM      8  C   UNL     1      10.389  17.340  39.027  1.00  0.00     0.047 C 
ATOM      9  C   UNL     1      11.616  19.824  37.861  1.00  0.00    -0.000 C 
ATOM     10  C   UNL     1      10.553  17.497  37.486  1.00  0.00     0.119 C 
ATOM     11  C   UNL     1      11.687  21.312  37.413  1.00  0.00     0.009 C 
ATOM     12  C   UNL     1      10.549  19.002  37.064  1.00  0.00     0.031 C 
ATOM     13  C   UNL     1      10.539  21.760  36.501  1.00  0.00     0.032 C 
ATOM     14  C   UNL     1      10.591  19.308  35.520  1.00  0.00    -0.005 C 
ATOM     15  C   UNL     1      10.314  20.807  35.345  1.00  0.00    -0.060 C 
ATOM     16  C   UNL     1       9.484  18.497  34.779  1.00  0.00     0.020 C 
ATOM     17  C   UNL     1      11.972  18.986  34.889  1.00  0.00     0.016 C 
ATOM     18  C   UNL     1       9.747  21.285  34.224  1.00  0.00     0.047 C 
ATOM     19  C   UNL     1       9.329  18.903  33.306  1.00  0.00     0.081 C 
ATOM     20  C   UNL     1       9.285  20.394  33.149  1.00  0.00     0.155 C 
ATOM     21  O   UNL     1       8.852  20.891  32.076  1.00  0.00    -0.295 OA
BRANCH   5  22
ATOM     22  C   UNL     1      12.843  17.610  39.589  1.00  0.00     0.232 C 
ATOM     23  O   UNL     1      13.014  16.417  39.397  1.00  0.00    -0.303 OA
ENDBRANCH   5  22
BRANCH  10  24
ATOM     24  O   UNL     1      11.728  16.866  37.051  1.00  0.00    -0.393 OA
ATOM     25  H   UNL     1      11.980  17.288  36.189  1.00  0.00     0.210 HD
ENDBRANCH  10  24
ENDBRANCH   1   3
BRANCH   1  26
ATOM     26  C   UNL     1      10.727  15.778  41.955  1.00  0.00     0.231 C 
BRANCH  26  27
ATOM     27  O   UNL     1      11.594  14.755  41.542  1.00  0.00    -0.389 OA
ATOM     28  H   UNL     1      12.304  14.689  42.233  1.00  0.00     0.211 HD
ENDBRANCH  26  27
ENDBRANCH   1  26
TORSDOF 5
ENDMDL
MODEL 14
REMARK VINA RESULT:    -6.105     17.116     18.858
REMARK INTER + INTRA:          -7.992
REMARK INTER:                  -7.844
REMARK INTRA:                  -0.148
REMARK UNBOUND:                -0.460
REMARK SMILES C[C@]12CCC(=O)C=C1CC[C@@H]1[C@@H]2[C@@H](O)C[C@]2(C=O)[C@@H](C(=O)CO)CC[C@@H]12
REMARK SMILES IDX 20 1 21 2 19 3 24 4 16 5 25 6 26 7 15 8 11 9 13 10 10 11
REMARK SMILES IDX 12 12 9 13 2 14 8 15 3 16 1 17 7 18 4 19 5 20 6 21 17 22
REMARK SMILES IDX 18 23 14 24 22 26 23 27
REMARK H PARENT 14 25 23 28
REMARK Flexibility Score: inf
ROOT
ATOM      1  C   UNL     1       9.784  20.971  33.269  1.00  0.00     0.162 C 
ATOM      2  O   UNL     1       9.681  22.189  33.321  1.00  0.00    -0.297 OA
ENDROOT
BRANCH   1   3
ATOM      3  C   UNL     1      10.711  20.281  34.259  1.00  0.00     0.072 C 
ATOM      4  C   UNL     1      11.905  21.121  34.781  1.00  0.00     0.013 C 
ATOM      5  C   UNL     1      10.031  19.783  35.552  1.00  0.00     0.041 C 
ATOM      6  C   UNL     1      12.221  20.599  36.195  1.00  0.00     0.006 C 
ATOM      7  C   UNL     1      11.272  19.417  36.387  1.00  0.00     0.007 C 
ATOM      8  C   UNL     1       9.152  18.514  35.404  1.00  0.00     0.047 C 
ATOM      9  C   UNL     1      10.890  18.957  37.817  1.00  0.00    -0.000 C 
ATOM     10  C   UNL     1       8.761  17.912  36.786  1.00  0.00     0.119 C 
ATOM     11  C   UNL     1      12.115  18.762  38.755  1.00  0.00     0.009 C 
ATOM     12  C   UNL     1      10.021  17.663  37.675  1.00  0.00     0.031 C 
ATOM     13  C   UNL     1      12.403  17.304  39.132  1.00  0.00     0.032 C 
ATOM     14  C   UNL     1       9.787  16.948  39.058  1.00  0.00    -0.005 C 
ATOM     15  C   UNL     1      11.166  16.578  39.620  1.00  0.00    -0.060 C 
ATOM     16  C   UNL     1       8.954  15.644  38.857  1.00  0.00     0.020 C 
ATOM     17  C   UNL     1       9.067  17.863  40.084  1.00  0.00     0.016 C 
ATOM     18  C   UNL     1      11.324  15.528  40.444  1.00  0.00     0.047 C 
ATOM     19  C   UNL     1       8.866  14.787  40.129  1.00  0.00     0.081 C 
ATOM     20  C   UNL     1      10.209  14.631  40.780  1.00  0.00     0.155 C 
ATOM     21  O   UNL     1      10.380  13.721  41.634  1.00  0.00    -0.295 OA
BRANCH   5  22
ATOM     22  C   UNL     1       9.217  20.927  36.169  1.00  0.00     0.232 C 
ATOM     23  O   UNL     1       8.045  21.093  35.868  1.00  0.00    -0.303 OA
ENDBRANCH   5  22
BRANCH  10  24
ATOM     24  O   UNL     1       7.850  18.750  37.447  1.00  0.00    -0.393 OA
ATOM     25  H   UNL     1       7.111  18.932  36.809  1.00  0.00     0.210 HD
ENDBRANCH  10  24
ENDBRANCH   1   3
BRANCH   1  26
ATOM     26  C   UNL     1       8.986  20.212  32.235  1.00  0.00     0.231 C 
BRANCH  26  27
ATOM     27  O   UNL     1       8.209  21.080  31.453  1.00  0.00    -0.389 OA
ATOM     28  H   UNL     1       8.836  21.547  30.841  1.00  0.00     0.211 HD
ENDBRANCH  26  27
ENDBRANCH   1  26
TORSDOF 5
ENDMDL
MODEL 15
REMARK VINA RESULT:    -5.953     16.759     17.639
REMARK INTER + INTRA:          -7.804
REMARK INTER:                  -8.494
REMARK INTRA:                   0.689
REMARK UNBOUND:                -0.460
REMARK SMILES C[C@]12CCC(=O)C=C1CC[C@@H]1[C@@H]2[C@@H](O)C[C@]2(C=O)[C@@H](C(=O)CO)CC[C@@H]12
REMARK SMILES IDX 20 1 21 2 19 3 24 4 16 5 25 6 26 7 15 8 11 9 13 10 10 11
REMARK SMILES IDX 12 12 9 13 2 14 8 15 3 16 1 17 7 18 4 19 5 20 6 21 17 22
REMARK SMILES IDX 18 23 14 24 22 26 23 27
REMARK H PARENT 14 25 23 28
REMARK Flexibility Score: inf
ROOT
ATOM      1  C   UNL     1       7.436  19.624  30.875  1.00  0.00     0.162 C 
ATOM      2  O   UNL     1       6.882  18.559  30.642  1.00  0.00    -0.297 OA
ENDROOT
BRANCH   1   3
ATOM      3  C   UNL     1       7.508  20.100  32.319  1.00  0.00     0.072 C 
ATOM      4  C   UNL     1       6.345  19.658  33.245  1.00  0.00     0.013 C 
ATOM      5  C   UNL     1       8.769  19.658  33.091  1.00  0.00     0.041 C 
ATOM      6  C   UNL     1       6.929  19.571  34.668  1.00  0.00     0.006 C 
ATOM      7  C   UNL     1       8.368  20.066  34.521  1.00  0.00     0.007 C 
ATOM      8  C   UNL     1      10.078  20.402  32.722  1.00  0.00     0.047 C 
ATOM      9  C   UNL     1       9.438  19.649  35.561  1.00  0.00    -0.000 C 
ATOM     10  C   UNL     1      11.218  20.117  33.745  1.00  0.00     0.119 C 
ATOM     11  C   UNL     1       8.991  19.867  37.035  1.00  0.00     0.009 C 
ATOM     12  C   UNL     1      10.757  20.414  35.208  1.00  0.00     0.031 C 
ATOM     13  C   UNL     1       9.739  20.985  37.770  1.00  0.00     0.032 C 
ATOM     14  C   UNL     1      11.845  20.281  36.338  1.00  0.00    -0.005 C 
ATOM     15  C   UNL     1      11.243  20.868  37.621  1.00  0.00    -0.060 C 
ATOM     16  C   UNL     1      13.120  21.095  35.957  1.00  0.00     0.020 C 
ATOM     17  C   UNL     1      12.240  18.806  36.609  1.00  0.00     0.016 C 
ATOM     18  C   UNL     1      12.023  21.407  38.574  1.00  0.00     0.047 C 
ATOM     19  C   UNL     1      14.139  21.183  37.104  1.00  0.00     0.081 C 
ATOM     20  C   UNL     1      13.477  21.544  38.400  1.00  0.00     0.155 C 
ATOM     21  O   UNL     1      14.179  21.962  39.359  1.00  0.00    -0.295 OA
BRANCH   5  22
ATOM     22  C   UNL     1       8.954  18.144  32.936  1.00  0.00     0.232 C 
ATOM     23  O   UNL     1       8.188  17.362  33.478  1.00  0.00    -0.303 OA
ENDBRANCH   5  22
BRANCH  10  24
ATOM     24  O   UNL     1      11.663  18.791  33.628  1.00  0.00    -0.393 OA
ATOM     25  H   UNL     1      11.504  18.516  32.688  1.00  0.00     0.210 HD
ENDBRANCH  10  24
ENDBRANCH   1   3
BRANCH   1  26
ATOM     26  C   UNL     1       8.028  20.409  29.729  1.00  0.00     0.231 C 
BRANCH  26  27
ATOM     27  O   UNL     1       9.248  19.858  29.310  1.00  0.00    -0.389 OA
ATOM     28  H   UNL     1       9.025  19.097  28.712  1.00  0.00     0.211 HD
ENDBRANCH  26  27
ENDBRANCH   1  26
TORSDOF 5
ENDMDL
