MODEL 1
REMARK VINA RESULT:    -9.807      0.000      0.000
REMARK INTER + INTRA:         -12.506
REMARK INTER:                 -12.100
REMARK INTRA:                  -0.406
REMARK UNBOUND:                -0.406
REMARK SMILES Clc1ccc(Nc2nnc(Cc3ccncc3)c3ccccc23)cc1
REMARK SMILES IDX 7 1 8 2 9 3 10 4 18 5 19 6 20 7 21 8 22 9 23 10 6 11 5 13
REMARK SMILES IDX 1 14 2 15 3 16 25 17 4 18 24 19 11 20 12 21 13 22 17 23
REMARK SMILES IDX 14 24 16 25 15 26
REMARK H PARENT 6 12
REMARK Flexibility Score: inf
ROOT
ATOM      1  C   UNL     1      24.974  23.123  36.765  1.00  0.00     0.160 A 
ATOM      2  N   UNL     1      23.807  23.146  36.070  1.00  0.00    -0.132 NA
ATOM      3  N   UNL     1      22.622  23.171  36.676  1.00  0.00    -0.153 NA
ATOM      4  C   UNL     1      22.498  23.162  38.028  1.00  0.00     0.075 A 
ATOM      5  C   UNL     1      23.669  23.140  38.823  1.00  0.00     0.009 A 
ATOM      6  C   UNL     1      23.622  23.140  40.233  1.00  0.00     0.011 A 
ATOM      7  C   UNL     1      24.798  23.142  40.983  1.00  0.00     0.001 A 
ATOM      8  C   UNL     1      26.036  23.149  40.345  1.00  0.00     0.001 A 
ATOM      9  C   UNL     1      26.108  23.144  38.953  1.00  0.00     0.013 A 
ATOM     10  C   UNL     1      24.932  23.125  38.175  1.00  0.00     0.028 A 
ENDROOT
BRANCH   1  11
ATOM     11  N   UNL     1      26.216  23.041  36.045  1.00  0.00    -0.338 N 
ATOM     12  H   UNL     1      27.105  23.194  36.573  1.00  0.00     0.168 HD
BRANCH  11  13
ATOM     13  C   UNL     1      26.312  22.585  34.685  1.00  0.00     0.040 A 
ATOM     14  Cl  UNL     1      26.703  21.079  30.393  1.00  0.00    -0.084 Cl
ATOM     15  C   UNL     1      26.555  21.659  32.042  1.00  0.00     0.041 A 
ATOM     16  C   UNL     1      26.668  20.765  33.111  1.00  0.00     0.022 A 
ATOM     17  C   UNL     1      26.335  23.017  32.289  1.00  0.00     0.022 A 
ATOM     18  C   UNL     1      26.552  21.226  34.426  1.00  0.00     0.027 A 
ATOM     19  C   UNL     1      26.219  23.482  33.603  1.00  0.00     0.027 A 
ENDBRANCH  11  13
ENDBRANCH   1  11
BRANCH   4  20
ATOM     20  C   UNL     1      21.103  23.226  38.603  1.00  0.00     0.094 C 
BRANCH  20  21
ATOM     21  C   UNL     1      20.780  24.612  39.103  1.00  0.00    -0.039 A 
ATOM     22  C   UNL     1      19.584  24.856  39.795  1.00  0.00     0.024 A 
ATOM     23  C   UNL     1      21.682  25.669  38.912  1.00  0.00     0.024 A 
ATOM     24  C   UNL     1      19.304  26.143  40.258  1.00  0.00     0.111 A 
ATOM     25  C   UNL     1      21.364  26.942  39.391  1.00  0.00     0.111 A 
ATOM     26  N   UNL     1      20.192  27.152  40.047  1.00  0.00    -0.265 NA
ENDBRANCH  20  21
ENDBRANCH   4  20
TORSDOF 4
ENDMDL
MODEL 2
REMARK VINA RESULT:    -9.631      3.181      7.625
REMARK INTER + INTRA:         -12.289
REMARK INTER:                 -12.047
REMARK INTRA:                  -0.242
REMARK UNBOUND:                -0.406
REMARK SMILES Clc1ccc(Nc2nnc(Cc3ccncc3)c3ccccc23)cc1
REMARK SMILES IDX 7 1 8 2 9 3 10 4 18 5 19 6 20 7 21 8 22 9 23 10 6 11 5 13
REMARK SMILES IDX 1 14 2 15 3 16 25 17 4 18 24 19 11 20 12 21 13 22 17 23
REMARK SMILES IDX 14 24 16 25 15 26
REMARK H PARENT 6 12
REMARK Flexibility Score: inf
ROOT
ATOM      1  C   UNL     1      22.562  23.339  37.876  1.00  0.00     0.160 A 
ATOM      2  N   UNL     1      22.826  23.279  36.545  1.00  0.00    -0.132 NA
ATOM      3  N   UNL     1      24.066  23.174  36.073  1.00  0.00    -0.153 NA
ATOM      4  C   UNL     1      25.152  23.134  36.888  1.00  0.00     0.075 A 
ATOM      5  C   UNL     1      24.959  23.190  38.289  1.00  0.00     0.009 A 
ATOM      6  C   UNL     1      26.036  23.143  39.200  1.00  0.00     0.011 A 
ATOM      7  C   UNL     1      25.805  23.179  40.575  1.00  0.00     0.001 A 
ATOM      8  C   UNL     1      24.503  23.256  41.066  1.00  0.00     0.001 A 
ATOM      9  C   UNL     1      23.424  23.308  40.185  1.00  0.00     0.013 A 
ATOM     10  C   UNL     1      23.635  23.291  38.791  1.00  0.00     0.028 A 
ENDROOT
BRANCH   1  11
ATOM     11  N   UNL     1      21.202  23.508  38.314  1.00  0.00    -0.338 N 
ATOM     12  H   UNL     1      20.559  22.687  38.257  1.00  0.00     0.168 HD
BRANCH  11  13
ATOM     13  C   UNL     1      20.730  24.687  38.988  1.00  0.00     0.040 A 
ATOM     14  Cl  UNL     1      19.134  28.416  41.083  1.00  0.00    -0.084 Cl
ATOM     15  C   UNL     1      19.747  26.984  40.276  1.00  0.00     0.041 A 
ATOM     16  C   UNL     1      18.999  25.803  40.282  1.00  0.00     0.022 A 
ATOM     17  C   UNL     1      20.979  27.026  39.617  1.00  0.00     0.022 A 
ATOM     18  C   UNL     1      19.485  24.662  39.636  1.00  0.00     0.027 A 
ATOM     19  C   UNL     1      21.468  25.887  38.970  1.00  0.00     0.027 A 
ENDBRANCH  11  13
ENDBRANCH   1  11
BRANCH   4  20
ATOM     20  C   UNL     1      26.508  22.980  36.241  1.00  0.00     0.094 C 
BRANCH  20  21
ATOM     21  C   UNL     1      26.381  22.569  34.795  1.00  0.00    -0.039 A 
ATOM     22  C   UNL     1      26.210  23.538  33.794  1.00  0.00     0.024 A 
ATOM     23  C   UNL     1      26.465  21.218  34.425  1.00  0.00     0.024 A 
ATOM     24  C   UNL     1      26.103  23.141  32.460  1.00  0.00     0.111 A 
ATOM     25  C   UNL     1      26.354  20.864  33.079  1.00  0.00     0.111 A 
ATOM     26  N   UNL     1      26.175  21.823  32.133  1.00  0.00    -0.265 NA
ENDBRANCH  20  21
ENDBRANCH   4  20
TORSDOF 4
ENDMDL
MODEL 3
REMARK VINA RESULT:    -9.008      3.703      9.392
REMARK INTER + INTRA:         -11.521
REMARK INTER:                 -10.495
REMARK INTRA:                  -1.026
REMARK UNBOUND:                -0.406
REMARK SMILES Clc1ccc(Nc2nnc(Cc3ccncc3)c3ccccc23)cc1
REMARK SMILES IDX 7 1 8 2 9 3 10 4 18 5 19 6 20 7 21 8 22 9 23 10 6 11 5 13
REMARK SMILES IDX 1 14 2 15 3 16 25 17 4 18 24 19 11 20 12 21 13 22 17 23
REMARK SMILES IDX 14 24 16 25 15 26
REMARK H PARENT 6 12
REMARK Flexibility Score: inf
ROOT
ATOM      1  C   UNL     1      26.571  22.421  34.255  1.00  0.00     0.160 A 
ATOM      2  N   UNL     1      26.656  21.088  34.501  1.00  0.00    -0.132 NA
ATOM      3  N   UNL     1      26.598  20.183  33.528  1.00  0.00    -0.153 NA
ATOM      4  C   UNL     1      26.435  20.528  32.225  1.00  0.00     0.075 A 
ATOM      5  C   UNL     1      26.339  21.899  31.886  1.00  0.00     0.009 A 
ATOM      6  C   UNL     1      26.180  22.337  30.555  1.00  0.00     0.011 A 
ATOM      7  C   UNL     1      26.111  23.698  30.257  1.00  0.00     0.001 A 
ATOM      8  C   UNL     1      26.206  24.644  31.276  1.00  0.00     0.001 A 
ATOM      9  C   UNL     1      26.360  24.235  32.600  1.00  0.00     0.013 A 
ATOM     10  C   UNL     1      26.413  22.863  32.925  1.00  0.00     0.028 A 
ENDROOT
BRANCH   1  11
ATOM     11  N   UNL     1      26.586  23.340  35.362  1.00  0.00    -0.338 N 
ATOM     12  H   UNL     1      27.169  24.203  35.280  1.00  0.00     0.168 HD
BRANCH  11  13
ATOM     13  C   UNL     1      25.709  23.226  36.495  1.00  0.00     0.040 A 
ATOM     14  Cl  UNL     1      22.862  22.947  40.053  1.00  0.00    -0.084 Cl
ATOM     15  C   UNL     1      23.956  23.057  38.687  1.00  0.00     0.041 A 
ATOM     16  C   UNL     1      23.447  23.171  37.389  1.00  0.00     0.022 A 
ATOM     17  C   UNL     1      25.339  23.041  38.894  1.00  0.00     0.022 A 
ATOM     18  C   UNL     1      24.319  23.261  36.299  1.00  0.00     0.027 A 
ATOM     19  C   UNL     1      26.213  23.131  37.806  1.00  0.00     0.027 A 
ENDBRANCH  11  13
ENDBRANCH   1  11
BRANCH   4  20
ATOM     20  C   UNL     1      26.416  19.416  31.203  1.00  0.00     0.094 C 
BRANCH  20  21
ATOM     21  C   UNL     1      27.810  18.928  30.899  1.00  0.00    -0.039 A 
ATOM     22  C   UNL     1      28.297  17.755  31.496  1.00  0.00     0.024 A 
ATOM     23  C   UNL     1      28.627  19.618  29.991  1.00  0.00     0.024 A 
ATOM     24  C   UNL     1      29.588  17.313  31.196  1.00  0.00     0.111 A 
ATOM     25  C   UNL     1      29.912  19.141  29.719  1.00  0.00     0.111 A 
ATOM     26  N   UNL     1      30.362  18.009  30.323  1.00  0.00    -0.265 NA
ENDBRANCH  20  21
ENDBRANCH   4  20
TORSDOF 4
ENDMDL
MODEL 4
REMARK VINA RESULT:    -8.842      3.571      8.988
REMARK INTER + INTRA:         -11.317
REMARK INTER:                 -10.757
REMARK INTRA:                  -0.559
REMARK UNBOUND:                -0.406
REMARK SMILES Clc1ccc(Nc2nnc(Cc3ccncc3)c3ccccc23)cc1
REMARK SMILES IDX 7 1 8 2 9 3 10 4 18 5 19 6 20 7 21 8 22 9 23 10 6 11 5 13
REMARK SMILES IDX 1 14 2 15 3 16 25 17 4 18 24 19 11 20 12 21 13 22 17 23
REMARK SMILES IDX 14 24 16 25 15 26
REMARK H PARENT 6 12
REMARK Flexibility Score: inf
ROOT
ATOM      1  C   UNL     1      26.357  22.508  34.453  1.00  0.00     0.160 A 
ATOM      2  N   UNL     1      26.477  21.224  34.881  1.00  0.00    -0.132 NA
ATOM      3  N   UNL     1      26.572  20.202  34.034  1.00  0.00    -0.153 NA
ATOM      4  C   UNL     1      26.542  20.370  32.687  1.00  0.00     0.075 A 
ATOM      5  C   UNL     1      26.421  21.679  32.162  1.00  0.00     0.009 A 
ATOM      6  C   UNL     1      26.394  21.936  30.776  1.00  0.00     0.011 A 
ATOM      7  C   UNL     1      26.296  23.242  30.296  1.00  0.00     0.001 A 
ATOM      8  C   UNL     1      26.230  24.312  31.186  1.00  0.00     0.001 A 
ATOM      9  C   UNL     1      26.250  24.083  32.561  1.00  0.00     0.013 A 
ATOM     10  C   UNL     1      26.331  22.769  33.068  1.00  0.00     0.028 A 
ENDROOT
BRANCH   1  11
ATOM     11  N   UNL     1      26.203  23.558  35.425  1.00  0.00    -0.338 N 
ATOM     12  H   UNL     1      26.522  24.519  35.169  1.00  0.00     0.168 HD
BRANCH  11  13
ATOM     13  C   UNL     1      25.473  23.396  36.653  1.00  0.00     0.040 A 
ATOM     14  Cl  UNL     1      23.097  22.972  40.528  1.00  0.00    -0.084 Cl
ATOM     15  C   UNL     1      24.011  23.137  39.040  1.00  0.00     0.041 A 
ATOM     16  C   UNL     1      23.347  23.390  37.835  1.00  0.00     0.022 A 
ATOM     17  C   UNL     1      25.404  23.027  39.058  1.00  0.00     0.022 A 
ATOM     18  C   UNL     1      24.075  23.525  36.649  1.00  0.00     0.027 A 
ATOM     19  C   UNL     1      26.135  23.161  37.873  1.00  0.00     0.027 A 
ENDBRANCH  11  13
ENDBRANCH   1  11
BRANCH   4  20
ATOM     20  C   UNL     1      26.693  19.140  31.824  1.00  0.00     0.094 C 
BRANCH  20  21
ATOM     21  C   UNL     1      27.366  18.021  32.579  1.00  0.00    -0.039 A 
ATOM     22  C   UNL     1      28.764  17.895  32.565  1.00  0.00     0.024 A 
ATOM     23  C   UNL     1      26.609  17.109  33.331  1.00  0.00     0.024 A 
ATOM     24  C   UNL     1      29.370  16.858  33.276  1.00  0.00     0.111 A 
ATOM     25  C   UNL     1      27.256  16.086  34.028  1.00  0.00     0.111 A 
ATOM     26  N   UNL     1      28.611  15.981  33.986  1.00  0.00    -0.265 NA
ENDBRANCH  20  21
ENDBRANCH   4  20
TORSDOF 4
ENDMDL
MODEL 5
REMARK VINA RESULT:    -8.243      6.979     10.173
REMARK INTER + INTRA:         -10.577
REMARK INTER:                  -9.705
REMARK INTRA:                  -0.872
REMARK UNBOUND:                -0.406
REMARK SMILES Clc1ccc(Nc2nnc(Cc3ccncc3)c3ccccc23)cc1
REMARK SMILES IDX 7 1 8 2 9 3 10 4 18 5 19 6 20 7 21 8 22 9 23 10 6 11 5 13
REMARK SMILES IDX 1 14 2 15 3 16 25 17 4 18 24 19 11 20 12 21 13 22 17 23
REMARK SMILES IDX 14 24 16 25 15 26
REMARK H PARENT 6 12
REMARK Flexibility Score: inf
ROOT
ATOM      1  C   UNL     1      27.410  19.378  31.418  1.00  0.00     0.160 A 
ATOM      2  N   UNL     1      26.891  18.923  32.588  1.00  0.00    -0.132 NA
ATOM      3  N   UNL     1      27.434  17.910  33.257  1.00  0.00    -0.153 NA
ATOM      4  C   UNL     1      28.534  17.251  32.810  1.00  0.00     0.075 A 
ATOM      5  C   UNL     1      29.135  17.666  31.597  1.00  0.00     0.009 A 
ATOM      6  C   UNL     1      30.285  17.040  31.074  1.00  0.00     0.011 A 
ATOM      7  C   UNL     1      30.862  17.491  29.887  1.00  0.00     0.001 A 
ATOM      8  C   UNL     1      30.310  18.575  29.206  1.00  0.00     0.001 A 
ATOM      9  C   UNL     1      29.170  19.207  29.702  1.00  0.00     0.013 A 
ATOM     10  C   UNL     1      28.560  18.755  30.891  1.00  0.00     0.028 A 
ENDROOT
BRANCH   1  11
ATOM     11  N   UNL     1      26.738  20.442  30.720  1.00  0.00    -0.338 N 
ATOM     12  H   UNL     1      26.027  20.189  29.998  1.00  0.00     0.168 HD
BRANCH  11  13
ATOM     13  C   UNL     1      26.861  21.827  31.086  1.00  0.00     0.040 A 
ATOM     14  Cl  UNL     1      27.144  26.229  32.263  1.00  0.00    -0.084 Cl
ATOM     15  C   UNL     1      27.034  24.538  31.809  1.00  0.00     0.041 A 
ATOM     16  C   UNL     1      26.246  23.661  32.561  1.00  0.00     0.022 A 
ATOM     17  C   UNL     1      27.725  24.068  30.688  1.00  0.00     0.022 A 
ATOM     18  C   UNL     1      26.156  22.314  32.198  1.00  0.00     0.027 A 
ATOM     19  C   UNL     1      27.637  22.721  30.323  1.00  0.00     0.027 A 
ENDBRANCH  11  13
ENDBRANCH   1  11
BRANCH   4  20
ATOM     20  C   UNL     1      29.082  16.137  33.670  1.00  0.00     0.094 C 
BRANCH  20  21
ATOM     21  C   UNL     1      27.999  15.162  34.059  1.00  0.00    -0.039 A 
ATOM     22  C   UNL     1      27.714  14.920  35.412  1.00  0.00     0.024 A 
ATOM     23  C   UNL     1      27.239  14.508  33.077  1.00  0.00     0.024 A 
ATOM     24  C   UNL     1      26.702  14.021  35.753  1.00  0.00     0.111 A 
ATOM     25  C   UNL     1      26.236  13.616  33.462  1.00  0.00     0.111 A 
ATOM     26  N   UNL     1      25.991  13.392  34.780  1.00  0.00    -0.265 NA
ENDBRANCH  20  21
ENDBRANCH   4  20
TORSDOF 4
ENDMDL
MODEL 6
REMARK VINA RESULT:    -8.220      3.082      6.314
REMARK INTER + INTRA:         -10.549
REMARK INTER:                  -9.880
REMARK INTRA:                  -0.669
REMARK UNBOUND:                -0.406
REMARK SMILES Clc1ccc(Nc2nnc(Cc3ccncc3)c3ccccc23)cc1
REMARK SMILES IDX 7 1 8 2 9 3 10 4 18 5 19 6 20 7 21 8 22 9 23 10 6 11 5 13
REMARK SMILES IDX 1 14 2 15 3 16 25 17 4 18 24 19 11 20 12 21 13 22 17 23
REMARK SMILES IDX 14 24 16 25 15 26
REMARK H PARENT 6 12
REMARK Flexibility Score: inf
ROOT
ATOM      1  C   UNL     1      26.481  20.571  33.040  1.00  0.00     0.160 A 
ATOM      2  N   UNL     1      26.447  20.479  34.394  1.00  0.00    -0.132 NA
ATOM      3  N   UNL     1      26.333  21.551  35.174  1.00  0.00    -0.153 NA
ATOM      4  C   UNL     1      26.258  22.810  34.671  1.00  0.00     0.075 A 
ATOM      5  C   UNL     1      26.285  22.989  33.268  1.00  0.00     0.009 A 
ATOM      6  C   UNL     1      26.201  24.264  32.670  1.00  0.00     0.011 A 
ATOM      7  C   UNL     1      26.208  24.400  31.281  1.00  0.00     0.001 A 
ATOM      8  C   UNL     1      26.293  23.272  30.467  1.00  0.00     0.001 A 
ATOM      9  C   UNL     1      26.383  22.002  31.036  1.00  0.00     0.013 A 
ATOM     10  C   UNL     1      26.395  21.843  32.437  1.00  0.00     0.028 A 
ENDROOT
BRANCH   1  11
ATOM     11  N   UNL     1      26.660  19.375  32.260  1.00  0.00    -0.338 N 
ATOM     12  H   UNL     1      26.501  19.428  31.229  1.00  0.00     0.168 HD
BRANCH  11  13
ATOM     13  C   UNL     1      27.219  18.162  32.793  1.00  0.00     0.040 A 
ATOM     14  Cl  UNL     1      29.056  14.304  34.398  1.00  0.00    -0.084 Cl
ATOM     15  C   UNL     1      28.349  15.785  33.779  1.00  0.00     0.041 A 
ATOM     16  C   UNL     1      29.172  16.795  33.272  1.00  0.00     0.022 A 
ATOM     17  C   UNL     1      26.962  15.953  33.783  1.00  0.00     0.022 A 
ATOM     18  C   UNL     1      28.610  17.975  32.776  1.00  0.00     0.027 A 
ATOM     19  C   UNL     1      26.396  17.132  33.288  1.00  0.00     0.027 A 
ENDBRANCH  11  13
ENDBRANCH   1  11
BRANCH   4  20
ATOM     20  C   UNL     1      26.098  23.947  35.652  1.00  0.00     0.094 C 
BRANCH  20  21
ATOM     21  C   UNL     1      25.292  23.524  36.855  1.00  0.00    -0.039 A 
ATOM     22  C   UNL     1      25.931  23.228  38.069  1.00  0.00     0.024 A 
ATOM     23  C   UNL     1      23.893  23.453  36.789  1.00  0.00     0.024 A 
ATOM     24  C   UNL     1      25.169  22.846  39.175  1.00  0.00     0.111 A 
ATOM     25  C   UNL     1      23.168  23.067  37.919  1.00  0.00     0.111 A 
ATOM     26  N   UNL     1      23.815  22.773  39.077  1.00  0.00    -0.265 NA
ENDBRANCH  20  21
ENDBRANCH   4  20
TORSDOF 4
ENDMDL
MODEL 7
REMARK VINA RESULT:    -8.157      8.019     11.297
REMARK INTER + INTRA:         -10.470
REMARK INTER:                  -9.886
REMARK INTRA:                  -0.584
REMARK UNBOUND:                -0.406
REMARK SMILES Clc1ccc(Nc2nnc(Cc3ccncc3)c3ccccc23)cc1
REMARK SMILES IDX 7 1 8 2 9 3 10 4 18 5 19 6 20 7 21 8 22 9 23 10 6 11 5 13
REMARK SMILES IDX 1 14 2 15 3 16 25 17 4 18 24 19 11 20 12 21 13 22 17 23
REMARK SMILES IDX 14 24 16 25 15 26
REMARK H PARENT 6 12
REMARK Flexibility Score: inf
ROOT
ATOM      1  C   UNL     1      14.603  26.143  40.672  1.00  0.00     0.160 A 
ATOM      2  N   UNL     1      14.892  25.503  39.509  1.00  0.00    -0.132 NA
ATOM      3  N   UNL     1      14.120  24.534  39.023  1.00  0.00    -0.153 NA
ATOM      4  C   UNL     1      13.000  24.110  39.662  1.00  0.00     0.075 A 
ATOM      5  C   UNL     1      12.630  24.728  40.880  1.00  0.00     0.009 A 
ATOM      6  C   UNL     1      11.476  24.350  41.597  1.00  0.00     0.011 A 
ATOM      7  C   UNL     1      11.132  24.997  42.783  1.00  0.00     0.001 A 
ATOM      8  C   UNL     1      11.925  26.034  43.272  1.00  0.00     0.001 A 
ATOM      9  C   UNL     1      13.073  26.422  42.583  1.00  0.00     0.013 A 
ATOM     10  C   UNL     1      13.449  25.769  41.391  1.00  0.00     0.028 A 
ENDROOT
BRANCH   1  11
ATOM     11  N   UNL     1      15.512  27.143  41.166  1.00  0.00    -0.338 N 
ATOM     12  H   UNL     1      15.165  27.813  41.888  1.00  0.00     0.168 HD
BRANCH  11  13
ATOM     13  C   UNL     1      16.916  27.156  40.854  1.00  0.00     0.040 A 
ATOM     14  Cl  UNL     1      21.351  27.262  39.777  1.00  0.00    -0.084 Cl
ATOM     15  C   UNL     1      19.646  27.220  40.188  1.00  0.00     0.041 A 
ATOM     16  C   UNL     1      18.891  28.397  40.165  1.00  0.00     0.022 A 
ATOM     17  C   UNL     1      19.038  26.009  40.531  1.00  0.00     0.022 A 
ATOM     18  C   UNL     1      17.532  28.364  40.490  1.00  0.00     0.027 A 
ATOM     19  C   UNL     1      17.679  25.973  40.857  1.00  0.00     0.027 A 
ENDBRANCH  11  13
ENDBRANCH   1  11
BRANCH   4  20
ATOM     20  C   UNL     1      12.184  23.026  38.999  1.00  0.00     0.094 C 
BRANCH  20  21
ATOM     21  C   UNL     1      13.039  21.835  38.644  1.00  0.00    -0.039 A 
ATOM     22  C   UNL     1      13.459  21.632  37.320  1.00  0.00     0.024 A 
ATOM     23  C   UNL     1      13.455  20.933  39.635  1.00  0.00     0.024 A 
ATOM     24  C   UNL     1      14.258  20.529  37.012  1.00  0.00     0.111 A 
ATOM     25  C   UNL     1      14.254  19.842  39.283  1.00  0.00     0.111 A 
ATOM     26  N   UNL     1      14.634  19.663  37.991  1.00  0.00    -0.265 NA
ENDBRANCH  20  21
ENDBRANCH   4  20
TORSDOF 4
ENDMDL
MODEL 8
REMARK VINA RESULT:    -8.104      6.678      9.683
REMARK INTER + INTRA:         -10.405
REMARK INTER:                  -9.743
REMARK INTRA:                  -0.662
REMARK UNBOUND:                -0.406
REMARK SMILES Clc1ccc(Nc2nnc(Cc3ccncc3)c3ccccc23)cc1
REMARK SMILES IDX 7 1 8 2 9 3 10 4 18 5 19 6 20 7 21 8 22 9 23 10 6 11 5 13
REMARK SMILES IDX 1 14 2 15 3 16 25 17 4 18 24 19 11 20 12 21 13 22 17 23
REMARK SMILES IDX 14 24 16 25 15 26
REMARK H PARENT 6 12
REMARK Flexibility Score: inf
ROOT
ATOM      1  C   UNL     1      26.920  18.054  30.232  1.00  0.00     0.160 A 
ATOM      2  N   UNL     1      25.795  18.813  30.285  1.00  0.00    -0.132 NA
ATOM      3  N   UNL     1      25.791  20.100  29.947  1.00  0.00    -0.153 NA
ATOM      4  C   UNL     1      26.914  20.746  29.541  1.00  0.00     0.075 A 
ATOM      5  C   UNL     1      28.128  20.024  29.458  1.00  0.00     0.009 A 
ATOM      6  C   UNL     1      29.334  20.622  29.034  1.00  0.00     0.011 A 
ATOM      7  C   UNL     1      30.506  19.872  28.944  1.00  0.00     0.001 A 
ATOM      8  C   UNL     1      30.498  18.517  29.266  1.00  0.00     0.001 A 
ATOM      9  C   UNL     1      29.320  17.904  29.692  1.00  0.00     0.013 A 
ATOM     10  C   UNL     1      28.127  18.648  29.808  1.00  0.00     0.028 A 
ENDROOT
BRANCH   1  11
ATOM     11  N   UNL     1      26.862  16.683  30.665  1.00  0.00    -0.338 N 
ATOM     12  H   UNL     1      27.285  15.953  30.050  1.00  0.00     0.168 HD
BRANCH  11  13
ATOM     13  C   UNL     1      26.417  16.287  31.973  1.00  0.00     0.040 A 
ATOM     14  Cl  UNL     1      25.104  14.987  36.148  1.00  0.00    -0.084 Cl
ATOM     15  C   UNL     1      25.609  15.484  34.543  1.00  0.00     0.041 A 
ATOM     16  C   UNL     1      26.823  16.156  34.368  1.00  0.00     0.022 A 
ATOM     17  C   UNL     1      24.804  15.199  33.437  1.00  0.00     0.022 A 
ATOM     18  C   UNL     1      27.228  16.550  33.089  1.00  0.00     0.027 A 
ATOM     19  C   UNL     1      25.206  15.592  32.156  1.00  0.00     0.027 A 
ENDBRANCH  11  13
ENDBRANCH   1  11
BRANCH   4  20
ATOM     20  C   UNL     1      26.783  22.199  29.151  1.00  0.00     0.094 C 
BRANCH  20  21
ATOM     21  C   UNL     1      26.687  23.086  30.367  1.00  0.00    -0.039 A 
ATOM     22  C   UNL     1      26.974  24.457  30.271  1.00  0.00     0.024 A 
ATOM     23  C   UNL     1      26.279  22.563  31.603  1.00  0.00     0.024 A 
ATOM     24  C   UNL     1      26.871  25.265  31.405  1.00  0.00     0.111 A 
ATOM     25  C   UNL     1      26.189  23.407  32.713  1.00  0.00     0.111 A 
ATOM     26  N   UNL     1      26.486  24.727  32.593  1.00  0.00    -0.265 NA
ENDBRANCH  20  21
ENDBRANCH   4  20
TORSDOF 4
ENDMDL
MODEL 9
REMARK VINA RESULT:    -7.864     11.480     13.514
REMARK INTER + INTRA:         -10.109
REMARK INTER:                  -9.172
REMARK INTRA:                  -0.937
REMARK UNBOUND:                -0.406
REMARK SMILES Clc1ccc(Nc2nnc(Cc3ccncc3)c3ccccc23)cc1
REMARK SMILES IDX 7 1 8 2 9 3 10 4 18 5 19 6 20 7 21 8 22 9 23 10 6 11 5 13
REMARK SMILES IDX 1 14 2 15 3 16 25 17 4 18 24 19 11 20 12 21 13 22 17 23
REMARK SMILES IDX 14 24 16 25 15 26
REMARK H PARENT 6 12
REMARK Flexibility Score: inf
ROOT
ATOM      1  C   UNL     1      11.469  20.859  35.963  1.00  0.00     0.160 A 
ATOM      2  N   UNL     1      10.389  21.631  36.248  1.00  0.00    -0.132 NA
ATOM      3  N   UNL     1      10.210  22.185  37.444  1.00  0.00    -0.153 NA
ATOM      4  C   UNL     1      11.086  22.006  38.466  1.00  0.00     0.075 A 
ATOM      5  C   UNL     1      12.240  21.215  38.248  1.00  0.00     0.009 A 
ATOM      6  C   UNL     1      13.201  20.991  39.255  1.00  0.00     0.011 A 
ATOM      7  C   UNL     1      14.337  20.224  38.996  1.00  0.00     0.001 A 
ATOM      8  C   UNL     1      14.537  19.673  37.732  1.00  0.00     0.001 A 
ATOM      9  C   UNL     1      13.598  19.876  36.722  1.00  0.00     0.013 A 
ATOM     10  C   UNL     1      12.434  20.634  36.967  1.00  0.00     0.028 A 
ENDROOT
BRANCH   1  11
ATOM     11  N   UNL     1      11.570  20.246  34.665  1.00  0.00    -0.338 N 
ATOM     12  H   UNL     1      12.503  19.890  34.358  1.00  0.00     0.168 HD
BRANCH  11  13
ATOM     13  C   UNL     1      10.429  19.938  33.847  1.00  0.00     0.040 A 
ATOM     14  Cl  UNL     1       6.843  18.859  31.236  1.00  0.00    -0.084 Cl
ATOM     15  C   UNL     1       8.223  19.273  32.237  1.00  0.00     0.041 A 
ATOM     16  C   UNL     1       8.633  18.408  33.256  1.00  0.00     0.022 A 
ATOM     17  C   UNL     1       8.920  20.463  32.011  1.00  0.00     0.022 A 
ATOM     18  C   UNL     1       9.734  18.736  34.053  1.00  0.00     0.027 A 
ATOM     19  C   UNL     1      10.021  20.795  32.806  1.00  0.00     0.027 A 
ENDBRANCH  11  13
ENDBRANCH   1  11
BRANCH   4  20
ATOM     20  C   UNL     1      10.796  22.711  39.769  1.00  0.00     0.094 C 
BRANCH  20  21
ATOM     21  C   UNL     1      11.114  24.182  39.679  1.00  0.00    -0.039 A 
ATOM     22  C   UNL     1      12.439  24.631  39.795  1.00  0.00     0.024 A 
ATOM     23  C   UNL     1      10.098  25.121  39.445  1.00  0.00     0.024 A 
ATOM     24  C   UNL     1      12.716  25.996  39.700  1.00  0.00     0.111 A 
ATOM     25  C   UNL     1      10.418  26.478  39.356  1.00  0.00     0.111 A 
ATOM     26  N   UNL     1      11.709  26.884  39.486  1.00  0.00    -0.265 NA
ENDBRANCH  20  21
ENDBRANCH   4  20
TORSDOF 4
ENDMDL
MODEL 10
REMARK VINA RESULT:    -7.781     12.223     14.738
REMARK INTER + INTRA:         -10.007
REMARK INTER:                  -9.087
REMARK INTRA:                  -0.920
REMARK UNBOUND:                -0.406
REMARK SMILES Clc1ccc(Nc2nnc(Cc3ccncc3)c3ccccc23)cc1
REMARK SMILES IDX 7 1 8 2 9 3 10 4 18 5 19 6 20 7 21 8 22 9 23 10 6 11 5 13
REMARK SMILES IDX 1 14 2 15 3 16 25 17 4 18 24 19 11 20 12 21 13 22 17 23
REMARK SMILES IDX 14 24 16 25 15 26
REMARK H PARENT 6 12
REMARK Flexibility Score: inf
ROOT
ATOM      1  C   UNL     1      10.502  19.707  36.051  1.00  0.00     0.160 A 
ATOM      2  N   UNL     1       9.903  18.532  36.375  1.00  0.00    -0.132 NA
ATOM      3  N   UNL     1      10.537  17.577  37.051  1.00  0.00    -0.153 NA
ATOM      4  C   UNL     1      11.829  17.705  37.449  1.00  0.00     0.075 A 
ATOM      5  C   UNL     1      12.523  18.902  37.150  1.00  0.00     0.009 A 
ATOM      6  C   UNL     1      13.862  19.114  37.540  1.00  0.00     0.011 A 
ATOM      7  C   UNL     1      14.505  20.316  37.246  1.00  0.00     0.001 A 
ATOM      8  C   UNL     1      13.827  21.327  36.568  1.00  0.00     0.001 A 
ATOM      9  C   UNL     1      12.505  21.139  36.169  1.00  0.00     0.013 A 
ATOM     10  C   UNL     1      11.841  19.924  36.439  1.00  0.00     0.028 A 
ENDROOT
BRANCH   1  11
ATOM     11  N   UNL     1       9.774  20.673  35.271  1.00  0.00    -0.338 N 
ATOM     12  H   UNL     1       9.747  21.661  35.608  1.00  0.00     0.168 HD
BRANCH  11  13
ATOM     13  C   UNL     1       9.237  20.391  33.967  1.00  0.00     0.040 A 
ATOM     14  Cl  UNL     1       7.556  19.600  29.798  1.00  0.00    -0.084 Cl
ATOM     15  C   UNL     1       8.200  19.906  31.400  1.00  0.00     0.041 A 
ATOM     16  C   UNL     1       9.433  20.548  31.548  1.00  0.00     0.022 A 
ATOM     17  C   UNL     1       7.476  19.518  32.531  1.00  0.00     0.022 A 
ATOM     18  C   UNL     1       9.947  20.794  32.825  1.00  0.00     0.027 A 
ATOM     19  C   UNL     1       7.987  19.763  33.810  1.00  0.00     0.027 A 
ENDBRANCH  11  13
ENDBRANCH   1  11
BRANCH   4  20
ATOM     20  C   UNL     1      12.434  16.569  38.239  1.00  0.00     0.094 C 
BRANCH  20  21
ATOM     21  C   UNL     1      11.964  16.586  39.672  1.00  0.00    -0.039 A 
ATOM     22  C   UNL     1      12.365  17.614  40.539  1.00  0.00     0.024 A 
ATOM     23  C   UNL     1      11.093  15.595  40.150  1.00  0.00     0.024 A 
ATOM     24  C   UNL     1      11.913  17.618  41.860  1.00  0.00     0.111 A 
ATOM     25  C   UNL     1      10.665  15.636  41.479  1.00  0.00     0.111 A 
ATOM     26  N   UNL     1      11.081  16.637  42.300  1.00  0.00    -0.265 NA
ENDBRANCH  20  21
ENDBRANCH   4  20
TORSDOF 4
ENDMDL
MODEL 11
REMARK VINA RESULT:    -7.767      9.089     13.205
REMARK INTER + INTRA:          -9.989
REMARK INTER:                  -9.004
REMARK INTRA:                  -0.985
REMARK UNBOUND:                -0.406
REMARK SMILES Clc1ccc(Nc2nnc(Cc3ccncc3)c3ccccc23)cc1
REMARK SMILES IDX 7 1 8 2 9 3 10 4 18 5 19 6 20 7 21 8 22 9 23 10 6 11 5 13
REMARK SMILES IDX 1 14 2 15 3 16 25 17 4 18 24 19 11 20 12 21 13 22 17 23
REMARK SMILES IDX 14 24 16 25 15 26
REMARK H PARENT 6 12
REMARK Flexibility Score: inf
ROOT
ATOM      1  C   UNL     1      13.074  25.793  40.608  1.00  0.00     0.160 A 
ATOM      2  N   UNL     1      12.663  26.058  39.341  1.00  0.00    -0.132 NA
ATOM      3  N   UNL     1      11.431  26.482  39.071  1.00  0.00    -0.153 NA
ATOM      4  C   UNL     1      10.497  26.665  40.040  1.00  0.00     0.075 A 
ATOM      5  C   UNL     1      10.849  26.412  41.387  1.00  0.00     0.009 A 
ATOM      6  C   UNL     1       9.939  26.589  42.450  1.00  0.00     0.011 A 
ATOM      7  C   UNL     1      10.329  26.350  43.767  1.00  0.00     0.001 A 
ATOM      8  C   UNL     1      11.630  25.938  44.049  1.00  0.00     0.001 A 
ATOM      9  C   UNL     1      12.547  25.752  43.015  1.00  0.00     0.013 A 
ATOM     10  C   UNL     1      12.168  25.970  41.674  1.00  0.00     0.028 A 
ENDROOT
BRANCH   1  11
ATOM     11  N   UNL     1      14.404  25.286  40.822  1.00  0.00    -0.338 N 
ATOM     12  H   UNL     1      14.550  24.252  40.783  1.00  0.00     0.168 HD
BRANCH  11  13
ATOM     13  C   UNL     1      15.566  26.128  40.906  1.00  0.00     0.040 A 
ATOM     14  Cl  UNL     1      19.312  28.717  41.218  1.00  0.00    -0.084 Cl
ATOM     15  C   UNL     1      17.873  27.722  41.101  1.00  0.00     0.041 A 
ATOM     16  C   UNL     1      17.962  26.418  40.606  1.00  0.00     0.022 A 
ATOM     17  C   UNL     1      16.636  28.228  41.511  1.00  0.00     0.022 A 
ATOM     18  C   UNL     1      16.816  25.622  40.514  1.00  0.00     0.027 A 
ATOM     19  C   UNL     1      15.488  27.436  41.421  1.00  0.00     0.027 A 
ENDBRANCH  11  13
ENDBRANCH   1  11
BRANCH   4  20
ATOM     20  C   UNL     1       9.142  27.181  39.618  1.00  0.00     0.094 C 
BRANCH  20  21
ATOM     21  C   UNL     1       9.163  28.676  39.419  1.00  0.00    -0.039 A 
ATOM     22  C   UNL     1       8.617  29.245  38.257  1.00  0.00     0.024 A 
ATOM     23  C   UNL     1       9.696  29.521  40.403  1.00  0.00     0.024 A 
ATOM     24  C   UNL     1       8.637  30.632  38.093  1.00  0.00     0.111 A 
ATOM     25  C   UNL     1       9.696  30.903  40.200  1.00  0.00     0.111 A 
ATOM     26  N   UNL     1       9.173  31.425  39.059  1.00  0.00    -0.265 NA
ENDBRANCH  20  21
ENDBRANCH   4  20
TORSDOF 4
ENDMDL
MODEL 12
REMARK VINA RESULT:    -7.740      6.679     10.788
REMARK INTER + INTRA:          -9.956
REMARK INTER:                  -9.523
REMARK INTRA:                  -0.433
REMARK UNBOUND:                -0.406
REMARK SMILES Clc1ccc(Nc2nnc(Cc3ccncc3)c3ccccc23)cc1
REMARK SMILES IDX 7 1 8 2 9 3 10 4 18 5 19 6 20 7 21 8 22 9 23 10 6 11 5 13
REMARK SMILES IDX 1 14 2 15 3 16 25 17 4 18 24 19 11 20 12 21 13 22 17 23
REMARK SMILES IDX 14 24 16 25 15 26
REMARK H PARENT 6 12
REMARK Flexibility Score: inf
ROOT
ATOM      1  C   UNL     1      15.985  26.850  41.070  1.00  0.00     0.160 A 
ATOM      2  N   UNL     1      15.780  25.757  40.289  1.00  0.00    -0.132 NA
ATOM      3  N   UNL     1      14.564  25.382  39.903  1.00  0.00    -0.153 NA
ATOM      4  C   UNL     1      13.444  26.056  40.273  1.00  0.00     0.075 A 
ATOM      5  C   UNL     1      13.575  27.207  41.085  1.00  0.00     0.009 A 
ATOM      6  C   UNL     1      12.461  27.966  41.501  1.00  0.00     0.011 A 
ATOM      7  C   UNL     1      12.631  29.108  42.284  1.00  0.00     0.001 A 
ATOM      8  C   UNL     1      13.909  29.517  42.659  1.00  0.00     0.001 A 
ATOM      9  C   UNL     1      15.025  28.780  42.263  1.00  0.00     0.013 A 
ATOM     10  C   UNL     1      14.875  27.612  41.487  1.00  0.00     0.028 A 
ENDROOT
BRANCH   1  11
ATOM     11  N   UNL     1      17.323  27.166  41.495  1.00  0.00    -0.338 N 
ATOM     12  H   UNL     1      17.454  27.596  42.438  1.00  0.00     0.168 HD
BRANCH  11  13
ATOM     13  C   UNL     1      18.498  26.759  40.773  1.00  0.00     0.040 A 
ATOM     14  Cl  UNL     1      22.241  25.385  38.549  1.00  0.00    -0.084 Cl
ATOM     15  C   UNL     1      20.804  25.913  39.406  1.00  0.00     0.041 A 
ATOM     16  C   UNL     1      19.829  24.983  39.778  1.00  0.00     0.022 A 
ATOM     17  C   UNL     1      20.637  27.264  39.726  1.00  0.00     0.022 A 
ATOM     18  C   UNL     1      18.685  25.402  40.463  1.00  0.00     0.027 A 
ATOM     19  C   UNL     1      19.494  27.687  40.411  1.00  0.00     0.027 A 
ENDBRANCH  11  13
ENDBRANCH   1  11
BRANCH   4  20
ATOM     20  C   UNL     1      12.120  25.556  39.746  1.00  0.00     0.094 C 
BRANCH  20  21
ATOM     21  C   UNL     1      11.662  24.327  40.492  1.00  0.00    -0.039 A 
ATOM     22  C   UNL     1      11.796  23.055  39.914  1.00  0.00     0.024 A 
ATOM     23  C   UNL     1      11.127  24.433  41.785  1.00  0.00     0.024 A 
ATOM     24  C   UNL     1      11.375  21.928  40.622  1.00  0.00     0.111 A 
ATOM     25  C   UNL     1      10.718  23.280  42.458  1.00  0.00     0.111 A 
ATOM     26  N   UNL     1      10.848  22.062  41.868  1.00  0.00    -0.265 NA
ENDBRANCH  20  21
ENDBRANCH   4  20
TORSDOF 4
ENDMDL
MODEL 13
REMARK VINA RESULT:    -7.736      8.303     12.706
REMARK INTER + INTRA:          -9.952
REMARK INTER:                  -9.107
REMARK INTRA:                  -0.845
REMARK UNBOUND:                -0.406
REMARK SMILES Clc1ccc(Nc2nnc(Cc3ccncc3)c3ccccc23)cc1
REMARK SMILES IDX 7 1 8 2 9 3 10 4 18 5 19 6 20 7 21 8 22 9 23 10 6 11 5 13
REMARK SMILES IDX 1 14 2 15 3 16 25 17 4 18 24 19 11 20 12 21 13 22 17 23
REMARK SMILES IDX 14 24 16 25 15 26
REMARK H PARENT 6 12
REMARK Flexibility Score: inf
ROOT
ATOM      1  C   UNL     1      13.966  26.495  40.892  1.00  0.00     0.160 A 
ATOM      2  N   UNL     1      13.487  25.805  39.824  1.00  0.00    -0.132 NA
ATOM      3  N   UNL     1      12.357  26.146  39.210  1.00  0.00    -0.153 NA
ATOM      4  C   UNL     1      11.600  27.198  39.616  1.00  0.00     0.075 A 
ATOM      5  C   UNL     1      12.033  27.968  40.721  1.00  0.00     0.009 A 
ATOM      6  C   UNL     1      11.307  29.081  41.195  1.00  0.00     0.011 A 
ATOM      7  C   UNL     1      11.777  29.830  42.273  1.00  0.00     0.001 A 
ATOM      8  C   UNL     1      12.978  29.489  42.893  1.00  0.00     0.001 A 
ATOM      9  C   UNL     1      13.710  28.390  42.445  1.00  0.00     0.013 A 
ATOM     10  C   UNL     1      13.244  27.609  41.368  1.00  0.00     0.028 A 
ENDROOT
BRANCH   1  11
ATOM     11  N   UNL     1      15.165  26.036  41.541  1.00  0.00    -0.338 N 
ATOM     12  H   UNL     1      15.082  25.279  42.256  1.00  0.00     0.168 HD
BRANCH  11  13
ATOM     13  C   UNL     1      16.485  26.435  41.134  1.00  0.00     0.040 A 
ATOM     14  Cl  UNL     1      20.719  27.623  39.907  1.00  0.00    -0.084 Cl
ATOM     15  C   UNL     1      19.093  27.167  40.381  1.00  0.00     0.041 A 
ATOM     16  C   UNL     1      18.726  25.818  40.416  1.00  0.00     0.022 A 
ATOM     17  C   UNL     1      18.165  28.151  40.735  1.00  0.00     0.022 A 
ATOM     18  C   UNL     1      17.431  25.453  40.796  1.00  0.00     0.027 A 
ATOM     19  C   UNL     1      16.869  27.790  41.115  1.00  0.00     0.027 A 
ENDBRANCH  11  13
ENDBRANCH   1  11
BRANCH   4  20
ATOM     20  C   UNL     1      10.354  27.511  38.821  1.00  0.00     0.094 C 
BRANCH  20  21
ATOM     21  C   UNL     1       9.109  27.124  39.578  1.00  0.00    -0.039 A 
ATOM     22  C   UNL     1       8.045  28.030  39.705  1.00  0.00     0.024 A 
ATOM     23  C   UNL     1       8.981  25.844  40.138  1.00  0.00     0.024 A 
ATOM     24  C   UNL     1       6.895  27.652  40.403  1.00  0.00     0.111 A 
ATOM     25  C   UNL     1       7.814  25.506  40.828  1.00  0.00     0.111 A 
ATOM     26  N   UNL     1       6.805  26.409  40.946  1.00  0.00    -0.265 NA
ENDBRANCH  20  21
ENDBRANCH   4  20
TORSDOF 4
ENDMDL
MODEL 14
REMARK VINA RESULT:    -7.537      7.776     11.445
REMARK INTER + INTRA:          -9.706
REMARK INTER:                  -9.261
REMARK INTRA:                  -0.446
REMARK UNBOUND:                -0.406
REMARK SMILES Clc1ccc(Nc2nnc(Cc3ccncc3)c3ccccc23)cc1
REMARK SMILES IDX 7 1 8 2 9 3 10 4 18 5 19 6 20 7 21 8 22 9 23 10 6 11 5 13
REMARK SMILES IDX 1 14 2 15 3 16 25 17 4 18 24 19 11 20 12 21 13 22 17 23
REMARK SMILES IDX 14 24 16 25 15 26
REMARK H PARENT 6 12
REMARK Flexibility Score: inf
ROOT
ATOM      1  C   UNL     1      13.247  24.547  39.667  1.00  0.00     0.160 A 
ATOM      2  N   UNL     1      14.376  24.991  39.056  1.00  0.00    -0.132 NA
ATOM      3  N   UNL     1      15.141  25.942  39.587  1.00  0.00    -0.153 NA
ATOM      4  C   UNL     1      14.837  26.544  40.766  1.00  0.00     0.075 A 
ATOM      5  C   UNL     1      13.676  26.135  41.465  1.00  0.00     0.009 A 
ATOM      6  C   UNL     1      13.301  26.704  42.699  1.00  0.00     0.011 A 
ATOM      7  C   UNL     1      12.161  26.260  43.369  1.00  0.00     0.001 A 
ATOM      8  C   UNL     1      11.382  25.240  42.827  1.00  0.00     0.001 A 
ATOM      9  C   UNL     1      11.730  24.666  41.605  1.00  0.00     0.013 A 
ATOM     10  C   UNL     1      12.868  25.112  40.902  1.00  0.00     0.028 A 
ENDROOT
BRANCH   1  11
ATOM     11  N   UNL     1      12.439  23.555  39.009  1.00  0.00    -0.338 N 
ATOM     12  H   UNL     1      11.651  23.879  38.406  1.00  0.00     0.168 HD
BRANCH  11  13
ATOM     13  C   UNL     1      12.766  22.155  38.993  1.00  0.00     0.040 A 
ATOM     14  Cl  UNL     1      13.827  17.715  39.049  1.00  0.00    -0.084 Cl
ATOM     15  C   UNL     1      13.422  19.421  39.028  1.00  0.00     0.041 A 
ATOM     16  C   UNL     1      12.594  19.956  40.020  1.00  0.00     0.022 A 
ATOM     17  C   UNL     1      13.934  20.250  38.026  1.00  0.00     0.022 A 
ATOM     18  C   UNL     1      12.272  21.317  40.006  1.00  0.00     0.027 A 
ATOM     19  C   UNL     1      13.615  21.612  38.009  1.00  0.00     0.027 A 
ENDBRANCH  11  13
ENDBRANCH   1  11
BRANCH   4  20
ATOM     20  C   UNL     1      15.796  27.588  41.287  1.00  0.00     0.094 C 
BRANCH  20  21
ATOM     21  C   UNL     1      17.217  27.272  40.891  1.00  0.00    -0.039 A 
ATOM     22  C   UNL     1      18.098  28.302  40.525  1.00  0.00     0.024 A 
ATOM     23  C   UNL     1      17.689  25.951  40.913  1.00  0.00     0.024 A 
ATOM     24  C   UNL     1      19.412  27.993  40.170  1.00  0.00     0.111 A 
ATOM     25  C   UNL     1      19.012  25.685  40.550  1.00  0.00     0.111 A 
ATOM     26  N   UNL     1      19.838  26.702  40.188  1.00  0.00    -0.265 NA
ENDBRANCH  20  21
ENDBRANCH   4  20
TORSDOF 4
ENDMDL
MODEL 15
REMARK VINA RESULT:    -7.499      8.267     10.368
REMARK INTER + INTRA:          -9.658
REMARK INTER:                  -8.902
REMARK INTRA:                  -0.756
REMARK UNBOUND:                -0.406
REMARK SMILES Clc1ccc(Nc2nnc(Cc3ccncc3)c3ccccc23)cc1
REMARK SMILES IDX 7 1 8 2 9 3 10 4 18 5 19 6 20 7 21 8 22 9 23 10 6 11 5 13
REMARK SMILES IDX 1 14 2 15 3 16 25 17 4 18 24 19 11 20 12 21 13 22 17 23
REMARK SMILES IDX 14 24 16 25 15 26
REMARK H PARENT 6 12
REMARK Flexibility Score: inf
ROOT
ATOM      1  C   UNL     1      28.182  18.554  30.913  1.00  0.00     0.160 A 
ATOM      2  N   UNL     1      26.888  18.639  31.316  1.00  0.00    -0.132 NA
ATOM      3  N   UNL     1      26.235  17.598  31.827  1.00  0.00    -0.153 NA
ATOM      4  C   UNL     1      26.813  16.377  31.967  1.00  0.00     0.075 A 
ATOM      5  C   UNL     1      28.161  16.208  31.571  1.00  0.00     0.009 A 
ATOM      6  C   UNL     1      28.834  14.974  31.696  1.00  0.00     0.011 A 
ATOM      7  C   UNL     1      30.170  14.851  31.315  1.00  0.00     0.001 A 
ATOM      8  C   UNL     1      30.860  15.953  30.812  1.00  0.00     0.001 A 
ATOM      9  C   UNL     1      30.214  17.181  30.675  1.00  0.00     0.013 A 
ATOM     10  C   UNL     1      28.859  17.323  31.037  1.00  0.00     0.028 A 
ENDROOT
BRANCH   1  11
ATOM     11  N   UNL     1      28.807  19.705  30.319  1.00  0.00    -0.338 N 
ATOM     12  H   UNL     1      29.648  19.556  29.718  1.00  0.00     0.168 HD
BRANCH  11  13
ATOM     13  C   UNL     1      28.236  21.024  30.362  1.00  0.00     0.040 A 
ATOM     14  Cl  UNL     1      26.461  25.230  30.396  1.00  0.00    -0.084 Cl
ATOM     15  C   UNL     1      27.145  23.615  30.383  1.00  0.00     0.041 A 
ATOM     16  C   UNL     1      26.993  22.799  29.257  1.00  0.00     0.022 A 
ATOM     17  C   UNL     1      27.852  23.145  31.493  1.00  0.00     0.022 A 
ATOM     18  C   UNL     1      27.540  21.513  29.244  1.00  0.00     0.027 A 
ATOM     19  C   UNL     1      28.401  21.859  31.484  1.00  0.00     0.027 A 
ENDBRANCH  11  13
ENDBRANCH   1  11
BRANCH   4  20
ATOM     20  C   UNL     1      25.986  15.278  32.590  1.00  0.00     0.094 C 
BRANCH  20  21
ATOM     21  C   UNL     1      24.700  15.063  31.832  1.00  0.00    -0.039 A 
ATOM     22  C   UNL     1      24.707  14.978  30.431  1.00  0.00     0.024 A 
ATOM     23  C   UNL     1      23.483  14.913  32.515  1.00  0.00     0.024 A 
ATOM     24  C   UNL     1      23.508  14.771  29.746  1.00  0.00     0.111 A 
ATOM     25  C   UNL     1      22.306  14.707  31.791  1.00  0.00     0.111 A 
ATOM     26  N   UNL     1      22.342  14.643  30.434  1.00  0.00    -0.265 NA
ENDBRANCH  20  21
ENDBRANCH   4  20
TORSDOF 4
ENDMDL
