MODEL 1
REMARK VINA RESULT:    -9.056      0.000      0.000
REMARK INTER + INTRA:         -12.936
REMARK INTER:                 -11.968
REMARK INTRA:                  -0.968
REMARK UNBOUND:                -0.968
REMARK SMILES CC(C)CCC[C@@H](C)[C@H]1CC[C@H]2[C@@H]3CC=C4C[C@@H](O)CC[C@]4(C)[C@H]3CC[C@]12C
REMARK SMILES IDX 6 1 7 2 8 3 9 4 10 5 27 6 11 7 12 8 26 9 28 10 13 11 25 12
REMARK SMILES IDX 14 13 24 14 15 15 22 16 16 17 21 18 23 19 17 20 20 21 18 22
REMARK SMILES IDX 19 23 5 25 4 26 2 27 1 28 3 29
REMARK H PARENT 19 24
REMARK Flexibility Score: inf
ROOT
ATOM      1  C   UNL     1      16.892  79.400  -6.775  1.00  0.00     0.003 C 
ENDROOT
BRANCH   1   2
ATOM      2  C   UNL     1      15.928  80.157  -5.815  1.00  0.00    -0.011 C 
ATOM      3  C   UNL     1      15.633  81.558  -6.385  1.00  0.00     0.008 C 
BRANCH   2   4
ATOM      4  C   UNL     1      14.612  79.330  -5.594  1.00  0.00    -0.002 C 
ATOM      5  C   UNL     1      14.871  77.796  -5.607  1.00  0.00     0.005 C 
ATOM      6  C   UNL     1      13.802  79.548  -4.277  1.00  0.00    -0.026 C 
ATOM      7  C   UNL     1      13.867  77.150  -4.642  1.00  0.00     0.005 C 
ATOM      8  C   UNL     1      12.923  78.285  -4.289  1.00  0.00    -0.001 C 
ATOM      9  C   UNL     1      12.831  80.757  -4.275  1.00  0.00     0.007 C 
ATOM     10  C   UNL     1      14.766  79.609  -3.048  1.00  0.00     0.012 C 
ATOM     11  C   UNL     1      12.031  78.131  -3.035  1.00  0.00     0.000 C 
ATOM     12  C   UNL     1      11.875  80.712  -3.060  1.00  0.00     0.005 C 
ATOM     13  C   UNL     1      11.186  76.854  -3.132  1.00  0.00     0.031 C 
ATOM     14  C   UNL     1      11.088  79.368  -2.941  1.00  0.00     0.003 C 
ATOM     15  C   UNL     1      10.101  76.793  -2.096  1.00  0.00    -0.027 C 
ATOM     16  C   UNL     1      10.139  79.295  -1.682  1.00  0.00    -0.008 C 
ATOM     17  C   UNL     1       9.533  77.885  -1.539  1.00  0.00    -0.065 C 
ATOM     18  C   UNL     1       8.999  80.374  -1.829  1.00  0.00     0.014 C 
ATOM     19  C   UNL     1      10.936  79.567  -0.375  1.00  0.00     0.016 C 
ATOM     20  C   UNL     1       8.327  77.658  -0.639  1.00  0.00     0.063 C 
ATOM     21  C   UNL     1       7.567  79.855  -1.622  1.00  0.00     0.033 C 
ATOM     22  C   UNL     1       7.470  78.916  -0.416  1.00  0.00     0.118 C 
BRANCH  22  23
ATOM     23  O   UNL     1       7.867  79.576   0.759  1.00  0.00    -0.393 OA
ATOM     24  H   UNL     1       7.049  79.978   1.154  1.00  0.00     0.210 HD
ENDBRANCH  22  23
ENDBRANCH   2   4
ENDBRANCH   1   2
BRANCH   1  25
ATOM     25  C   UNL     1      18.367  79.862  -6.672  1.00  0.00     0.001 C 
BRANCH  25  26
ATOM     26  C   UNL     1      18.744  80.398  -5.272  1.00  0.00     0.003 C 
BRANCH  26  27
ATOM     27  C   UNL     1      19.241  81.863  -5.283  1.00  0.00    -0.017 C 
ATOM     28  C   UNL     1      19.491  82.323  -6.725  1.00  0.00     0.007 C 
ATOM     29  C   UNL     1      20.516  82.050  -4.449  1.00  0.00     0.007 C 
ENDBRANCH  26  27
ENDBRANCH  25  26
ENDBRANCH   1  25
TORSDOF 6
ENDMDL
MODEL 2
REMARK VINA RESULT:    -8.905      2.818      8.590
REMARK INTER + INTRA:         -12.737
REMARK INTER:                 -11.323
REMARK INTRA:                  -1.413
REMARK UNBOUND:                -0.968
REMARK SMILES CC(C)CCC[C@@H](C)[C@H]1CC[C@H]2[C@@H]3CC=C4C[C@@H](O)CC[C@]4(C)[C@H]3CC[C@]12C
REMARK SMILES IDX 6 1 7 2 8 3 9 4 10 5 27 6 11 7 12 8 26 9 28 10 13 11 25 12
REMARK SMILES IDX 14 13 24 14 15 15 22 16 16 17 21 18 23 19 17 20 20 21 18 22
REMARK SMILES IDX 19 23 5 25 4 26 2 27 1 28 3 29
REMARK H PARENT 19 24
REMARK Flexibility Score: inf
ROOT
ATOM      1  C   UNL     1      10.464  77.389  -0.793  1.00  0.00     0.003 C 
ENDROOT
BRANCH   1   2
ATOM      2  C   UNL     1      11.309  78.621  -1.232  1.00  0.00    -0.011 C 
ATOM      3  C   UNL     1      11.808  79.371   0.019  1.00  0.00     0.008 C 
BRANCH   2   4
ATOM      4  C   UNL     1      12.498  78.170  -2.153  1.00  0.00    -0.002 C 
ATOM      5  C   UNL     1      12.076  77.065  -3.163  1.00  0.00     0.005 C 
ATOM      6  C   UNL     1      13.191  79.238  -3.057  1.00  0.00    -0.026 C 
ATOM      7  C   UNL     1      12.902  77.266  -4.441  1.00  0.00     0.005 C 
ATOM      8  C   UNL     1      13.924  78.318  -4.049  1.00  0.00    -0.001 C 
ATOM      9  C   UNL     1      14.284  80.098  -2.369  1.00  0.00     0.007 C 
ATOM     10  C   UNL     1      12.122  80.148  -3.744  1.00  0.00     0.012 C 
ATOM     11  C   UNL     1      14.663  79.074  -5.176  1.00  0.00     0.000 C 
ATOM     12  C   UNL     1      15.103  80.904  -3.403  1.00  0.00     0.005 C 
ATOM     13  C   UNL     1      15.369  78.084  -6.113  1.00  0.00     0.031 C 
ATOM     14  C   UNL     1      15.722  80.017  -4.530  1.00  0.00     0.003 C 
ATOM     15  C   UNL     1      16.332  78.754  -7.050  1.00  0.00    -0.027 C 
ATOM     16  C   UNL     1      16.527  80.835  -5.615  1.00  0.00    -0.008 C 
ATOM     17  C   UNL     1      16.958  79.919  -6.777  1.00  0.00    -0.065 C 
ATOM     18  C   UNL     1      17.787  81.495  -4.935  1.00  0.00     0.014 C 
ATOM     19  C   UNL     1      15.638  81.949  -6.237  1.00  0.00     0.016 C 
ATOM     20  C   UNL     1      18.036  80.374  -7.751  1.00  0.00     0.063 C 
ATOM     21  C   UNL     1      19.126  81.256  -5.651  1.00  0.00     0.033 C 
ATOM     22  C   UNL     1      18.998  81.423  -7.169  1.00  0.00     0.118 C 
BRANCH  22  23
ATOM     23  O   UNL     1      18.561  82.719  -7.489  1.00  0.00    -0.393 OA
ATOM     24  H   UNL     1      18.599  82.799  -8.478  1.00  0.00     0.210 HD
ENDBRANCH  22  23
ENDBRANCH   2   4
ENDBRANCH   1   2
BRANCH   1  25
ATOM     25  C   UNL     1       8.935  77.607  -0.906  1.00  0.00     0.001 C 
BRANCH  25  26
ATOM     26  C   UNL     1       8.521  78.389  -2.174  1.00  0.00     0.003 C 
BRANCH  26  27
ATOM     27  C   UNL     1       7.864  79.757  -1.873  1.00  0.00    -0.017 C 
ATOM     28  C   UNL     1       8.638  80.878  -2.580  1.00  0.00     0.007 C 
ATOM     29  C   UNL     1       7.791  80.047  -0.367  1.00  0.00     0.007 C 
ENDBRANCH  26  27
ENDBRANCH  25  26
ENDBRANCH   1  25
TORSDOF 6
ENDMDL
MODEL 3
REMARK VINA RESULT:    -8.507      2.985      8.841
REMARK INTER + INTRA:         -12.210
REMARK INTER:                 -11.273
REMARK INTRA:                  -0.937
REMARK UNBOUND:                -0.968
REMARK SMILES CC(C)CCC[C@@H](C)[C@H]1CC[C@H]2[C@@H]3CC=C4C[C@@H](O)CC[C@]4(C)[C@H]3CC[C@]12C
REMARK SMILES IDX 6 1 7 2 8 3 9 4 10 5 27 6 11 7 12 8 26 9 28 10 13 11 25 12
REMARK SMILES IDX 14 13 24 14 15 15 22 16 16 17 21 18 23 19 17 20 20 21 18 22
REMARK SMILES IDX 19 23 5 25 4 26 2 27 1 28 3 29
REMARK H PARENT 19 24
REMARK Flexibility Score: inf
ROOT
ATOM      1  C   UNL     1      10.629  77.416  -0.854  1.00  0.00     0.003 C 
ENDROOT
BRANCH   1   2
ATOM      2  C   UNL     1      11.466  78.651  -1.299  1.00  0.00    -0.011 C 
ATOM      3  C   UNL     1      11.978  79.399  -0.052  1.00  0.00     0.008 C 
BRANCH   2   4
ATOM      4  C   UNL     1      12.645  78.205  -2.235  1.00  0.00    -0.002 C 
ATOM      5  C   UNL     1      12.218  77.089  -3.231  1.00  0.00     0.005 C 
ATOM      6  C   UNL     1      13.314  79.274  -3.156  1.00  0.00    -0.026 C 
ATOM      7  C   UNL     1      13.023  77.290  -4.522  1.00  0.00     0.005 C 
ATOM      8  C   UNL     1      14.041  78.353  -4.153  1.00  0.00    -0.001 C 
ATOM      9  C   UNL     1      14.409  80.148  -2.490  1.00  0.00     0.007 C 
ATOM     10  C   UNL     1      12.226  80.168  -3.833  1.00  0.00     0.012 C 
ATOM     11  C   UNL     1      14.756  79.109  -5.296  1.00  0.00     0.000 C 
ATOM     12  C   UNL     1      15.205  80.955  -3.542  1.00  0.00     0.005 C 
ATOM     13  C   UNL     1      15.457  78.119  -6.236  1.00  0.00     0.031 C 
ATOM     14  C   UNL     1      15.816  80.066  -4.672  1.00  0.00     0.003 C 
ATOM     15  C   UNL     1      16.400  78.792  -7.193  1.00  0.00    -0.027 C 
ATOM     16  C   UNL     1      16.596  80.884  -5.774  1.00  0.00    -0.008 C 
ATOM     17  C   UNL     1      17.018  79.965  -6.937  1.00  0.00    -0.065 C 
ATOM     18  C   UNL     1      17.860  81.561  -5.118  1.00  0.00     0.014 C 
ATOM     19  C   UNL     1      15.688  81.986  -6.390  1.00  0.00     0.016 C 
ATOM     20  C   UNL     1      18.077  80.423  -7.929  1.00  0.00     0.063 C 
ATOM     21  C   UNL     1      19.191  81.329  -5.852  1.00  0.00     0.033 C 
ATOM     22  C   UNL     1      19.039  81.485  -7.369  1.00  0.00     0.118 C 
BRANCH  22  23
ATOM     23  O   UNL     1      18.584  82.775  -7.691  1.00  0.00    -0.393 OA
ATOM     24  H   UNL     1      18.045  82.691  -8.521  1.00  0.00     0.210 HD
ENDBRANCH  22  23
ENDBRANCH   2   4
ENDBRANCH   1   2
BRANCH   1  25
ATOM     25  C   UNL     1       9.115  77.544  -1.158  1.00  0.00     0.001 C 
BRANCH  25  26
ATOM     26  C   UNL     1       8.742  77.114  -2.595  1.00  0.00     0.003 C 
BRANCH  26  27
ATOM     27  C   UNL     1       8.092  75.712  -2.674  1.00  0.00    -0.017 C 
ATOM     28  C   UNL     1       9.178  74.636  -2.800  1.00  0.00     0.007 C 
ATOM     29  C   UNL     1       7.105  75.594  -3.844  1.00  0.00     0.007 C 
ENDBRANCH  26  27
ENDBRANCH  25  26
ENDBRANCH   1  25
TORSDOF 6
ENDMDL
MODEL 4
REMARK VINA RESULT:    -8.381      2.865      9.125
REMARK INTER + INTRA:         -12.044
REMARK INTER:                 -11.319
REMARK INTRA:                  -0.725
REMARK UNBOUND:                -0.968
REMARK SMILES CC(C)CCC[C@@H](C)[C@H]1CC[C@H]2[C@@H]3CC=C4C[C@@H](O)CC[C@]4(C)[C@H]3CC[C@]12C
REMARK SMILES IDX 6 1 7 2 8 3 9 4 10 5 27 6 11 7 12 8 26 9 28 10 13 11 25 12
REMARK SMILES IDX 14 13 24 14 15 15 22 16 16 17 21 18 23 19 17 20 20 21 18 22
REMARK SMILES IDX 19 23 5 25 4 26 2 27 1 28 3 29
REMARK H PARENT 19 24
REMARK Flexibility Score: inf
ROOT
ATOM      1  C   UNL     1      10.014  77.774  -0.512  1.00  0.00     0.003 C 
ENDROOT
BRANCH   1   2
ATOM      2  C   UNL     1      11.038  78.898  -0.847  1.00  0.00    -0.011 C 
ATOM      3  C   UNL     1      11.617  79.471   0.462  1.00  0.00     0.008 C 
BRANCH   2   4
ATOM      4  C   UNL     1      12.165  78.349  -1.792  1.00  0.00    -0.002 C 
ATOM      5  C   UNL     1      11.644  77.241  -2.751  1.00  0.00     0.005 C 
ATOM      6  C   UNL     1      12.889  79.346  -2.751  1.00  0.00    -0.026 C 
ATOM      7  C   UNL     1      12.436  77.354  -4.060  1.00  0.00     0.005 C 
ATOM      8  C   UNL     1      13.532  78.353  -3.736  1.00  0.00    -0.001 C 
ATOM      9  C   UNL     1      14.054  80.158  -2.127  1.00  0.00     0.007 C 
ATOM     10  C   UNL     1      11.852  80.297  -3.432  1.00  0.00     0.012 C 
ATOM     11  C   UNL     1      14.276  79.029  -4.911  1.00  0.00     0.000 C 
ATOM     12  C   UNL     1      14.884  80.882  -3.213  1.00  0.00     0.005 C 
ATOM     13  C   UNL     1      14.889  77.970  -5.837  1.00  0.00     0.031 C 
ATOM     14  C   UNL     1      15.410  79.926  -4.330  1.00  0.00     0.003 C 
ATOM     15  C   UNL     1      15.857  78.552  -6.826  1.00  0.00    -0.027 C 
ATOM     16  C   UNL     1      16.224  80.660  -5.466  1.00  0.00    -0.008 C 
ATOM     17  C   UNL     1      16.560  79.685  -6.611  1.00  0.00    -0.065 C 
ATOM     18  C   UNL     1      17.544  81.264  -4.849  1.00  0.00     0.014 C 
ATOM     19  C   UNL     1      15.382  81.807  -6.094  1.00  0.00     0.016 C 
ATOM     20  C   UNL     1      17.629  80.044  -7.633  1.00  0.00     0.063 C 
ATOM     21  C   UNL     1      18.841  80.922  -5.600  1.00  0.00     0.033 C 
ATOM     22  C   UNL     1      18.672  81.051  -7.117  1.00  0.00     0.118 C 
BRANCH  22  23
ATOM     23  O   UNL     1      18.301  82.361  -7.464  1.00  0.00    -0.393 OA
ATOM     24  H   UNL     1      17.669  82.676  -6.766  1.00  0.00     0.210 HD
ENDBRANCH  22  23
ENDBRANCH   2   4
ENDBRANCH   1   2
BRANCH   1  25
ATOM     25  C   UNL     1       8.584  78.052  -1.040  1.00  0.00     0.001 C 
BRANCH  25  26
ATOM     26  C   UNL     1       7.657  76.817  -0.973  1.00  0.00     0.003 C 
BRANCH  26  27
ATOM     27  C   UNL     1       6.915  76.672   0.376  1.00  0.00    -0.017 C 
ATOM     28  C   UNL     1       5.942  75.486   0.316  1.00  0.00     0.007 C 
ATOM     29  C   UNL     1       6.154  77.949   0.762  1.00  0.00     0.007 C 
ENDBRANCH  26  27
ENDBRANCH  25  26
ENDBRANCH   1  25
TORSDOF 6
ENDMDL
MODEL 5
REMARK VINA RESULT:    -7.965      3.133      8.305
REMARK INTER + INTRA:         -11.494
REMARK INTER:                 -11.557
REMARK INTRA:                   0.064
REMARK UNBOUND:                -0.968
REMARK SMILES CC(C)CCC[C@@H](C)[C@H]1CC[C@H]2[C@@H]3CC=C4C[C@@H](O)CC[C@]4(C)[C@H]3CC[C@]12C
REMARK SMILES IDX 6 1 7 2 8 3 9 4 10 5 27 6 11 7 12 8 26 9 28 10 13 11 25 12
REMARK SMILES IDX 14 13 24 14 15 15 22 16 16 17 21 18 23 19 17 20 20 21 18 22
REMARK SMILES IDX 19 23 5 25 4 26 2 27 1 28 3 29
REMARK H PARENT 19 24
REMARK Flexibility Score: inf
ROOT
ATOM      1  C   UNL     1      11.205  80.010  -2.425  1.00  0.00     0.003 C 
ENDROOT
BRANCH   1   2
ATOM      2  C   UNL     1      11.670  78.566  -2.075  1.00  0.00    -0.011 C 
ATOM      3  C   UNL     1      10.512  77.580  -2.328  1.00  0.00     0.008 C 
BRANCH   2   4
ATOM      4  C   UNL     1      12.948  78.186  -2.903  1.00  0.00    -0.002 C 
ATOM      5  C   UNL     1      12.670  77.050  -3.929  1.00  0.00     0.005 C 
ATOM      6  C   UNL     1      13.638  79.290  -3.765  1.00  0.00    -0.026 C 
ATOM      7  C   UNL     1      13.574  77.296  -5.146  1.00  0.00     0.005 C 
ATOM      8  C   UNL     1      14.497  78.412  -4.691  1.00  0.00    -0.001 C 
ATOM      9  C   UNL     1      14.622  80.220  -3.008  1.00  0.00     0.007 C 
ATOM     10  C   UNL     1      12.567  80.127  -4.537  1.00  0.00     0.012 C 
ATOM     11  C   UNL     1      15.269  79.207  -5.769  1.00  0.00     0.000 C 
ATOM     12  C   UNL     1      15.463  81.071  -3.988  1.00  0.00     0.005 C 
ATOM     13  C   UNL     1      16.101  78.257  -6.642  1.00  0.00     0.031 C 
ATOM     14  C   UNL     1      16.217  80.218  -5.058  1.00  0.00     0.003 C 
ATOM     15  C   UNL     1      17.087  78.981  -7.514  1.00  0.00    -0.027 C 
ATOM     16  C   UNL     1      17.046  81.079  -6.089  1.00  0.00    -0.008 C 
ATOM     17  C   UNL     1      17.617  80.185  -7.208  1.00  0.00    -0.065 C 
ATOM     18  C   UNL     1      18.210  81.820  -5.326  1.00  0.00     0.014 C 
ATOM     19  C   UNL     1      16.138  82.131  -6.785  1.00  0.00     0.016 C 
ATOM     20  C   UNL     1      18.734  80.701  -8.105  1.00  0.00     0.063 C 
ATOM     21  C   UNL     1      19.611  81.661  -5.941  1.00  0.00     0.033 C 
ATOM     22  C   UNL     1      19.584  81.812  -7.465  1.00  0.00     0.118 C 
BRANCH  22  23
ATOM     23  O   UNL     1      19.091  83.076  -7.829  1.00  0.00    -0.393 OA
ATOM     24  H   UNL     1      19.641  83.749  -7.348  1.00  0.00     0.210 HD
ENDBRANCH  22  23
ENDBRANCH   2   4
ENDBRANCH   1   2
BRANCH   1  25
ATOM     25  C   UNL     1      10.666  80.805  -1.209  1.00  0.00     0.001 C 
BRANCH  25  26
ATOM     26  C   UNL     1      11.785  81.399  -0.322  1.00  0.00     0.003 C 
BRANCH  26  27
ATOM     27  C   UNL     1      12.337  80.405   0.727  1.00  0.00    -0.017 C 
ATOM     28  C   UNL     1      11.924  80.847   2.137  1.00  0.00     0.007 C 
ATOM     29  C   UNL     1      13.864  80.269   0.652  1.00  0.00     0.007 C 
ENDBRANCH  26  27
ENDBRANCH  25  26
ENDBRANCH   1  25
TORSDOF 6
ENDMDL
MODEL 6
REMARK VINA RESULT:    -7.848      4.672      6.939
REMARK INTER + INTRA:         -11.340
REMARK INTER:                 -10.965
REMARK INTRA:                  -0.375
REMARK UNBOUND:                -0.968
REMARK SMILES CC(C)CCC[C@@H](C)[C@H]1CC[C@H]2[C@@H]3CC=C4C[C@@H](O)CC[C@]4(C)[C@H]3CC[C@]12C
REMARK SMILES IDX 6 1 7 2 8 3 9 4 10 5 27 6 11 7 12 8 26 9 28 10 13 11 25 12
REMARK SMILES IDX 14 13 24 14 15 15 22 16 16 17 21 18 23 19 17 20 20 21 18 22
REMARK SMILES IDX 19 23 5 25 4 26 2 27 1 28 3 29
REMARK H PARENT 19 24
REMARK Flexibility Score: inf
ROOT
ATOM      1  C   UNL     1      10.827  80.815   1.420  1.00  0.00     0.003 C 
ENDROOT
BRANCH   1   2
ATOM      2  C   UNL     1      10.117  81.124   0.070  1.00  0.00    -0.011 C 
ATOM      3  C   UNL     1      11.174  81.455  -1.001  1.00  0.00     0.008 C 
BRANCH   2   4
ATOM      4  C   UNL     1       9.210  79.917  -0.361  1.00  0.00    -0.002 C 
ATOM      5  C   UNL     1       8.042  80.358  -1.289  1.00  0.00     0.005 C 
ATOM      6  C   UNL     1       9.862  78.732  -1.141  1.00  0.00    -0.026 C 
ATOM      7  C   UNL     1       7.760  79.203  -2.258  1.00  0.00     0.005 C 
ATOM      8  C   UNL     1       8.601  78.062  -1.716  1.00  0.00    -0.001 C 
ATOM      9  C   UNL     1      10.569  77.659  -0.272  1.00  0.00     0.007 C 
ATOM     10  C   UNL     1      10.825  79.272  -2.247  1.00  0.00     0.012 C 
ATOM     11  C   UNL     1       8.898  76.865  -2.649  1.00  0.00     0.000 C 
ATOM     12  C   UNL     1      10.915  76.399  -1.099  1.00  0.00     0.005 C 
ATOM     13  C   UNL     1       7.590  76.254  -3.171  1.00  0.00     0.031 C 
ATOM     14  C   UNL     1       9.684  75.789  -1.841  1.00  0.00     0.003 C 
ATOM     15  C   UNL     1       7.795  74.928  -3.843  1.00  0.00    -0.027 C 
ATOM     16  C   UNL     1      10.033  74.526  -2.722  1.00  0.00    -0.008 C 
ATOM     17  C   UNL     1       8.811  74.087  -3.552  1.00  0.00    -0.065 C 
ATOM     18  C   UNL     1      10.511  73.355  -1.780  1.00  0.00     0.014 C 
ATOM     19  C   UNL     1      11.162  74.858  -3.739  1.00  0.00     0.016 C 
ATOM     20  C   UNL     1       8.776  72.707  -4.192  1.00  0.00     0.063 C 
ATOM     21  C   UNL     1       9.813  72.002  -2.001  1.00  0.00     0.033 C 
ATOM     22  C   UNL     1       9.671  71.671  -3.489  1.00  0.00     0.118 C 
BRANCH  22  23
ATOM     23  O   UNL     1      10.932  71.615  -4.107  1.00  0.00    -0.393 OA
ATOM     24  H   UNL     1      10.808  71.144  -4.972  1.00  0.00     0.210 HD
ENDBRANCH  22  23
ENDBRANCH   2   4
ENDBRANCH   1   2
BRANCH   1  25
ATOM     25  C   UNL     1      12.374  80.838   1.333  1.00  0.00     0.001 C 
BRANCH  25  26
ATOM     26  C   UNL     1      13.004  79.428   1.272  1.00  0.00     0.003 C 
BRANCH  26  27
ATOM     27  C   UNL     1      14.275  79.354   0.393  1.00  0.00    -0.017 C 
ATOM     28  C   UNL     1      14.631  80.751  -0.133  1.00  0.00     0.007 C 
ATOM     29  C   UNL     1      14.112  78.382  -0.784  1.00  0.00     0.007 C 
ENDBRANCH  26  27
ENDBRANCH  25  26
ENDBRANCH   1  25
TORSDOF 6
ENDMDL
MODEL 7
REMARK VINA RESULT:    -7.791      3.710      8.484
REMARK INTER + INTRA:         -11.265
REMARK INTER:                 -11.445
REMARK INTRA:                   0.181
REMARK UNBOUND:                -0.968
REMARK SMILES CC(C)CCC[C@@H](C)[C@H]1CC[C@H]2[C@@H]3CC=C4C[C@@H](O)CC[C@]4(C)[C@H]3CC[C@]12C
REMARK SMILES IDX 6 1 7 2 8 3 9 4 10 5 27 6 11 7 12 8 26 9 28 10 13 11 25 12
REMARK SMILES IDX 14 13 24 14 15 15 22 16 16 17 21 18 23 19 17 20 20 21 18 22
REMARK SMILES IDX 19 23 5 25 4 26 2 27 1 28 3 29
REMARK H PARENT 19 24
REMARK Flexibility Score: inf
ROOT
ATOM      1  C   UNL     1       7.865  73.924  -2.224  1.00  0.00     0.003 C 
ENDROOT
BRANCH   1   2
ATOM      2  C   UNL     1       6.778  75.031  -2.084  1.00  0.00    -0.011 C 
ATOM      3  C   UNL     1       5.901  74.734  -0.852  1.00  0.00     0.008 C 
BRANCH   2   4
ATOM      4  C   UNL     1       7.447  76.448  -1.995  1.00  0.00    -0.002 C 
ATOM      5  C   UNL     1       6.686  77.399  -1.027  1.00  0.00     0.005 C 
ATOM      6  C   UNL     1       8.928  76.548  -1.508  1.00  0.00    -0.026 C 
ATOM      7  C   UNL     1       7.724  78.328  -0.382  1.00  0.00     0.005 C 
ATOM      8  C   UNL     1       8.996  78.046  -1.159  1.00  0.00    -0.001 C 
ATOM      9  C   UNL     1      10.011  76.301  -2.591  1.00  0.00     0.007 C 
ATOM     10  C   UNL     1       9.159  75.621  -0.271  1.00  0.00     0.012 C 
ATOM     11  C   UNL     1      10.344  78.483  -0.541  1.00  0.00     0.000 C 
ATOM     12  C   UNL     1      11.416  76.710  -2.088  1.00  0.00     0.005 C 
ATOM     13  C   UNL     1      10.328  79.986  -0.230  1.00  0.00     0.031 C 
ATOM     14  C   UNL     1      11.481  78.179  -1.561  1.00  0.00     0.003 C 
ATOM     15  C   UNL     1      11.689  80.526   0.101  1.00  0.00    -0.027 C 
ATOM     16  C   UNL     1      12.900  78.594  -1.008  1.00  0.00    -0.008 C 
ATOM     17  C   UNL     1      12.842  79.988  -0.353  1.00  0.00    -0.065 C 
ATOM     18  C   UNL     1      13.941  78.583  -2.192  1.00  0.00     0.014 C 
ATOM     19  C   UNL     1      13.371  77.607   0.097  1.00  0.00     0.016 C 
ATOM     20  C   UNL     1      14.125  80.757  -0.074  1.00  0.00     0.063 C 
ATOM     21  C   UNL     1      14.794  79.855  -2.335  1.00  0.00     0.033 C 
ATOM     22  C   UNL     1      15.302  80.355  -0.979  1.00  0.00     0.118 C 
BRANCH  22  23
ATOM     23  O   UNL     1      16.088  79.374  -0.352  1.00  0.00    -0.393 OA
ATOM     24  H   UNL     1      15.570  79.046   0.429  1.00  0.00     0.210 HD
ENDBRANCH  22  23
ENDBRANCH   2   4
ENDBRANCH   1   2
BRANCH   1  25
ATOM     25  C   UNL     1       8.319  73.674  -3.684  1.00  0.00     0.001 C 
BRANCH  25  26
ATOM     26  C   UNL     1       9.669  72.928  -3.784  1.00  0.00     0.003 C 
BRANCH  26  27
ATOM     27  C   UNL     1      10.061  72.549  -5.232  1.00  0.00    -0.017 C 
ATOM     28  C   UNL     1       9.504  71.162  -5.581  1.00  0.00     0.007 C 
ATOM     29  C   UNL     1      11.582  72.566  -5.446  1.00  0.00     0.007 C 
ENDBRANCH  26  27
ENDBRANCH  25  26
ENDBRANCH   1  25
TORSDOF 6
ENDMDL
MODEL 8
REMARK VINA RESULT:    -7.734      1.570      2.396
REMARK INTER + INTRA:         -11.189
REMARK INTER:                 -10.175
REMARK INTRA:                  -1.014
REMARK UNBOUND:                -0.968
REMARK SMILES CC(C)CCC[C@@H](C)[C@H]1CC[C@H]2[C@@H]3CC=C4C[C@@H](O)CC[C@]4(C)[C@H]3CC[C@]12C
REMARK SMILES IDX 6 1 7 2 8 3 9 4 10 5 27 6 11 7 12 8 26 9 28 10 13 11 25 12
REMARK SMILES IDX 14 13 24 14 15 15 22 16 16 17 21 18 23 19 17 20 20 21 18 22
REMARK SMILES IDX 19 23 5 25 4 26 2 27 1 28 3 29
REMARK H PARENT 19 24
REMARK Flexibility Score: inf
ROOT
ATOM      1  C   UNL     1      16.458  80.432  -4.678  1.00  0.00     0.003 C 
ENDROOT
BRANCH   1   2
ATOM      2  C   UNL     1      14.996  80.966  -4.637  1.00  0.00    -0.011 C 
ATOM      3  C   UNL     1      14.827  82.079  -5.690  1.00  0.00     0.008 C 
BRANCH   2   4
ATOM      4  C   UNL     1      13.977  79.793  -4.862  1.00  0.00    -0.002 C 
ATOM      5  C   UNL     1      14.648  78.544  -5.501  1.00  0.00     0.005 C 
ATOM      6  C   UNL     1      13.227  79.205  -3.625  1.00  0.00    -0.026 C 
ATOM      7  C   UNL     1      13.927  77.303  -4.958  1.00  0.00     0.005 C 
ATOM      8  C   UNL     1      12.732  77.874  -4.217  1.00  0.00    -0.001 C 
ATOM      9  C   UNL     1      11.962  79.980  -3.173  1.00  0.00     0.007 C 
ATOM     10  C   UNL     1      14.215  79.012  -2.429  1.00  0.00     0.012 C 
ATOM     11  C   UNL     1      12.002  76.969  -3.199  1.00  0.00     0.000 C 
ATOM     12  C   UNL     1      11.137  79.167  -2.148  1.00  0.00     0.005 C 
ATOM     13  C   UNL     1      11.538  75.670  -3.872  1.00  0.00     0.031 C 
ATOM     14  C   UNL     1      10.762  77.737  -2.650  1.00  0.00     0.003 C 
ATOM     15  C   UNL     1      10.583  74.882  -3.023  1.00  0.00    -0.027 C 
ATOM     16  C   UNL     1       9.955  76.883  -1.596  1.00  0.00    -0.008 C 
ATOM     17  C   UNL     1       9.772  75.435  -2.094  1.00  0.00    -0.065 C 
ATOM     18  C   UNL     1       8.554  77.561  -1.344  1.00  0.00     0.014 C 
ATOM     19  C   UNL     1      10.729  76.792  -0.251  1.00  0.00     0.016 C 
ATOM     20  C   UNL     1       8.738  74.527  -1.445  1.00  0.00     0.063 C 
ATOM     21  C   UNL     1       7.337  76.628  -1.459  1.00  0.00     0.033 C 
ATOM     22  C   UNL     1       7.583  75.284  -0.766  1.00  0.00     0.118 C 
BRANCH  22  23
ATOM     23  O   UNL     1       7.859  75.473   0.599  1.00  0.00    -0.393 OA
ATOM     24  H   UNL     1       8.126  74.589   0.963  1.00  0.00     0.210 HD
ENDBRANCH  22  23
ENDBRANCH   2   4
ENDBRANCH   1   2
BRANCH   1  25
ATOM     25  C   UNL     1      17.459  81.401  -5.356  1.00  0.00     0.001 C 
BRANCH  25  26
ATOM     26  C   UNL     1      18.641  80.678  -6.041  1.00  0.00     0.003 C 
BRANCH  26  27
ATOM     27  C   UNL     1      18.321  80.187  -7.473  1.00  0.00    -0.017 C 
ATOM     28  C   UNL     1      17.393  81.187  -8.176  1.00  0.00     0.007 C 
ATOM     29  C   UNL     1      17.681  78.792  -7.481  1.00  0.00     0.007 C 
ENDBRANCH  26  27
ENDBRANCH  25  26
ENDBRANCH   1  25
TORSDOF 6
ENDMDL
MODEL 9
REMARK VINA RESULT:    -7.717      3.302      8.191
REMARK INTER + INTRA:         -11.167
REMARK INTER:                  -9.982
REMARK INTRA:                  -1.184
REMARK UNBOUND:                -0.968
REMARK SMILES CC(C)CCC[C@@H](C)[C@H]1CC[C@H]2[C@@H]3CC=C4C[C@@H](O)CC[C@]4(C)[C@H]3CC[C@]12C
REMARK SMILES IDX 6 1 7 2 8 3 9 4 10 5 27 6 11 7 12 8 26 9 28 10 13 11 25 12
REMARK SMILES IDX 14 13 24 14 15 15 22 16 16 17 21 18 23 19 17 20 20 21 18 22
REMARK SMILES IDX 19 23 5 25 4 26 2 27 1 28 3 29
REMARK H PARENT 19 24
REMARK Flexibility Score: inf
ROOT
ATOM      1  C   UNL     1      11.531  77.775  -0.614  1.00  0.00     0.003 C 
ENDROOT
BRANCH   1   2
ATOM      2  C   UNL     1      11.620  77.148  -2.036  1.00  0.00    -0.011 C 
ATOM      3  C   UNL     1      10.328  76.359  -2.329  1.00  0.00     0.008 C 
BRANCH   2   4
ATOM      4  C   UNL     1      11.878  78.262  -3.111  1.00  0.00    -0.002 C 
ATOM      5  C   UNL     1      11.392  79.662  -2.638  1.00  0.00     0.005 C 
ATOM      6  C   UNL     1      13.344  78.528  -3.577  1.00  0.00    -0.026 C 
ATOM      7  C   UNL     1      12.332  80.709  -3.251  1.00  0.00     0.005 C 
ATOM      8  C   UNL     1      13.173  79.911  -4.231  1.00  0.00    -0.001 C 
ATOM      9  C   UNL     1      13.882  77.585  -4.685  1.00  0.00     0.007 C 
ATOM     10  C   UNL     1      14.311  78.548  -2.349  1.00  0.00     0.012 C 
ATOM     11  C   UNL     1      14.496  80.533  -4.735  1.00  0.00     0.000 C 
ATOM     12  C   UNL     1      15.211  78.108  -5.278  1.00  0.00     0.005 C 
ATOM     13  C   UNL     1      14.234  81.903  -5.376  1.00  0.00     0.031 C 
ATOM     14  C   UNL     1      15.121  79.578  -5.796  1.00  0.00     0.003 C 
ATOM     15  C   UNL     1      15.418  82.427  -6.135  1.00  0.00    -0.027 C 
ATOM     16  C   UNL     1      16.483  80.137  -6.366  1.00  0.00    -0.008 C 
ATOM     17  C   UNL     1      16.359  81.637  -6.697  1.00  0.00    -0.065 C 
ATOM     18  C   UNL     1      16.879  79.319  -7.655  1.00  0.00     0.014 C 
ATOM     19  C   UNL     1      17.616  80.010  -5.310  1.00  0.00     0.016 C 
ATOM     20  C   UNL     1      17.396  82.314  -7.582  1.00  0.00     0.063 C 
ATOM     21  C   UNL     1      17.234  80.161  -8.891  1.00  0.00     0.033 C 
ATOM     22  C   UNL     1      18.129  81.351  -8.531  1.00  0.00     0.118 C 
BRANCH  22  23
ATOM     23  O   UNL     1      19.329  80.910  -7.948  1.00  0.00    -0.393 OA
ATOM     24  H   UNL     1      19.094  80.166  -7.333  1.00  0.00     0.210 HD
ENDBRANCH  22  23
ENDBRANCH   2   4
ENDBRANCH   1   2
BRANCH   1  25
ATOM     25  C   UNL     1      12.598  77.238   0.374  1.00  0.00     0.001 C 
BRANCH  25  26
ATOM     26  C   UNL     1      13.407  78.358   1.067  1.00  0.00     0.003 C 
BRANCH  26  27
ATOM     27  C   UNL     1      12.932  79.784   0.700  1.00  0.00    -0.017 C 
ATOM     28  C   UNL     1      14.128  80.641   0.265  1.00  0.00     0.007 C 
ATOM     29  C   UNL     1      12.198  80.470   1.862  1.00  0.00     0.007 C 
ENDBRANCH  26  27
ENDBRANCH  25  26
ENDBRANCH   1  25
TORSDOF 6
ENDMDL
MODEL 10
REMARK VINA RESULT:    -7.653      3.070      9.382
REMARK INTER + INTRA:         -11.082
REMARK INTER:                 -10.384
REMARK INTRA:                  -0.698
REMARK UNBOUND:                -0.968
REMARK SMILES CC(C)CCC[C@@H](C)[C@H]1CC[C@H]2[C@@H]3CC=C4C[C@@H](O)CC[C@]4(C)[C@H]3CC[C@]12C
REMARK SMILES IDX 6 1 7 2 8 3 9 4 10 5 27 6 11 7 12 8 26 9 28 10 13 11 25 12
REMARK SMILES IDX 14 13 24 14 15 15 22 16 16 17 21 18 23 19 17 20 20 21 18 22
REMARK SMILES IDX 19 23 5 25 4 26 2 27 1 28 3 29
REMARK H PARENT 19 24
REMARK Flexibility Score: inf
ROOT
ATOM      1  C   UNL     1       9.773  77.761  -0.916  1.00  0.00     0.003 C 
ENDROOT
BRANCH   1   2
ATOM      2  C   UNL     1      10.928  77.223  -1.810  1.00  0.00    -0.011 C 
ATOM      3  C   UNL     1      10.522  75.859  -2.404  1.00  0.00     0.008 C 
BRANCH   2   4
ATOM      4  C   UNL     1      11.285  78.263  -2.931  1.00  0.00    -0.002 C 
ATOM      5  C   UNL     1      10.764  79.690  -2.598  1.00  0.00     0.005 C 
ATOM      6  C   UNL     1      12.788  78.500  -3.280  1.00  0.00    -0.026 C 
ATOM      7  C   UNL     1      11.759  80.695  -3.193  1.00  0.00     0.005 C 
ATOM      8  C   UNL     1      12.681  79.835  -4.038  1.00  0.00    -0.001 C 
ATOM      9  C   UNL     1      13.419  77.485  -4.270  1.00  0.00     0.007 C 
ATOM     10  C   UNL     1      13.642  78.605  -1.975  1.00  0.00     0.012 C 
ATOM     11  C   UNL     1      14.045  80.425  -4.464  1.00  0.00     0.000 C 
ATOM     12  C   UNL     1      14.797  77.970  -4.776  1.00  0.00     0.005 C 
ATOM     13  C   UNL     1      13.846  81.748  -5.216  1.00  0.00     0.031 C 
ATOM     14  C   UNL     1      14.759  79.402  -5.398  1.00  0.00     0.003 C 
ATOM     15  C   UNL     1      15.096  82.222  -5.900  1.00  0.00    -0.027 C 
ATOM     16  C   UNL     1      16.168  79.925  -5.881  1.00  0.00    -0.008 C 
ATOM     17  C   UNL     1      16.080  81.399  -6.322  1.00  0.00    -0.065 C 
ATOM     18  C   UNL     1      16.675  79.022  -7.070  1.00  0.00     0.014 C 
ATOM     19  C   UNL     1      17.203  79.872  -4.721  1.00  0.00     0.016 C 
ATOM     20  C   UNL     1      17.194  82.017  -7.154  1.00  0.00     0.063 C 
ATOM     21  C   UNL     1      17.142  79.780  -8.324  1.00  0.00     0.033 C 
ATOM     22  C   UNL     1      18.006  80.993  -7.967  1.00  0.00     0.118 C 
BRANCH  22  23
ATOM     23  O   UNL     1      19.147  80.595  -7.250  1.00  0.00    -0.393 OA
ATOM     24  H   UNL     1      18.877  80.521  -6.298  1.00  0.00     0.210 HD
ENDBRANCH  22  23
ENDBRANCH   2   4
ENDBRANCH   1   2
BRANCH   1  25
ATOM     25  C   UNL     1       8.402  77.098  -1.199  1.00  0.00     0.001 C 
BRANCH  25  26
ATOM     26  C   UNL     1       7.819  76.354   0.024  1.00  0.00     0.003 C 
BRANCH  26  27
ATOM     27  C   UNL     1       6.294  76.545   0.198  1.00  0.00    -0.017 C 
ATOM     28  C   UNL     1       6.014  77.537   1.335  1.00  0.00     0.007 C 
ATOM     29  C   UNL     1       5.569  75.219   0.475  1.00  0.00     0.007 C 
ENDBRANCH  26  27
ENDBRANCH  25  26
ENDBRANCH   1  25
TORSDOF 6
ENDMDL
MODEL 11
REMARK VINA RESULT:    -7.624      3.058      7.777
REMARK INTER + INTRA:         -11.043
REMARK INTER:                 -11.180
REMARK INTRA:                   0.137
REMARK UNBOUND:                -0.968
REMARK SMILES CC(C)CCC[C@@H](C)[C@H]1CC[C@H]2[C@@H]3CC=C4C[C@@H](O)CC[C@]4(C)[C@H]3CC[C@]12C
REMARK SMILES IDX 6 1 7 2 8 3 9 4 10 5 27 6 11 7 12 8 26 9 28 10 13 11 25 12
REMARK SMILES IDX 14 13 24 14 15 15 22 16 16 17 21 18 23 19 17 20 20 21 18 22
REMARK SMILES IDX 19 23 5 25 4 26 2 27 1 28 3 29
REMARK H PARENT 19 24
REMARK Flexibility Score: inf
ROOT
ATOM      1  C   UNL     1      11.467  80.508   0.598  1.00  0.00     0.003 C 
ENDROOT
BRANCH   1   2
ATOM      2  C   UNL     1      10.736  79.507  -0.344  1.00  0.00    -0.011 C 
ATOM      3  C   UNL     1       9.678  80.262  -1.173  1.00  0.00     0.008 C 
BRANCH   2   4
ATOM      4  C   UNL     1      11.771  78.762  -1.262  1.00  0.00    -0.002 C 
ATOM      5  C   UNL     1      11.124  77.583  -2.044  1.00  0.00     0.005 C 
ATOM      6  C   UNL     1      12.504  79.575  -2.375  1.00  0.00    -0.026 C 
ATOM      7  C   UNL     1      11.847  77.472  -3.393  1.00  0.00     0.005 C 
ATOM      8  C   UNL     1      13.023  78.421  -3.252  1.00  0.00    -0.001 C 
ATOM      9  C   UNL     1      13.754  80.371  -1.916  1.00  0.00     0.007 C 
ATOM     10  C   UNL     1      11.497  80.506  -3.124  1.00  0.00     0.012 C 
ATOM     11  C   UNL     1      13.744  78.888  -4.538  1.00  0.00     0.000 C 
ATOM     12  C   UNL     1      14.568  80.891  -3.124  1.00  0.00     0.005 C 
ATOM     13  C   UNL     1      14.233  77.679  -5.347  1.00  0.00     0.031 C 
ATOM     14  C   UNL     1      14.966  79.765  -4.132  1.00  0.00     0.003 C 
ATOM     15  C   UNL     1      15.181  78.060  -6.448  1.00  0.00    -0.027 C 
ATOM     16  C   UNL     1      15.762  80.290  -5.390  1.00  0.00    -0.008 C 
ATOM     17  C   UNL     1      15.968  79.157  -6.414  1.00  0.00    -0.065 C 
ATOM     18  C   UNL     1      17.152  80.868  -4.919  1.00  0.00     0.014 C 
ATOM     19  C   UNL     1      14.965  81.407  -6.121  1.00  0.00     0.016 C 
ATOM     20  C   UNL     1      17.000  79.305  -7.523  1.00  0.00     0.063 C 
ATOM     21  C   UNL     1      18.379  80.340  -5.680  1.00  0.00     0.033 C 
ATOM     22  C   UNL     1      18.134  80.290  -7.191  1.00  0.00     0.118 C 
BRANCH  22  23
ATOM     23  O   UNL     1      17.833  81.569  -7.687  1.00  0.00    -0.393 OA
ATOM     24  H   UNL     1      18.486  82.197  -7.281  1.00  0.00     0.210 HD
ENDBRANCH  22  23
ENDBRANCH   2   4
ENDBRANCH   1   2
BRANCH   1  25
ATOM     25  C   UNL     1      12.880  80.042   1.031  1.00  0.00     0.001 C 
BRANCH  25  26
ATOM     26  C   UNL     1      12.860  78.777   1.920  1.00  0.00     0.003 C 
BRANCH  26  27
ATOM     27  C   UNL     1      13.911  77.717   1.513  1.00  0.00    -0.017 C 
ATOM     28  C   UNL     1      14.778  78.251   0.364  1.00  0.00     0.007 C 
ATOM     29  C   UNL     1      13.266  76.386   1.102  1.00  0.00     0.007 C 
ENDBRANCH  26  27
ENDBRANCH  25  26
ENDBRANCH   1  25
TORSDOF 6
ENDMDL
MODEL 12
REMARK VINA RESULT:    -7.494      3.200      8.696
REMARK INTER + INTRA:         -10.871
REMARK INTER:                 -11.397
REMARK INTRA:                   0.525
REMARK UNBOUND:                -0.968
REMARK SMILES CC(C)CCC[C@@H](C)[C@H]1CC[C@H]2[C@@H]3CC=C4C[C@@H](O)CC[C@]4(C)[C@H]3CC[C@]12C
REMARK SMILES IDX 6 1 7 2 8 3 9 4 10 5 27 6 11 7 12 8 26 9 28 10 13 11 25 12
REMARK SMILES IDX 14 13 24 14 15 15 22 16 16 17 21 18 23 19 17 20 20 21 18 22
REMARK SMILES IDX 19 23 5 25 4 26 2 27 1 28 3 29
REMARK H PARENT 19 24
REMARK Flexibility Score: inf
ROOT
ATOM      1  C   UNL     1       7.493  74.081  -1.116  1.00  0.00     0.003 C 
ENDROOT
BRANCH   1   2
ATOM      2  C   UNL     1       6.421  75.206  -1.026  1.00  0.00    -0.011 C 
ATOM      3  C   UNL     1       5.727  75.144   0.350  1.00  0.00     0.008 C 
BRANCH   2   4
ATOM      4  C   UNL     1       7.075  76.610  -1.285  1.00  0.00    -0.002 C 
ATOM      5  C   UNL     1       6.654  77.662  -0.219  1.00  0.00     0.005 C 
ATOM      6  C   UNL     1       8.633  76.717  -1.302  1.00  0.00    -0.026 C 
ATOM      7  C   UNL     1       7.837  78.620  -0.024  1.00  0.00     0.005 C 
ATOM      8  C   UNL     1       8.800  78.238  -1.134  1.00  0.00    -0.001 C 
ATOM      9  C   UNL     1       9.320  76.348  -2.643  1.00  0.00     0.007 C 
ATOM     10  C   UNL     1       9.249  75.901  -0.120  1.00  0.00     0.012 C 
ATOM     11  C   UNL     1      10.271  78.697  -1.015  1.00  0.00     0.000 C 
ATOM     12  C   UNL     1      10.808  76.766  -2.650  1.00  0.00     0.005 C 
ATOM     13  C   UNL     1      10.346  80.222  -0.857  1.00  0.00     0.031 C 
ATOM     14  C   UNL     1      11.029  78.275  -2.310  1.00  0.00     0.003 C 
ATOM     15  C   UNL     1      11.739  80.757  -1.024  1.00  0.00    -0.027 C 
ATOM     16  C   UNL     1      12.548  78.704  -2.273  1.00  0.00    -0.008 C 
ATOM     17  C   UNL     1      12.691  80.153  -1.767  1.00  0.00    -0.065 C 
ATOM     18  C   UNL     1      13.160  78.562  -3.719  1.00  0.00     0.014 C 
ATOM     19  C   UNL     1      13.350  77.810  -1.287  1.00  0.00     0.016 C 
ATOM     20  C   UNL     1      13.993  80.913  -1.980  1.00  0.00     0.063 C 
ATOM     21  C   UNL     1      13.916  79.794  -4.242  1.00  0.00     0.033 C 
ATOM     22  C   UNL     1      14.825  80.402  -3.169  1.00  0.00     0.118 C 
BRANCH  22  23
ATOM     23  O   UNL     1      15.774  79.463  -2.733  1.00  0.00    -0.393 OA
ATOM     24  H   UNL     1      16.066  79.747  -1.827  1.00  0.00     0.210 HD
ENDBRANCH  22  23
ENDBRANCH   2   4
ENDBRANCH   1   2
BRANCH   1  25
ATOM     25  C   UNL     1       7.878  73.699  -2.567  1.00  0.00     0.001 C 
BRANCH  25  26
ATOM     26  C   UNL     1       9.057  72.701  -2.644  1.00  0.00     0.003 C 
BRANCH  26  27
ATOM     27  C   UNL     1       9.641  72.541  -4.068  1.00  0.00    -0.017 C 
ATOM     28  C   UNL     1       9.751  71.053  -4.426  1.00  0.00     0.007 C 
ATOM     29  C   UNL     1      11.014  73.213  -4.212  1.00  0.00     0.007 C 
ENDBRANCH  26  27
ENDBRANCH  25  26
ENDBRANCH   1  25
TORSDOF 6
ENDMDL
MODEL 13
REMARK VINA RESULT:    -6.998      4.493      7.026
REMARK INTER + INTRA:         -10.217
REMARK INTER:                  -8.693
REMARK INTRA:                  -1.524
REMARK UNBOUND:                -0.968
REMARK SMILES CC(C)CCC[C@@H](C)[C@H]1CC[C@H]2[C@@H]3CC=C4C[C@@H](O)CC[C@]4(C)[C@H]3CC[C@]12C
REMARK SMILES IDX 6 1 7 2 8 3 9 4 10 5 27 6 11 7 12 8 26 9 28 10 13 11 25 12
REMARK SMILES IDX 14 13 24 14 15 15 22 16 16 17 21 18 23 19 17 20 20 21 18 22
REMARK SMILES IDX 19 23 5 25 4 26 2 27 1 28 3 29
REMARK H PARENT 19 24
REMARK Flexibility Score: inf
ROOT
ATOM      1  C   UNL     1      10.842  81.571  -0.615  1.00  0.00     0.003 C 
ENDROOT
BRANCH   1   2
ATOM      2  C   UNL     1      10.119  80.192  -0.625  1.00  0.00    -0.011 C 
ATOM      3  C   UNL     1       8.594  80.413  -0.594  1.00  0.00     0.008 C 
BRANCH   2   4
ATOM      4  C   UNL     1      10.560  79.352  -1.876  1.00  0.00    -0.002 C 
ATOM      5  C   UNL     1      12.072  79.524  -2.199  1.00  0.00     0.005 C 
ATOM      6  C   UNL     1      10.373  77.803  -1.841  1.00  0.00    -0.026 C 
ATOM      7  C   UNL     1      12.573  78.197  -2.785  1.00  0.00     0.005 C 
ATOM      8  C   UNL     1      11.304  77.392  -2.996  1.00  0.00    -0.001 C 
ATOM      9  C   UNL     1       8.959  77.285  -2.215  1.00  0.00     0.007 C 
ATOM     10  C   UNL     1      10.825  77.230  -0.459  1.00  0.00     0.012 C 
ATOM     11  C   UNL     1      11.430  75.863  -3.185  1.00  0.00     0.000 C 
ATOM     12  C   UNL     1       8.957  75.755  -2.437  1.00  0.00     0.005 C 
ATOM     13  C   UNL     1      12.368  75.544  -4.357  1.00  0.00     0.031 C 
ATOM     14  C   UNL     1      10.016  75.281  -3.483  1.00  0.00     0.003 C 
ATOM     15  C   UNL     1      12.310  74.102  -4.773  1.00  0.00    -0.027 C 
ATOM     16  C   UNL     1      10.051  73.716  -3.688  1.00  0.00    -0.008 C 
ATOM     17  C   UNL     1      11.227  73.313  -4.599  1.00  0.00    -0.065 C 
ATOM     18  C   UNL     1       8.682  73.245  -4.314  1.00  0.00     0.014 C 
ATOM     19  C   UNL     1      10.272  72.987  -2.333  1.00  0.00     0.016 C 
ATOM     20  C   UNL     1      11.265  71.931  -5.235  1.00  0.00     0.063 C 
ATOM     21  C   UNL     1       8.797  72.351  -5.560  1.00  0.00     0.033 C 
ATOM     22  C   UNL     1       9.880  71.281  -5.395  1.00  0.00     0.118 C 
BRANCH  22  23
ATOM     23  O   UNL     1       9.598  70.456  -4.293  1.00  0.00    -0.393 OA
ATOM     24  H   UNL     1      10.079  69.600  -4.444  1.00  0.00     0.210 HD
ENDBRANCH  22  23
ENDBRANCH   2   4
ENDBRANCH   1   2
BRANCH   1  25
ATOM     25  C   UNL     1      11.834  81.749   0.562  1.00  0.00     0.001 C 
BRANCH  25  26
ATOM     26  C   UNL     1      12.153  80.427   1.297  1.00  0.00     0.003 C 
BRANCH  26  27
ATOM     27  C   UNL     1      13.630  79.987   1.169  1.00  0.00    -0.017 C 
ATOM     28  C   UNL     1      14.327  80.799   0.068  1.00  0.00     0.007 C 
ATOM     29  C   UNL     1      13.767  78.487   0.873  1.00  0.00     0.007 C 
ENDBRANCH  26  27
ENDBRANCH  25  26
ENDBRANCH   1  25
TORSDOF 6
ENDMDL
MODEL 14
REMARK VINA RESULT:    -6.668      2.154      3.661
REMARK INTER + INTRA:          -9.780
REMARK INTER:                  -9.554
REMARK INTRA:                  -0.226
REMARK UNBOUND:                -0.968
REMARK SMILES CC(C)CCC[C@@H](C)[C@H]1CC[C@H]2[C@@H]3CC=C4C[C@@H](O)CC[C@]4(C)[C@H]3CC[C@]12C
REMARK SMILES IDX 6 1 7 2 8 3 9 4 10 5 27 6 11 7 12 8 26 9 28 10 13 11 25 12
REMARK SMILES IDX 14 13 24 14 15 15 22 16 16 17 21 18 23 19 17 20 20 21 18 22
REMARK SMILES IDX 19 23 5 25 4 26 2 27 1 28 3 29
REMARK H PARENT 19 24
REMARK Flexibility Score: inf
ROOT
ATOM      1  C   UNL     1      14.684  80.817  -3.711  1.00  0.00     0.003 C 
ENDROOT
BRANCH   1   2
ATOM      2  C   UNL     1      14.011  80.054  -2.533  1.00  0.00    -0.011 C 
ATOM      3  C   UNL     1      13.563  81.065  -1.458  1.00  0.00     0.008 C 
BRANCH   2   4
ATOM      4  C   UNL     1      12.808  79.190  -3.055  1.00  0.00    -0.002 C 
ATOM      5  C   UNL     1      13.263  78.096  -4.063  1.00  0.00     0.005 C 
ATOM      6  C   UNL     1      11.954  78.394  -2.019  1.00  0.00    -0.026 C 
ATOM      7  C   UNL     1      12.333  76.888  -3.884  1.00  0.00     0.005 C 
ATOM      8  C   UNL     1      11.244  77.403  -2.960  1.00  0.00    -0.001 C 
ATOM      9  C   UNL     1      10.834  79.198  -1.308  1.00  0.00     0.007 C 
ATOM     10  C   UNL     1      12.879  77.689  -0.976  1.00  0.00     0.012 C 
ATOM     11  C   UNL     1      10.357  76.370  -2.228  1.00  0.00     0.000 C 
ATOM     12  C   UNL     1       9.870  78.266  -0.539  1.00  0.00     0.005 C 
ATOM     13  C   UNL     1       9.686  75.429  -3.238  1.00  0.00     0.031 C 
ATOM     14  C   UNL     1       9.261  77.135  -1.428  1.00  0.00     0.003 C 
ATOM     15  C   UNL     1       8.599  74.595  -2.623  1.00  0.00    -0.027 C 
ATOM     16  C   UNL     1       8.306  76.153  -0.643  1.00  0.00    -0.008 C 
ATOM     17  C   UNL     1       7.884  74.973  -1.541  1.00  0.00    -0.065 C 
ATOM     18  C   UNL     1       7.039  76.949  -0.146  1.00  0.00     0.014 C 
ATOM     19  C   UNL     1       9.037  75.536   0.583  1.00  0.00     0.016 C 
ATOM     20  C   UNL     1       6.701  74.099  -1.150  1.00  0.00     0.063 C 
ATOM     21  C   UNL     1       5.682  76.310  -0.484  1.00  0.00     0.033 C 
ATOM     22  C   UNL     1       5.685  74.800  -0.231  1.00  0.00     0.118 C 
BRANCH  22  23
ATOM     23  O   UNL     1       5.972  74.523   1.116  1.00  0.00    -0.393 OA
ATOM     24  H   UNL     1       5.847  75.371   1.617  1.00  0.00     0.210 HD
ENDBRANCH  22  23
ENDBRANCH   2   4
ENDBRANCH   1   2
BRANCH   1  25
ATOM     25  C   UNL     1      15.930  80.100  -4.290  1.00  0.00     0.001 C 
BRANCH  25  26
ATOM     26  C   UNL     1      16.737  80.976  -5.275  1.00  0.00     0.003 C 
BRANCH  26  27
ATOM     27  C   UNL     1      16.597  80.538  -6.752  1.00  0.00    -0.017 C 
ATOM     28  C   UNL     1      17.570  79.390  -7.054  1.00  0.00     0.007 C 
ATOM     29  C   UNL     1      16.843  81.698  -7.728  1.00  0.00     0.007 C 
ENDBRANCH  26  27
ENDBRANCH  25  26
ENDBRANCH   1  25
TORSDOF 6
ENDMDL
MODEL 15
REMARK VINA RESULT:    -6.667      2.032      4.412
REMARK INTER + INTRA:          -9.779
REMARK INTER:                  -9.004
REMARK INTRA:                  -0.775
REMARK UNBOUND:                -0.968
REMARK SMILES CC(C)CCC[C@@H](C)[C@H]1CC[C@H]2[C@@H]3CC=C4C[C@@H](O)CC[C@]4(C)[C@H]3CC[C@]12C
REMARK SMILES IDX 6 1 7 2 8 3 9 4 10 5 27 6 11 7 12 8 26 9 28 10 13 11 25 12
REMARK SMILES IDX 14 13 24 14 15 15 22 16 16 17 21 18 23 19 17 20 20 21 18 22
REMARK SMILES IDX 19 23 5 25 4 26 2 27 1 28 3 29
REMARK H PARENT 19 24
REMARK Flexibility Score: inf
ROOT
ATOM      1  C   UNL     1      14.774  80.396  -2.840  1.00  0.00     0.003 C 
ENDROOT
BRANCH   1   2
ATOM      2  C   UNL     1      14.530  79.167  -1.916  1.00  0.00    -0.011 C 
ATOM      3  C   UNL     1      15.763  78.951  -1.016  1.00  0.00     0.008 C 
BRANCH   2   4
ATOM      4  C   UNL     1      13.221  79.366  -1.072  1.00  0.00    -0.002 C 
ATOM      5  C   UNL     1      12.709  80.835  -1.116  1.00  0.00     0.005 C 
ATOM      6  C   UNL     1      11.956  78.532  -1.445  1.00  0.00    -0.026 C 
ATOM      7  C   UNL     1      11.177  80.792  -1.031  1.00  0.00     0.005 C 
ATOM      8  C   UNL     1      10.872  79.340  -0.709  1.00  0.00    -0.001 C 
ATOM      9  C   UNL     1      11.900  77.095  -0.863  1.00  0.00     0.007 C 
ATOM     10  C   UNL     1      11.754  78.510  -2.995  1.00  0.00     0.012 C 
ATOM     11  C   UNL     1       9.435  78.824  -0.949  1.00  0.00     0.000 C 
ATOM     12  C   UNL     1      10.497  76.468  -1.039  1.00  0.00     0.005 C 
ATOM     13  C   UNL     1       8.423  79.681  -0.176  1.00  0.00     0.031 C 
ATOM     14  C   UNL     1       9.347  77.350  -0.454  1.00  0.00     0.003 C 
ATOM     15  C   UNL     1       7.053  79.067  -0.134  1.00  0.00    -0.027 C 
ATOM     16  C   UNL     1       7.907  76.739  -0.663  1.00  0.00    -0.008 C 
ATOM     17  C   UNL     1       6.822  77.739  -0.216  1.00  0.00    -0.065 C 
ATOM     18  C   UNL     1       7.790  75.396   0.154  1.00  0.00     0.014 C 
ATOM     19  C   UNL     1       7.645  76.447  -2.168  1.00  0.00     0.016 C 
ATOM     20  C   UNL     1       5.395  77.265   0.021  1.00  0.00     0.063 C 
ATOM     21  C   UNL     1       6.556  75.280   1.064  1.00  0.00     0.033 C 
ATOM     22  C   UNL     1       5.285  75.769   0.363  1.00  0.00     0.118 C 
BRANCH  22  23
ATOM     23  O   UNL     1       5.039  75.019  -0.800  1.00  0.00    -0.393 OA
ATOM     24  H   UNL     1       5.862  75.070  -1.353  1.00  0.00     0.210 HD
ENDBRANCH  22  23
ENDBRANCH   2   4
ENDBRANCH   1   2
BRANCH   1  25
ATOM     25  C   UNL     1      14.833  80.043  -4.348  1.00  0.00     0.001 C 
BRANCH  25  26
ATOM     26  C   UNL     1      15.843  80.905  -5.138  1.00  0.00     0.003 C 
BRANCH  26  27
ATOM     27  C   UNL     1      17.182  80.184  -5.425  1.00  0.00    -0.017 C 
ATOM     28  C   UNL     1      18.331  81.201  -5.452  1.00  0.00     0.007 C 
ATOM     29  C   UNL     1      17.150  79.402  -6.746  1.00  0.00     0.007 C 
ENDBRANCH  26  27
ENDBRANCH  25  26
ENDBRANCH   1  25
TORSDOF 6
ENDMDL
