MODEL 1
REMARK VINA RESULT:    -9.453      0.000      0.000
REMARK INTER + INTRA:         -12.267
REMARK INTER:                 -11.111
REMARK INTRA:                  -1.156
REMARK UNBOUND:                -1.156
REMARK SMILES O=C1OC(c2ccc(O)cc2)(c2ccc(O)cc2)c2ccccc21
REMARK SMILES IDX 4 1 3 2 2 3 1 4 24 5 23 6 22 7 21 8 20 9 19 10 5 11 8 12
REMARK SMILES IDX 7 13 10 14 6 15 11 16 9 17 12 19 13 20 18 21 14 22 17 23
REMARK SMILES IDX 15 24 16 25
REMARK H PARENT 9 18 16 26
REMARK Flexibility Score: inf
ROOT
ATOM      1  C   UNL     1      12.090  78.860  -1.432  1.00  0.00     0.188 C 
ATOM      2  O   UNL     1      12.787  77.860  -0.668  1.00  0.00    -0.441 OA
ATOM      3  C   UNL     1      12.956  78.274   0.646  1.00  0.00     0.340 C 
ATOM      4  O   UNL     1      13.530  77.595   1.536  1.00  0.00    -0.246 OA
ATOM      5  C   UNL     1      12.387  79.583   0.817  1.00  0.00     0.068 A 
ATOM      6  C   UNL     1      12.334  80.414   1.935  1.00  0.00     0.016 A 
ATOM      7  C   UNL     1      11.727  81.672   1.793  1.00  0.00     0.001 A 
ATOM      8  C   UNL     1      11.198  82.070   0.548  1.00  0.00     0.001 A 
ATOM      9  C   UNL     1      11.270  81.212  -0.563  1.00  0.00     0.009 A 
ATOM     10  C   UNL     1      11.870  79.956  -0.403  1.00  0.00     0.019 A 
ENDROOT
BRANCH   1  11
ATOM     11  C   UNL     1      12.974  79.403  -2.553  1.00  0.00     0.005 A 
ATOM     12  C   UNL     1      14.616  80.307  -4.661  1.00  0.00     0.115 A 
ATOM     13  C   UNL     1      15.187  79.718  -3.530  1.00  0.00     0.046 A 
ATOM     14  C   UNL     1      13.225  80.433  -4.749  1.00  0.00     0.046 A 
ATOM     15  C   UNL     1      14.375  79.261  -2.488  1.00  0.00     0.012 A 
ATOM     16  C   UNL     1      12.409  79.979  -3.710  1.00  0.00     0.012 A 
BRANCH  12  17
ATOM     17  O   UNL     1      15.438  80.758  -5.691  1.00  0.00    -0.508 OA
ATOM     18  H   UNL     1      16.426  80.538  -5.715  1.00  0.00     0.293 HD
ENDBRANCH  12  17
ENDBRANCH   1  11
BRANCH   1  19
ATOM     19  C   UNL     1      10.805  78.222  -1.963  1.00  0.00     0.005 A 
ATOM     20  C   UNL     1       9.543  78.847  -1.853  1.00  0.00     0.012 A 
ATOM     21  C   UNL     1      10.862  76.921  -2.501  1.00  0.00     0.012 A 
ATOM     22  C   UNL     1       8.390  78.208  -2.319  1.00  0.00     0.046 A 
ATOM     23  C   UNL     1       9.706  76.287  -2.966  1.00  0.00     0.046 A 
ATOM     24  C   UNL     1       8.467  76.932  -2.879  1.00  0.00     0.115 A 
BRANCH  24  25
ATOM     25  O   UNL     1       7.309  76.311  -3.340  1.00  0.00    -0.508 OA
ATOM     26  H   UNL     1       7.349  75.493  -3.937  1.00  0.00     0.293 HD
ENDBRANCH  24  25
ENDBRANCH   1  19
TORSDOF 4
ENDMDL
MODEL 2
REMARK VINA RESULT:    -9.129      2.141      4.259
REMARK INTER + INTRA:         -11.886
REMARK INTER:                 -10.774
REMARK INTRA:                  -1.112
REMARK UNBOUND:                -1.156
REMARK SMILES O=C1OC(c2ccc(O)cc2)(c2ccc(O)cc2)c2ccccc21
REMARK SMILES IDX 4 1 3 2 2 3 1 4 24 5 23 6 22 7 21 8 20 9 19 10 5 11 8 12
REMARK SMILES IDX 7 13 10 14 6 15 11 16 9 17 12 19 13 20 18 21 14 22 17 23
REMARK SMILES IDX 15 24 16 25
REMARK H PARENT 9 18 16 26
REMARK Flexibility Score: inf
ROOT
ATOM      1  C   UNL     1      12.241  79.197  -1.443  1.00  0.00     0.188 C 
ATOM      2  O   UNL     1      12.417  80.504  -0.869  1.00  0.00    -0.441 OA
ATOM      3  C   UNL     1      11.192  81.127  -0.681  1.00  0.00     0.340 C 
ATOM      4  O   UNL     1      11.048  82.278  -0.193  1.00  0.00    -0.246 OA
ATOM      5  C   UNL     1      10.136  80.264  -1.136  1.00  0.00     0.068 A 
ATOM      6  C   UNL     1       8.756  80.458  -1.175  1.00  0.00     0.016 A 
ATOM      7  C   UNL     1       7.962  79.429  -1.708  1.00  0.00     0.001 A 
ATOM      8  C   UNL     1       8.559  78.246  -2.189  1.00  0.00     0.001 A 
ATOM      9  C   UNL     1       9.953  78.082  -2.140  1.00  0.00     0.009 A 
ATOM     10  C   UNL     1      10.732  79.113  -1.596  1.00  0.00     0.019 A 
ENDROOT
BRANCH   1  11
ATOM     11  C   UNL     1      12.885  79.117  -2.826  1.00  0.00     0.005 A 
ATOM     12  C   UNL     1      14.171  78.982  -5.333  1.00  0.00     0.115 A 
ATOM     13  C   UNL     1      13.965  80.218  -4.716  1.00  0.00     0.046 A 
ATOM     14  C   UNL     1      13.748  77.810  -4.694  1.00  0.00     0.046 A 
ATOM     15  C   UNL     1      13.337  80.287  -3.469  1.00  0.00     0.012 A 
ATOM     16  C   UNL     1      13.118  77.874  -3.448  1.00  0.00     0.012 A 
BRANCH  12  17
ATOM     17  O   UNL     1      14.797  78.928  -6.576  1.00  0.00    -0.508 OA
ATOM     18  H   UNL     1      15.691  79.376  -6.738  1.00  0.00     0.293 HD
ENDBRANCH  12  17
ENDBRANCH   1  11
BRANCH   1  19
ATOM     19  C   UNL     1      12.835  78.181  -0.466  1.00  0.00     0.005 A 
ATOM     20  C   UNL     1      12.155  77.004  -0.083  1.00  0.00     0.012 A 
ATOM     21  C   UNL     1      14.070  78.469   0.150  1.00  0.00     0.012 A 
ATOM     22  C   UNL     1      12.722  76.123   0.842  1.00  0.00     0.046 A 
ATOM     23  C   UNL     1      14.633  77.584   1.074  1.00  0.00     0.046 A 
ATOM     24  C   UNL     1      13.961  76.406   1.420  1.00  0.00     0.115 A 
BRANCH  24  25
ATOM     25  O   UNL     1      14.512  75.517   2.339  1.00  0.00    -0.508 OA
ATOM     26  H   UNL     1      14.932  75.841   3.203  1.00  0.00     0.293 HD
ENDBRANCH  24  25
ENDBRANCH   1  19
TORSDOF 4
ENDMDL
MODEL 3
REMARK VINA RESULT:    -9.071      1.756      5.185
REMARK INTER + INTRA:         -11.818
REMARK INTER:                 -10.654
REMARK INTRA:                  -1.164
REMARK UNBOUND:                -1.156
REMARK SMILES O=C1OC(c2ccc(O)cc2)(c2ccc(O)cc2)c2ccccc21
REMARK SMILES IDX 4 1 3 2 2 3 1 4 24 5 23 6 22 7 21 8 20 9 19 10 5 11 8 12
REMARK SMILES IDX 7 13 10 14 6 15 11 16 9 17 12 19 13 20 18 21 14 22 17 23
REMARK SMILES IDX 15 24 16 25
REMARK H PARENT 9 18 16 26
REMARK Flexibility Score: inf
ROOT
ATOM      1  C   UNL     1      11.452  77.992  -2.073  1.00  0.00     0.188 C 
ATOM      2  O   UNL     1      10.693  76.923  -2.665  1.00  0.00    -0.441 OA
ATOM      3  C   UNL     1       9.334  77.198  -2.617  1.00  0.00     0.340 C 
ATOM      4  O   UNL     1       8.439  76.437  -3.065  1.00  0.00    -0.246 OA
ATOM      5  C   UNL     1       9.121  78.466  -1.974  1.00  0.00     0.068 A 
ATOM      6  C   UNL     1       7.943  79.148  -1.674  1.00  0.00     0.016 A 
ATOM      7  C   UNL     1       8.047  80.378  -1.004  1.00  0.00     0.001 A 
ATOM      8  C   UNL     1       9.311  80.891  -0.648  1.00  0.00     0.001 A 
ATOM      9  C   UNL     1      10.481  80.178  -0.960  1.00  0.00     0.009 A 
ATOM     10  C   UNL     1      10.363  78.957  -1.638  1.00  0.00     0.019 A 
ENDROOT
BRANCH   1  11
ATOM     11  C   UNL     1      12.206  77.505  -0.837  1.00  0.00     0.005 A 
ATOM     12  C   UNL     1      13.643  76.530   1.385  1.00  0.00     0.115 A 
ATOM     13  C   UNL     1      12.478  75.884   0.965  1.00  0.00     0.046 A 
ATOM     14  C   UNL     1      14.102  77.654   0.690  1.00  0.00     0.046 A 
ATOM     15  C   UNL     1      11.769  76.359  -0.141  1.00  0.00     0.012 A 
ATOM     16  C   UNL     1      13.396  78.135  -0.417  1.00  0.00     0.012 A 
BRANCH  12  17
ATOM     17  O   UNL     1      14.339  76.045   2.490  1.00  0.00    -0.508 OA
ATOM     18  H   UNL     1      14.488  75.053   2.629  1.00  0.00     0.293 HD
ENDBRANCH  12  17
ENDBRANCH   1  11
BRANCH   1  19
ATOM     19  C   UNL     1      12.392  78.541  -3.148  1.00  0.00     0.005 A 
ATOM     20  C   UNL     1      12.505  79.921  -3.427  1.00  0.00     0.012 A 
ATOM     21  C   UNL     1      13.107  77.634  -3.956  1.00  0.00     0.012 A 
ATOM     22  C   UNL     1      13.350  80.374  -4.445  1.00  0.00     0.046 A 
ATOM     23  C   UNL     1      13.950  78.092  -4.972  1.00  0.00     0.046 A 
ATOM     24  C   UNL     1      14.076  79.464  -5.217  1.00  0.00     0.115 A 
BRANCH  24  25
ATOM     25  O   UNL     1      14.915  79.932  -6.226  1.00  0.00    -0.508 OA
ATOM     26  H   UNL     1      15.817  79.507  -6.404  1.00  0.00     0.293 HD
ENDBRANCH  24  25
ENDBRANCH   1  19
TORSDOF 4
ENDMDL
MODEL 4
REMARK VINA RESULT:    -8.907      1.615      5.234
REMARK INTER + INTRA:         -11.625
REMARK INTER:                 -11.020
REMARK INTRA:                  -0.605
REMARK UNBOUND:                -1.156
REMARK SMILES O=C1OC(c2ccc(O)cc2)(c2ccc(O)cc2)c2ccccc21
REMARK SMILES IDX 4 1 3 2 2 3 1 4 24 5 23 6 22 7 21 8 20 9 19 10 5 11 8 12
REMARK SMILES IDX 7 13 10 14 6 15 11 16 9 17 12 19 13 20 18 21 14 22 17 23
REMARK SMILES IDX 15 24 16 25
REMARK H PARENT 9 18 16 26
REMARK Flexibility Score: inf
ROOT
ATOM      1  C   UNL     1      11.601  79.061  -2.016  1.00  0.00     0.188 C 
ATOM      2  O   UNL     1      11.137  80.412  -1.842  1.00  0.00    -0.441 OA
ATOM      3  C   UNL     1      11.507  80.902  -0.599  1.00  0.00     0.340 C 
ATOM      4  O   UNL     1      11.234  82.058  -0.182  1.00  0.00    -0.246 OA
ATOM      5  C   UNL     1      12.227  79.891   0.126  1.00  0.00     0.068 A 
ATOM      6  C   UNL     1      12.771  79.903   1.409  1.00  0.00     0.016 A 
ATOM      7  C   UNL     1      13.407  78.737   1.866  1.00  0.00     0.001 A 
ATOM      8  C   UNL     1      13.478  77.596   1.042  1.00  0.00     0.001 A 
ATOM      9  C   UNL     1      12.916  77.612  -0.246  1.00  0.00     0.009 A 
ATOM     10  C   UNL     1      12.294  78.786  -0.692  1.00  0.00     0.019 A 
ENDROOT
BRANCH   1  11
ATOM     11  C   UNL     1      10.426  78.097  -2.171  1.00  0.00     0.005 A 
ATOM     12  C   UNL     1       8.241  76.355  -2.554  1.00  0.00     0.115 A 
ATOM     13  C   UNL     1       8.021  77.695  -2.229  1.00  0.00     0.046 A 
ATOM     14  C   UNL     1       9.551  75.884  -2.702  1.00  0.00     0.046 A 
ATOM     15  C   UNL     1       9.101  78.563  -2.048  1.00  0.00     0.012 A 
ATOM     16  C   UNL     1      10.635  76.747  -2.520  1.00  0.00     0.012 A 
BRANCH  12  17
ATOM     17  O   UNL     1       7.155  75.501  -2.731  1.00  0.00    -0.508 OA
ATOM     18  H   UNL     1       7.282  74.514  -2.914  1.00  0.00     0.293 HD
ENDBRANCH  12  17
ENDBRANCH   1  11
BRANCH   1  19
ATOM     19  C   UNL     1      12.529  79.045  -3.232  1.00  0.00     0.005 A 
ATOM     20  C   UNL     1      13.050  77.850  -3.777  1.00  0.00     0.012 A 
ATOM     21  C   UNL     1      12.958  80.271  -3.779  1.00  0.00     0.012 A 
ATOM     22  C   UNL     1      13.926  77.887  -4.866  1.00  0.00     0.046 A 
ATOM     23  C   UNL     1      13.833  80.302  -4.868  1.00  0.00     0.046 A 
ATOM     24  C   UNL     1      14.316  79.109  -5.417  1.00  0.00     0.115 A 
BRANCH  24  25
ATOM     25  O   UNL     1      15.188  79.128  -6.503  1.00  0.00    -0.508 OA
ATOM     26  H   UNL     1      14.863  78.944  -7.445  1.00  0.00     0.293 HD
ENDBRANCH  24  25
ENDBRANCH   1  19
TORSDOF 4
ENDMDL
MODEL 5
REMARK VINA RESULT:    -8.709      2.105      5.191
REMARK INTER + INTRA:         -11.392
REMARK INTER:                 -10.752
REMARK INTRA:                  -0.640
REMARK UNBOUND:                -1.156
REMARK SMILES O=C1OC(c2ccc(O)cc2)(c2ccc(O)cc2)c2ccccc21
REMARK SMILES IDX 4 1 3 2 2 3 1 4 24 5 23 6 22 7 21 8 20 9 19 10 5 11 8 12
REMARK SMILES IDX 7 13 10 14 6 15 11 16 9 17 12 19 13 20 18 21 14 22 17 23
REMARK SMILES IDX 15 24 16 25
REMARK H PARENT 9 18 16 26
REMARK Flexibility Score: inf
ROOT
ATOM      1  C   UNL     1      11.140  78.733  -1.982  1.00  0.00     0.188 C 
ATOM      2  O   UNL     1       9.945  79.444  -2.349  1.00  0.00    -0.441 OA
ATOM      3  C   UNL     1       9.646  80.420  -1.409  1.00  0.00     0.340 C 
ATOM      4  O   UNL     1       8.656  81.193  -1.479  1.00  0.00    -0.246 OA
ATOM      5  C   UNL     1      10.626  80.395  -0.358  1.00  0.00     0.068 A 
ATOM      6  C   UNL     1      10.734  81.158   0.804  1.00  0.00     0.016 A 
ATOM      7  C   UNL     1      11.804  80.886   1.673  1.00  0.00     0.001 A 
ATOM      8  C   UNL     1      12.727  79.866   1.367  1.00  0.00     0.001 A 
ATOM      9  C   UNL     1      12.590  79.111   0.190  1.00  0.00     0.009 A 
ATOM     10  C   UNL     1      11.524  79.400  -0.672  1.00  0.00     0.019 A 
ENDROOT
BRANCH   1  11
ATOM     11  C   UNL     1      10.838  77.259  -1.718  1.00  0.00     0.005 A 
ATOM     12  C   UNL     1      10.195  74.567  -1.174  1.00  0.00     0.115 A 
ATOM     13  C   UNL     1      10.852  75.340  -0.213  1.00  0.00     0.046 A 
ATOM     14  C   UNL     1       9.845  75.140  -2.402  1.00  0.00     0.046 A 
ATOM     15  C   UNL     1      11.163  76.676  -0.477  1.00  0.00     0.012 A 
ATOM     16  C   UNL     1      10.156  76.476  -2.672  1.00  0.00     0.012 A 
BRANCH  12  17
ATOM     17  O   UNL     1       9.891  73.236  -0.898  1.00  0.00    -0.508 OA
ATOM     18  H   UNL     1       9.408  72.969  -0.049  1.00  0.00     0.293 HD
ENDBRANCH  12  17
ENDBRANCH   1  11
BRANCH   1  19
ATOM     19  C   UNL     1      12.155  78.924  -3.110  1.00  0.00     0.005 A 
ATOM     20  C   UNL     1      12.925  77.860  -3.632  1.00  0.00     0.012 A 
ATOM     21  C   UNL     1      12.404  80.226  -3.590  1.00  0.00     0.012 A 
ATOM     22  C   UNL     1      13.868  78.090  -4.638  1.00  0.00     0.046 A 
ATOM     23  C   UNL     1      13.348  80.450  -4.596  1.00  0.00     0.046 A 
ATOM     24  C   UNL     1      14.080  79.382  -5.125  1.00  0.00     0.115 A 
BRANCH  24  25
ATOM     25  O   UNL     1      15.022  79.593  -6.129  1.00  0.00    -0.508 OA
ATOM     26  H   UNL     1      15.949  79.185  -6.079  1.00  0.00     0.293 HD
ENDBRANCH  24  25
ENDBRANCH   1  19
TORSDOF 4
ENDMDL
MODEL 6
REMARK VINA RESULT:    -8.577      2.030      5.042
REMARK INTER + INTRA:         -11.238
REMARK INTER:                 -10.191
REMARK INTRA:                  -1.047
REMARK UNBOUND:                -1.156
REMARK SMILES O=C1OC(c2ccc(O)cc2)(c2ccc(O)cc2)c2ccccc21
REMARK SMILES IDX 4 1 3 2 2 3 1 4 24 5 23 6 22 7 21 8 20 9 19 10 5 11 8 12
REMARK SMILES IDX 7 13 10 14 6 15 11 16 9 17 12 19 13 20 18 21 14 22 17 23
REMARK SMILES IDX 15 24 16 25
REMARK H PARENT 9 18 16 26
REMARK Flexibility Score: inf
ROOT
ATOM      1  C   UNL     1      12.467  79.348  -1.438  1.00  0.00     0.188 C 
ATOM      2  O   UNL     1      13.166  80.520  -0.981  1.00  0.00    -0.441 OA
ATOM      3  C   UNL     1      13.899  80.240   0.164  1.00  0.00     0.340 C 
ATOM      4  O   UNL     1      14.607  81.080   0.776  1.00  0.00    -0.246 OA
ATOM      5  C   UNL     1      13.711  78.863   0.533  1.00  0.00     0.068 A 
ATOM      6  C   UNL     1      14.214  78.132   1.608  1.00  0.00     0.016 A 
ATOM      7  C   UNL     1      13.830  76.787   1.727  1.00  0.00     0.001 A 
ATOM      8  C   UNL     1      12.957  76.210   0.782  1.00  0.00     0.001 A 
ATOM      9  C   UNL     1      12.463  76.973  -0.289  1.00  0.00     0.009 A 
ATOM     10  C   UNL     1      12.863  78.312  -0.400  1.00  0.00     0.019 A 
ENDROOT
BRANCH   1  11
ATOM     11  C   UNL     1      10.955  79.557  -1.379  1.00  0.00     0.005 A 
ATOM     12  C   UNL     1       8.156  79.859  -1.205  1.00  0.00     0.115 A 
ATOM     13  C   UNL     1       8.707  78.899  -2.056  1.00  0.00     0.046 A 
ATOM     14  C   UNL     1       9.000  80.662  -0.428  1.00  0.00     0.046 A 
ATOM     15  C   UNL     1      10.093  78.740  -2.138  1.00  0.00     0.012 A 
ATOM     16  C   UNL     1      10.387  80.509  -0.507  1.00  0.00     0.012 A 
BRANCH  12  17
ATOM     17  O   UNL     1       6.773  80.006  -1.135  1.00  0.00    -0.508 OA
ATOM     18  H   UNL     1       6.345  80.714  -0.551  1.00  0.00     0.293 HD
ENDBRANCH  12  17
ENDBRANCH   1  11
BRANCH   1  19
ATOM     19  C   UNL     1      12.956  79.044  -2.855  1.00  0.00     0.005 A 
ATOM     20  C   UNL     1      13.124  77.726  -3.337  1.00  0.00     0.012 A 
ATOM     21  C   UNL     1      13.343  80.113  -3.687  1.00  0.00     0.012 A 
ATOM     22  C   UNL     1      13.610  77.496  -4.627  1.00  0.00     0.046 A 
ATOM     23  C   UNL     1      13.828  79.878  -4.977  1.00  0.00     0.046 A 
ATOM     24  C   UNL     1      13.959  78.568  -5.451  1.00  0.00     0.115 A 
BRANCH  24  25
ATOM     25  O   UNL     1      14.440  78.321  -6.735  1.00  0.00    -0.508 OA
ATOM     26  H   UNL     1      14.949  77.473  -6.956  1.00  0.00     0.293 HD
ENDBRANCH  24  25
ENDBRANCH   1  19
TORSDOF 4
ENDMDL
MODEL 7
REMARK VINA RESULT:    -8.206      1.961      2.379
REMARK INTER + INTRA:         -10.801
REMARK INTER:                 -10.059
REMARK INTRA:                  -0.742
REMARK UNBOUND:                -1.156
REMARK SMILES O=C1OC(c2ccc(O)cc2)(c2ccc(O)cc2)c2ccccc21
REMARK SMILES IDX 4 1 3 2 2 3 1 4 24 5 23 6 22 7 21 8 20 9 19 10 5 11 8 12
REMARK SMILES IDX 7 13 10 14 6 15 11 16 9 17 12 19 13 20 18 21 14 22 17 23
REMARK SMILES IDX 15 24 16 25
REMARK H PARENT 9 18 16 26
REMARK Flexibility Score: inf
ROOT
ATOM      1  C   UNL     1      12.089  78.585  -1.969  1.00  0.00     0.188 C 
ATOM      2  O   UNL     1      12.029  77.303  -1.319  1.00  0.00    -0.441 OA
ATOM      3  C   UNL     1      12.742  77.320  -0.129  1.00  0.00     0.340 C 
ATOM      4  O   UNL     1      12.857  76.335   0.645  1.00  0.00    -0.246 OA
ATOM      5  C   UNL     1      13.327  78.619   0.065  1.00  0.00     0.068 A 
ATOM      6  C   UNL     1      14.141  79.108   1.085  1.00  0.00     0.016 A 
ATOM      7  C   UNL     1      14.590  80.435   0.991  1.00  0.00     0.001 A 
ATOM      8  C   UNL     1      14.225  81.234  -0.112  1.00  0.00     0.001 A 
ATOM      9  C   UNL     1      13.406  80.711  -1.128  1.00  0.00     0.009 A 
ATOM     10  C   UNL     1      12.957  79.389  -1.015  1.00  0.00     0.019 A 
ENDROOT
BRANCH   1  11
ATOM     11  C   UNL     1      12.799  78.480  -3.317  1.00  0.00     0.005 A 
ATOM     12  C   UNL     1      14.203  78.299  -5.756  1.00  0.00     0.115 A 
ATOM     13  C   UNL     1      13.953  79.547  -5.182  1.00  0.00     0.046 A 
ATOM     14  C   UNL     1      13.766  77.138  -5.109  1.00  0.00     0.046 A 
ATOM     15  C   UNL     1      13.266  79.640  -3.969  1.00  0.00     0.012 A 
ATOM     16  C   UNL     1      13.077  77.225  -3.896  1.00  0.00     0.012 A 
BRANCH  12  17
ATOM     17  O   UNL     1      14.889  78.223  -6.967  1.00  0.00    -0.508 OA
ATOM     18  H   UNL     1      14.420  78.378  -7.851  1.00  0.00     0.293 HD
ENDBRANCH  12  17
ENDBRANCH   1  11
BRANCH   1  19
ATOM     19  C   UNL     1      10.656  79.101  -2.106  1.00  0.00     0.005 A 
ATOM     20  C   UNL     1      10.346  80.476  -2.199  1.00  0.00     0.012 A 
ATOM     21  C   UNL     1       9.591  78.179  -2.045  1.00  0.00     0.012 A 
ATOM     22  C   UNL     1       9.017  80.902  -2.285  1.00  0.00     0.046 A 
ATOM     23  C   UNL     1       8.264  78.611  -2.132  1.00  0.00     0.046 A 
ATOM     24  C   UNL     1       7.975  79.974  -2.256  1.00  0.00     0.115 A 
BRANCH  24  25
ATOM     25  O   UNL     1       6.657  80.416  -2.344  1.00  0.00    -0.508 OA
ATOM     26  H   UNL     1       6.307  80.874  -3.178  1.00  0.00     0.293 HD
ENDBRANCH  24  25
ENDBRANCH   1  19
TORSDOF 4
ENDMDL
MODEL 8
REMARK VINA RESULT:    -7.984      2.833      7.042
REMARK INTER + INTRA:         -10.541
REMARK INTER:                  -9.954
REMARK INTRA:                  -0.586
REMARK UNBOUND:                -1.156
REMARK SMILES O=C1OC(c2ccc(O)cc2)(c2ccc(O)cc2)c2ccccc21
REMARK SMILES IDX 4 1 3 2 2 3 1 4 24 5 23 6 22 7 21 8 20 9 19 10 5 11 8 12
REMARK SMILES IDX 7 13 10 14 6 15 11 16 9 17 12 19 13 20 18 21 14 22 17 23
REMARK SMILES IDX 15 24 16 25
REMARK H PARENT 9 18 16 26
REMARK Flexibility Score: inf
ROOT
ATOM      1  C   UNL     1       9.211  76.769  -1.311  1.00  0.00     0.188 C 
ATOM      2  O   UNL     1       9.819  75.716  -0.542  1.00  0.00    -0.441 OA
ATOM      3  C   UNL     1       9.603  74.483  -1.140  1.00  0.00     0.340 C 
ATOM      4  O   UNL     1      10.025  73.389  -0.684  1.00  0.00    -0.246 OA
ATOM      5  C   UNL     1       8.824  74.656  -2.336  1.00  0.00     0.068 A 
ATOM      6  C   UNL     1       8.339  73.721  -3.249  1.00  0.00     0.016 A 
ATOM      7  C   UNL     1       7.571  74.191  -4.327  1.00  0.00     0.001 A 
ATOM      8  C   UNL     1       7.302  75.568  -4.463  1.00  0.00     0.001 A 
ATOM      9  C   UNL     1       7.801  76.486  -3.523  1.00  0.00     0.009 A 
ATOM     10  C   UNL     1       8.574  76.004  -2.459  1.00  0.00     0.019 A 
ENDROOT
BRANCH   1  11
ATOM     11  C   UNL     1       8.112  77.464  -0.509  1.00  0.00     0.005 A 
ATOM     12  C   UNL     1       6.022  78.746   0.885  1.00  0.00     0.115 A 
ATOM     13  C   UNL     1       6.843  79.478   0.025  1.00  0.00     0.046 A 
ATOM     14  C   UNL     1       6.232  77.371   1.041  1.00  0.00     0.046 A 
ATOM     15  C   UNL     1       7.874  78.844  -0.675  1.00  0.00     0.012 A 
ATOM     16  C   UNL     1       7.263  76.732   0.345  1.00  0.00     0.012 A 
BRANCH  12  17
ATOM     17  O   UNL     1       4.999  79.392   1.576  1.00  0.00    -0.508 OA
ATOM     18  H   UNL     1       4.082  78.974   1.676  1.00  0.00     0.293 HD
ENDBRANCH  12  17
ENDBRANCH   1  11
BRANCH   1  19
ATOM     19  C   UNL     1      10.321  77.733  -1.732  1.00  0.00     0.005 A 
ATOM     20  C   UNL     1      11.167  77.486  -2.836  1.00  0.00     0.012 A 
ATOM     21  C   UNL     1      10.575  78.869  -0.937  1.00  0.00     0.012 A 
ATOM     22  C   UNL     1      12.193  78.378  -3.160  1.00  0.00     0.046 A 
ATOM     23  C   UNL     1      11.603  79.758  -1.266  1.00  0.00     0.046 A 
ATOM     24  C   UNL     1      12.412  79.516  -2.381  1.00  0.00     0.115 A 
BRANCH  24  25
ATOM     25  O   UNL     1      13.438  80.395  -2.719  1.00  0.00    -0.508 OA
ATOM     26  H   UNL     1      14.012  80.248  -3.542  1.00  0.00     0.293 HD
ENDBRANCH  24  25
ENDBRANCH   1  19
TORSDOF 4
ENDMDL
MODEL 9
REMARK VINA RESULT:    -7.859      1.965      5.107
REMARK INTER + INTRA:         -10.394
REMARK INTER:                  -9.551
REMARK INTRA:                  -0.842
REMARK UNBOUND:                -1.156
REMARK SMILES O=C1OC(c2ccc(O)cc2)(c2ccc(O)cc2)c2ccccc21
REMARK SMILES IDX 4 1 3 2 2 3 1 4 24 5 23 6 22 7 21 8 20 9 19 10 5 11 8 12
REMARK SMILES IDX 7 13 10 14 6 15 11 16 9 17 12 19 13 20 18 21 14 22 17 23
REMARK SMILES IDX 15 24 16 25
REMARK H PARENT 9 18 16 26
REMARK Flexibility Score: inf
ROOT
ATOM      1  C   UNL     1      10.664  79.084  -1.759  1.00  0.00     0.188 C 
ATOM      2  O   UNL     1       9.569  79.874  -2.256  1.00  0.00    -0.441 OA
ATOM      3  C   UNL     1       8.391  79.140  -2.250  1.00  0.00     0.340 C 
ATOM      4  O   UNL     1       7.276  79.584  -2.630  1.00  0.00    -0.246 OA
ATOM      5  C   UNL     1       8.650  77.814  -1.759  1.00  0.00     0.068 A 
ATOM      6  C   UNL     1       7.799  76.722  -1.595  1.00  0.00     0.016 A 
ATOM      7  C   UNL     1       8.351  75.525  -1.111  1.00  0.00     0.001 A 
ATOM      8  C   UNL     1       9.726  75.445  -0.810  1.00  0.00     0.001 A 
ATOM      9  C   UNL     1      10.559  76.562  -0.989  1.00  0.00     0.009 A 
ATOM     10  C   UNL     1       9.993  77.753  -1.464  1.00  0.00     0.019 A 
ENDROOT
BRANCH   1  11
ATOM     11  C   UNL     1      11.721  78.876  -2.842  1.00  0.00     0.005 A 
ATOM     12  C   UNL     1      13.748  78.509  -4.769  1.00  0.00     0.115 A 
ATOM     13  C   UNL     1      13.386  79.797  -4.368  1.00  0.00     0.046 A 
ATOM     14  C   UNL     1      13.109  77.401  -4.200  1.00  0.00     0.046 A 
ATOM     15  C   UNL     1      12.389  79.982  -3.407  1.00  0.00     0.012 A 
ATOM     16  C   UNL     1      12.110  77.580  -3.239  1.00  0.00     0.012 A 
BRANCH  12  17
ATOM     17  O   UNL     1      14.744  78.340  -5.728  1.00  0.00    -0.508 OA
ATOM     18  H   UNL     1      14.521  78.254  -6.712  1.00  0.00     0.293 HD
ENDBRANCH  12  17
ENDBRANCH   1  11
BRANCH   1  19
ATOM     19  C   UNL     1      11.226  79.796  -0.528  1.00  0.00     0.005 A 
ATOM     20  C   UNL     1      12.374  79.342   0.157  1.00  0.00     0.012 A 
ATOM     21  C   UNL     1      10.523  80.896   0.003  1.00  0.00     0.012 A 
ATOM     22  C   UNL     1      12.830  80.004   1.301  1.00  0.00     0.046 A 
ATOM     23  C   UNL     1      10.982  81.555   1.147  1.00  0.00     0.046 A 
ATOM     24  C   UNL     1      12.140  81.113   1.796  1.00  0.00     0.115 A 
BRANCH  24  25
ATOM     25  O   UNL     1      12.608  81.762   2.936  1.00  0.00    -0.508 OA
ATOM     26  H   UNL     1      13.454  82.319   2.918  1.00  0.00     0.293 HD
ENDBRANCH  24  25
ENDBRANCH   1  19
TORSDOF 4
ENDMDL
MODEL 10
REMARK VINA RESULT:    -7.772      2.452      4.440
REMARK INTER + INTRA:         -10.291
REMARK INTER:                  -9.233
REMARK INTRA:                  -1.057
REMARK UNBOUND:                -1.156
REMARK SMILES O=C1OC(c2ccc(O)cc2)(c2ccc(O)cc2)c2ccccc21
REMARK SMILES IDX 4 1 3 2 2 3 1 4 24 5 23 6 22 7 21 8 20 9 19 10 5 11 8 12
REMARK SMILES IDX 7 13 10 14 6 15 11 16 9 17 12 19 13 20 18 21 14 22 17 23
REMARK SMILES IDX 15 24 16 25
REMARK H PARENT 9 18 16 26
REMARK Flexibility Score: inf
ROOT
ATOM      1  C   UNL     1      11.243  77.729  -2.169  1.00  0.00     0.188 C 
ATOM      2  O   UNL     1      11.941  77.754  -3.426  1.00  0.00    -0.441 OA
ATOM      3  C   UNL     1      13.253  78.170  -3.253  1.00  0.00     0.340 C 
ATOM      4  O   UNL     1      14.092  78.282  -4.184  1.00  0.00    -0.246 OA
ATOM      5  C   UNL     1      13.488  78.458  -1.864  1.00  0.00     0.068 A 
ATOM      6  C   UNL     1      14.628  78.925  -1.212  1.00  0.00     0.016 A 
ATOM      7  C   UNL     1      14.552  79.142   0.174  1.00  0.00     0.001 A 
ATOM      8  C   UNL     1      13.350  78.895   0.867  1.00  0.00     0.001 A 
ATOM      9  C   UNL     1      12.216  78.429   0.182  1.00  0.00     0.009 A 
ATOM     10  C   UNL     1      12.310  78.207  -1.199  1.00  0.00     0.019 A 
ENDROOT
BRANCH   1  11
ATOM     11  C   UNL     1      10.087  78.728  -2.167  1.00  0.00     0.005 A 
ATOM     12  C   UNL     1       7.959  80.576  -2.272  1.00  0.00     0.115 A 
ATOM     13  C   UNL     1       9.277  81.016  -2.412  1.00  0.00     0.046 A 
ATOM     14  C   UNL     1       7.699  79.212  -2.092  1.00  0.00     0.046 A 
ATOM     15  C   UNL     1      10.333  80.101  -2.371  1.00  0.00     0.012 A 
ATOM     16  C   UNL     1       8.751  78.294  -2.048  1.00  0.00     0.012 A 
BRANCH  12  17
ATOM     17  O   UNL     1       6.916  81.499  -2.315  1.00  0.00    -0.508 OA
ATOM     18  H   UNL     1       7.067  82.478  -2.105  1.00  0.00     0.293 HD
ENDBRANCH  12  17
ENDBRANCH   1  11
BRANCH   1  19
ATOM     19  C   UNL     1      10.769  76.294  -1.932  1.00  0.00     0.005 A 
ATOM     20  C   UNL     1      10.637  75.739  -0.639  1.00  0.00     0.012 A 
ATOM     21  C   UNL     1      10.543  75.458  -3.044  1.00  0.00     0.012 A 
ATOM     22  C   UNL     1      10.237  74.410  -0.473  1.00  0.00     0.046 A 
ATOM     23  C   UNL     1      10.143  74.130  -2.872  1.00  0.00     0.046 A 
ATOM     24  C   UNL     1       9.985  73.604  -1.585  1.00  0.00     0.115 A 
BRANCH  24  25
ATOM     25  O   UNL     1       9.586  72.282  -1.401  1.00  0.00    -0.508 OA
ATOM     26  H   UNL     1      10.205  71.508  -1.613  1.00  0.00     0.293 HD
ENDBRANCH  24  25
ENDBRANCH   1  19
TORSDOF 4
ENDMDL
MODEL 11
REMARK VINA RESULT:    -7.762      2.492      4.966
REMARK INTER + INTRA:         -10.280
REMARK INTER:                  -9.299
REMARK INTRA:                  -0.981
REMARK UNBOUND:                -1.156
REMARK SMILES O=C1OC(c2ccc(O)cc2)(c2ccc(O)cc2)c2ccccc21
REMARK SMILES IDX 4 1 3 2 2 3 1 4 24 5 23 6 22 7 21 8 20 9 19 10 5 11 8 12
REMARK SMILES IDX 7 13 10 14 6 15 11 16 9 17 12 19 13 20 18 21 14 22 17 23
REMARK SMILES IDX 15 24 16 25
REMARK H PARENT 9 18 16 26
REMARK Flexibility Score: inf
ROOT
ATOM      1  C   UNL     1      11.079  77.963  -1.243  1.00  0.00     0.188 C 
ATOM      2  O   UNL     1      11.513  78.215   0.106  1.00  0.00    -0.441 OA
ATOM      3  C   UNL     1      12.840  78.617   0.128  1.00  0.00     0.340 C 
ATOM      4  O   UNL     1      13.478  78.905   1.174  1.00  0.00    -0.246 OA
ATOM      5  C   UNL     1      13.361  78.639  -1.211  1.00  0.00     0.068 A 
ATOM      6  C   UNL     1      14.634  78.948  -1.688  1.00  0.00     0.016 A 
ATOM      7  C   UNL     1      14.860  78.855  -3.071  1.00  0.00     0.001 A 
ATOM      8  C   UNL     1      13.822  78.454  -3.936  1.00  0.00     0.001 A 
ATOM      9  C   UNL     1      12.550  78.145  -3.426  1.00  0.00     0.009 A 
ATOM     10  C   UNL     1      12.337  78.252  -2.045  1.00  0.00     0.019 A 
ENDROOT
BRANCH   1  11
ATOM     11  C   UNL     1      10.698  76.496  -1.428  1.00  0.00     0.005 A 
ATOM     12  C   UNL     1       9.898  73.809  -1.734  1.00  0.00     0.115 A 
ATOM     13  C   UNL     1      10.249  74.297  -0.474  1.00  0.00     0.046 A 
ATOM     14  C   UNL     1       9.932  74.663  -2.842  1.00  0.00     0.046 A 
ATOM     15  C   UNL     1      10.637  75.630  -0.317  1.00  0.00     0.012 A 
ATOM     16  C   UNL     1      10.321  75.997  -2.692  1.00  0.00     0.012 A 
BRANCH  12  17
ATOM     17  O   UNL     1       9.514  72.477  -1.875  1.00  0.00    -0.508 OA
ATOM     18  H   UNL     1      10.195  71.728  -1.887  1.00  0.00     0.293 HD
ENDBRANCH  12  17
ENDBRANCH   1  11
BRANCH   1  19
ATOM     19  C   UNL     1       9.911  78.907  -1.536  1.00  0.00     0.005 A 
ATOM     20  C   UNL     1       8.571  78.578  -1.234  1.00  0.00     0.012 A 
ATOM     21  C   UNL     1      10.166  80.116  -2.216  1.00  0.00     0.012 A 
ATOM     22  C   UNL     1       7.533  79.457  -1.555  1.00  0.00     0.046 A 
ATOM     23  C   UNL     1       9.124  80.991  -2.534  1.00  0.00     0.046 A 
ATOM     24  C   UNL     1       7.804  80.665  -2.200  1.00  0.00     0.115 A 
BRANCH  24  25
ATOM     25  O   UNL     1       6.758  81.531  -2.511  1.00  0.00    -0.508 OA
ATOM     26  H   UNL     1       5.920  81.574  -1.942  1.00  0.00     0.293 HD
ENDBRANCH  24  25
ENDBRANCH   1  19
TORSDOF 4
ENDMDL
MODEL 12
REMARK VINA RESULT:    -7.757      2.812      6.000
REMARK INTER + INTRA:         -10.273
REMARK INTER:                 -10.216
REMARK INTRA:                  -0.057
REMARK UNBOUND:                -1.156
REMARK SMILES O=C1OC(c2ccc(O)cc2)(c2ccc(O)cc2)c2ccccc21
REMARK SMILES IDX 4 1 3 2 2 3 1 4 24 5 23 6 22 7 21 8 20 9 19 10 5 11 8 12
REMARK SMILES IDX 7 13 10 14 6 15 11 16 9 17 12 19 13 20 18 21 14 22 17 23
REMARK SMILES IDX 15 24 16 25
REMARK H PARENT 9 18 16 26
REMARK Flexibility Score: inf
ROOT
ATOM      1  C   UNL     1       8.495  76.819  -2.045  1.00  0.00     0.188 C 
ATOM      2  O   UNL     1       7.601  76.893  -3.170  1.00  0.00    -0.441 OA
ATOM      3  C   UNL     1       7.516  75.667  -3.813  1.00  0.00     0.340 C 
ATOM      4  O   UNL     1       6.805  75.444  -4.826  1.00  0.00    -0.246 OA
ATOM      5  C   UNL     1       8.365  74.714  -3.151  1.00  0.00     0.068 A 
ATOM      6  C   UNL     1       8.631  73.377  -3.440  1.00  0.00     0.016 A 
ATOM      7  C   UNL     1       9.541  72.694  -2.617  1.00  0.00     0.001 A 
ATOM      8  C   UNL     1      10.164  73.357  -1.541  1.00  0.00     0.001 A 
ATOM      9  C   UNL     1       9.880  74.708  -1.277  1.00  0.00     0.009 A 
ATOM     10  C   UNL     1       8.961  75.373  -2.100  1.00  0.00     0.019 A 
ENDROOT
BRANCH   1  11
ATOM     11  C   UNL     1       9.700  77.736  -2.245  1.00  0.00     0.005 A 
ATOM     12  C   UNL     1      11.905  79.430  -2.719  1.00  0.00     0.115 A 
ATOM     13  C   UNL     1      12.012  78.058  -2.953  1.00  0.00     0.046 A 
ATOM     14  C   UNL     1      10.694  79.962  -2.261  1.00  0.00     0.046 A 
ATOM     15  C   UNL     1      10.918  77.217  -2.729  1.00  0.00     0.012 A 
ATOM     16  C   UNL     1       9.598  79.126  -2.033  1.00  0.00     0.012 A 
BRANCH  12  17
ATOM     17  O   UNL     1      13.003  80.256  -2.947  1.00  0.00    -0.508 OA
ATOM     18  H   UNL     1      13.022  81.214  -2.620  1.00  0.00     0.293 HD
ENDBRANCH  12  17
ENDBRANCH   1  11
BRANCH   1  19
ATOM     19  C   UNL     1       7.693  77.178  -0.793  1.00  0.00     0.005 A 
ATOM     20  C   UNL     1       7.082  76.203   0.026  1.00  0.00     0.012 A 
ATOM     21  C   UNL     1       7.474  78.537  -0.491  1.00  0.00     0.012 A 
ATOM     22  C   UNL     1       6.326  76.581   1.140  1.00  0.00     0.046 A 
ATOM     23  C   UNL     1       6.718  78.910   0.624  1.00  0.00     0.046 A 
ATOM     24  C   UNL     1       6.145  77.932   1.444  1.00  0.00     0.115 A 
BRANCH  24  25
ATOM     25  O   UNL     1       5.391  78.291   2.559  1.00  0.00    -0.508 OA
ATOM     26  H   UNL     1       4.414  78.549   2.476  1.00  0.00     0.293 HD
ENDBRANCH  24  25
ENDBRANCH   1  19
TORSDOF 4
ENDMDL
MODEL 13
REMARK VINA RESULT:    -7.755      3.165      5.320
REMARK INTER + INTRA:         -10.271
REMARK INTER:                  -9.156
REMARK INTRA:                  -1.115
REMARK UNBOUND:                -1.156
REMARK SMILES O=C1OC(c2ccc(O)cc2)(c2ccc(O)cc2)c2ccccc21
REMARK SMILES IDX 4 1 3 2 2 3 1 4 24 5 23 6 22 7 21 8 20 9 19 10 5 11 8 12
REMARK SMILES IDX 7 13 10 14 6 15 11 16 9 17 12 19 13 20 18 21 14 22 17 23
REMARK SMILES IDX 15 24 16 25
REMARK H PARENT 9 18 16 26
REMARK Flexibility Score: inf
ROOT
ATOM      1  C   UNL     1      10.255  76.356  -0.908  1.00  0.00     0.188 C 
ATOM      2  O   UNL     1      10.902  76.037   0.337  1.00  0.00    -0.441 OA
ATOM      3  C   UNL     1      12.156  76.628   0.405  1.00  0.00     0.340 C 
ATOM      4  O   UNL     1      12.940  76.518   1.383  1.00  0.00    -0.246 OA
ATOM      5  C   UNL     1      12.410  77.362  -0.804  1.00  0.00     0.068 A 
ATOM      6  C   UNL     1      13.527  78.091  -1.208  1.00  0.00     0.016 A 
ATOM      7  C   UNL     1      13.499  78.689  -2.479  1.00  0.00     0.001 A 
ATOM      8  C   UNL     1      12.371  78.541  -3.310  1.00  0.00     0.001 A 
ATOM      9  C   UNL     1      11.261  77.796  -2.877  1.00  0.00     0.009 A 
ATOM     10  C   UNL     1      11.299  77.214  -1.603  1.00  0.00     0.019 A 
ENDROOT
BRANCH   1  11
ATOM     11  C   UNL     1      10.018  75.095  -1.737  1.00  0.00     0.005 A 
ATOM     12  C   UNL     1       9.498  72.743  -3.204  1.00  0.00     0.115 A 
ATOM     13  C   UNL     1      10.195  72.676  -1.995  1.00  0.00     0.046 A 
ATOM     14  C   UNL     1       9.047  73.981  -3.676  1.00  0.00     0.046 A 
ATOM     15  C   UNL     1      10.446  73.839  -1.262  1.00  0.00     0.012 A 
ATOM     16  C   UNL     1       9.296  75.147  -2.947  1.00  0.00     0.012 A 
BRANCH  12  17
ATOM     17  O   UNL     1       9.256  71.576  -3.925  1.00  0.00    -0.508 OA
ATOM     18  H   UNL     1       8.377  71.079  -3.848  1.00  0.00     0.293 HD
ENDBRANCH  12  17
ENDBRANCH   1  11
BRANCH   1  19
ATOM     19  C   UNL     1       8.953  77.087  -0.577  1.00  0.00     0.005 A 
ATOM     20  C   UNL     1       8.781  78.472  -0.794  1.00  0.00     0.012 A 
ATOM     21  C   UNL     1       7.913  76.375   0.054  1.00  0.00     0.012 A 
ATOM     22  C   UNL     1       7.585  79.105  -0.441  1.00  0.00     0.046 A 
ATOM     23  C   UNL     1       6.720  77.012   0.405  1.00  0.00     0.046 A 
ATOM     24  C   UNL     1       6.552  78.379   0.154  1.00  0.00     0.115 A 
BRANCH  24  25
ATOM     25  O   UNL     1       5.366  79.024   0.499  1.00  0.00    -0.508 OA
ATOM     26  H   UNL     1       4.488  78.522   0.556  1.00  0.00     0.293 HD
ENDBRANCH  24  25
ENDBRANCH   1  19
TORSDOF 4
ENDMDL
MODEL 14
REMARK VINA RESULT:    -7.676      3.119      6.168
REMARK INTER + INTRA:         -10.178
REMARK INTER:                  -9.384
REMARK INTRA:                  -0.794
REMARK UNBOUND:                -1.156
REMARK SMILES O=C1OC(c2ccc(O)cc2)(c2ccc(O)cc2)c2ccccc21
REMARK SMILES IDX 4 1 3 2 2 3 1 4 24 5 23 6 22 7 21 8 20 9 19 10 5 11 8 12
REMARK SMILES IDX 7 13 10 14 6 15 11 16 9 17 12 19 13 20 18 21 14 22 17 23
REMARK SMILES IDX 15 24 16 25
REMARK H PARENT 9 18 16 26
REMARK Flexibility Score: inf
ROOT
ATOM      1  C   UNL     1       9.524  77.189  -1.548  1.00  0.00     0.188 C 
ATOM      2  O   UNL     1       9.495  78.410  -2.308  1.00  0.00    -0.441 OA
ATOM      3  C   UNL     1       8.429  79.208  -1.917  1.00  0.00     0.340 C 
ATOM      4  O   UNL     1       8.165  80.333  -2.414  1.00  0.00    -0.246 OA
ATOM      5  C   UNL     1       7.685  78.546  -0.881  1.00  0.00     0.068 A 
ATOM      6  C   UNL     1       6.533  78.934  -0.198  1.00  0.00     0.016 A 
ATOM      7  C   UNL     1       6.009  78.053   0.763  1.00  0.00     0.001 A 
ATOM      8  C   UNL     1       6.637  76.816   1.011  1.00  0.00     0.001 A 
ATOM      9  C   UNL     1       7.794  76.450   0.303  1.00  0.00     0.009 A 
ATOM     10  C   UNL     1       8.312  77.344  -0.644  1.00  0.00     0.019 A 
ENDROOT
BRANCH   1  11
ATOM     11  C   UNL     1       9.316  75.977  -2.454  1.00  0.00     0.005 A 
ATOM     12  C   UNL     1       8.922  73.679  -4.040  1.00  0.00     0.115 A 
ATOM     13  C   UNL     1      10.170  73.930  -3.467  1.00  0.00     0.046 A 
ATOM     14  C   UNL     1       7.864  74.567  -3.813  1.00  0.00     0.046 A 
ATOM     15  C   UNL     1      10.366  75.062  -2.672  1.00  0.00     0.012 A 
ATOM     16  C   UNL     1       8.054  75.702  -3.020  1.00  0.00     0.012 A 
BRANCH  12  17
ATOM     17  O   UNL     1       8.741  72.546  -4.830  1.00  0.00    -0.508 OA
ATOM     18  H   UNL     1       8.552  72.617  -5.822  1.00  0.00     0.293 HD
ENDBRANCH  12  17
ENDBRANCH   1  11
BRANCH   1  19
ATOM     19  C   UNL     1      10.862  77.138  -0.808  1.00  0.00     0.005 A 
ATOM     20  C   UNL     1      11.231  76.058   0.024  1.00  0.00     0.012 A 
ATOM     21  C   UNL     1      11.725  78.250  -0.882  1.00  0.00     0.012 A 
ATOM     22  C   UNL     1      12.449  76.073   0.711  1.00  0.00     0.046 A 
ATOM     23  C   UNL     1      12.941  78.260  -0.194  1.00  0.00     0.046 A 
ATOM     24  C   UNL     1      13.308  77.169   0.601  1.00  0.00     0.115 A 
BRANCH  24  25
ATOM     25  O   UNL     1      14.519  77.167   1.290  1.00  0.00    -0.508 OA
ATOM     26  H   UNL     1      14.792  76.387   1.877  1.00  0.00     0.293 HD
ENDBRANCH  24  25
ENDBRANCH   1  19
TORSDOF 4
ENDMDL
MODEL 15
REMARK VINA RESULT:    -7.527      2.130      5.208
REMARK INTER + INTRA:         -10.003
REMARK INTER:                  -9.255
REMARK INTRA:                  -0.748
REMARK UNBOUND:                -1.156
REMARK SMILES O=C1OC(c2ccc(O)cc2)(c2ccc(O)cc2)c2ccccc21
REMARK SMILES IDX 4 1 3 2 2 3 1 4 24 5 23 6 22 7 21 8 20 9 19 10 5 11 8 12
REMARK SMILES IDX 7 13 10 14 6 15 11 16 9 17 12 19 13 20 18 21 14 22 17 23
REMARK SMILES IDX 15 24 16 25
REMARK H PARENT 9 18 16 26
REMARK Flexibility Score: inf
ROOT
ATOM      1  C   UNL     1      12.432  79.039  -2.041  1.00  0.00     0.188 C 
ATOM      2  O   UNL     1      13.055  80.335  -2.085  1.00  0.00    -0.441 OA
ATOM      3  C   UNL     1      13.844  80.463  -3.220  1.00  0.00     0.340 C 
ATOM      4  O   UNL     1      14.503  81.494  -3.514  1.00  0.00    -0.246 OA
ATOM      5  C   UNL     1      13.794  79.246  -3.983  1.00  0.00     0.068 A 
ATOM      6  C   UNL     1      14.431  78.890  -5.170  1.00  0.00     0.016 A 
ATOM      7  C   UNL     1      14.208  77.598  -5.676  1.00  0.00     0.001 A 
ATOM      8  C   UNL     1      13.367  76.701  -4.988  1.00  0.00     0.001 A 
ATOM      9  C   UNL     1      12.741  77.088  -3.790  1.00  0.00     0.009 A 
ATOM     10  C   UNL     1      12.965  78.382  -3.304  1.00  0.00     0.019 A 
ENDROOT
BRANCH   1  11
ATOM     11  C   UNL     1      12.913  78.244  -0.829  1.00  0.00     0.005 A 
ATOM     12  C   UNL     1      13.840  76.703   1.344  1.00  0.00     0.115 A 
ATOM     13  C   UNL     1      12.659  76.351   0.688  1.00  0.00     0.046 A 
ATOM     14  C   UNL     1      14.568  77.817   0.910  1.00  0.00     0.046 A 
ATOM     15  C   UNL     1      12.202  77.106  -0.395  1.00  0.00     0.012 A 
ATOM     16  C   UNL     1      14.115  78.578  -0.172  1.00  0.00     0.012 A 
BRANCH  12  17
ATOM     17  O   UNL     1      14.282  75.941   2.423  1.00  0.00    -0.508 OA
ATOM     18  H   UNL     1      14.948  76.307   3.092  1.00  0.00     0.293 HD
ENDBRANCH  12  17
ENDBRANCH   1  11
BRANCH   1  19
ATOM     19  C   UNL     1      10.918  79.255  -2.031  1.00  0.00     0.005 A 
ATOM     20  C   UNL     1       9.996  78.195  -2.176  1.00  0.00     0.012 A 
ATOM     21  C   UNL     1      10.418  80.571  -1.967  1.00  0.00     0.012 A 
ATOM     22  C   UNL     1       8.621  78.446  -2.199  1.00  0.00     0.046 A 
ATOM     23  C   UNL     1       9.042  80.816  -1.990  1.00  0.00     0.046 A 
ATOM     24  C   UNL     1       8.140  79.753  -2.102  1.00  0.00     0.115 A 
BRANCH  24  25
ATOM     25  O   UNL     1       6.767  79.985  -2.124  1.00  0.00    -0.508 OA
ATOM     26  H   UNL     1       6.385  80.917  -2.010  1.00  0.00     0.293 HD
ENDBRANCH  24  25
ENDBRANCH   1  19
TORSDOF 4
ENDMDL
