MODEL 1
REMARK VINA RESULT:   -10.265      0.000      0.000
REMARK INTER + INTRA:         -15.533
REMARK INTER:                 -14.466
REMARK INTRA:                  -1.067
REMARK UNBOUND:                -1.067
REMARK SMILES CC1(C)C(C=C(Cl)Cl)C1C(=O)OCc1cccc(Oc2ccccc2)c1
REMARK SMILES IDX 13 1 12 2 10 3 11 4 9 5 1 6 2 7 3 8 4 9 5 10 6 11 7 12 8 13
REMARK SMILES IDX 14 14 26 15 15 16 18 17 16 18 17 19 19 20 20 21 21 22 25 23
REMARK SMILES IDX 22 24 24 25 23 26
REMARK H PARENT
REMARK Flexibility Score: inf
ROOT
ATOM      1  C   UNL     1       7.878  77.567  -0.601  1.00  0.00     0.268 C 
ENDROOT
BRANCH   1   2
ATOM      2  O   UNL     1       8.876  76.697  -0.074  1.00  0.00    -0.461 OA
BRANCH   2   3
ATOM      3  C   UNL     1       9.189  75.455  -0.639  1.00  0.00     0.310 C 
ATOM      4  O   UNL     1       9.688  74.534   0.063  1.00  0.00    -0.252 OA
BRANCH   3   5
ATOM      5  C   UNL     1       8.878  75.195  -2.082  1.00  0.00     0.113 C 
ATOM      6  C   UNL     1       6.456  74.491  -1.276  1.00  0.00     0.012 C 
ATOM      7  C   UNL     1       7.464  74.700  -2.417  1.00  0.00    -0.014 C 
ATOM      8  C   UNL     1       6.898  75.185  -3.758  1.00  0.00     0.012 C 
ATOM      9  C   UNL     1       8.644  73.718  -2.426  1.00  0.00     0.035 C 
BRANCH   9  10
ATOM     10  C   UNL     1       9.177  73.301  -3.772  1.00  0.00     0.011 C 
ATOM     11  C   UNL     1       9.727  72.097  -3.977  1.00  0.00     0.103 C 
ATOM     12  Cl  UNL     1       9.859  70.901  -2.690  1.00  0.00    -0.071 Cl
ATOM     13  Cl  UNL     1      10.331  71.678  -5.571  1.00  0.00    -0.071 Cl
ENDBRANCH   9  10
ENDBRANCH   3   5
ENDBRANCH   2   3
ENDBRANCH   1   2
BRANCH   1  14
ATOM     14  C   UNL     1       8.516  78.739  -1.297  1.00  0.00    -0.007 A 
ATOM     15  C   UNL     1       9.913  78.804  -1.414  1.00  0.00     0.054 A 
ATOM     16  C   UNL     1       7.728  79.758  -1.854  1.00  0.00     0.007 A 
ATOM     17  C   UNL     1      10.524  79.890  -2.069  1.00  0.00     0.127 A 
ATOM     18  C   UNL     1       8.331  80.826  -2.521  1.00  0.00     0.004 A 
ATOM     19  C   UNL     1       9.721  80.888  -2.634  1.00  0.00     0.047 A 
BRANCH  17  20
ATOM     20  O   UNL     1      11.915  79.978  -2.220  1.00  0.00    -0.457 OA
BRANCH  20  21
ATOM     21  C   UNL     1      12.652  79.465  -3.298  1.00  0.00     0.127 A 
ATOM     22  C   UNL     1      13.212  80.302  -4.282  1.00  0.00     0.047 A 
ATOM     23  C   UNL     1      12.791  78.077  -3.418  1.00  0.00     0.047 A 
ATOM     24  C   UNL     1      13.930  79.750  -5.348  1.00  0.00     0.004 A 
ATOM     25  C   UNL     1      13.508  77.528  -4.485  1.00  0.00     0.004 A 
ATOM     26  C   UNL     1      14.081  78.364  -5.447  1.00  0.00     0.000 A 
ENDBRANCH  20  21
ENDBRANCH  17  20
ENDBRANCH   1  14
TORSDOF 7
ENDMDL
MODEL 2
REMARK VINA RESULT:   -10.195      1.626      2.666
REMARK INTER + INTRA:         -15.433
REMARK INTER:                 -14.266
REMARK INTRA:                  -1.167
REMARK UNBOUND:                -1.067
REMARK SMILES CC1(C)C(C=C(Cl)Cl)C1C(=O)OCc1cccc(Oc2ccccc2)c1
REMARK SMILES IDX 13 1 12 2 10 3 11 4 9 5 1 6 2 7 3 8 4 9 5 10 6 11 7 12 8 13
REMARK SMILES IDX 14 14 26 15 15 16 18 17 16 18 17 19 19 20 20 21 21 22 25 23
REMARK SMILES IDX 22 24 24 25 23 26
REMARK H PARENT
REMARK Flexibility Score: inf
ROOT
ATOM      1  C   UNL     1       9.843  77.683  -1.343  1.00  0.00     0.268 C 
ENDROOT
BRANCH   1   2
ATOM      2  O   UNL     1       9.744  76.512  -0.537  1.00  0.00    -0.461 OA
BRANCH   2   3
ATOM      3  C   UNL     1       9.772  75.214  -1.060  1.00  0.00     0.310 C 
ATOM      4  O   UNL     1      10.170  74.244  -0.360  1.00  0.00    -0.252 OA
BRANCH   3   5
ATOM      5  C   UNL     1       9.276  74.963  -2.452  1.00  0.00     0.113 C 
ATOM      6  C   UNL     1       6.868  74.704  -1.382  1.00  0.00     0.012 C 
ATOM      7  C   UNL     1       7.773  74.703  -2.624  1.00  0.00    -0.014 C 
ATOM      8  C   UNL     1       7.159  75.232  -3.927  1.00  0.00     0.012 C 
ATOM      9  C   UNL     1       8.768  73.536  -2.698  1.00  0.00     0.035 C 
BRANCH   9  10
ATOM     10  C   UNL     1       9.083  72.991  -4.067  1.00  0.00     0.011 C 
ATOM     11  C   UNL     1       9.587  71.762  -4.244  1.00  0.00     0.103 C 
ATOM     12  Cl  UNL     1       9.909  70.682  -2.890  1.00  0.00    -0.071 Cl
ATOM     13  Cl  UNL     1       9.934  71.192  -5.867  1.00  0.00    -0.071 Cl
ENDBRANCH   9  10
ENDBRANCH   3   5
ENDBRANCH   2   3
ENDBRANCH   1   2
BRANCH   1  14
ATOM     14  C   UNL     1      11.283  77.978  -1.666  1.00  0.00    -0.007 A 
ATOM     15  C   UNL     1      11.698  78.049  -3.005  1.00  0.00     0.054 A 
ATOM     16  C   UNL     1      12.214  78.209  -0.641  1.00  0.00     0.007 A 
ATOM     17  C   UNL     1      13.039  78.333  -3.322  1.00  0.00     0.127 A 
ATOM     18  C   UNL     1      13.541  78.510  -0.954  1.00  0.00     0.004 A 
ATOM     19  C   UNL     1      13.950  78.578  -2.288  1.00  0.00     0.047 A 
BRANCH  17  20
ATOM     20  O   UNL     1      13.484  78.429  -4.648  1.00  0.00    -0.457 OA
BRANCH  20  21
ATOM     21  C   UNL     1      14.219  79.496  -5.185  1.00  0.00     0.127 A 
ATOM     22  C   UNL     1      13.765  80.826  -5.108  1.00  0.00     0.047 A 
ATOM     23  C   UNL     1      15.416  79.218  -5.857  1.00  0.00     0.047 A 
ATOM     24  C   UNL     1      14.522  81.861  -5.667  1.00  0.00     0.004 A 
ATOM     25  C   UNL     1      16.171  80.254  -6.415  1.00  0.00     0.004 A 
ATOM     26  C   UNL     1      15.726  81.575  -6.317  1.00  0.00     0.000 A 
ENDBRANCH  20  21
ENDBRANCH  17  20
ENDBRANCH   1  14
TORSDOF 7
ENDMDL
MODEL 3
REMARK VINA RESULT:    -9.916      1.534      2.150
REMARK INTER + INTRA:         -15.040
REMARK INTER:                 -13.353
REMARK INTRA:                  -1.687
REMARK UNBOUND:                -1.067
REMARK SMILES CC1(C)C(C=C(Cl)Cl)C1C(=O)OCc1cccc(Oc2ccccc2)c1
REMARK SMILES IDX 13 1 12 2 10 3 11 4 9 5 1 6 2 7 3 8 4 9 5 10 6 11 7 12 8 13
REMARK SMILES IDX 14 14 26 15 15 16 18 17 16 18 17 19 19 20 20 21 21 22 25 23
REMARK SMILES IDX 22 24 24 25 23 26
REMARK H PARENT
REMARK Flexibility Score: inf
ROOT
ATOM      1  C   UNL     1       6.841  78.451  -0.002  1.00  0.00     0.268 C 
ENDROOT
BRANCH   1   2
ATOM      2  O   UNL     1       7.485  77.275   0.478  1.00  0.00    -0.461 OA
BRANCH   2   3
ATOM      3  C   UNL     1       7.474  76.057  -0.212  1.00  0.00     0.310 C 
ATOM      4  O   UNL     1       6.408  75.397  -0.338  1.00  0.00    -0.252 OA
BRANCH   3   5
ATOM      5  C   UNL     1       8.732  75.555  -0.853  1.00  0.00     0.113 C 
ATOM      6  C   UNL     1       7.856  76.672  -3.089  1.00  0.00     0.012 C 
ATOM      7  C   UNL     1       8.936  75.874  -2.341  1.00  0.00    -0.014 C 
ATOM      8  C   UNL     1      10.390  76.111  -2.770  1.00  0.00     0.012 C 
ATOM      9  C   UNL     1       8.515  74.462  -1.909  1.00  0.00     0.035 C 
BRANCH   9  10
ATOM     10  C   UNL     1       9.579  73.395  -1.928  1.00  0.00     0.011 C 
ATOM     11  C   UNL     1       9.846  72.677  -3.027  1.00  0.00     0.103 C 
ATOM     12  Cl  UNL     1       8.983  72.934  -4.541  1.00  0.00    -0.071 Cl
ATOM     13  Cl  UNL     1      11.096  71.446  -2.977  1.00  0.00    -0.071 Cl
ENDBRANCH   9  10
ENDBRANCH   3   5
ENDBRANCH   2   3
ENDBRANCH   1   2
BRANCH   1  14
ATOM     14  C   UNL     1       7.816  79.312  -0.760  1.00  0.00    -0.007 A 
ATOM     15  C   UNL     1       9.166  79.337  -0.380  1.00  0.00     0.054 A 
ATOM     16  C   UNL     1       7.395  80.071  -1.864  1.00  0.00     0.007 A 
ATOM     17  C   UNL     1      10.091  80.130  -1.085  1.00  0.00     0.127 A 
ATOM     18  C   UNL     1       8.314  80.843  -2.576  1.00  0.00     0.004 A 
ATOM     19  C   UNL     1       9.657  80.868  -2.193  1.00  0.00     0.047 A 
BRANCH  17  20
ATOM     20  O   UNL     1      11.450  80.166  -0.742  1.00  0.00    -0.457 OA
BRANCH  20  21
ATOM     21  C   UNL     1      12.509  79.765  -1.570  1.00  0.00     0.127 A 
ATOM     22  C   UNL     1      12.306  78.940  -2.693  1.00  0.00     0.047 A 
ATOM     23  C   UNL     1      13.811  80.163  -1.239  1.00  0.00     0.047 A 
ATOM     24  C   UNL     1      13.391  78.553  -3.486  1.00  0.00     0.004 A 
ATOM     25  C   UNL     1      14.893  79.774  -2.033  1.00  0.00     0.004 A 
ATOM     26  C   UNL     1      14.682  78.973  -3.159  1.00  0.00     0.000 A 
ENDBRANCH  20  21
ENDBRANCH  17  20
ENDBRANCH   1  14
TORSDOF 7
ENDMDL
MODEL 4
REMARK VINA RESULT:    -9.820      3.185      6.545
REMARK INTER + INTRA:         -14.905
REMARK INTER:                 -13.157
REMARK INTRA:                  -1.748
REMARK UNBOUND:                -1.067
REMARK SMILES CC1(C)C(C=C(Cl)Cl)C1C(=O)OCc1cccc(Oc2ccccc2)c1
REMARK SMILES IDX 13 1 12 2 10 3 11 4 9 5 1 6 2 7 3 8 4 9 5 10 6 11 7 12 8 13
REMARK SMILES IDX 14 14 26 15 15 16 18 17 16 18 17 19 19 20 20 21 21 22 25 23
REMARK SMILES IDX 22 24 24 25 23 26
REMARK H PARENT
REMARK Flexibility Score: inf
ROOT
ATOM      1  C   UNL     1      11.231  81.748  -0.338  1.00  0.00     0.268 C 
ENDROOT
BRANCH   1   2
ATOM      2  O   UNL     1      12.262  80.808  -0.043  1.00  0.00    -0.461 OA
BRANCH   2   3
ATOM      3  C   UNL     1      13.117  80.277  -1.015  1.00  0.00     0.310 C 
ATOM      4  O   UNL     1      14.366  80.418  -0.922  1.00  0.00    -0.252 OA
BRANCH   3   5
ATOM      5  C   UNL     1      12.548  79.485  -2.153  1.00  0.00     0.113 C 
ATOM      6  C   UNL     1      12.054  77.581  -0.380  1.00  0.00     0.012 C 
ATOM      7  C   UNL     1      11.993  78.091  -1.828  1.00  0.00    -0.014 C 
ATOM      8  C   UNL     1      10.782  77.654  -2.664  1.00  0.00     0.012 C 
ATOM      9  C   UNL     1      13.355  78.233  -2.523  1.00  0.00     0.035 C 
BRANCH   9  10
ATOM     10  C   UNL     1      13.404  77.938  -3.999  1.00  0.00     0.011 C 
ATOM     11  C   UNL     1      14.146  78.666  -4.845  1.00  0.00     0.103 C 
ATOM     12  Cl  UNL     1      15.133  80.018  -4.293  1.00  0.00    -0.071 Cl
ATOM     13  Cl  UNL     1      14.154  78.270  -6.555  1.00  0.00    -0.071 Cl
ENDBRANCH   9  10
ENDBRANCH   3   5
ENDBRANCH   2   3
ENDBRANCH   1   2
BRANCH   1  14
ATOM     14  C   UNL     1       9.992  81.037  -0.809  1.00  0.00    -0.007 A 
ATOM     15  C   UNL     1       9.299  80.187   0.067  1.00  0.00     0.054 A 
ATOM     16  C   UNL     1       9.502  81.234  -2.110  1.00  0.00     0.007 A 
ATOM     17  C   UNL     1       8.133  79.522  -0.356  1.00  0.00     0.127 A 
ATOM     18  C   UNL     1       8.335  80.590  -2.526  1.00  0.00     0.004 A 
ATOM     19  C   UNL     1       7.651  79.743  -1.652  1.00  0.00     0.047 A 
BRANCH  17  20
ATOM     20  O   UNL     1       7.407  78.680   0.498  1.00  0.00    -0.457 OA
BRANCH  20  21
ATOM     21  C   UNL     1       7.019  77.363   0.207  1.00  0.00     0.127 A 
ATOM     22  C   UNL     1       7.720  76.568  -0.721  1.00  0.00     0.047 A 
ATOM     23  C   UNL     1       5.874  76.847   0.825  1.00  0.00     0.047 A 
ATOM     24  C   UNL     1       7.293  75.264  -0.992  1.00  0.00     0.004 A 
ATOM     25  C   UNL     1       5.449  75.543   0.551  1.00  0.00     0.004 A 
ATOM     26  C   UNL     1       6.161  74.751  -0.354  1.00  0.00     0.000 A 
ENDBRANCH  20  21
ENDBRANCH  17  20
ENDBRANCH   1  14
TORSDOF 7
ENDMDL
MODEL 5
REMARK VINA RESULT:    -9.807      3.235      6.498
REMARK INTER + INTRA:         -14.887
REMARK INTER:                 -13.274
REMARK INTRA:                  -1.613
REMARK UNBOUND:                -1.067
REMARK SMILES CC1(C)C(C=C(Cl)Cl)C1C(=O)OCc1cccc(Oc2ccccc2)c1
REMARK SMILES IDX 13 1 12 2 10 3 11 4 9 5 1 6 2 7 3 8 4 9 5 10 6 11 7 12 8 13
REMARK SMILES IDX 14 14 26 15 15 16 18 17 16 18 17 19 19 20 20 21 21 22 25 23
REMARK SMILES IDX 22 24 24 25 23 26
REMARK H PARENT
REMARK Flexibility Score: inf
ROOT
ATOM      1  C   UNL     1       8.072  79.272  -2.240  1.00  0.00     0.268 C 
ENDROOT
BRANCH   1   2
ATOM      2  O   UNL     1       8.721  79.960  -1.173  1.00  0.00    -0.461 OA
BRANCH   2   3
ATOM      3  C   UNL     1      10.079  80.298  -1.192  1.00  0.00     0.310 C 
ATOM      4  O   UNL     1      10.573  81.035  -0.295  1.00  0.00    -0.252 OA
BRANCH   3   5
ATOM      5  C   UNL     1      10.970  79.737  -2.258  1.00  0.00     0.113 C 
ATOM      6  C   UNL     1      11.375  77.690  -0.628  1.00  0.00     0.012 C 
ATOM      7  C   UNL     1      11.640  78.386  -1.973  1.00  0.00    -0.014 C 
ATOM      8  C   UNL     1      11.835  77.477  -3.194  1.00  0.00     0.012 C 
ATOM      9  C   UNL     1      12.456  79.682  -1.881  1.00  0.00     0.035 C 
BRANCH   9  10
ATOM     10  C   UNL     1      13.399  79.980  -3.018  1.00  0.00     0.011 C 
ATOM     11  C   UNL     1      14.709  79.713  -2.944  1.00  0.00     0.103 C 
ATOM     12  Cl  UNL     1      15.432  78.980  -1.514  1.00  0.00    -0.071 Cl
ATOM     13  Cl  UNL     1      15.751  80.089  -4.306  1.00  0.00    -0.071 Cl
ENDBRANCH   9  10
ENDBRANCH   3   5
ENDBRANCH   2   3
ENDBRANCH   1   2
BRANCH   1  14
ATOM     14  C   UNL     1       7.911  77.814  -1.903  1.00  0.00    -0.007 A 
ATOM     15  C   UNL     1       8.055  76.846  -2.909  1.00  0.00     0.054 A 
ATOM     16  C   UNL     1       7.646  77.407  -0.586  1.00  0.00     0.007 A 
ATOM     17  C   UNL     1       7.916  75.478  -2.607  1.00  0.00     0.127 A 
ATOM     18  C   UNL     1       7.527  76.050  -0.281  1.00  0.00     0.004 A 
ATOM     19  C   UNL     1       7.668  75.090  -1.285  1.00  0.00     0.047 A 
BRANCH  17  20
ATOM     20  O   UNL     1       8.070  74.484  -3.584  1.00  0.00    -0.457 OA
BRANCH  20  21
ATOM     21  C   UNL     1       9.046  73.477  -3.574  1.00  0.00     0.127 A 
ATOM     22  C   UNL     1       9.948  73.324  -2.503  1.00  0.00     0.047 A 
ATOM     23  C   UNL     1       9.153  72.631  -4.685  1.00  0.00     0.047 A 
ATOM     24  C   UNL     1      10.915  72.314  -2.537  1.00  0.00     0.004 A 
ATOM     25  C   UNL     1      10.120  71.623  -4.716  1.00  0.00     0.004 A 
ATOM     26  C   UNL     1      10.998  71.462  -3.641  1.00  0.00     0.000 A 
ENDBRANCH  20  21
ENDBRANCH  17  20
ENDBRANCH   1  14
TORSDOF 7
ENDMDL
MODEL 6
REMARK VINA RESULT:    -9.736      3.094      6.976
REMARK INTER + INTRA:         -14.787
REMARK INTER:                 -14.063
REMARK INTRA:                  -0.723
REMARK UNBOUND:                -1.067
REMARK SMILES CC1(C)C(C=C(Cl)Cl)C1C(=O)OCc1cccc(Oc2ccccc2)c1
REMARK SMILES IDX 13 1 12 2 10 3 11 4 9 5 1 6 2 7 3 8 4 9 5 10 6 11 7 12 8 13
REMARK SMILES IDX 14 14 26 15 15 16 18 17 16 18 17 19 19 20 20 21 21 22 25 23
REMARK SMILES IDX 22 24 24 25 23 26
REMARK H PARENT
REMARK Flexibility Score: inf
ROOT
ATOM      1  C   UNL     1       8.531  78.752  -0.692  1.00  0.00     0.268 C 
ENDROOT
BRANCH   1   2
ATOM      2  O   UNL     1       9.948  78.716  -0.835  1.00  0.00    -0.461 OA
BRANCH   2   3
ATOM      3  C   UNL     1      10.629  79.334  -1.890  1.00  0.00     0.310 C 
ATOM      4  O   UNL     1      10.130  80.327  -2.487  1.00  0.00    -0.252 OA
BRANCH   3   5
ATOM      5  C   UNL     1      11.990  78.847  -2.283  1.00  0.00     0.113 C 
ATOM      6  C   UNL     1      12.953  80.893  -0.907  1.00  0.00     0.012 C 
ATOM      7  C   UNL     1      13.196  79.648  -1.774  1.00  0.00    -0.014 C 
ATOM      8  C   UNL     1      14.450  78.820  -1.458  1.00  0.00     0.012 C 
ATOM      9  C   UNL     1      12.750  79.780  -3.236  1.00  0.00     0.035 C 
BRANCH   9  10
ATOM     10  C   UNL     1      13.580  79.068  -4.273  1.00  0.00     0.011 C 
ATOM     11  C   UNL     1      14.258  79.733  -5.218  1.00  0.00     0.103 C 
ATOM     12  Cl  UNL     1      14.242  81.492  -5.316  1.00  0.00    -0.071 Cl
ATOM     13  Cl  UNL     1      15.204  78.840  -6.397  1.00  0.00    -0.071 Cl
ENDBRANCH   9  10
ENDBRANCH   3   5
ENDBRANCH   2   3
ENDBRANCH   1   2
BRANCH   1  14
ATOM     14  C   UNL     1       7.945  77.387  -0.930  1.00  0.00    -0.007 A 
ATOM     15  C   UNL     1       8.284  76.675  -2.091  1.00  0.00     0.054 A 
ATOM     16  C   UNL     1       7.081  76.803   0.010  1.00  0.00     0.007 A 
ATOM     17  C   UNL     1       7.751  75.393  -2.323  1.00  0.00     0.127 A 
ATOM     18  C   UNL     1       6.565  75.524  -0.209  1.00  0.00     0.004 A 
ATOM     19  C   UNL     1       6.904  74.820  -1.367  1.00  0.00     0.047 A 
BRANCH  17  20
ATOM     20  O   UNL     1       8.081  74.647  -3.464  1.00  0.00    -0.457 OA
BRANCH  20  21
ATOM     21  C   UNL     1       8.796  73.440  -3.468  1.00  0.00     0.127 A 
ATOM     22  C   UNL     1       9.378  72.915  -2.298  1.00  0.00     0.047 A 
ATOM     23  C   UNL     1       8.972  72.766  -4.683  1.00  0.00     0.047 A 
ATOM     24  C   UNL     1      10.093  71.714  -2.347  1.00  0.00     0.004 A 
ATOM     25  C   UNL     1       9.688  71.566  -4.729  1.00  0.00     0.004 A 
ATOM     26  C   UNL     1      10.245  71.038  -3.560  1.00  0.00     0.000 A 
ENDBRANCH  20  21
ENDBRANCH  17  20
ENDBRANCH   1  14
TORSDOF 7
ENDMDL
MODEL 7
REMARK VINA RESULT:    -9.716      3.059      5.481
REMARK INTER + INTRA:         -14.759
REMARK INTER:                 -13.684
REMARK INTRA:                  -1.074
REMARK UNBOUND:                -1.067
REMARK SMILES CC1(C)C(C=C(Cl)Cl)C1C(=O)OCc1cccc(Oc2ccccc2)c1
REMARK SMILES IDX 13 1 12 2 10 3 11 4 9 5 1 6 2 7 3 8 4 9 5 10 6 11 7 12 8 13
REMARK SMILES IDX 14 14 26 15 15 16 18 17 16 18 17 19 19 20 20 21 21 22 25 23
REMARK SMILES IDX 22 24 24 25 23 26
REMARK H PARENT
REMARK Flexibility Score: inf
ROOT
ATOM      1  C   UNL     1      13.614  79.650  -1.626  1.00  0.00     0.268 C 
ENDROOT
BRANCH   1   2
ATOM      2  O   UNL     1      12.228  79.881  -1.391  1.00  0.00    -0.461 OA
BRANCH   2   3
ATOM      3  C   UNL     1      11.283  78.852  -1.299  1.00  0.00     0.310 C 
ATOM      4  O   UNL     1      11.488  77.852  -0.558  1.00  0.00    -0.252 OA
BRANCH   3   5
ATOM      5  C   UNL     1       9.989  78.962  -2.047  1.00  0.00     0.113 C 
ATOM      6  C   UNL     1       9.090  80.356   0.017  1.00  0.00     0.012 C 
ATOM      7  C   UNL     1       8.853  79.742  -1.372  1.00  0.00    -0.014 C 
ATOM      8  C   UNL     1       7.934  80.522  -2.323  1.00  0.00     0.012 C 
ATOM      9  C   UNL     1       8.817  78.208  -1.405  1.00  0.00     0.035 C 
BRANCH   9  10
ATOM     10  C   UNL     1       7.875  77.566  -2.390  1.00  0.00     0.011 C 
ATOM     11  C   UNL     1       8.099  76.346  -2.896  1.00  0.00     0.103 C 
ATOM     12  Cl  UNL     1       9.507  75.391  -2.438  1.00  0.00    -0.071 Cl
ATOM     13  Cl  UNL     1       6.961  75.660  -4.043  1.00  0.00    -0.071 Cl
ENDBRANCH   9  10
ENDBRANCH   3   5
ENDBRANCH   2   3
ENDBRANCH   1   2
BRANCH   1  14
ATOM     14  C   UNL     1      13.864  79.402  -3.089  1.00  0.00    -0.007 A 
ATOM     15  C   UNL     1      14.355  80.437  -3.899  1.00  0.00     0.054 A 
ATOM     16  C   UNL     1      13.638  78.135  -3.650  1.00  0.00     0.007 A 
ATOM     17  C   UNL     1      14.602  80.217  -5.267  1.00  0.00     0.127 A 
ATOM     18  C   UNL     1      13.901  77.909  -5.003  1.00  0.00     0.004 A 
ATOM     19  C   UNL     1      14.386  78.943  -5.806  1.00  0.00     0.047 A 
BRANCH  17  20
ATOM     20  O   UNL     1      15.107  81.225  -6.101  1.00  0.00    -0.457 OA
BRANCH  20  21
ATOM     21  C   UNL     1      16.453  81.378  -6.469  1.00  0.00     0.127 A 
ATOM     22  C   UNL     1      17.503  81.177  -5.553  1.00  0.00     0.047 A 
ATOM     23  C   UNL     1      16.751  81.789  -7.774  1.00  0.00     0.047 A 
ATOM     24  C   UNL     1      18.830  81.353  -5.956  1.00  0.00     0.004 A 
ATOM     25  C   UNL     1      18.079  81.964  -8.175  1.00  0.00     0.004 A 
ATOM     26  C   UNL     1      19.118  81.742  -7.267  1.00  0.00     0.000 A 
ENDBRANCH  20  21
ENDBRANCH  17  20
ENDBRANCH   1  14
TORSDOF 7
ENDMDL
MODEL 8
REMARK VINA RESULT:    -9.665      2.581      4.477
REMARK INTER + INTRA:         -14.686
REMARK INTER:                 -13.694
REMARK INTRA:                  -0.992
REMARK UNBOUND:                -1.067
REMARK SMILES CC1(C)C(C=C(Cl)Cl)C1C(=O)OCc1cccc(Oc2ccccc2)c1
REMARK SMILES IDX 13 1 12 2 10 3 11 4 9 5 1 6 2 7 3 8 4 9 5 10 6 11 7 12 8 13
REMARK SMILES IDX 14 14 26 15 15 16 18 17 16 18 17 19 19 20 20 21 21 22 25 23
REMARK SMILES IDX 22 24 24 25 23 26
REMARK H PARENT
REMARK Flexibility Score: inf
ROOT
ATOM      1  C   UNL     1      12.108  78.302  -2.594  1.00  0.00     0.268 C 
ENDROOT
BRANCH   1   2
ATOM      2  O   UNL     1      11.236  77.188  -2.768  1.00  0.00    -0.461 OA
BRANCH   2   3
ATOM      3  C   UNL     1       9.858  77.248  -2.528  1.00  0.00     0.310 C 
ATOM      4  O   UNL     1       9.316  78.318  -2.142  1.00  0.00    -0.252 OA
BRANCH   3   5
ATOM      5  C   UNL     1       9.007  76.041  -2.782  1.00  0.00     0.113 C 
ATOM      6  C   UNL     1       9.270  75.502  -0.203  1.00  0.00     0.012 C 
ATOM      7  C   UNL     1       8.696  75.136  -1.581  1.00  0.00    -0.014 C 
ATOM      8  C   UNL     1       7.314  74.471  -1.599  1.00  0.00     0.012 C 
ATOM      9  C   UNL     1       9.738  74.701  -2.621  1.00  0.00     0.035 C 
BRANCH   9  10
ATOM     10  C   UNL     1       9.319  73.641  -3.607  1.00  0.00     0.011 C 
ATOM     11  C   UNL     1       9.937  72.455  -3.680  1.00  0.00     0.103 C 
ATOM     12  Cl  UNL     1      11.279  72.035  -2.619  1.00  0.00    -0.071 Cl
ATOM     13  Cl  UNL     1       9.399  71.267  -4.856  1.00  0.00    -0.071 Cl
ENDBRANCH   9  10
ENDBRANCH   3   5
ENDBRANCH   2   3
ENDBRANCH   1   2
BRANCH   1  14
ATOM     14  C   UNL     1      13.026  78.440  -3.779  1.00  0.00    -0.007 A 
ATOM     15  C   UNL     1      13.554  79.698  -4.109  1.00  0.00     0.054 A 
ATOM     16  C   UNL     1      13.382  77.319  -4.544  1.00  0.00     0.007 A 
ATOM     17  C   UNL     1      14.420  79.841  -5.209  1.00  0.00     0.127 A 
ATOM     18  C   UNL     1      14.256  77.456  -5.625  1.00  0.00     0.004 A 
ATOM     19  C   UNL     1      14.778  78.709  -5.951  1.00  0.00     0.047 A 
BRANCH  17  20
ATOM     20  O   UNL     1      14.979  81.079  -5.557  1.00  0.00    -0.457 OA
BRANCH  20  21
ATOM     21  C   UNL     1      16.301  81.286  -5.979  1.00  0.00     0.127 A 
ATOM     22  C   UNL     1      17.390  81.191  -5.092  1.00  0.00     0.047 A 
ATOM     23  C   UNL     1      16.533  81.641  -7.314  1.00  0.00     0.047 A 
ATOM     24  C   UNL     1      18.692  81.416  -5.551  1.00  0.00     0.004 A 
ATOM     25  C   UNL     1      17.835  81.866  -7.770  1.00  0.00     0.004 A 
ATOM     26  C   UNL     1      18.915  81.750  -6.889  1.00  0.00     0.000 A 
ENDBRANCH  20  21
ENDBRANCH  17  20
ENDBRANCH   1  14
TORSDOF 7
ENDMDL
MODEL 9
REMARK VINA RESULT:    -9.622      1.455      2.043
REMARK INTER + INTRA:         -14.626
REMARK INTER:                 -13.648
REMARK INTRA:                  -0.978
REMARK UNBOUND:                -1.067
REMARK SMILES CC1(C)C(C=C(Cl)Cl)C1C(=O)OCc1cccc(Oc2ccccc2)c1
REMARK SMILES IDX 13 1 12 2 10 3 11 4 9 5 1 6 2 7 3 8 4 9 5 10 6 11 7 12 8 13
REMARK SMILES IDX 14 14 26 15 15 16 18 17 16 18 17 19 19 20 20 21 21 22 25 23
REMARK SMILES IDX 22 24 24 25 23 26
REMARK H PARENT
REMARK Flexibility Score: inf
ROOT
ATOM      1  C   UNL     1       7.821  77.449  -0.473  1.00  0.00     0.268 C 
ENDROOT
BRANCH   1   2
ATOM      2  O   UNL     1       8.886  76.621  -0.012  1.00  0.00    -0.461 OA
BRANCH   2   3
ATOM      3  C   UNL     1       9.204  75.387  -0.589  1.00  0.00     0.310 C 
ATOM      4  O   UNL     1       9.699  74.458   0.105  1.00  0.00    -0.252 OA
BRANCH   3   5
ATOM      5  C   UNL     1       8.905  75.144  -2.037  1.00  0.00     0.113 C 
ATOM      6  C   UNL     1       6.473  74.441  -1.260  1.00  0.00     0.012 C 
ATOM      7  C   UNL     1       7.492  74.659  -2.390  1.00  0.00    -0.014 C 
ATOM      8  C   UNL     1       6.939  75.161  -3.731  1.00  0.00     0.012 C 
ATOM      9  C   UNL     1       8.667  73.672  -2.400  1.00  0.00     0.035 C 
BRANCH   9  10
ATOM     10  C   UNL     1       9.210  73.268  -3.747  1.00  0.00     0.011 C 
ATOM     11  C   UNL     1       9.750  72.061  -3.962  1.00  0.00     0.103 C 
ATOM     12  Cl  UNL     1       9.856  70.846  -2.690  1.00  0.00    -0.071 Cl
ATOM     13  Cl  UNL     1      10.366  71.657  -5.555  1.00  0.00    -0.071 Cl
ENDBRANCH   9  10
ENDBRANCH   3   5
ENDBRANCH   2   3
ENDBRANCH   1   2
BRANCH   1  14
ATOM     14  C   UNL     1       8.367  78.651  -1.196  1.00  0.00    -0.007 A 
ATOM     15  C   UNL     1       9.722  78.693  -1.556  1.00  0.00     0.054 A 
ATOM     16  C   UNL     1       7.528  79.723  -1.539  1.00  0.00     0.007 A 
ATOM     17  C   UNL     1      10.245  79.807  -2.240  1.00  0.00     0.127 A 
ATOM     18  C   UNL     1       8.040  80.820  -2.234  1.00  0.00     0.004 A 
ATOM     19  C   UNL     1       9.390  80.859  -2.589  1.00  0.00     0.047 A 
BRANCH  17  20
ATOM     20  O   UNL     1      11.590  79.874  -2.630  1.00  0.00    -0.457 OA
BRANCH  20  21
ATOM     21  C   UNL     1      12.692  79.819  -1.763  1.00  0.00     0.127 A 
ATOM     22  C   UNL     1      13.817  79.018  -2.040  1.00  0.00     0.047 A 
ATOM     23  C   UNL     1      12.646  80.547  -0.568  1.00  0.00     0.047 A 
ATOM     24  C   UNL     1      14.890  78.981  -1.144  1.00  0.00     0.004 A 
ATOM     25  C   UNL     1      13.720  80.507   0.326  1.00  0.00     0.004 A 
ATOM     26  C   UNL     1      14.844  79.728   0.036  1.00  0.00     0.000 A 
ENDBRANCH  20  21
ENDBRANCH  17  20
ENDBRANCH   1  14
TORSDOF 7
ENDMDL
MODEL 10
REMARK VINA RESULT:    -9.508      2.824      6.578
REMARK INTER + INTRA:         -14.465
REMARK INTER:                 -12.817
REMARK INTRA:                  -1.648
REMARK UNBOUND:                -1.067
REMARK SMILES CC1(C)C(C=C(Cl)Cl)C1C(=O)OCc1cccc(Oc2ccccc2)c1
REMARK SMILES IDX 13 1 12 2 10 3 11 4 9 5 1 6 2 7 3 8 4 9 5 10 6 11 7 12 8 13
REMARK SMILES IDX 14 14 26 15 15 16 18 17 16 18 17 19 19 20 20 21 21 22 25 23
REMARK SMILES IDX 22 24 24 25 23 26
REMARK H PARENT
REMARK Flexibility Score: inf
ROOT
ATOM      1  C   UNL     1       9.220  79.439  -1.716  1.00  0.00     0.268 C 
ENDROOT
BRANCH   1   2
ATOM      2  O   UNL     1       9.916  79.792  -0.523  1.00  0.00    -0.461 OA
BRANCH   2   3
ATOM      3  C   UNL     1      11.036  80.632  -0.508  1.00  0.00     0.310 C 
ATOM      4  O   UNL     1      10.906  81.881  -0.619  1.00  0.00    -0.252 OA
BRANCH   3   5
ATOM      5  C   UNL     1      12.400  80.048  -0.303  1.00  0.00     0.113 C 
ATOM      6  C   UNL     1      12.476  79.698  -2.927  1.00  0.00     0.012 C 
ATOM      7  C   UNL     1      13.151  79.567  -1.553  1.00  0.00    -0.014 C 
ATOM      8  C   UNL     1      14.675  79.744  -1.513  1.00  0.00     0.012 C 
ATOM      9  C   UNL     1      12.503  78.547  -0.607  1.00  0.00     0.035 C 
BRANCH   9  10
ATOM     10  C   UNL     1      13.421  77.787   0.315  1.00  0.00     0.011 C 
ATOM     11  C   UNL     1      13.121  76.562   0.765  1.00  0.00     0.103 C 
ATOM     12  Cl  UNL     1      11.634  75.736   0.303  1.00  0.00    -0.071 Cl
ATOM     13  Cl  UNL     1      14.236  75.734   1.839  1.00  0.00    -0.071 Cl
ENDBRANCH   9  10
ENDBRANCH   3   5
ENDBRANCH   2   3
ENDBRANCH   1   2
BRANCH   1  14
ATOM     14  C   UNL     1       8.936  77.961  -1.740  1.00  0.00    -0.007 A 
ATOM     15  C   UNL     1       9.762  77.104  -2.483  1.00  0.00     0.054 A 
ATOM     16  C   UNL     1       7.868  77.425  -1.004  1.00  0.00     0.007 A 
ATOM     17  C   UNL     1       9.514  75.719  -2.507  1.00  0.00     0.127 A 
ATOM     18  C   UNL     1       7.631  76.048  -1.012  1.00  0.00     0.004 A 
ATOM     19  C   UNL     1       8.454  75.199  -1.755  1.00  0.00     0.047 A 
BRANCH  17  20
ATOM     20  O   UNL     1      10.330  74.832  -3.225  1.00  0.00    -0.457 OA
BRANCH  20  21
ATOM     21  C   UNL     1      10.133  73.446  -3.326  1.00  0.00     0.127 A 
ATOM     22  C   UNL     1      10.480  72.566  -2.283  1.00  0.00     0.047 A 
ATOM     23  C   UNL     1       9.619  72.925  -4.521  1.00  0.00     0.047 A 
ATOM     24  C   UNL     1      10.279  71.190  -2.429  1.00  0.00     0.004 A 
ATOM     25  C   UNL     1       9.420  71.549  -4.663  1.00  0.00     0.004 A 
ATOM     26  C   UNL     1       9.746  70.682  -3.616  1.00  0.00     0.000 A 
ENDBRANCH  20  21
ENDBRANCH  17  20
ENDBRANCH   1  14
TORSDOF 7
ENDMDL
MODEL 11
REMARK VINA RESULT:    -9.483      2.231      3.664
REMARK INTER + INTRA:         -14.430
REMARK INTER:                 -13.349
REMARK INTRA:                  -1.081
REMARK UNBOUND:                -1.067
REMARK SMILES CC1(C)C(C=C(Cl)Cl)C1C(=O)OCc1cccc(Oc2ccccc2)c1
REMARK SMILES IDX 13 1 12 2 10 3 11 4 9 5 1 6 2 7 3 8 4 9 5 10 6 11 7 12 8 13
REMARK SMILES IDX 14 14 26 15 15 16 18 17 16 18 17 19 19 20 20 21 21 22 25 23
REMARK SMILES IDX 22 24 24 25 23 26
REMARK H PARENT
REMARK Flexibility Score: inf
ROOT
ATOM      1  C   UNL     1      11.457  77.789  -1.527  1.00  0.00     0.268 C 
ENDROOT
BRANCH   1   2
ATOM      2  O   UNL     1      10.619  77.412  -2.617  1.00  0.00    -0.461 OA
BRANCH   2   3
ATOM      3  C   UNL     1       9.222  77.370  -2.533  1.00  0.00     0.310 C 
ATOM      4  O   UNL     1       8.560  78.409  -2.262  1.00  0.00    -0.252 OA
BRANCH   3   5
ATOM      5  C   UNL     1       8.499  76.090  -2.819  1.00  0.00     0.113 C 
ATOM      6  C   UNL     1       8.558  75.651  -0.208  1.00  0.00     0.012 C 
ATOM      7  C   UNL     1       8.149  75.199  -1.618  1.00  0.00    -0.014 C 
ATOM      8  C   UNL     1       6.832  74.419  -1.739  1.00  0.00     0.012 C 
ATOM      9  C   UNL     1       9.316  74.821  -2.541  1.00  0.00     0.035 C 
BRANCH   9  10
ATOM     10  C   UNL     1       9.080  73.701  -3.521  1.00  0.00     0.011 C 
ATOM     11  C   UNL     1       9.705  72.521  -3.416  1.00  0.00     0.103 C 
ATOM     12  Cl  UNL     1      10.843  72.181  -2.114  1.00  0.00    -0.071 Cl
ATOM     13  Cl  UNL     1       9.385  71.261  -4.595  1.00  0.00    -0.071 Cl
ENDBRANCH   9  10
ENDBRANCH   3   5
ENDBRANCH   2   3
ENDBRANCH   1   2
BRANCH   1  14
ATOM     14  C   UNL     1      12.713  78.444  -2.034  1.00  0.00    -0.007 A 
ATOM     15  C   UNL     1      12.826  78.783  -3.391  1.00  0.00     0.054 A 
ATOM     16  C   UNL     1      13.767  78.746  -1.157  1.00  0.00     0.007 A 
ATOM     17  C   UNL     1      13.991  79.404  -3.877  1.00  0.00     0.127 A 
ATOM     18  C   UNL     1      14.917  79.379  -1.634  1.00  0.00     0.004 A 
ATOM     19  C   UNL     1      15.026  79.712  -2.985  1.00  0.00     0.047 A 
BRANCH  17  20
ATOM     20  O   UNL     1      14.130  79.771  -5.223  1.00  0.00    -0.457 OA
BRANCH  20  21
ATOM     21  C   UNL     1      15.342  79.839  -5.927  1.00  0.00     0.127 A 
ATOM     22  C   UNL     1      15.948  81.068  -6.250  1.00  0.00     0.047 A 
ATOM     23  C   UNL     1      15.936  78.647  -6.360  1.00  0.00     0.047 A 
ATOM     24  C   UNL     1      17.150  81.093  -6.964  1.00  0.00     0.004 A 
ATOM     25  C   UNL     1      17.137  78.674  -7.075  1.00  0.00     0.004 A 
ATOM     26  C   UNL     1      17.746  79.897  -7.373  1.00  0.00     0.000 A 
ENDBRANCH  20  21
ENDBRANCH  17  20
ENDBRANCH   1  14
TORSDOF 7
ENDMDL
MODEL 12
REMARK VINA RESULT:    -9.470      3.097      6.734
REMARK INTER + INTRA:         -14.412
REMARK INTER:                 -13.417
REMARK INTRA:                  -0.995
REMARK UNBOUND:                -1.067
REMARK SMILES CC1(C)C(C=C(Cl)Cl)C1C(=O)OCc1cccc(Oc2ccccc2)c1
REMARK SMILES IDX 13 1 12 2 10 3 11 4 9 5 1 6 2 7 3 8 4 9 5 10 6 11 7 12 8 13
REMARK SMILES IDX 14 14 26 15 15 16 18 17 16 18 17 19 19 20 20 21 21 22 25 23
REMARK SMILES IDX 22 24 24 25 23 26
REMARK H PARENT
REMARK Flexibility Score: inf
ROOT
ATOM      1  C   UNL     1       7.363  78.396  -0.068  1.00  0.00     0.268 C 
ENDROOT
BRANCH   1   2
ATOM      2  O   UNL     1       7.174  79.109  -1.287  1.00  0.00    -0.461 OA
BRANCH   2   3
ATOM      3  C   UNL     1       8.220  79.713  -1.993  1.00  0.00     0.310 C 
ATOM      4  O   UNL     1       8.032  80.779  -2.640  1.00  0.00    -0.252 OA
BRANCH   3   5
ATOM      5  C   UNL     1       9.594  79.118  -1.940  1.00  0.00     0.113 C 
ATOM      6  C   UNL     1      10.019  80.668   0.164  1.00  0.00     0.012 C 
ATOM      7  C   UNL     1      10.527  79.606  -0.823  1.00  0.00    -0.014 C 
ATOM      8  C   UNL     1      11.494  78.552  -0.266  1.00  0.00     0.012 C 
ATOM      9  C   UNL     1      10.727  80.102  -2.262  1.00  0.00     0.035 C 
BRANCH   9  10
ATOM     10  C   UNL     1      11.870  79.502  -3.040  1.00  0.00     0.011 C 
ATOM     11  C   UNL     1      13.146  79.823  -2.789  1.00  0.00     0.103 C 
ATOM     12  Cl  UNL     1      13.590  80.961  -1.519  1.00  0.00    -0.071 Cl
ATOM     13  Cl  UNL     1      14.428  79.089  -3.737  1.00  0.00    -0.071 Cl
ENDBRANCH   9  10
ENDBRANCH   3   5
ENDBRANCH   2   3
ENDBRANCH   1   2
BRANCH   1  14
ATOM     14  C   UNL     1       7.239  76.915  -0.301  1.00  0.00    -0.007 A 
ATOM     15  C   UNL     1       8.363  76.174  -0.696  1.00  0.00     0.054 A 
ATOM     16  C   UNL     1       6.014  76.258  -0.103  1.00  0.00     0.007 A 
ATOM     17  C   UNL     1       8.264  74.786  -0.909  1.00  0.00     0.127 A 
ATOM     18  C   UNL     1       5.918  74.878  -0.296  1.00  0.00     0.004 A 
ATOM     19  C   UNL     1       7.038  74.145  -0.691  1.00  0.00     0.047 A 
BRANCH  17  20
ATOM     20  O   UNL     1       9.371  74.012  -1.287  1.00  0.00    -0.457 OA
BRANCH  20  21
ATOM     21  C   UNL     1       9.418  73.142  -2.387  1.00  0.00     0.127 A 
ATOM     22  C   UNL     1       9.843  71.806  -2.261  1.00  0.00     0.047 A 
ATOM     23  C   UNL     1       9.075  73.636  -3.652  1.00  0.00     0.047 A 
ATOM     24  C   UNL     1       9.887  70.973  -3.384  1.00  0.00     0.004 A 
ATOM     25  C   UNL     1       9.121  72.802  -4.773  1.00  0.00     0.004 A 
ATOM     26  C   UNL     1       9.523  71.470  -4.638  1.00  0.00     0.000 A 
ENDBRANCH  20  21
ENDBRANCH  17  20
ENDBRANCH   1  14
TORSDOF 7
ENDMDL
MODEL 13
REMARK VINA RESULT:    -9.339      3.498      7.598
REMARK INTER + INTRA:         -14.227
REMARK INTER:                 -13.070
REMARK INTRA:                  -1.157
REMARK UNBOUND:                -1.067
REMARK SMILES CC1(C)C(C=C(Cl)Cl)C1C(=O)OCc1cccc(Oc2ccccc2)c1
REMARK SMILES IDX 13 1 12 2 10 3 11 4 9 5 1 6 2 7 3 8 4 9 5 10 6 11 7 12 8 13
REMARK SMILES IDX 14 14 26 15 15 16 18 17 16 18 17 19 19 20 20 21 21 22 25 23
REMARK SMILES IDX 22 24 24 25 23 26
REMARK H PARENT
REMARK Flexibility Score: inf
ROOT
ATOM      1  C   UNL     1      12.229  80.194  -0.765  1.00  0.00     0.268 C 
ENDROOT
BRANCH   1   2
ATOM      2  O   UNL     1      13.160  79.159  -1.068  1.00  0.00    -0.461 OA
BRANCH   2   3
ATOM      3  C   UNL     1      14.398  79.393  -1.677  1.00  0.00     0.310 C 
ATOM      4  O   UNL     1      15.458  78.913  -1.190  1.00  0.00    -0.252 OA
BRANCH   3   5
ATOM      5  C   UNL     1      14.463  80.180  -2.950  1.00  0.00     0.113 C 
ATOM      6  C   UNL     1      13.266  78.118  -4.105  1.00  0.00     0.012 C 
ATOM      7  C   UNL     1      13.875  79.526  -4.209  1.00  0.00    -0.014 C 
ATOM      8  C   UNL     1      13.217  80.490  -5.205  1.00  0.00     0.012 C 
ATOM      9  C   UNL     1      15.396  79.589  -4.016  1.00  0.00     0.035 C 
BRANCH   9  10
ATOM     10  C   UNL     1      16.147  80.616  -4.824  1.00  0.00     0.011 C 
ATOM     11  C   UNL     1      16.728  80.314  -5.993  1.00  0.00     0.103 C 
ATOM     12  Cl  UNL     1      16.649  78.696  -6.684  1.00  0.00    -0.071 Cl
ATOM     13  Cl  UNL     1      17.590  81.560  -6.880  1.00  0.00    -0.071 Cl
ENDBRANCH   9  10
ENDBRANCH   3   5
ENDBRANCH   2   3
ENDBRANCH   1   2
BRANCH   1  14
ATOM     14  C   UNL     1      10.861  79.838  -1.282  1.00  0.00    -0.007 A 
ATOM     15  C   UNL     1      10.439  78.500  -1.274  1.00  0.00     0.054 A 
ATOM     16  C   UNL     1       9.989  80.834  -1.748  1.00  0.00     0.007 A 
ATOM     17  C   UNL     1       9.159  78.153  -1.746  1.00  0.00     0.127 A 
ATOM     18  C   UNL     1       8.712  80.494  -2.199  1.00  0.00     0.004 A 
ATOM     19  C   UNL     1       8.297  79.161  -2.192  1.00  0.00     0.047 A 
BRANCH  17  20
ATOM     20  O   UNL     1       8.699  76.828  -1.737  1.00  0.00    -0.457 OA
BRANCH  20  21
ATOM     21  C   UNL     1       7.609  76.350  -0.995  1.00  0.00     0.127 A 
ATOM     22  C   UNL     1       7.108  77.043   0.123  1.00  0.00     0.047 A 
ATOM     23  C   UNL     1       7.037  75.123  -1.354  1.00  0.00     0.047 A 
ATOM     24  C   UNL     1       6.026  76.526   0.844  1.00  0.00     0.004 A 
ATOM     25  C   UNL     1       5.956  74.608  -0.631  1.00  0.00     0.004 A 
ATOM     26  C   UNL     1       5.449  75.312   0.465  1.00  0.00     0.000 A 
ENDBRANCH  20  21
ENDBRANCH  17  20
ENDBRANCH   1  14
TORSDOF 7
ENDMDL
MODEL 14
REMARK VINA RESULT:    -9.282      1.558      2.266
REMARK INTER + INTRA:         -14.148
REMARK INTER:                 -12.669
REMARK INTRA:                  -1.478
REMARK UNBOUND:                -1.067
REMARK SMILES CC1(C)C(C=C(Cl)Cl)C1C(=O)OCc1cccc(Oc2ccccc2)c1
REMARK SMILES IDX 13 1 12 2 10 3 11 4 9 5 1 6 2 7 3 8 4 9 5 10 6 11 7 12 8 13
REMARK SMILES IDX 14 14 26 15 15 16 18 17 16 18 17 19 19 20 20 21 21 22 25 23
REMARK SMILES IDX 22 24 24 25 23 26
REMARK H PARENT
REMARK Flexibility Score: inf
ROOT
ATOM      1  C   UNL     1       7.882  78.174  -2.246  1.00  0.00     0.268 C 
ENDROOT
BRANCH   1   2
ATOM      2  O   UNL     1       8.189  76.818  -2.558  1.00  0.00    -0.461 OA
BRANCH   2   3
ATOM      3  C   UNL     1       7.868  75.744  -1.720  1.00  0.00     0.310 C 
ATOM      4  O   UNL     1       7.202  75.927  -0.664  1.00  0.00    -0.252 OA
BRANCH   3   5
ATOM      5  C   UNL     1       8.272  74.354  -2.104  1.00  0.00     0.113 C 
ATOM      6  C   UNL     1      10.709  75.004  -1.299  1.00  0.00     0.012 C 
ATOM      7  C   UNL     1       9.741  73.965  -1.885  1.00  0.00    -0.014 C 
ATOM      8  C   UNL     1       9.982  72.500  -1.496  1.00  0.00     0.012 C 
ATOM      9  C   UNL     1       9.232  74.277  -3.299  1.00  0.00     0.035 C 
BRANCH   9  10
ATOM     10  C   UNL     1       8.994  73.106  -4.215  1.00  0.00     0.011 C 
ATOM     11  C   UNL     1       9.982  72.546  -4.926  1.00  0.00     0.103 C 
ATOM     12  Cl  UNL     1      11.642  73.129  -4.834  1.00  0.00    -0.071 Cl
ATOM     13  Cl  UNL     1       9.632  71.185  -5.978  1.00  0.00    -0.071 Cl
ENDBRANCH   9  10
ENDBRANCH   3   5
ENDBRANCH   2   3
ENDBRANCH   1   2
BRANCH   1  14
ATOM     14  C   UNL     1       9.095  78.873  -1.695  1.00  0.00    -0.007 A 
ATOM     15  C   UNL     1      10.375  78.493  -2.125  1.00  0.00     0.054 A 
ATOM     16  C   UNL     1       8.960  79.923  -0.773  1.00  0.00     0.007 A 
ATOM     17  C   UNL     1      11.518  79.144  -1.626  1.00  0.00     0.127 A 
ATOM     18  C   UNL     1      10.092  80.584  -0.290  1.00  0.00     0.004 A 
ATOM     19  C   UNL     1      11.364  80.200  -0.719  1.00  0.00     0.047 A 
BRANCH  17  20
ATOM     20  O   UNL     1      12.811  78.801  -2.046  1.00  0.00    -0.457 OA
BRANCH  20  21
ATOM     21  C   UNL     1      13.281  78.863  -3.367  1.00  0.00     0.127 A 
ATOM     22  C   UNL     1      13.542  77.703  -4.120  1.00  0.00     0.047 A 
ATOM     23  C   UNL     1      13.539  80.119  -3.931  1.00  0.00     0.047 A 
ATOM     24  C   UNL     1      14.020  77.808  -5.430  1.00  0.00     0.004 A 
ATOM     25  C   UNL     1      14.019  80.221  -5.240  1.00  0.00     0.004 A 
ATOM     26  C   UNL     1      14.255  79.066  -5.991  1.00  0.00     0.000 A 
ENDBRANCH  20  21
ENDBRANCH  17  20
ENDBRANCH   1  14
TORSDOF 7
ENDMDL
MODEL 15
REMARK VINA RESULT:    -9.233      3.636      7.480
REMARK INTER + INTRA:         -14.078
REMARK INTER:                 -13.163
REMARK INTRA:                  -0.915
REMARK UNBOUND:                -1.067
REMARK SMILES CC1(C)C(C=C(Cl)Cl)C1C(=O)OCc1cccc(Oc2ccccc2)c1
REMARK SMILES IDX 13 1 12 2 10 3 11 4 9 5 1 6 2 7 3 8 4 9 5 10 6 11 7 12 8 13
REMARK SMILES IDX 14 14 26 15 15 16 18 17 16 18 17 19 19 20 20 21 21 22 25 23
REMARK SMILES IDX 22 24 24 25 23 26
REMARK H PARENT
REMARK Flexibility Score: inf
ROOT
ATOM      1  C   UNL     1      11.262  78.250  -1.090  1.00  0.00     0.268 C 
ENDROOT
BRANCH   1   2
ATOM      2  O   UNL     1      11.218  79.586  -1.585  1.00  0.00    -0.461 OA
BRANCH   2   3
ATOM      3  C   UNL     1      12.345  80.265  -2.063  1.00  0.00     0.310 C 
ATOM      4  O   UNL     1      12.980  81.063  -1.322  1.00  0.00    -0.252 OA
BRANCH   3   5
ATOM      5  C   UNL     1      12.836  80.003  -3.454  1.00  0.00     0.113 C 
ATOM      6  C   UNL     1      14.486  78.235  -2.375  1.00  0.00     0.012 C 
ATOM      7  C   UNL     1      13.941  78.950  -3.621  1.00  0.00    -0.014 C 
ATOM      8  C   UNL     1      13.876  78.128  -4.916  1.00  0.00     0.012 C 
ATOM      9  C   UNL     1      14.283  80.443  -3.712  1.00  0.00     0.035 C 
BRANCH   9  10
ATOM     10  C   UNL     1      14.526  81.008  -5.088  1.00  0.00     0.011 C 
ATOM     11  C   UNL     1      15.755  81.087  -5.617  1.00  0.00     0.103 C 
ATOM     12  Cl  UNL     1      17.182  80.526  -4.749  1.00  0.00    -0.071 Cl
ATOM     13  Cl  UNL     1      15.966  81.759  -7.224  1.00  0.00    -0.071 Cl
ENDBRANCH   9  10
ENDBRANCH   3   5
ENDBRANCH   2   3
ENDBRANCH   1   2
BRANCH   1  14
ATOM     14  C   UNL     1      10.075  77.469  -1.584  1.00  0.00    -0.007 A 
ATOM     15  C   UNL     1      10.042  76.075  -1.425  1.00  0.00     0.054 A 
ATOM     16  C   UNL     1       8.985  78.122  -2.181  1.00  0.00     0.007 A 
ATOM     17  C   UNL     1       8.934  75.332  -1.875  1.00  0.00     0.127 A 
ATOM     18  C   UNL     1       7.877  77.388  -2.610  1.00  0.00     0.004 A 
ATOM     19  C   UNL     1       7.849  76.001  -2.452  1.00  0.00     0.047 A 
BRANCH  17  20
ATOM     20  O   UNL     1       8.861  73.940  -1.717  1.00  0.00    -0.457 OA
BRANCH  20  21
ATOM     21  C   UNL     1       9.167  72.991  -2.704  1.00  0.00     0.127 A 
ATOM     22  C   UNL     1       9.664  71.714  -2.381  1.00  0.00     0.047 A 
ATOM     23  C   UNL     1       9.014  73.348  -4.050  1.00  0.00     0.047 A 
ATOM     24  C   UNL     1       9.967  70.801  -3.397  1.00  0.00     0.004 A 
ATOM     25  C   UNL     1       9.319  72.434  -5.063  1.00  0.00     0.004 A 
ATOM     26  C   UNL     1       9.792  71.159  -4.736  1.00  0.00     0.000 A 
ENDBRANCH  20  21
ENDBRANCH  17  20
ENDBRANCH   1  14
TORSDOF 7
ENDMDL
