MODEL 1
REMARK VINA RESULT:    -8.592      0.000      0.000
REMARK INTER + INTRA:         -10.581
REMARK INTER:                 -10.350
REMARK INTRA:                  -0.231
REMARK UNBOUND:                -0.231
REMARK SMILES O=c1c(O)c(-c2ccc(O)c(O)c2)oc2cc(O)cc(O)c12
REMARK SMILES IDX 17 1 16 2 15 3 22 4 20 5 19 6 2 7 1 8 3 9 5 10 14 11 18 12
REMARK SMILES IDX 21 14 6 16 7 17 13 18 8 19 11 20 9 21 12 22 10 24 4 26
REMARK H PARENT 18 13 21 15 12 23 10 25 4 27
REMARK Flexibility Score: inf
ROOT
ATOM      1  C   UNL     1      25.842  34.767  -3.573  1.00  0.00     0.123 A 
ATOM      2  C   UNL     1      25.116  35.827  -4.116  1.00  0.00     0.094 A 
ATOM      3  C   UNL     1      24.909  35.909  -5.496  1.00  0.00     0.146 A 
ATOM      4  C   UNL     1      25.437  34.917  -6.357  1.00  0.00     0.111 A 
ATOM      5  C   UNL     1      26.173  33.843  -5.801  1.00  0.00     0.134 A 
ATOM      6  C   UNL     1      26.368  33.778  -4.413  1.00  0.00     0.093 A 
ATOM      7  C   UNL     1      25.205  35.058  -7.740  1.00  0.00     0.238 A 
ATOM      8  O   UNL     1      25.657  34.216  -8.562  1.00  0.00    -0.285 OA
ATOM      9  C   UNL     1      24.467  36.155  -8.211  1.00  0.00     0.208 A 
ATOM     10  C   UNL     1      23.958  37.083  -7.283  1.00  0.00     0.180 A 
ATOM     11  O   UNL     1      24.210  36.926  -5.986  1.00  0.00    -0.452 OA
ENDROOT
BRANCH   1  12
ATOM     12  O   UNL     1      26.037  34.703  -2.195  1.00  0.00    -0.508 OA
ATOM     13  H   UNL     1      25.389  34.212  -1.590  1.00  0.00     0.293 HD
ENDBRANCH   1  12
BRANCH   5  14
ATOM     14  O   UNL     1      26.709  32.843  -6.613  1.00  0.00    -0.507 OA
ATOM     15  H   UNL     1      27.445  33.038  -7.282  1.00  0.00     0.293 HD
ENDBRANCH   5  14
BRANCH  10  16
ATOM     16  C   UNL     1      23.156  38.256  -7.700  1.00  0.00     0.025 A 
ATOM     17  C   UNL     1      23.691  39.554  -7.676  1.00  0.00     0.016 A 
ATOM     18  C   UNL     1      21.854  38.064  -8.187  1.00  0.00     0.062 A 
ATOM     19  C   UNL     1      22.922  40.641  -8.097  1.00  0.00     0.051 A 
ATOM     20  C   UNL     1      21.076  39.149  -8.612  1.00  0.00     0.158 A 
ATOM     21  C   UNL     1      21.616  40.456  -8.562  1.00  0.00     0.157 A 
BRANCH  20  22
ATOM     22  O   UNL     1      19.784  38.884  -9.071  1.00  0.00    -0.504 OA
ATOM     23  H   UNL     1      19.431  37.956  -9.258  1.00  0.00     0.293 HD
ENDBRANCH  20  22
BRANCH  21  24
ATOM     24  O   UNL     1      20.900  41.585  -8.965  1.00  0.00    -0.504 OA
ATOM     25  H   UNL     1      21.248  42.271  -9.619  1.00  0.00     0.293 HD
ENDBRANCH  21  24
ENDBRANCH  10  16
BRANCH   9  26
ATOM     26  O   UNL     1      24.265  36.346  -9.581  1.00  0.00    -0.502 OA
ATOM     27  H   UNL     1      23.972  37.236  -9.968  1.00  0.00     0.293 HD
ENDBRANCH   9  26
TORSDOF 6
ENDMDL
MODEL 2
REMARK VINA RESULT:    -8.587      1.246      2.912
REMARK INTER + INTRA:         -10.576
REMARK INTER:                 -10.322
REMARK INTRA:                  -0.254
REMARK UNBOUND:                -0.231
REMARK SMILES O=c1c(O)c(-c2ccc(O)c(O)c2)oc2cc(O)cc(O)c12
REMARK SMILES IDX 17 1 16 2 15 3 22 4 20 5 19 6 2 7 1 8 3 9 5 10 14 11 18 12
REMARK SMILES IDX 21 14 6 16 7 17 13 18 8 19 11 20 9 21 12 22 10 24 4 26
REMARK H PARENT 18 13 21 15 12 23 10 25 4 27
REMARK Flexibility Score: inf
ROOT
ATOM      1  C   UNL     1      26.219  33.857  -6.309  1.00  0.00     0.123 A 
ATOM      2  C   UNL     1      25.455  34.803  -6.994  1.00  0.00     0.094 A 
ATOM      3  C   UNL     1      24.904  35.893  -6.315  1.00  0.00     0.146 A 
ATOM      4  C   UNL     1      25.112  36.046  -4.924  1.00  0.00     0.111 A 
ATOM      5  C   UNL     1      25.888  35.084  -4.233  1.00  0.00     0.134 A 
ATOM      6  C   UNL     1      26.434  33.998  -4.933  1.00  0.00     0.093 A 
ATOM      7  C   UNL     1      24.522  37.160  -4.291  1.00  0.00     0.238 A 
ATOM      8  O   UNL     1      24.660  37.349  -3.052  1.00  0.00    -0.285 OA
ATOM      9  C   UNL     1      23.764  38.066  -5.048  1.00  0.00     0.208 A 
ATOM     10  C   UNL     1      23.627  37.850  -6.432  1.00  0.00     0.180 A 
ATOM     11  O   UNL     1      24.185  36.781  -6.993  1.00  0.00    -0.452 OA
ENDROOT
BRANCH   1  12
ATOM     12  O   UNL     1      26.761  32.778  -7.004  1.00  0.00    -0.508 OA
ATOM     13  H   UNL     1      27.678  32.410  -6.781  1.00  0.00     0.293 HD
ENDBRANCH   1  12
BRANCH   5  14
ATOM     14  O   UNL     1      26.119  35.199  -2.862  1.00  0.00    -0.507 OA
ATOM     15  H   UNL     1      26.544  34.449  -2.329  1.00  0.00     0.293 HD
ENDBRANCH   5  14
BRANCH  10  16
ATOM     16  C   UNL     1      22.859  38.771  -7.301  1.00  0.00     0.025 A 
ATOM     17  C   UNL     1      23.344  40.049  -7.622  1.00  0.00     0.016 A 
ATOM     18  C   UNL     1      21.648  38.341  -7.865  1.00  0.00     0.062 A 
ATOM     19  C   UNL     1      22.613  40.891  -8.462  1.00  0.00     0.051 A 
ATOM     20  C   UNL     1      20.908  39.179  -8.709  1.00  0.00     0.158 A 
ATOM     21  C   UNL     1      21.395  40.473  -9.009  1.00  0.00     0.157 A 
BRANCH  20  22
ATOM     22  O   UNL     1      19.706  38.687  -9.224  1.00  0.00    -0.504 OA
ATOM     23  H   UNL     1      19.368  37.748  -9.069  1.00  0.00     0.293 HD
ENDBRANCH  20  22
BRANCH  21  24
ATOM     24  O   UNL     1      20.712  41.364  -9.838  1.00  0.00    -0.504 OA
ATOM     25  H   UNL     1      20.836  41.413 -10.839  1.00  0.00     0.293 HD
ENDBRANCH  21  24
ENDBRANCH  10  16
BRANCH   9  26
ATOM     26  O   UNL     1      23.127  39.150  -4.437  1.00  0.00    -0.502 OA
ATOM     27  H   UNL     1      22.130  39.312  -4.522  1.00  0.00     0.293 HD
ENDBRANCH   9  26
TORSDOF 6
ENDMDL
MODEL 3
REMARK VINA RESULT:    -8.379      2.775      4.092
REMARK INTER + INTRA:         -10.324
REMARK INTER:                 -10.348
REMARK INTRA:                   0.024
REMARK UNBOUND:                -0.231
REMARK SMILES O=c1c(O)c(-c2ccc(O)c(O)c2)oc2cc(O)cc(O)c12
REMARK SMILES IDX 17 1 16 2 15 3 22 4 20 5 19 6 2 7 1 8 3 9 5 10 14 11 18 12
REMARK SMILES IDX 21 14 6 16 7 17 13 18 8 19 11 20 9 21 12 22 10 24 4 26
REMARK H PARENT 18 13 21 15 12 23 10 25 4 27
REMARK Flexibility Score: inf
ROOT
ATOM      1  C   UNL     1      24.831  34.765  -8.785  1.00  0.00     0.123 A 
ATOM      2  C   UNL     1      23.856  35.695  -8.423  1.00  0.00     0.094 A 
ATOM      3  C   UNL     1      23.953  36.386  -7.212  1.00  0.00     0.146 A 
ATOM      4  C   UNL     1      25.040  36.147  -6.339  1.00  0.00     0.111 A 
ATOM      5  C   UNL     1      26.028  35.203  -6.711  1.00  0.00     0.134 A 
ATOM      6  C   UNL     1      25.914  34.521  -7.931  1.00  0.00     0.093 A 
ATOM      7  C   UNL     1      25.079  36.866  -5.128  1.00  0.00     0.238 A 
ATOM      8  O   UNL     1      26.015  36.693  -4.300  1.00  0.00    -0.285 OA
ATOM      9  C   UNL     1      24.058  37.783  -4.832  1.00  0.00     0.208 A 
ATOM     10  C   UNL     1      23.024  37.976  -5.769  1.00  0.00     0.180 A 
ATOM     11  O   UNL     1      23.013  37.269  -6.895  1.00  0.00    -0.452 OA
ENDROOT
BRANCH   1  12
ATOM     12  O   UNL     1      24.717  34.087  -9.997  1.00  0.00    -0.508 OA
ATOM     13  H   UNL     1      23.825  33.989 -10.468  1.00  0.00     0.293 HD
ENDBRANCH   1  12
BRANCH   5  14
ATOM     14  O   UNL     1      27.117  34.939  -5.880  1.00  0.00    -0.507 OA
ATOM     15  H   UNL     1      27.050  34.293  -5.102  1.00  0.00     0.293 HD
ENDBRANCH   5  14
BRANCH  10  16
ATOM     16  C   UNL     1      21.923  38.938  -5.538  1.00  0.00     0.025 A 
ATOM     17  C   UNL     1      21.550  39.873  -6.517  1.00  0.00     0.016 A 
ATOM     18  C   UNL     1      21.193  38.879  -4.340  1.00  0.00     0.062 A 
ATOM     19  C   UNL     1      20.492  40.753  -6.286  1.00  0.00     0.051 A 
ATOM     20  C   UNL     1      20.130  39.759  -4.100  1.00  0.00     0.158 A 
ATOM     21  C   UNL     1      19.777  40.713  -5.084  1.00  0.00     0.157 A 
BRANCH  20  22
ATOM     22  O   UNL     1      19.458  39.651  -2.880  1.00  0.00    -0.504 OA
ATOM     23  H   UNL     1      19.839  39.191  -2.065  1.00  0.00     0.293 HD
ENDBRANCH  20  22
BRANCH  21  24
ATOM     24  O   UNL     1      18.733  41.623  -4.914  1.00  0.00    -0.504 OA
ATOM     25  H   UNL     1      18.668  42.505  -5.401  1.00  0.00     0.293 HD
ENDBRANCH  21  24
ENDBRANCH  10  16
BRANCH   9  26
ATOM     26  O   UNL     1      24.045  38.472  -3.616  1.00  0.00    -0.502 OA
ATOM     27  H   UNL     1      24.023  37.995  -2.722  1.00  0.00     0.293 HD
ENDBRANCH   9  26
TORSDOF 6
ENDMDL
MODEL 4
REMARK VINA RESULT:    -8.269      1.676      2.010
REMARK INTER + INTRA:         -10.192
REMARK INTER:                 -10.537
REMARK INTRA:                   0.345
REMARK UNBOUND:                -0.231
REMARK SMILES O=c1c(O)c(-c2ccc(O)c(O)c2)oc2cc(O)cc(O)c12
REMARK SMILES IDX 17 1 16 2 15 3 22 4 20 5 19 6 2 7 1 8 3 9 5 10 14 11 18 12
REMARK SMILES IDX 21 14 6 16 7 17 13 18 8 19 11 20 9 21 12 22 10 24 4 26
REMARK H PARENT 18 13 21 15 12 23 10 25 4 27
REMARK Flexibility Score: inf
ROOT
ATOM      1  C   UNL     1      25.585  35.245  -4.525  1.00  0.00     0.123 A 
ATOM      2  C   UNL     1      24.674  35.978  -5.287  1.00  0.00     0.094 A 
ATOM      3  C   UNL     1      24.515  35.710  -6.650  1.00  0.00     0.146 A 
ATOM      4  C   UNL     1      25.278  34.693  -7.271  1.00  0.00     0.111 A 
ATOM      5  C   UNL     1      26.201  33.951  -6.494  1.00  0.00     0.134 A 
ATOM      6  C   UNL     1      26.345  34.235  -5.127  1.00  0.00     0.093 A 
ATOM      7  C   UNL     1      25.082  34.476  -8.650  1.00  0.00     0.238 A 
ATOM      8  O   UNL     1      25.738  33.593  -9.266  1.00  0.00    -0.285 OA
ATOM      9  C   UNL     1      24.150  35.257  -9.350  1.00  0.00     0.208 A 
ATOM     10  C   UNL     1      23.416  36.232  -8.648  1.00  0.00     0.180 A 
ATOM     11  O   UNL     1      23.638  36.420  -7.350  1.00  0.00    -0.452 OA
ENDROOT
BRANCH   1  12
ATOM     12  O   UNL     1      25.728  35.526  -3.169  1.00  0.00    -0.508 OA
ATOM     13  H   UNL     1      26.612  35.395  -2.690  1.00  0.00     0.293 HD
ENDBRANCH   1  12
BRANCH   5  14
ATOM     14  O   UNL     1      26.971  32.939  -7.066  1.00  0.00    -0.507 OA
ATOM     15  H   UNL     1      27.410  32.220  -6.503  1.00  0.00     0.293 HD
ENDBRANCH   5  14
BRANCH  10  16
ATOM     16  C   UNL     1      22.402  37.083  -9.312  1.00  0.00     0.025 A 
ATOM     17  C   UNL     1      22.123  38.381  -8.854  1.00  0.00     0.016 A 
ATOM     18  C   UNL     1      21.746  36.610 -10.458  1.00  0.00     0.062 A 
ATOM     19  C   UNL     1      21.180  39.173  -9.511  1.00  0.00     0.051 A 
ATOM     20  C   UNL     1      20.798  37.398 -11.124  1.00  0.00     0.158 A 
ATOM     21  C   UNL     1      20.508  38.696 -10.641  1.00  0.00     0.157 A 
BRANCH  20  22
ATOM     22  O   UNL     1      20.175  36.856 -12.251  1.00  0.00    -0.504 OA
ATOM     23  H   UNL     1      20.269  37.232 -13.183  1.00  0.00     0.293 HD
ENDBRANCH  20  22
BRANCH  21  24
ATOM     24  O   UNL     1      19.574  39.537 -11.249  1.00  0.00    -0.504 OA
ATOM     25  H   UNL     1      19.817  40.299 -11.866  1.00  0.00     0.293 HD
ENDBRANCH  21  24
ENDBRANCH  10  16
BRANCH   9  26
ATOM     26  O   UNL     1      23.972  35.096 -10.726  1.00  0.00    -0.502 OA
ATOM     27  H   UNL     1      23.083  34.827 -11.131  1.00  0.00     0.293 HD
ENDBRANCH   9  26
TORSDOF 6
ENDMDL
MODEL 5
REMARK VINA RESULT:    -8.197      2.967      4.788
REMARK INTER + INTRA:         -10.106
REMARK INTER:                 -10.146
REMARK INTRA:                   0.041
REMARK UNBOUND:                -0.231
REMARK SMILES O=c1c(O)c(-c2ccc(O)c(O)c2)oc2cc(O)cc(O)c12
REMARK SMILES IDX 17 1 16 2 15 3 22 4 20 5 19 6 2 7 1 8 3 9 5 10 14 11 18 12
REMARK SMILES IDX 21 14 6 16 7 17 13 18 8 19 11 20 9 21 12 22 10 24 4 26
REMARK H PARENT 18 13 21 15 12 23 10 25 4 27
REMARK Flexibility Score: inf
ROOT
ATOM      1  C   UNL     1      23.113  35.689 -10.396  1.00  0.00     0.123 A 
ATOM      2  C   UNL     1      22.321  36.587  -9.678  1.00  0.00     0.094 A 
ATOM      3  C   UNL     1      22.716  37.020  -8.410  1.00  0.00     0.146 A 
ATOM      4  C   UNL     1      23.923  36.551  -7.839  1.00  0.00     0.111 A 
ATOM      5  C   UNL     1      24.723  35.641  -8.570  1.00  0.00     0.134 A 
ATOM      6  C   UNL     1      24.310  35.218  -9.843  1.00  0.00     0.093 A 
ATOM      7  C   UNL     1      24.263  37.015  -6.552  1.00  0.00     0.238 A 
ATOM      8  O   UNL     1      25.319  36.627  -5.982  1.00  0.00    -0.285 OA
ATOM      9  C   UNL     1      23.413  37.915  -5.891  1.00  0.00     0.208 A 
ATOM     10  C   UNL     1      22.243  38.349  -6.543  1.00  0.00     0.180 A 
ATOM     11  O   UNL     1      21.945  37.879  -7.751  1.00  0.00    -0.452 OA
ENDROOT
BRANCH   1  12
ATOM     12  O   UNL     1      22.703  35.269 -11.659  1.00  0.00    -0.508 OA
ATOM     13  H   UNL     1      21.723  35.141 -11.883  1.00  0.00     0.293 HD
ENDBRANCH   1  12
BRANCH   5  14
ATOM     14  O   UNL     1      25.921  35.155  -8.045  1.00  0.00    -0.507 OA
ATOM     15  H   UNL     1      26.786  35.678  -8.117  1.00  0.00     0.293 HD
ENDBRANCH   5  14
BRANCH  10  16
ATOM     16  C   UNL     1      21.305  39.311  -5.920  1.00  0.00     0.025 A 
ATOM     17  C   UNL     1      20.825  40.427  -6.625  1.00  0.00     0.016 A 
ATOM     18  C   UNL     1      20.837  39.076  -4.618  1.00  0.00     0.062 A 
ATOM     19  C   UNL     1      19.924  41.306  -6.024  1.00  0.00     0.051 A 
ATOM     20  C   UNL     1      19.931  39.953  -4.008  1.00  0.00     0.158 A 
ATOM     21  C   UNL     1      19.472  41.087  -4.719  1.00  0.00     0.157 A 
BRANCH  20  22
ATOM     22  O   UNL     1      19.519  39.662  -2.705  1.00  0.00    -0.504 OA
ATOM     23  H   UNL     1      18.649  39.202  -2.478  1.00  0.00     0.293 HD
ENDBRANCH  20  22
BRANCH  21  24
ATOM     24  O   UNL     1      18.573  42.006  -4.175  1.00  0.00    -0.504 OA
ATOM     25  H   UNL     1      18.844  42.893  -3.776  1.00  0.00     0.293 HD
ENDBRANCH  21  24
ENDBRANCH  10  16
BRANCH   9  26
ATOM     26  O   UNL     1      23.701  38.352  -4.596  1.00  0.00    -0.502 OA
ATOM     27  H   UNL     1      24.495  38.948  -4.388  1.00  0.00     0.293 HD
ENDBRANCH   9  26
TORSDOF 6
ENDMDL
MODEL 6
REMARK VINA RESULT:    -8.105      2.732      3.775
REMARK INTER + INTRA:          -9.995
REMARK INTER:                 -10.082
REMARK INTRA:                   0.087
REMARK UNBOUND:                -0.231
REMARK SMILES O=c1c(O)c(-c2ccc(O)c(O)c2)oc2cc(O)cc(O)c12
REMARK SMILES IDX 17 1 16 2 15 3 22 4 20 5 19 6 2 7 1 8 3 9 5 10 14 11 18 12
REMARK SMILES IDX 21 14 6 16 7 17 13 18 8 19 11 20 9 21 12 22 10 24 4 26
REMARK H PARENT 18 13 21 15 12 23 10 25 4 27
REMARK Flexibility Score: inf
ROOT
ATOM      1  C   UNL     1      25.815  35.495  -6.613  1.00  0.00     0.123 A 
ATOM      2  C   UNL     1      24.946  36.440  -6.065  1.00  0.00     0.094 A 
ATOM      3  C   UNL     1      23.850  36.901  -6.799  1.00  0.00     0.146 A 
ATOM      4  C   UNL     1      23.612  36.416  -8.107  1.00  0.00     0.111 A 
ATOM      5  C   UNL     1      24.496  35.457  -8.658  1.00  0.00     0.134 A 
ATOM      6  C   UNL     1      25.590  35.006  -7.904  1.00  0.00     0.093 A 
ATOM      7  C   UNL     1      22.497  36.926  -8.802  1.00  0.00     0.238 A 
ATOM      8  O   UNL     1      22.234  36.543  -9.975  1.00  0.00    -0.285 OA
ATOM      9  C   UNL     1      21.670  37.878  -8.186  1.00  0.00     0.208 A 
ATOM     10  C   UNL     1      21.967  38.289  -6.872  1.00  0.00     0.180 A 
ATOM     11  O   UNL     1      23.037  37.798  -6.252  1.00  0.00    -0.452 OA
ENDROOT
BRANCH   1  12
ATOM     12  O   UNL     1      26.902  35.048  -5.864  1.00  0.00    -0.508 OA
ATOM     13  H   UNL     1      27.193  35.520  -5.016  1.00  0.00     0.293 HD
ENDBRANCH   1  12
BRANCH   5  14
ATOM     14  O   UNL     1      24.296  34.951  -9.943  1.00  0.00    -0.507 OA
ATOM     15  H   UNL     1      24.763  34.111 -10.263  1.00  0.00     0.293 HD
ENDBRANCH   5  14
BRANCH  10  16
ATOM     16  C   UNL     1      21.133  39.275  -6.148  1.00  0.00     0.025 A 
ATOM     17  C   UNL     1      20.676  40.446  -6.774  1.00  0.00     0.016 A 
ATOM     18  C   UNL     1      20.739  39.010  -4.828  1.00  0.00     0.062 A 
ATOM     19  C   UNL     1      19.872  41.350  -6.077  1.00  0.00     0.051 A 
ATOM     20  C   UNL     1      19.931  39.911  -4.122  1.00  0.00     0.158 A 
ATOM     21  C   UNL     1      19.495  41.100  -4.754  1.00  0.00     0.157 A 
BRANCH  20  22
ATOM     22  O   UNL     1      19.590  39.587  -2.807  1.00  0.00    -0.504 OA
ATOM     23  H   UNL     1      20.212  39.124  -2.160  1.00  0.00     0.293 HD
ENDBRANCH  20  22
BRANCH  21  24
ATOM     24  O   UNL     1      18.692  42.044  -4.113  1.00  0.00    -0.504 OA
ATOM     25  H   UNL     1      17.838  42.417  -4.502  1.00  0.00     0.293 HD
ENDBRANCH  21  24
ENDBRANCH  10  16
BRANCH   9  26
ATOM     26  O   UNL     1      20.588  38.436  -8.871  1.00  0.00    -0.502 OA
ATOM     27  H   UNL     1      20.440  38.290  -9.863  1.00  0.00     0.293 HD
ENDBRANCH   9  26
TORSDOF 6
ENDMDL
MODEL 7
REMARK VINA RESULT:    -8.100      2.719      3.819
REMARK INTER + INTRA:          -9.988
REMARK INTER:                 -10.151
REMARK INTRA:                   0.162
REMARK UNBOUND:                -0.231
REMARK SMILES O=c1c(O)c(-c2ccc(O)c(O)c2)oc2cc(O)cc(O)c12
REMARK SMILES IDX 17 1 16 2 15 3 22 4 20 5 19 6 2 7 1 8 3 9 5 10 14 11 18 12
REMARK SMILES IDX 21 14 6 16 7 17 13 18 8 19 11 20 9 21 12 22 10 24 4 26
REMARK H PARENT 18 13 21 15 12 23 10 25 4 27
REMARK Flexibility Score: inf
ROOT
ATOM      1  C   UNL     1      24.572  37.351  -4.626  1.00  0.00     0.123 A 
ATOM      2  C   UNL     1      23.992  37.458  -5.891  1.00  0.00     0.094 A 
ATOM      3  C   UNL     1      24.277  36.514  -6.881  1.00  0.00     0.146 A 
ATOM      4  C   UNL     1      25.157  35.440  -6.611  1.00  0.00     0.111 A 
ATOM      5  C   UNL     1      25.742  35.335  -5.325  1.00  0.00     0.134 A 
ATOM      6  C   UNL     1      25.443  36.292  -4.345  1.00  0.00     0.093 A 
ATOM      7  C   UNL     1      25.414  34.524  -7.651  1.00  0.00     0.238 A 
ATOM      8  O   UNL     1      26.198  33.551  -7.480  1.00  0.00    -0.285 OA
ATOM      9  C   UNL     1      24.796  34.701  -8.899  1.00  0.00     0.208 A 
ATOM     10  C   UNL     1      23.915  35.785  -9.075  1.00  0.00     0.180 A 
ATOM     11  O   UNL     1      23.708  36.637  -8.075  1.00  0.00    -0.452 OA
ENDROOT
BRANCH   1  12
ATOM     12  O   UNL     1      24.275  38.303  -3.652  1.00  0.00    -0.508 OA
ATOM     13  H   UNL     1      24.970  38.610  -2.981  1.00  0.00     0.293 HD
ENDBRANCH   1  12
BRANCH   5  14
ATOM     14  O   UNL     1      26.614  34.291  -5.017  1.00  0.00    -0.507 OA
ATOM     15  H   UNL     1      27.129  33.796  -5.736  1.00  0.00     0.293 HD
ENDBRANCH   5  14
BRANCH  10  16
ATOM     16  C   UNL     1      23.211  36.028 -10.355  1.00  0.00     0.025 A 
ATOM     17  C   UNL     1      21.876  36.463 -10.385  1.00  0.00     0.016 A 
ATOM     18  C   UNL     1      23.906  35.878 -11.565  1.00  0.00     0.062 A 
ATOM     19  C   UNL     1      21.242  36.708 -11.604  1.00  0.00     0.051 A 
ATOM     20  C   UNL     1      23.277  36.122 -12.792  1.00  0.00     0.158 A 
ATOM     21  C   UNL     1      21.924  36.539 -12.812  1.00  0.00     0.157 A 
BRANCH  20  22
ATOM     22  O   UNL     1      24.027  35.940 -13.956  1.00  0.00    -0.504 OA
ATOM     23  H   UNL     1      25.030  35.822 -13.968  1.00  0.00     0.293 HD
ENDBRANCH  20  22
BRANCH  21  24
ATOM     24  O   UNL     1      21.232  36.797 -13.996  1.00  0.00    -0.504 OA
ATOM     25  H   UNL     1      20.273  36.524 -14.161  1.00  0.00     0.293 HD
ENDBRANCH  21  24
ENDBRANCH  10  16
BRANCH   9  26
ATOM     26  O   UNL     1      25.072  33.837  -9.962  1.00  0.00    -0.502 OA
ATOM     27  H   UNL     1      26.017  33.640 -10.270  1.00  0.00     0.293 HD
ENDBRANCH   9  26
TORSDOF 6
ENDMDL
MODEL 8
REMARK VINA RESULT:    -8.085      2.686      4.267
REMARK INTER + INTRA:          -9.970
REMARK INTER:                  -9.967
REMARK INTRA:                  -0.003
REMARK UNBOUND:                -0.231
REMARK SMILES O=c1c(O)c(-c2ccc(O)c(O)c2)oc2cc(O)cc(O)c12
REMARK SMILES IDX 17 1 16 2 15 3 22 4 20 5 19 6 2 7 1 8 3 9 5 10 14 11 18 12
REMARK SMILES IDX 21 14 6 16 7 17 13 18 8 19 11 20 9 21 12 22 10 24 4 26
REMARK H PARENT 18 13 21 15 12 23 10 25 4 27
REMARK Flexibility Score: inf
ROOT
ATOM      1  C   UNL     1      24.387  35.344  -8.970  1.00  0.00     0.123 A 
ATOM      2  C   UNL     1      23.397  36.238  -8.560  1.00  0.00     0.094 A 
ATOM      3  C   UNL     1      23.482  36.866  -7.315  1.00  0.00     0.146 A 
ATOM      4  C   UNL     1      24.574  36.600  -6.455  1.00  0.00     0.111 A 
ATOM      5  C   UNL     1      25.577  35.693  -6.875  1.00  0.00     0.134 A 
ATOM      6  C   UNL     1      25.473  35.074  -8.129  1.00  0.00     0.093 A 
ATOM      7  C   UNL     1      24.601  37.256  -5.207  1.00  0.00     0.238 A 
ATOM      8  O   UNL     1      25.540  37.054  -4.390  1.00  0.00    -0.285 OA
ATOM      9  C   UNL     1      23.565  38.139  -4.865  1.00  0.00     0.208 A 
ATOM     10  C   UNL     1      22.529  38.364  -5.791  1.00  0.00     0.180 A 
ATOM     11  O   UNL     1      22.528  37.717  -6.953  1.00  0.00    -0.452 OA
ENDROOT
BRANCH   1  12
ATOM     12  O   UNL     1      24.284  34.729 -10.215  1.00  0.00    -0.508 OA
ATOM     13  H   UNL     1      23.911  35.219 -11.021  1.00  0.00     0.293 HD
ENDBRANCH   1  12
BRANCH   5  14
ATOM     14  O   UNL     1      26.670  35.404  -6.058  1.00  0.00    -0.507 OA
ATOM     15  H   UNL     1      27.266  36.134  -5.687  1.00  0.00     0.293 HD
ENDBRANCH   5  14
BRANCH  10  16
ATOM     16  C   UNL     1      21.412  39.294  -5.511  1.00  0.00     0.025 A 
ATOM     17  C   UNL     1      20.667  39.207  -4.323  1.00  0.00     0.016 A 
ATOM     18  C   UNL     1      21.125  40.324  -6.420  1.00  0.00     0.062 A 
ATOM     19  C   UNL     1      19.633  40.111  -4.071  1.00  0.00     0.051 A 
ATOM     20  C   UNL     1      20.090  41.235  -6.175  1.00  0.00     0.158 A 
ATOM     21  C   UNL     1      19.330  41.125  -4.986  1.00  0.00     0.157 A 
BRANCH  20  22
ATOM     22  O   UNL     1      19.854  42.226  -7.131  1.00  0.00    -0.504 OA
ATOM     23  H   UNL     1      19.782  42.047  -8.122  1.00  0.00     0.293 HD
ENDBRANCH  20  22
BRANCH  21  24
ATOM     24  O   UNL     1      18.283  41.993  -4.675  1.00  0.00    -0.504 OA
ATOM     25  H   UNL     1      17.342  41.692  -4.464  1.00  0.00     0.293 HD
ENDBRANCH  21  24
ENDBRANCH  10  16
BRANCH   9  26
ATOM     26  O   UNL     1      23.542  38.763  -3.615  1.00  0.00    -0.502 OA
ATOM     27  H   UNL     1      23.920  38.325  -2.782  1.00  0.00     0.293 HD
ENDBRANCH   9  26
TORSDOF 6
ENDMDL
MODEL 9
REMARK VINA RESULT:    -7.902      2.646      3.427
REMARK INTER + INTRA:          -9.750
REMARK INTER:                  -9.802
REMARK INTRA:                   0.052
REMARK UNBOUND:                -0.231
REMARK SMILES O=c1c(O)c(-c2ccc(O)c(O)c2)oc2cc(O)cc(O)c12
REMARK SMILES IDX 17 1 16 2 15 3 22 4 20 5 19 6 2 7 1 8 3 9 5 10 14 11 18 12
REMARK SMILES IDX 21 14 6 16 7 17 13 18 8 19 11 20 9 21 12 22 10 24 4 26
REMARK H PARENT 18 13 21 15 12 23 10 25 4 27
REMARK Flexibility Score: inf
ROOT
ATOM      1  C   UNL     1      25.716  36.145  -4.630  1.00  0.00     0.123 A 
ATOM      2  C   UNL     1      24.714  37.092  -4.414  1.00  0.00     0.094 A 
ATOM      3  C   UNL     1      23.779  37.373  -5.413  1.00  0.00     0.146 A 
ATOM      4  C   UNL     1      23.840  36.700  -6.657  1.00  0.00     0.111 A 
ATOM      5  C   UNL     1      24.858  35.740  -6.872  1.00  0.00     0.134 A 
ATOM      6  C   UNL     1      25.787  35.471  -5.855  1.00  0.00     0.093 A 
ATOM      7  C   UNL     1      22.877  37.033  -7.631  1.00  0.00     0.238 A 
ATOM      8  O   UNL     1      22.882  36.479  -8.763  1.00  0.00    -0.285 OA
ATOM      9  C   UNL     1      21.902  37.999  -7.340  1.00  0.00     0.208 A 
ATOM     10  C   UNL     1      21.899  38.603  -6.068  1.00  0.00     0.180 A 
ATOM     11  O   UNL     1      22.833  38.275  -5.179  1.00  0.00    -0.452 OA
ENDROOT
BRANCH   1  12
ATOM     12  O   UNL     1      26.638  35.879  -3.620  1.00  0.00    -0.508 OA
ATOM     13  H   UNL     1      26.374  35.896  -2.641  1.00  0.00     0.293 HD
ENDBRANCH   1  12
BRANCH   5  14
ATOM     14  O   UNL     1      24.954  35.053  -8.082  1.00  0.00    -0.507 OA
ATOM     15  H   UNL     1      25.008  35.541  -8.969  1.00  0.00     0.293 HD
ENDBRANCH   5  14
BRANCH  10  16
ATOM     16  C   UNL     1      20.893  39.617  -5.680  1.00  0.00     0.025 A 
ATOM     17  C   UNL     1      20.217  39.544  -4.451  1.00  0.00     0.016 A 
ATOM     18  C   UNL     1      20.648  40.708  -6.528  1.00  0.00     0.062 A 
ATOM     19  C   UNL     1      19.290  40.525  -4.097  1.00  0.00     0.051 A 
ATOM     20  C   UNL     1      19.719  41.698  -6.180  1.00  0.00     0.158 A 
ATOM     21  C   UNL     1      19.027  41.603  -4.949  1.00  0.00     0.157 A 
BRANCH  20  22
ATOM     22  O   UNL     1      19.518  42.747  -7.080  1.00  0.00    -0.504 OA
ATOM     23  H   UNL     1      20.120  42.937  -7.868  1.00  0.00     0.293 HD
ENDBRANCH  20  22
BRANCH  21  24
ATOM     24  O   UNL     1      18.086  42.548  -4.538  1.00  0.00    -0.504 OA
ATOM     25  H   UNL     1      18.105  43.520  -4.810  1.00  0.00     0.293 HD
ENDBRANCH  21  24
ENDBRANCH  10  16
BRANCH   9  26
ATOM     26  O   UNL     1      20.966  38.383  -8.304  1.00  0.00    -0.502 OA
ATOM     27  H   UNL     1      20.979  38.017  -9.249  1.00  0.00     0.293 HD
ENDBRANCH   9  26
TORSDOF 6
ENDMDL
MODEL 10
REMARK VINA RESULT:    -7.878      1.376      3.182
REMARK INTER + INTRA:          -9.721
REMARK INTER:                  -9.776
REMARK INTRA:                   0.055
REMARK UNBOUND:                -0.231
REMARK SMILES O=c1c(O)c(-c2ccc(O)c(O)c2)oc2cc(O)cc(O)c12
REMARK SMILES IDX 17 1 16 2 15 3 22 4 20 5 19 6 2 7 1 8 3 9 5 10 14 11 18 12
REMARK SMILES IDX 21 14 6 16 7 17 13 18 8 19 11 20 9 21 12 22 10 24 4 26
REMARK H PARENT 18 13 21 15 12 23 10 25 4 27
REMARK Flexibility Score: inf
ROOT
ATOM      1  C   UNL     1      26.207  33.944  -6.455  1.00  0.00     0.123 A 
ATOM      2  C   UNL     1      25.333  34.716  -7.222  1.00  0.00     0.094 A 
ATOM      3  C   UNL     1      24.726  35.849  -6.675  1.00  0.00     0.146 A 
ATOM      4  C   UNL     1      24.989  36.225  -5.336  1.00  0.00     0.111 A 
ATOM      5  C   UNL     1      25.877  35.439  -4.562  1.00  0.00     0.134 A 
ATOM      6  C   UNL     1      26.478  34.305  -5.130  1.00  0.00     0.093 A 
ATOM      7  C   UNL     1      24.340  37.372  -4.836  1.00  0.00     0.238 A 
ATOM      8  O   UNL     1      24.522  37.754  -3.648  1.00  0.00    -0.285 OA
ATOM      9  C   UNL     1      23.471  38.095  -5.668  1.00  0.00     0.208 A 
ATOM     10  C   UNL     1      23.284  37.664  -6.995  1.00  0.00     0.180 A 
ATOM     11  O   UNL     1      23.902  36.569  -7.428  1.00  0.00    -0.452 OA
ENDROOT
BRANCH   1  12
ATOM     12  O   UNL     1      26.803  32.818  -7.019  1.00  0.00    -0.508 OA
ATOM     13  H   UNL     1      27.765  32.571  -6.819  1.00  0.00     0.293 HD
ENDBRANCH   1  12
BRANCH   5  14
ATOM     14  O   UNL     1      26.166  35.774  -3.239  1.00  0.00    -0.507 OA
ATOM     15  H   UNL     1      26.008  35.124  -2.478  1.00  0.00     0.293 HD
ENDBRANCH   5  14
BRANCH  10  16
ATOM     16  C   UNL     1      22.398  38.384  -7.939  1.00  0.00     0.025 A 
ATOM     17  C   UNL     1      21.416  37.708  -8.681  1.00  0.00     0.016 A 
ATOM     18  C   UNL     1      22.497  39.779  -8.053  1.00  0.00     0.062 A 
ATOM     19  C   UNL     1      20.578  38.412  -9.547  1.00  0.00     0.051 A 
ATOM     20  C   UNL     1      21.659  40.493  -8.919  1.00  0.00     0.158 A 
ATOM     21  C   UNL     1      20.689  39.800  -9.680  1.00  0.00     0.157 A 
BRANCH  20  22
ATOM     22  O   UNL     1      21.825  41.878  -8.990  1.00  0.00    -0.504 OA
ATOM     23  H   UNL     1      21.195  42.497  -9.480  1.00  0.00     0.293 HD
ENDBRANCH  20  22
BRANCH  21  24
ATOM     24  O   UNL     1      19.822  40.443 -10.565  1.00  0.00    -0.504 OA
ATOM     25  H   UNL     1      19.481  40.031 -11.421  1.00  0.00     0.293 HD
ENDBRANCH  21  24
ENDBRANCH  10  16
BRANCH   9  26
ATOM     26  O   UNL     1      22.776  39.206  -5.182  1.00  0.00    -0.502 OA
ATOM     27  H   UNL     1      22.585  39.338  -4.196  1.00  0.00     0.293 HD
ENDBRANCH   9  26
TORSDOF 6
ENDMDL
MODEL 11
REMARK VINA RESULT:    -7.832      2.393      4.130
REMARK INTER + INTRA:          -9.665
REMARK INTER:                  -9.780
REMARK INTRA:                   0.115
REMARK UNBOUND:                -0.231
REMARK SMILES O=c1c(O)c(-c2ccc(O)c(O)c2)oc2cc(O)cc(O)c12
REMARK SMILES IDX 17 1 16 2 15 3 22 4 20 5 19 6 2 7 1 8 3 9 5 10 14 11 18 12
REMARK SMILES IDX 21 14 6 16 7 17 13 18 8 19 11 20 9 21 12 22 10 24 4 26
REMARK H PARENT 18 13 21 15 12 23 10 25 4 27
REMARK Flexibility Score: inf
ROOT
ATOM      1  C   UNL     1      25.692  34.139  -8.690  1.00  0.00     0.123 A 
ATOM      2  C   UNL     1      24.785  34.817  -9.506  1.00  0.00     0.094 A 
ATOM      3  C   UNL     1      23.902  35.751  -8.957  1.00  0.00     0.146 A 
ATOM      4  C   UNL     1      23.917  36.016  -7.568  1.00  0.00     0.111 A 
ATOM      5  C   UNL     1      24.839  35.326  -6.744  1.00  0.00     0.134 A 
ATOM      6  C   UNL     1      25.718  34.394  -7.314  1.00  0.00     0.093 A 
ATOM      7  C   UNL     1      22.995  36.961  -7.071  1.00  0.00     0.238 A 
ATOM      8  O   UNL     1      22.949  37.235  -5.841  1.00  0.00    -0.285 OA
ATOM      9  C   UNL     1      22.111  37.599  -7.954  1.00  0.00     0.208 A 
ATOM     10  C   UNL     1      22.181  37.292  -9.326  1.00  0.00     0.180 A 
ATOM     11  O   UNL     1      23.053  36.385  -9.758  1.00  0.00    -0.452 OA
ENDROOT
BRANCH   1  12
ATOM     12  O   UNL     1      26.565  33.212  -9.256  1.00  0.00    -0.508 OA
ATOM     13  H   UNL     1      27.506  33.469  -9.532  1.00  0.00     0.293 HD
ENDBRANCH   1  12
BRANCH   5  14
ATOM     14  O   UNL     1      24.887  35.560  -5.369  1.00  0.00    -0.507 OA
ATOM     15  H   UNL     1      24.059  35.498  -4.789  1.00  0.00     0.293 HD
ENDBRANCH   5  14
BRANCH  10  16
ATOM     16  C   UNL     1      21.295  37.937 -10.323  1.00  0.00     0.025 A 
ATOM     17  C   UNL     1      20.976  39.302 -10.243  1.00  0.00     0.016 A 
ATOM     18  C   UNL     1      20.810  37.186 -11.405  1.00  0.00     0.062 A 
ATOM     19  C   UNL     1      20.158  39.892 -11.208  1.00  0.00     0.051 A 
ATOM     20  C   UNL     1      19.989  37.771 -12.378  1.00  0.00     0.158 A 
ATOM     21  C   UNL     1      19.654  39.142 -12.276  1.00  0.00     0.157 A 
BRANCH  20  22
ATOM     22  O   UNL     1      19.533  36.958 -13.418  1.00  0.00    -0.504 OA
ATOM     23  H   UNL     1      18.588  36.976 -13.776  1.00  0.00     0.293 HD
ENDBRANCH  20  22
BRANCH  21  24
ATOM     24  O   UNL     1      18.840  39.791 -13.204  1.00  0.00    -0.504 OA
ATOM     25  H   UNL     1      18.975  39.746 -14.204  1.00  0.00     0.293 HD
ENDBRANCH  21  24
ENDBRANCH  10  16
BRANCH   9  26
ATOM     26  O   UNL     1      21.155  38.501  -7.481  1.00  0.00    -0.502 OA
ATOM     27  H   UNL     1      20.547  38.288  -6.698  1.00  0.00     0.293 HD
ENDBRANCH   9  26
TORSDOF 6
ENDMDL
MODEL 12
REMARK VINA RESULT:    -7.748      2.479      6.823
REMARK INTER + INTRA:          -9.565
REMARK INTER:                  -9.761
REMARK INTRA:                   0.196
REMARK UNBOUND:                -0.231
REMARK SMILES O=c1c(O)c(-c2ccc(O)c(O)c2)oc2cc(O)cc(O)c12
REMARK SMILES IDX 17 1 16 2 15 3 22 4 20 5 19 6 2 7 1 8 3 9 5 10 14 11 18 12
REMARK SMILES IDX 21 14 6 16 7 17 13 18 8 19 11 20 9 21 12 22 10 24 4 26
REMARK H PARENT 18 13 21 15 12 23 10 25 4 27
REMARK Flexibility Score: inf
ROOT
ATOM      1  C   UNL     1      23.545  35.975 -12.632  1.00  0.00     0.123 A 
ATOM      2  C   UNL     1      24.117  35.810 -11.370  1.00  0.00     0.094 A 
ATOM      3  C   UNL     1      23.435  36.228 -10.224  1.00  0.00     0.146 A 
ATOM      4  C   UNL     1      22.156  36.825 -10.332  1.00  0.00     0.111 A 
ATOM      5  C   UNL     1      21.579  36.989 -11.615  1.00  0.00     0.134 A 
ATOM      6  C   UNL     1      22.280  36.562 -12.753  1.00  0.00     0.093 A 
ATOM      7  C   UNL     1      21.521  37.236  -9.143  1.00  0.00     0.238 A 
ATOM      8  O   UNL     1      20.386  37.784  -9.171  1.00  0.00    -0.285 OA
ATOM      9  C   UNL     1      22.163  37.040  -7.910  1.00  0.00     0.208 A 
ATOM     10  C   UNL     1      23.425  36.417  -7.892  1.00  0.00     0.180 A 
ATOM     11  O   UNL     1      24.001  36.055  -9.035  1.00  0.00    -0.452 OA
ENDROOT
BRANCH   1  12
ATOM     12  O   UNL     1      24.241  35.551 -13.762  1.00  0.00    -0.508 OA
ATOM     13  H   UNL     1      24.246  36.095 -14.617  1.00  0.00     0.293 HD
ENDBRANCH   1  12
BRANCH   5  14
ATOM     14  O   UNL     1      20.320  37.571 -11.766  1.00  0.00    -0.507 OA
ATOM     15  H   UNL     1      19.507  37.023 -12.023  1.00  0.00     0.293 HD
ENDBRANCH   5  14
BRANCH  10  16
ATOM     16  C   UNL     1      24.157  36.159  -6.631  1.00  0.00     0.025 A 
ATOM     17  C   UNL     1      24.914  34.990  -6.450  1.00  0.00     0.016 A 
ATOM     18  C   UNL     1      24.146  37.126  -5.614  1.00  0.00     0.062 A 
ATOM     19  C   UNL     1      25.615  34.780  -5.261  1.00  0.00     0.051 A 
ATOM     20  C   UNL     1      24.846  36.924  -4.418  1.00  0.00     0.158 A 
ATOM     21  C   UNL     1      25.588  35.733  -4.237  1.00  0.00     0.157 A 
BRANCH  20  22
ATOM     22  O   UNL     1      24.778  37.925  -3.446  1.00  0.00    -0.504 OA
ATOM     23  H   UNL     1      23.986  38.066  -2.836  1.00  0.00     0.293 HD
ENDBRANCH  20  22
BRANCH  21  24
ATOM     24  O   UNL     1      26.307  35.461  -3.072  1.00  0.00    -0.504 OA
ATOM     25  H   UNL     1      27.305  35.310  -3.047  1.00  0.00     0.293 HD
ENDBRANCH  21  24
ENDBRANCH  10  16
BRANCH   9  26
ATOM     26  O   UNL     1      21.578  37.483  -6.721  1.00  0.00    -0.502 OA
ATOM     27  H   UNL     1      20.910  38.245  -6.696  1.00  0.00     0.293 HD
ENDBRANCH   9  26
TORSDOF 6
ENDMDL
MODEL 13
REMARK VINA RESULT:    -7.659      1.838      3.265
REMARK INTER + INTRA:          -9.458
REMARK INTER:                  -9.717
REMARK INTRA:                   0.260
REMARK UNBOUND:                -0.231
REMARK SMILES O=c1c(O)c(-c2ccc(O)c(O)c2)oc2cc(O)cc(O)c12
REMARK SMILES IDX 17 1 16 2 15 3 22 4 20 5 19 6 2 7 1 8 3 9 5 10 14 11 18 12
REMARK SMILES IDX 21 14 6 16 7 17 13 18 8 19 11 20 9 21 12 22 10 24 4 26
REMARK H PARENT 18 13 21 15 12 23 10 25 4 27
REMARK Flexibility Score: inf
ROOT
ATOM      1  C   UNL     1      26.097  34.122  -6.534  1.00  0.00     0.123 A 
ATOM      2  C   UNL     1      25.234  34.715  -7.457  1.00  0.00     0.094 A 
ATOM      3  C   UNL     1      24.506  35.856  -7.111  1.00  0.00     0.146 A 
ATOM      4  C   UNL     1      24.634  36.422  -5.821  1.00  0.00     0.111 A 
ATOM      5  C   UNL     1      25.512  35.817  -4.888  1.00  0.00     0.134 A 
ATOM      6  C   UNL     1      26.236  34.672  -5.255  1.00  0.00     0.093 A 
ATOM      7  C   UNL     1      23.867  37.567  -5.527  1.00  0.00     0.238 A 
ATOM      8  O   UNL     1      23.926  38.113  -4.392  1.00  0.00    -0.285 OA
ATOM      9  C   UNL     1      23.017  38.103  -6.507  1.00  0.00     0.208 A 
ATOM     10  C   UNL     1      22.968  37.490  -7.774  1.00  0.00     0.180 A 
ATOM     11  O   UNL     1      23.695  36.402  -8.011  1.00  0.00    -0.452 OA
ENDROOT
BRANCH   1  12
ATOM     12  O   UNL     1      26.816  32.985  -6.898  1.00  0.00    -0.508 OA
ATOM     13  H   UNL     1      26.353  32.156  -7.253  1.00  0.00     0.293 HD
ENDBRANCH   1  12
BRANCH   5  14
ATOM     14  O   UNL     1      25.669  36.343  -3.606  1.00  0.00    -0.507 OA
ATOM     15  H   UNL     1      24.950  36.909  -3.170  1.00  0.00     0.293 HD
ENDBRANCH   5  14
BRANCH  10  16
ATOM     16  C   UNL     1      22.111  38.007  -8.865  1.00  0.00     0.025 A 
ATOM     17  C   UNL     1      21.774  39.368  -8.949  1.00  0.00     0.016 A 
ATOM     18  C   UNL     1      21.672  37.134  -9.873  1.00  0.00     0.062 A 
ATOM     19  C   UNL     1      20.984  39.835 -10.000  1.00  0.00     0.051 A 
ATOM     20  C   UNL     1      20.880  37.595 -10.932  1.00  0.00     0.158 A 
ATOM     21  C   UNL     1      20.527  38.964 -10.994  1.00  0.00     0.157 A 
BRANCH  20  22
ATOM     22  O   UNL     1      20.470  36.666 -11.890  1.00  0.00    -0.504 OA
ATOM     23  H   UNL     1      19.725  35.999 -11.747  1.00  0.00     0.293 HD
ENDBRANCH  20  22
BRANCH  21  24
ATOM     24  O   UNL     1      19.738  39.494 -12.016  1.00  0.00    -0.504 OA
ATOM     25  H   UNL     1      19.690  39.111 -12.949  1.00  0.00     0.293 HD
ENDBRANCH  21  24
ENDBRANCH  10  16
BRANCH   9  26
ATOM     26  O   UNL     1      22.208  39.207  -6.225  1.00  0.00    -0.502 OA
ATOM     27  H   UNL     1      21.941  39.457  -5.280  1.00  0.00     0.293 HD
ENDBRANCH   9  26
TORSDOF 6
ENDMDL
MODEL 14
REMARK VINA RESULT:    -7.541      2.172      6.933
REMARK INTER + INTRA:          -9.315
REMARK INTER:                  -9.782
REMARK INTRA:                   0.467
REMARK UNBOUND:                -0.231
REMARK SMILES O=c1c(O)c(-c2ccc(O)c(O)c2)oc2cc(O)cc(O)c12
REMARK SMILES IDX 17 1 16 2 15 3 22 4 20 5 19 6 2 7 1 8 3 9 5 10 14 11 18 12
REMARK SMILES IDX 21 14 6 16 7 17 13 18 8 19 11 20 9 21 12 22 10 24 4 26
REMARK H PARENT 18 13 21 15 12 23 10 25 4 27
REMARK Flexibility Score: inf
ROOT
ATOM      1  C   UNL     1      20.328  40.788  -6.906  1.00  0.00     0.123 A 
ATOM      2  C   UNL     1      21.294  39.794  -6.745  1.00  0.00     0.094 A 
ATOM      3  C   UNL     1      21.534  38.871  -7.767  1.00  0.00     0.146 A 
ATOM      4  C   UNL     1      20.799  38.934  -8.974  1.00  0.00     0.111 A 
ATOM      5  C   UNL     1      19.820  39.945  -9.132  1.00  0.00     0.134 A 
ATOM      6  C   UNL     1      19.594  40.863  -8.095  1.00  0.00     0.093 A 
ATOM      7  C   UNL     1      21.079  37.970  -9.964  1.00  0.00     0.238 A 
ATOM      8  O   UNL     1      20.451  37.964 -11.057  1.00  0.00    -0.285 OA
ATOM      9  C   UNL     1      22.063  36.998  -9.727  1.00  0.00     0.208 A 
ATOM     10  C   UNL     1      22.764  37.023  -8.507  1.00  0.00     0.180 A 
ATOM     11  O   UNL     1      22.463  37.938  -7.590  1.00  0.00    -0.452 OA
ENDROOT
BRANCH   1  12
ATOM     12  O   UNL     1      20.103  41.699  -5.876  1.00  0.00    -0.508 OA
ATOM     13  H   UNL     1      19.414  41.524  -5.153  1.00  0.00     0.293 HD
ENDBRANCH   1  12
BRANCH   5  14
ATOM     14  O   UNL     1      19.073  40.044 -10.307  1.00  0.00    -0.507 OA
ATOM     15  H   UNL     1      19.511  40.012 -11.220  1.00  0.00     0.293 HD
ENDBRANCH   5  14
BRANCH  10  16
ATOM     16  C   UNL     1      23.829  36.043  -8.191  1.00  0.00     0.025 A 
ATOM     17  C   UNL     1      24.250  35.821  -6.870  1.00  0.00     0.016 A 
ATOM     18  C   UNL     1      24.390  35.275  -9.223  1.00  0.00     0.062 A 
ATOM     19  C   UNL     1      25.239  34.875  -6.595  1.00  0.00     0.051 A 
ATOM     20  C   UNL     1      25.383  34.324  -8.955  1.00  0.00     0.158 A 
ATOM     21  C   UNL     1      25.816  34.124  -7.623  1.00  0.00     0.157 A 
BRANCH  20  22
ATOM     22  O   UNL     1      25.905  33.607 -10.034  1.00  0.00    -0.504 OA
ATOM     23  H   UNL     1      25.346  33.242 -10.793  1.00  0.00     0.293 HD
ENDBRANCH  20  22
BRANCH  21  24
ATOM     24  O   UNL     1      26.802  33.197  -7.281  1.00  0.00    -0.504 OA
ATOM     25  H   UNL     1      26.756  32.213  -7.506  1.00  0.00     0.293 HD
ENDBRANCH  21  24
ENDBRANCH  10  16
BRANCH   9  26
ATOM     26  O   UNL     1      22.325  36.001 -10.671  1.00  0.00    -0.502 OA
ATOM     27  H   UNL     1      21.793  35.139 -10.712  1.00  0.00     0.293 HD
ENDBRANCH   9  26
TORSDOF 6
ENDMDL
MODEL 15
REMARK VINA RESULT:    -7.460      2.074      7.172
REMARK INTER + INTRA:          -9.218
REMARK INTER:                  -9.323
REMARK INTRA:                   0.105
REMARK UNBOUND:                -0.231
REMARK SMILES O=c1c(O)c(-c2ccc(O)c(O)c2)oc2cc(O)cc(O)c12
REMARK SMILES IDX 17 1 16 2 15 3 22 4 20 5 19 6 2 7 1 8 3 9 5 10 14 11 18 12
REMARK SMILES IDX 21 14 6 16 7 17 13 18 8 19 11 20 9 21 12 22 10 24 4 26
REMARK H PARENT 18 13 21 15 12 23 10 25 4 27
REMARK Flexibility Score: inf
ROOT
ATOM      1  C   UNL     1      21.208  41.663  -8.626  1.00  0.00     0.123 A 
ATOM      2  C   UNL     1      22.006  40.548  -8.884  1.00  0.00     0.094 A 
ATOM      3  C   UNL     1      22.087  39.507  -7.956  1.00  0.00     0.146 A 
ATOM      4  C   UNL     1      21.361  39.573  -6.743  1.00  0.00     0.111 A 
ATOM      5  C   UNL     1      20.552  40.707  -6.486  1.00  0.00     0.134 A 
ATOM      6  C   UNL     1      20.484  41.741  -7.431  1.00  0.00     0.093 A 
ATOM      7  C   UNL     1      21.491  38.498  -5.841  1.00  0.00     0.238 A 
ATOM      8  O   UNL     1      20.880  38.500  -4.738  1.00  0.00    -0.285 OA
ATOM      9  C   UNL     1      22.317  37.412  -6.171  1.00  0.00     0.208 A 
ATOM     10  C   UNL     1      22.984  37.416  -7.410  1.00  0.00     0.180 A 
ATOM     11  O   UNL     1      22.851  38.455  -8.230  1.00  0.00    -0.452 OA
ENDROOT
BRANCH   1  12
ATOM     12  O   UNL     1      21.140  42.691  -9.564  1.00  0.00    -0.508 OA
ATOM     13  H   UNL     1      21.782  43.475  -9.540  1.00  0.00     0.293 HD
ENDBRANCH   1  12
BRANCH   5  14
ATOM     14  O   UNL     1      19.820  40.812  -5.303  1.00  0.00    -0.507 OA
ATOM     15  H   UNL     1      19.073  40.164  -5.079  1.00  0.00     0.293 HD
ENDBRANCH   5  14
BRANCH  10  16
ATOM     16  C   UNL     1      23.858  36.299  -7.837  1.00  0.00     0.025 A 
ATOM     17  C   UNL     1      23.805  35.787  -9.144  1.00  0.00     0.016 A 
ATOM     18  C   UNL     1      24.802  35.777  -6.939  1.00  0.00     0.062 A 
ATOM     19  C   UNL     1      24.656  34.750  -9.530  1.00  0.00     0.051 A 
ATOM     20  C   UNL     1      25.659  34.736  -7.318  1.00  0.00     0.158 A 
ATOM     21  C   UNL     1      25.582  34.212  -8.631  1.00  0.00     0.157 A 
BRANCH  20  22
ATOM     22  O   UNL     1      26.564  34.258  -6.367  1.00  0.00    -0.504 OA
ATOM     23  H   UNL     1      26.344  34.143  -5.388  1.00  0.00     0.293 HD
ENDBRANCH  20  22
BRANCH  21  24
ATOM     24  O   UNL     1      26.401  33.174  -9.078  1.00  0.00    -0.504 OA
ATOM     25  H   UNL     1      27.377  33.081  -8.838  1.00  0.00     0.293 HD
ENDBRANCH  21  24
ENDBRANCH  10  16
BRANCH   9  26
ATOM     26  O   UNL     1      22.502  36.356  -5.274  1.00  0.00    -0.502 OA
ATOM     27  H   UNL     1      21.883  35.554  -5.245  1.00  0.00     0.293 HD
ENDBRANCH   9  26
TORSDOF 6
ENDMDL
