MODEL 1
REMARK VINA RESULT:   -10.329      0.000      0.000
REMARK INTER + INTRA:         -15.946
REMARK INTER:                 -15.160
REMARK INTRA:                  -0.786
REMARK UNBOUND:                -0.786
REMARK SMILES COc1cc2c(Oc3ccc4[nH]c(C)cc4c3F)ncnc2cc1OCCCN1CCCC1
REMARK SMILES IDX 26 1 25 2 24 3 3 4 4 5 5 6 23 7 22 8 6 9 21 10 19 11 20 12
REMARK SMILES IDX 2 13 1 14 7 15 8 16 17 17 9 18 18 19 16 20 10 21 11 22 15 23
REMARK SMILES IDX 12 24 13 25 14 27 27 28 28 29 29 30 30 31 33 32 31 33 32 34
REMARK H PARENT 12 26
REMARK Flexibility Score: inf
ROOT
ATOM      1  C   UNL     1      14.120  29.363  41.932  1.00  0.00     0.231 C 
ENDROOT
BRANCH   1   2
ATOM      2  O   UNL     1      14.513  27.994  41.842  1.00  0.00    -0.490 OA
BRANCH   2   3
ATOM      3  C   UNL     1      15.764  27.549  41.391  1.00  0.00     0.163 A 
ATOM      4  C   UNL     1      15.898  26.197  41.035  1.00  0.00     0.161 A 
ATOM      5  C   UNL     1      17.140  25.715  40.575  1.00  0.00     0.066 A 
ATOM      6  C   UNL     1      18.242  26.578  40.470  1.00  0.00     0.067 A 
ATOM      7  C   UNL     1      16.871  28.413  41.287  1.00  0.00     0.079 A 
ATOM      8  C   UNL     1      18.102  27.934  40.830  1.00  0.00     0.081 A 
ATOM      9  C   UNL     1      19.493  26.141  40.008  1.00  0.00     0.230 A 
ATOM     10  N   UNL     1      19.165  28.774  40.730  1.00  0.00    -0.236 NA
ATOM     11  N   UNL     1      20.526  27.026  39.938  1.00  0.00    -0.201 NA
ATOM     12  C   UNL     1      20.368  28.328  40.290  1.00  0.00     0.226 A 
BRANCH   4  13
ATOM     13  O   UNL     1      14.774  25.365  41.157  1.00  0.00    -0.493 OA
ATOM     14  C   UNL     1      14.258  24.548  40.111  1.00  0.00     0.278 C 
ENDBRANCH   4  13
BRANCH   9  15
ATOM     15  O   UNL     1      19.684  24.795  39.660  1.00  0.00    -0.435 OA
BRANCH  15  16
ATOM     16  C   UNL     1      20.856  24.259  39.108  1.00  0.00     0.165 A 
ATOM     17  C   UNL     1      22.012  24.200  39.913  1.00  0.00     0.175 A 
ATOM     18  C   UNL     1      20.893  23.735  37.786  1.00  0.00     0.052 A 
ATOM     19  F   UNL     1      21.999  24.669  41.185  1.00  0.00    -0.202 F 
ATOM     20  C   UNL     1      23.170  23.652  39.365  1.00  0.00     0.039 A 
ATOM     21  C   UNL     1      22.078  23.185  37.265  1.00  0.00     0.031 A 
ATOM     22  C   UNL     1      23.203  23.163  38.086  1.00  0.00     0.049 A 
ATOM     23  C   UNL     1      24.421  23.463  39.913  1.00  0.00     0.034 A 
ATOM     24  N   UNL     1      24.417  22.669  37.791  1.00  0.00    -0.359 N 
ATOM     25  C   UNL     1      25.166  22.862  38.903  1.00  0.00     0.013 A 
ATOM     26  H   UNL     1      24.716  22.219  36.898  1.00  0.00     0.166 HD
ATOM     27  C   UNL     1      26.578  22.394  39.043  1.00  0.00     0.064 C 
ENDBRANCH  15  16
ENDBRANCH   9  15
ENDBRANCH   2   3
ENDBRANCH   1   2
BRANCH   1  28
ATOM     28  C   UNL     1      12.750  29.471  42.604  1.00  0.00     0.057 C 
BRANCH  28  29
ATOM     29  C   UNL     1      11.783  28.363  42.160  1.00  0.00     0.088 C 
BRANCH  29  30
ATOM     30  N   UNL     1      11.409  28.510  40.738  1.00  0.00    -0.303 NA
ATOM     31  C   UNL     1      11.604  27.274  39.965  1.00  0.00     0.084 C 
ATOM     32  C   UNL     1       9.992  28.847  40.592  1.00  0.00     0.084 C 
ATOM     33  C   UNL     1      10.511  27.219  38.901  1.00  0.00     0.017 C 
ATOM     34  C   UNL     1       9.579  28.376  39.212  1.00  0.00     0.017 C 
ENDBRANCH  29  30
ENDBRANCH  28  29
ENDBRANCH   1  28
TORSDOF 8
ENDMDL
MODEL 2
REMARK VINA RESULT:   -10.316      1.352      2.053
REMARK INTER + INTRA:         -15.926
REMARK INTER:                 -14.995
REMARK INTRA:                  -0.930
REMARK UNBOUND:                -0.786
REMARK SMILES COc1cc2c(Oc3ccc4[nH]c(C)cc4c3F)ncnc2cc1OCCCN1CCCC1
REMARK SMILES IDX 26 1 25 2 24 3 3 4 4 5 5 6 23 7 22 8 6 9 21 10 19 11 20 12
REMARK SMILES IDX 2 13 1 14 7 15 8 16 17 17 9 18 18 19 16 20 10 21 11 22 15 23
REMARK SMILES IDX 12 24 13 25 14 27 27 28 28 29 29 30 30 31 33 32 31 33 32 34
REMARK H PARENT 12 26
REMARK Flexibility Score: inf
ROOT
ATOM      1  C   UNL     1      14.229  29.262  42.303  1.00  0.00     0.231 C 
ENDROOT
BRANCH   1   2
ATOM      2  O   UNL     1      14.499  27.959  41.789  1.00  0.00    -0.490 OA
BRANCH   2   3
ATOM      3  C   UNL     1      15.755  27.519  41.346  1.00  0.00     0.163 A 
ATOM      4  C   UNL     1      15.906  26.160  41.026  1.00  0.00     0.161 A 
ATOM      5  C   UNL     1      17.153  25.682  40.576  1.00  0.00     0.066 A 
ATOM      6  C   UNL     1      18.243  26.556  40.446  1.00  0.00     0.067 A 
ATOM      7  C   UNL     1      16.850  28.394  41.218  1.00  0.00     0.079 A 
ATOM      8  C   UNL     1      18.087  27.919  40.770  1.00  0.00     0.081 A 
ATOM      9  C   UNL     1      19.500  26.123  39.992  1.00  0.00     0.230 A 
ATOM     10  N   UNL     1      19.139  28.770  40.647  1.00  0.00    -0.236 NA
ATOM     11  N   UNL     1      20.521  27.019  39.897  1.00  0.00    -0.201 NA
ATOM     12  C   UNL     1      20.347  28.328  40.216  1.00  0.00     0.226 A 
BRANCH   4  13
ATOM     13  O   UNL     1      14.793  25.317  41.171  1.00  0.00    -0.493 OA
ATOM     14  C   UNL     1      13.975  24.867  40.096  1.00  0.00     0.278 C 
ENDBRANCH   4  13
BRANCH   9  15
ATOM     15  O   UNL     1      19.707  24.771  39.680  1.00  0.00    -0.435 OA
BRANCH  15  16
ATOM     16  C   UNL     1      20.887  24.235  39.145  1.00  0.00     0.165 A 
ATOM     17  C   UNL     1      22.037  24.196  39.959  1.00  0.00     0.175 A 
ATOM     18  C   UNL     1      20.938  23.691  37.832  1.00  0.00     0.052 A 
ATOM     19  F   UNL     1      22.011  24.686  41.224  1.00  0.00    -0.202 F 
ATOM     20  C   UNL     1      23.203  23.648  39.429  1.00  0.00     0.039 A 
ATOM     21  C   UNL     1      22.131  23.141  37.329  1.00  0.00     0.031 A 
ATOM     22  C   UNL     1      23.250  23.140  38.159  1.00  0.00     0.049 A 
ATOM     23  C   UNL     1      24.451  23.477  39.990  1.00  0.00     0.034 A 
ATOM     24  N   UNL     1      24.469  22.650  37.881  1.00  0.00    -0.359 N 
ATOM     25  C   UNL     1      25.208  22.865  38.995  1.00  0.00     0.013 A 
ATOM     26  H   UNL     1      24.779  22.188  36.997  1.00  0.00     0.166 HD
ATOM     27  C   UNL     1      26.623  22.410  39.154  1.00  0.00     0.064 C 
ENDBRANCH  15  16
ENDBRANCH   9  15
ENDBRANCH   2   3
ENDBRANCH   1   2
BRANCH   1  28
ATOM     28  C   UNL     1      12.984  29.227  43.191  1.00  0.00     0.057 C 
BRANCH  28  29
ATOM     29  C   UNL     1      11.866  28.349  42.609  1.00  0.00     0.088 C 
BRANCH  29  30
ATOM     30  N   UNL     1      11.386  27.360  43.595  1.00  0.00    -0.303 NA
ATOM     31  C   UNL     1      11.942  26.016  43.374  1.00  0.00     0.084 C 
ATOM     32  C   UNL     1      11.778  27.731  44.956  1.00  0.00     0.084 C 
ATOM     33  C   UNL     1      12.117  25.360  44.741  1.00  0.00     0.017 C 
ATOM     34  C   UNL     1      11.811  26.445  45.758  1.00  0.00     0.017 C 
ENDBRANCH  29  30
ENDBRANCH  28  29
ENDBRANCH   1  28
TORSDOF 8
ENDMDL
MODEL 3
REMARK VINA RESULT:   -10.120      1.687      2.817
REMARK INTER + INTRA:         -15.638
REMARK INTER:                 -14.845
REMARK INTRA:                  -0.793
REMARK UNBOUND:                -0.786
REMARK SMILES COc1cc2c(Oc3ccc4[nH]c(C)cc4c3F)ncnc2cc1OCCCN1CCCC1
REMARK SMILES IDX 26 1 25 2 24 3 3 4 4 5 5 6 23 7 22 8 6 9 21 10 19 11 20 12
REMARK SMILES IDX 2 13 1 14 7 15 8 16 17 17 9 18 18 19 16 20 10 21 11 22 15 23
REMARK SMILES IDX 12 24 13 25 14 27 27 28 28 29 29 30 30 31 33 32 31 33 32 34
REMARK H PARENT 12 26
REMARK Flexibility Score: inf
ROOT
ATOM      1  C   UNL     1      14.181  29.234  42.340  1.00  0.00     0.231 C 
ENDROOT
BRANCH   1   2
ATOM      2  O   UNL     1      14.443  27.966  41.743  1.00  0.00    -0.490 OA
BRANCH   2   3
ATOM      3  C   UNL     1      15.709  27.521  41.335  1.00  0.00     0.163 A 
ATOM      4  C   UNL     1      15.870  26.158  41.040  1.00  0.00     0.161 A 
ATOM      5  C   UNL     1      17.128  25.675  40.625  1.00  0.00     0.066 A 
ATOM      6  C   UNL     1      18.218  26.550  40.504  1.00  0.00     0.067 A 
ATOM      7  C   UNL     1      16.805  28.397  41.215  1.00  0.00     0.079 A 
ATOM      8  C   UNL     1      18.052  27.918  40.802  1.00  0.00     0.081 A 
ATOM      9  C   UNL     1      19.485  26.113  40.084  1.00  0.00     0.230 A 
ATOM     10  N   UNL     1      19.104  28.769  40.687  1.00  0.00    -0.236 NA
ATOM     11  N   UNL     1      20.506  27.010  39.996  1.00  0.00    -0.201 NA
ATOM     12  C   UNL     1      20.322  28.323  40.289  1.00  0.00     0.226 A 
BRANCH   4  13
ATOM     13  O   UNL     1      14.756  25.314  41.176  1.00  0.00    -0.493 OA
ATOM     14  C   UNL     1      13.912  24.913  40.102  1.00  0.00     0.278 C 
ENDBRANCH   4  13
BRANCH   9  15
ATOM     15  O   UNL     1      19.702  24.756  39.799  1.00  0.00    -0.435 OA
BRANCH  15  16
ATOM     16  C   UNL     1      20.862  24.226  39.216  1.00  0.00     0.165 A 
ATOM     17  C   UNL     1      22.038  24.170  39.991  1.00  0.00     0.175 A 
ATOM     18  C   UNL     1      20.868  23.706  37.892  1.00  0.00     0.052 A 
ATOM     19  F   UNL     1      22.055  24.637  41.264  1.00  0.00    -0.202 F 
ATOM     20  C   UNL     1      23.184  23.629  39.412  1.00  0.00     0.039 A 
ATOM     21  C   UNL     1      22.041  23.162  37.340  1.00  0.00     0.031 A 
ATOM     22  C   UNL     1      23.187  23.143  38.132  1.00  0.00     0.049 A 
ATOM     23  C   UNL     1      24.449  23.444  39.928  1.00  0.00     0.034 A 
ATOM     24  N   UNL     1      24.395  22.655  37.805  1.00  0.00    -0.359 N 
ATOM     25  C   UNL     1      25.171  22.848  38.897  1.00  0.00     0.013 A 
ATOM     26  H   UNL     1      24.673  22.208  36.903  1.00  0.00     0.166 HD
ATOM     27  C   UNL     1      26.589  22.386  39.000  1.00  0.00     0.064 C 
ENDBRANCH  15  16
ENDBRANCH   9  15
ENDBRANCH   2   3
ENDBRANCH   1   2
BRANCH   1  28
ATOM     28  C   UNL     1      12.913  29.159  43.194  1.00  0.00     0.057 C 
BRANCH  28  29
ATOM     29  C   UNL     1      12.088  30.454  43.145  1.00  0.00     0.088 C 
BRANCH  29  30
ATOM     30  N   UNL     1      12.045  31.118  44.464  1.00  0.00    -0.303 NA
ATOM     31  C   UNL     1      12.343  30.201  45.575  1.00  0.00     0.084 C 
ATOM     32  C   UNL     1      13.041  32.186  44.556  1.00  0.00     0.084 C 
ATOM     33  C   UNL     1      13.078  31.001  46.647  1.00  0.00     0.017 C 
ATOM     34  C   UNL     1      13.348  32.361  46.030  1.00  0.00     0.017 C 
ENDBRANCH  29  30
ENDBRANCH  28  29
ENDBRANCH   1  28
TORSDOF 8
ENDMDL
MODEL 4
REMARK VINA RESULT:    -9.978      1.142      1.520
REMARK INTER + INTRA:         -15.430
REMARK INTER:                 -14.382
REMARK INTRA:                  -1.048
REMARK UNBOUND:                -0.786
REMARK SMILES COc1cc2c(Oc3ccc4[nH]c(C)cc4c3F)ncnc2cc1OCCCN1CCCC1
REMARK SMILES IDX 26 1 25 2 24 3 3 4 4 5 5 6 23 7 22 8 6 9 21 10 19 11 20 12
REMARK SMILES IDX 2 13 1 14 7 15 8 16 17 17 9 18 18 19 16 20 10 21 11 22 15 23
REMARK SMILES IDX 12 24 13 25 14 27 27 28 28 29 29 30 30 31 33 32 31 33 32 34
REMARK H PARENT 12 26
REMARK Flexibility Score: inf
ROOT
ATOM      1  C   UNL     1      14.564  29.077  42.192  1.00  0.00     0.231 C 
ENDROOT
BRANCH   1   2
ATOM      2  O   UNL     1      14.871  27.846  41.540  1.00  0.00    -0.490 OA
BRANCH   2   3
ATOM      3  C   UNL     1      16.161  27.434  41.176  1.00  0.00     0.163 A 
ATOM      4  C   UNL     1      16.387  26.064  40.967  1.00  0.00     0.161 A 
ATOM      5  C   UNL     1      17.670  25.614  40.599  1.00  0.00     0.066 A 
ATOM      6  C   UNL     1      18.723  26.528  40.438  1.00  0.00     0.067 A 
ATOM      7  C   UNL     1      17.220  28.349  41.017  1.00  0.00     0.079 A 
ATOM      8  C   UNL     1      18.492  27.902  40.650  1.00  0.00     0.081 A 
ATOM      9  C   UNL     1      20.015  26.123  40.063  1.00  0.00     0.230 A 
ATOM     10  N   UNL     1      19.508  28.791  40.496  1.00  0.00    -0.236 NA
ATOM     11  N   UNL     1      20.997  27.058  39.933  1.00  0.00    -0.201 NA
ATOM     12  C   UNL     1      20.751  28.377  40.142  1.00  0.00     0.226 A 
BRANCH   4  13
ATOM     13  O   UNL     1      15.309  25.182  41.140  1.00  0.00    -0.493 OA
ATOM     14  C   UNL     1      14.547  24.619  40.076  1.00  0.00     0.278 C 
ENDBRANCH   4  13
BRANCH   9  15
ATOM     15  O   UNL     1      20.295  24.763  39.864  1.00  0.00    -0.435 OA
BRANCH  15  16
ATOM     16  C   UNL     1      21.556  24.232  39.556  1.00  0.00     0.165 A 
ATOM     17  C   UNL     1      21.917  24.102  38.200  1.00  0.00     0.175 A 
ATOM     18  C   UNL     1      22.487  23.871  40.569  1.00  0.00     0.052 A 
ATOM     19  F   UNL     1      21.059  24.461  37.214  1.00  0.00    -0.202 F 
ATOM     20  C   UNL     1      23.178  23.588  37.899  1.00  0.00     0.039 A 
ATOM     21  C   UNL     1      23.753  23.360  40.231  1.00  0.00     0.031 A 
ATOM     22  C   UNL     1      24.064  23.228  38.879  1.00  0.00     0.049 A 
ATOM     23  C   UNL     1      23.789  23.362  36.685  1.00  0.00     0.034 A 
ATOM     24  N   UNL     1      25.214  22.783  38.347  1.00  0.00    -0.359 N 
ATOM     25  C   UNL     1      25.044  22.853  37.006  1.00  0.00     0.013 A 
ATOM     26  H   UNL     1      26.065  22.463  38.861  1.00  0.00     0.166 HD
ATOM     27  C   UNL     1      26.111  22.518  36.015  1.00  0.00     0.064 C 
ENDBRANCH  15  16
ENDBRANCH   9  15
ENDBRANCH   2   3
ENDBRANCH   1   2
BRANCH   1  28
ATOM     28  C   UNL     1      13.141  29.515  41.839  1.00  0.00     0.057 C 
BRANCH  28  29
ATOM     29  C   UNL     1      12.185  28.326  41.648  1.00  0.00     0.088 C 
BRANCH  29  30
ATOM     30  N   UNL     1      11.576  28.333  40.302  1.00  0.00    -0.303 NA
ATOM     31  C   UNL     1      11.676  27.033  39.622  1.00  0.00     0.084 C 
ATOM     32  C   UNL     1      10.145  28.636  40.367  1.00  0.00     0.084 C 
ATOM     33  C   UNL     1      10.424  26.864  38.766  1.00  0.00     0.017 C 
ATOM     34  C   UNL     1       9.523  28.033  39.124  1.00  0.00     0.017 C 
ENDBRANCH  29  30
ENDBRANCH  28  29
ENDBRANCH   1  28
TORSDOF 8
ENDMDL
MODEL 5
REMARK VINA RESULT:    -9.624      8.233     12.882
REMARK INTER + INTRA:         -14.911
REMARK INTER:                 -13.828
REMARK INTRA:                  -1.084
REMARK UNBOUND:                -0.786
REMARK SMILES COc1cc2c(Oc3ccc4[nH]c(C)cc4c3F)ncnc2cc1OCCCN1CCCC1
REMARK SMILES IDX 26 1 25 2 24 3 3 4 4 5 5 6 23 7 22 8 6 9 21 10 19 11 20 12
REMARK SMILES IDX 2 13 1 14 7 15 8 16 17 17 9 18 18 19 16 20 10 21 11 22 15 23
REMARK SMILES IDX 12 24 13 25 14 27 27 28 28 29 29 30 30 31 33 32 31 33 32 34
REMARK H PARENT 12 26
REMARK Flexibility Score: inf
ROOT
ATOM      1  C   UNL     1      26.193  23.130  36.822  1.00  0.00     0.231 C 
ENDROOT
BRANCH   1   2
ATOM      2  O   UNL     1      26.021  22.074  35.879  1.00  0.00    -0.490 OA
BRANCH   2   3
ATOM      3  C   UNL     1      26.156  22.213  34.490  1.00  0.00     0.163 A 
ATOM      4  C   UNL     1      26.233  21.048  33.711  1.00  0.00     0.161 A 
ATOM      5  C   UNL     1      26.366  21.149  32.311  1.00  0.00     0.066 A 
ATOM      6  C   UNL     1      26.420  22.408  31.693  1.00  0.00     0.067 A 
ATOM      7  C   UNL     1      26.213  23.475  33.868  1.00  0.00     0.079 A 
ATOM      8  C   UNL     1      26.343  23.575  32.480  1.00  0.00     0.081 A 
ATOM      9  C   UNL     1      26.542  22.554  30.302  1.00  0.00     0.230 A 
ATOM     10  N   UNL     1      26.395  24.796  31.887  1.00  0.00    -0.236 NA
ATOM     11  N   UNL     1      26.599  23.804  29.764  1.00  0.00    -0.201 NA
ATOM     12  C   UNL     1      26.523  24.914  30.542  1.00  0.00     0.226 A 
BRANCH   4  13
ATOM     13  O   UNL     1      26.178  19.808  34.366  1.00  0.00    -0.493 OA
ATOM     14  C   UNL     1      26.384  18.549  33.732  1.00  0.00     0.278 C 
ENDBRANCH   4  13
BRANCH   9  15
ATOM     15  O   UNL     1      26.645  21.420  29.482  1.00  0.00    -0.435 OA
BRANCH  15  16
ATOM     16  C   UNL     1      27.767  20.583  29.394  1.00  0.00     0.165 A 
ATOM     17  C   UNL     1      27.607  19.213  29.684  1.00  0.00     0.175 A 
ATOM     18  C   UNL     1      29.037  21.069  28.977  1.00  0.00     0.052 A 
ATOM     19  F   UNL     1      26.402  18.717  30.060  1.00  0.00    -0.202 F 
ATOM     20  C   UNL     1      28.721  18.382  29.580  1.00  0.00     0.039 A 
ATOM     21  C   UNL     1      30.140  20.203  28.878  1.00  0.00     0.031 A 
ATOM     22  C   UNL     1      29.945  18.860  29.192  1.00  0.00     0.049 A 
ATOM     23  C   UNL     1      28.854  17.027  29.791  1.00  0.00     0.034 A 
ATOM     24  N   UNL     1      30.854  17.872  29.145  1.00  0.00    -0.359 N 
ATOM     25  C   UNL     1      30.192  16.752  29.522  1.00  0.00     0.013 A 
ATOM     26  H   UNL     1      31.857  17.949  28.864  1.00  0.00     0.166 HD
ATOM     27  C   UNL     1      30.809  15.392  29.544  1.00  0.00     0.064 C 
ENDBRANCH  15  16
ENDBRANCH   9  15
ENDBRANCH   2   3
ENDBRANCH   1   2
BRANCH   1  28
ATOM     28  C   UNL     1      25.127  23.033  37.916  1.00  0.00     0.057 C 
BRANCH  28  29
ATOM     29  C   UNL     1      24.365  24.352  38.120  1.00  0.00     0.088 C 
BRANCH  29  30
ATOM     30  N   UNL     1      22.974  24.254  37.631  1.00  0.00    -0.303 NA
ATOM     31  C   UNL     1      22.426  22.893  37.735  1.00  0.00     0.084 C 
ATOM     32  C   UNL     1      22.074  25.103  38.413  1.00  0.00     0.084 C 
ATOM     33  C   UNL     1      20.936  23.019  38.037  1.00  0.00     0.017 C 
ATOM     34  C   UNL     1      20.691  24.498  38.281  1.00  0.00     0.017 C 
ENDBRANCH  29  30
ENDBRANCH  28  29
ENDBRANCH   1  28
TORSDOF 8
ENDMDL
MODEL 6
REMARK VINA RESULT:    -8.754      8.367     15.006
REMARK INTER + INTRA:         -13.634
REMARK INTER:                 -12.462
REMARK INTRA:                  -1.172
REMARK UNBOUND:                -0.786
REMARK SMILES COc1cc2c(Oc3ccc4[nH]c(C)cc4c3F)ncnc2cc1OCCCN1CCCC1
REMARK SMILES IDX 26 1 25 2 24 3 3 4 4 5 5 6 23 7 22 8 6 9 21 10 19 11 20 12
REMARK SMILES IDX 2 13 1 14 7 15 8 16 17 17 9 18 18 19 16 20 10 21 11 22 15 23
REMARK SMILES IDX 12 24 13 25 14 27 27 28 28 29 29 30 30 31 33 32 31 33 32 34
REMARK H PARENT 12 26
REMARK Flexibility Score: inf
ROOT
ATOM      1  C   UNL     1      27.698  18.236  29.506  1.00  0.00     0.231 C 
ENDROOT
BRANCH   1   2
ATOM      2  O   UNL     1      26.816  18.316  30.625  1.00  0.00    -0.490 OA
BRANCH   2   3
ATOM      3  C   UNL     1      26.714  19.419  31.485  1.00  0.00     0.163 A 
ATOM      4  C   UNL     1      26.834  19.196  32.866  1.00  0.00     0.161 A 
ATOM      5  C   UNL     1      26.739  20.280  33.761  1.00  0.00     0.066 A 
ATOM      6  C   UNL     1      26.527  21.581  33.280  1.00  0.00     0.067 A 
ATOM      7  C   UNL     1      26.499  20.724  31.004  1.00  0.00     0.079 A 
ATOM      8  C   UNL     1      26.406  21.799  31.892  1.00  0.00     0.081 A 
ATOM      9  C   UNL     1      26.437  22.691  34.135  1.00  0.00     0.230 A 
ATOM     10  N   UNL     1      26.200  23.057  31.420  1.00  0.00    -0.236 NA
ATOM     11  N   UNL     1      26.220  23.927  33.606  1.00  0.00    -0.201 NA
ATOM     12  C   UNL     1      26.106  24.113  32.266  1.00  0.00     0.226 A 
BRANCH   4  13
ATOM     13  O   UNL     1      27.043  17.880  33.309  1.00  0.00    -0.493 OA
ATOM     14  C   UNL     1      26.060  17.081  33.959  1.00  0.00     0.278 C 
ENDBRANCH   4  13
BRANCH   9  15
ATOM     15  O   UNL     1      26.528  22.517  35.524  1.00  0.00    -0.435 OA
BRANCH  15  16
ATOM     16  C   UNL     1      25.515  22.813  36.447  1.00  0.00     0.165 A 
ATOM     17  C   UNL     1      25.840  22.837  37.818  1.00  0.00     0.175 A 
ATOM     18  C   UNL     1      24.192  23.134  36.033  1.00  0.00     0.052 A 
ATOM     19  F   UNL     1      27.099  22.560  38.239  1.00  0.00    -0.202 F 
ATOM     20  C   UNL     1      24.834  23.147  38.730  1.00  0.00     0.039 A 
ATOM     21  C   UNL     1      23.201  23.447  36.980  1.00  0.00     0.031 A 
ATOM     22  C   UNL     1      23.558  23.441  38.327  1.00  0.00     0.049 A 
ATOM     23  C   UNL     1      24.867  23.250  40.104  1.00  0.00     0.034 A 
ATOM     24  N   UNL     1      22.775  23.727  39.379  1.00  0.00    -0.359 N 
ATOM     25  C   UNL     1      23.569  23.600  40.468  1.00  0.00     0.013 A 
ATOM     26  H   UNL     1      21.767  24.003  39.361  1.00  0.00     0.166 HD
ATOM     27  C   UNL     1      23.121  23.897  41.862  1.00  0.00     0.064 C 
ENDBRANCH  15  16
ENDBRANCH   9  15
ENDBRANCH   2   3
ENDBRANCH   1   2
BRANCH   1  28
ATOM     28  C   UNL     1      29.084  17.777  29.965  1.00  0.00     0.057 C 
BRANCH  28  29
ATOM     29  C   UNL     1      29.320  16.278  29.724  1.00  0.00     0.088 C 
BRANCH  29  30
ATOM     30  N   UNL     1      29.933  15.631  30.902  1.00  0.00    -0.303 NA
ATOM     31  C   UNL     1      31.029  16.421  31.483  1.00  0.00     0.084 C 
ATOM     32  C   UNL     1      28.958  15.454  31.980  1.00  0.00     0.084 C 
ATOM     33  C   UNL     1      31.009  16.195  32.992  1.00  0.00     0.017 C 
ATOM     34  C   UNL     1      29.752  15.390  33.269  1.00  0.00     0.017 C 
ENDBRANCH  29  30
ENDBRANCH  28  29
ENDBRANCH   1  28
TORSDOF 8
ENDMDL
MODEL 7
REMARK VINA RESULT:    -8.716      3.928      6.930
REMARK INTER + INTRA:         -13.579
REMARK INTER:                 -12.617
REMARK INTRA:                  -0.961
REMARK UNBOUND:                -0.786
REMARK SMILES COc1cc2c(Oc3ccc4[nH]c(C)cc4c3F)ncnc2cc1OCCCN1CCCC1
REMARK SMILES IDX 26 1 25 2 24 3 3 4 4 5 5 6 23 7 22 8 6 9 21 10 19 11 20 12
REMARK SMILES IDX 2 13 1 14 7 15 8 16 17 17 9 18 18 19 16 20 10 21 11 22 15 23
REMARK SMILES IDX 12 24 13 25 14 27 27 28 28 29 29 30 30 31 33 32 31 33 32 34
REMARK H PARENT 12 26
REMARK Flexibility Score: inf
ROOT
ATOM      1  C   UNL     1       9.011  23.218  39.050  1.00  0.00     0.231 C 
ENDROOT
BRANCH   1   2
ATOM      2  O   UNL     1       9.973  24.108  38.485  1.00  0.00    -0.490 OA
BRANCH   2   3
ATOM      3  C   UNL     1      10.861  24.900  39.226  1.00  0.00     0.163 A 
ATOM      4  C   UNL     1      12.031  24.301  39.720  1.00  0.00     0.161 A 
ATOM      5  C   UNL     1      12.948  25.068  40.468  1.00  0.00     0.066 A 
ATOM      6  C   UNL     1      12.698  26.425  40.720  1.00  0.00     0.067 A 
ATOM      7  C   UNL     1      10.611  26.262  39.483  1.00  0.00     0.079 A 
ATOM      8  C   UNL     1      11.521  27.022  40.223  1.00  0.00     0.081 A 
ATOM      9  C   UNL     1      13.589  27.227  41.452  1.00  0.00     0.230 A 
ATOM     10  N   UNL     1      11.274  28.336  40.465  1.00  0.00    -0.236 NA
ATOM     11  N   UNL     1      13.284  28.536  41.671  1.00  0.00    -0.201 NA
ATOM     12  C   UNL     1      12.144  29.089  41.182  1.00  0.00     0.226 A 
BRANCH   4  13
ATOM     13  O   UNL     1      12.244  22.941  39.449  1.00  0.00    -0.493 OA
ATOM     14  C   UNL     1      13.523  22.314  39.419  1.00  0.00     0.278 C 
ENDBRANCH   4  13
BRANCH   9  15
ATOM     15  O   UNL     1      14.761  26.669  41.984  1.00  0.00    -0.435 OA
BRANCH  15  16
ATOM     16  C   UNL     1      16.062  26.929  41.529  1.00  0.00     0.165 A 
ATOM     17  C   UNL     1      16.828  25.855  41.036  1.00  0.00     0.175 A 
ATOM     18  C   UNL     1      16.603  28.245  41.508  1.00  0.00     0.052 A 
ATOM     19  F   UNL     1      16.329  24.593  41.020  1.00  0.00    -0.202 F 
ATOM     20  C   UNL     1      18.115  26.120  40.569  1.00  0.00     0.039 A 
ATOM     21  C   UNL     1      17.903  28.479  41.027  1.00  0.00     0.031 A 
ATOM     22  C   UNL     1      18.635  27.387  40.566  1.00  0.00     0.049 A 
ATOM     23  C   UNL     1      19.067  25.280  40.034  1.00  0.00     0.034 A 
ATOM     24  N   UNL     1      19.876  27.396  40.053  1.00  0.00    -0.359 N 
ATOM     25  C   UNL     1      20.147  26.107  39.738  1.00  0.00     0.013 A 
ATOM     26  H   UNL     1      20.496  28.224  39.914  1.00  0.00     0.166 HD
ATOM     27  C   UNL     1      21.407  25.664  39.068  1.00  0.00     0.064 C 
ENDBRANCH  15  16
ENDBRANCH   9  15
ENDBRANCH   2   3
ENDBRANCH   1   2
BRANCH   1  28
ATOM     28  C   UNL     1       8.825  22.003  38.139  1.00  0.00     0.057 C 
BRANCH  28  29
ATOM     29  C   UNL     1      10.142  21.532  37.502  1.00  0.00     0.088 C 
BRANCH  29  30
ATOM     30  N   UNL     1      10.084  21.599  36.027  1.00  0.00    -0.303 NA
ATOM     31  C   UNL     1      11.274  21.028  35.381  1.00  0.00     0.084 C 
ATOM     32  C   UNL     1       8.947  20.839  35.504  1.00  0.00     0.084 C 
ATOM     33  C   UNL     1      10.824  20.385  34.073  1.00  0.00     0.017 C 
ATOM     34  C   UNL     1       9.307  20.452  34.084  1.00  0.00     0.017 C 
ENDBRANCH  29  30
ENDBRANCH  28  29
ENDBRANCH   1  28
TORSDOF 8
ENDMDL
MODEL 8
REMARK VINA RESULT:    -8.636      4.309      8.519
REMARK INTER + INTRA:         -13.461
REMARK INTER:                 -12.246
REMARK INTRA:                  -1.214
REMARK UNBOUND:                -0.786
REMARK SMILES COc1cc2c(Oc3ccc4[nH]c(C)cc4c3F)ncnc2cc1OCCCN1CCCC1
REMARK SMILES IDX 26 1 25 2 24 3 3 4 4 5 5 6 23 7 22 8 6 9 21 10 19 11 20 12
REMARK SMILES IDX 2 13 1 14 7 15 8 16 17 17 9 18 18 19 16 20 10 21 11 22 15 23
REMARK SMILES IDX 12 24 13 25 14 27 27 28 28 29 29 30 30 31 33 32 31 33 32 34
REMARK H PARENT 12 26
REMARK Flexibility Score: inf
ROOT
ATOM      1  C   UNL     1       9.867  20.972  37.099  1.00  0.00     0.231 C 
ENDROOT
BRANCH   1   2
ATOM      2  O   UNL     1       9.723  21.313  38.477  1.00  0.00    -0.490 OA
BRANCH   2   3
ATOM      3  C   UNL     1      10.277  22.452  39.081  1.00  0.00     0.163 A 
ATOM      4  C   UNL     1      11.438  22.294  39.854  1.00  0.00     0.161 A 
ATOM      5  C   UNL     1      12.023  23.416  40.475  1.00  0.00     0.066 A 
ATOM      6  C   UNL     1      11.453  24.689  40.322  1.00  0.00     0.067 A 
ATOM      7  C   UNL     1       9.704  23.730  38.930  1.00  0.00     0.079 A 
ATOM      8  C   UNL     1      10.286  24.842  39.545  1.00  0.00     0.081 A 
ATOM      9  C   UNL     1      12.009  25.835  40.914  1.00  0.00     0.230 A 
ATOM     10  N   UNL     1       9.730  26.072  39.394  1.00  0.00    -0.236 NA
ATOM     11  N   UNL     1      11.402  27.041  40.736  1.00  0.00    -0.201 NA
ATOM     12  C   UNL     1      10.279  27.164  39.983  1.00  0.00     0.226 A 
BRANCH   4  13
ATOM     13  O   UNL     1      11.976  21.005  39.985  1.00  0.00    -0.493 OA
ATOM     14  C   UNL     1      11.472  20.004  40.864  1.00  0.00     0.278 C 
ENDBRANCH   4  13
BRANCH   9  15
ATOM     15  O   UNL     1      13.156  25.726  41.714  1.00  0.00    -0.435 OA
BRANCH  15  16
ATOM     16  C   UNL     1      14.293  26.541  41.616  1.00  0.00     0.165 A 
ATOM     17  C   UNL     1      15.455  26.005  41.026  1.00  0.00     0.175 A 
ATOM     18  C   UNL     1      14.287  27.896  42.049  1.00  0.00     0.052 A 
ATOM     19  F   UNL     1      15.482  24.723  40.581  1.00  0.00    -0.202 F 
ATOM     20  C   UNL     1      16.578  26.823  40.916  1.00  0.00     0.039 A 
ATOM     21  C   UNL     1      15.436  28.696  41.920  1.00  0.00     0.031 A 
ATOM     22  C   UNL     1      16.570  28.122  41.349  1.00  0.00     0.049 A 
ATOM     23  C   UNL     1      17.825  26.571  40.385  1.00  0.00     0.034 A 
ATOM     24  N   UNL     1      17.754  28.713  41.119  1.00  0.00    -0.359 N 
ATOM     25  C   UNL     1      18.526  27.763  40.540  1.00  0.00     0.013 A 
ATOM     26  H   UNL     1      18.018  29.701  41.330  1.00  0.00     0.166 HD
ATOM     27  C   UNL     1      19.915  28.010  40.049  1.00  0.00     0.064 C 
ENDBRANCH  15  16
ENDBRANCH   9  15
ENDBRANCH   2   3
ENDBRANCH   1   2
BRANCH   1  28
ATOM     28  C   UNL     1      10.534  19.602  36.966  1.00  0.00     0.057 C 
BRANCH  28  29
ATOM     29  C   UNL     1      11.294  19.439  35.640  1.00  0.00     0.088 C 
BRANCH  29  30
ATOM     30  N   UNL     1      12.733  19.729  35.801  1.00  0.00    -0.303 NA
ATOM     31  C   UNL     1      13.037  21.166  35.742  1.00  0.00     0.084 C 
ATOM     32  C   UNL     1      13.225  19.274  37.103  1.00  0.00     0.084 C 
ATOM     33  C   UNL     1      14.207  21.428  36.686  1.00  0.00     0.017 C 
ATOM     34  C   UNL     1      14.441  20.121  37.421  1.00  0.00     0.017 C 
ENDBRANCH  29  30
ENDBRANCH  28  29
ENDBRANCH   1  28
TORSDOF 8
ENDMDL
MODEL 9
REMARK VINA RESULT:    -8.629      2.649      5.831
REMARK INTER + INTRA:         -13.450
REMARK INTER:                 -12.042
REMARK INTRA:                  -1.408
REMARK UNBOUND:                -0.786
REMARK SMILES COc1cc2c(Oc3ccc4[nH]c(C)cc4c3F)ncnc2cc1OCCCN1CCCC1
REMARK SMILES IDX 26 1 25 2 24 3 3 4 4 5 5 6 23 7 22 8 6 9 21 10 19 11 20 12
REMARK SMILES IDX 2 13 1 14 7 15 8 16 17 17 9 18 18 19 16 20 10 21 11 22 15 23
REMARK SMILES IDX 12 24 13 25 14 27 27 28 28 29 29 30 30 31 33 32 31 33 32 34
REMARK H PARENT 12 26
REMARK Flexibility Score: inf
ROOT
ATOM      1  C   UNL     1       9.888  31.810  41.055  1.00  0.00     0.231 C 
ENDROOT
BRANCH   1   2
ATOM      2  O   UNL     1      10.000  30.612  41.821  1.00  0.00    -0.490 OA
BRANCH   2   3
ATOM      3  C   UNL     1      10.980  29.627  41.627  1.00  0.00     0.163 A 
ATOM      4  C   UNL     1      12.118  29.653  42.449  1.00  0.00     0.161 A 
ATOM      5  C   UNL     1      13.123  28.679  42.284  1.00  0.00     0.066 A 
ATOM      6  C   UNL     1      12.991  27.682  41.304  1.00  0.00     0.067 A 
ATOM      7  C   UNL     1      10.850  28.629  40.643  1.00  0.00     0.079 A 
ATOM      8  C   UNL     1      11.847  27.661  40.481  1.00  0.00     0.081 A 
ATOM      9  C   UNL     1      13.963  26.687  41.113  1.00  0.00     0.230 A 
ATOM     10  N   UNL     1      11.714  26.699  39.531  1.00  0.00    -0.236 NA
ATOM     11  N   UNL     1      13.780  25.753  40.138  1.00  0.00    -0.201 NA
ATOM     12  C   UNL     1      12.670  25.753  39.357  1.00  0.00     0.226 A 
BRANCH   4  13
ATOM     13  O   UNL     1      12.215  30.667  43.415  1.00  0.00    -0.493 OA
ATOM     14  C   UNL     1      12.547  30.449  44.783  1.00  0.00     0.278 C 
ENDBRANCH   4  13
BRANCH   9  15
ATOM     15  O   UNL     1      15.128  26.683  41.895  1.00  0.00    -0.435 OA
BRANCH  15  16
ATOM     16  C   UNL     1      16.428  26.893  41.412  1.00  0.00     0.165 A 
ATOM     17  C   UNL     1      17.174  25.776  40.984  1.00  0.00     0.175 A 
ATOM     18  C   UNL     1      16.988  28.196  41.301  1.00  0.00     0.052 A 
ATOM     19  F   UNL     1      16.656  24.525  41.055  1.00  0.00    -0.202 F 
ATOM     20  C   UNL     1      18.459  25.991  40.491  1.00  0.00     0.039 A 
ATOM     21  C   UNL     1      18.286  28.378  40.794  1.00  0.00     0.031 A 
ATOM     22  C   UNL     1      18.998  27.247  40.400  1.00  0.00     0.049 A 
ATOM     23  C   UNL     1      19.395  25.103  40.004  1.00  0.00     0.034 A 
ATOM     24  N   UNL     1      20.234  27.203  39.877  1.00  0.00    -0.359 N 
ATOM     25  C   UNL     1      20.483  25.893  39.645  1.00  0.00     0.013 A 
ATOM     26  H   UNL     1      20.865  28.011  39.679  1.00  0.00     0.166 HD
ATOM     27  C   UNL     1      21.731  25.388  38.995  1.00  0.00     0.064 C 
ENDBRANCH  15  16
ENDBRANCH   9  15
ENDBRANCH   2   3
ENDBRANCH   1   2
BRANCH   1  28
ATOM     28  C   UNL     1       8.418  32.100  40.748  1.00  0.00     0.057 C 
BRANCH  28  29
ATOM     29  C   UNL     1       8.186  32.501  39.283  1.00  0.00     0.088 C 
BRANCH  29  30
ATOM     30  N   UNL     1       7.592  31.393  38.507  1.00  0.00    -0.303 NA
ATOM     31  C   UNL     1       8.602  30.534  37.870  1.00  0.00     0.084 C 
ATOM     32  C   UNL     1       6.802  30.506  39.363  1.00  0.00     0.084 C 
ATOM     33  C   UNL     1       8.053  29.110  37.858  1.00  0.00     0.017 C 
ATOM     34  C   UNL     1       6.773  29.157  38.673  1.00  0.00     0.017 C 
ENDBRANCH  29  30
ENDBRANCH  28  29
ENDBRANCH   1  28
TORSDOF 8
ENDMDL
MODEL 10
REMARK VINA RESULT:    -8.540      2.328      5.093
REMARK INTER + INTRA:         -13.320
REMARK INTER:                 -12.039
REMARK INTRA:                  -1.280
REMARK UNBOUND:                -0.786
REMARK SMILES COc1cc2c(Oc3ccc4[nH]c(C)cc4c3F)ncnc2cc1OCCCN1CCCC1
REMARK SMILES IDX 26 1 25 2 24 3 3 4 4 5 5 6 23 7 22 8 6 9 21 10 19 11 20 12
REMARK SMILES IDX 2 13 1 14 7 15 8 16 17 17 9 18 18 19 16 20 10 21 11 22 15 23
REMARK SMILES IDX 12 24 13 25 14 27 27 28 28 29 29 30 30 31 33 32 31 33 32 34
REMARK H PARENT 12 26
REMARK Flexibility Score: inf
ROOT
ATOM      1  C   UNL     1       9.358  29.400  42.640  1.00  0.00     0.231 C 
ENDROOT
BRANCH   1   2
ATOM      2  O   UNL     1      10.367  29.635  41.660  1.00  0.00    -0.490 OA
BRANCH   2   3
ATOM      3  C   UNL     1      11.485  28.813  41.451  1.00  0.00     0.163 A 
ATOM      4  C   UNL     1      12.634  29.047  42.223  1.00  0.00     0.161 A 
ATOM      5  C   UNL     1      13.775  28.240  42.042  1.00  0.00     0.066 A 
ATOM      6  C   UNL     1      13.768  27.203  41.096  1.00  0.00     0.067 A 
ATOM      7  C   UNL     1      11.480  27.774  40.501  1.00  0.00     0.079 A 
ATOM      8  C   UNL     1      12.612  26.973  40.323  1.00  0.00     0.081 A 
ATOM      9  C   UNL     1      14.879  26.370  40.891  1.00  0.00     0.230 A 
ATOM     10  N   UNL     1      12.600  25.971  39.405  1.00  0.00    -0.236 NA
ATOM     11  N   UNL     1      14.813  25.387  39.950  1.00  0.00    -0.201 NA
ATOM     12  C   UNL     1      13.688  25.184  39.217  1.00  0.00     0.226 A 
BRANCH   4  13
ATOM     13  O   UNL     1      12.603  30.095  43.157  1.00  0.00    -0.493 OA
ATOM     14  C   UNL     1      13.053  29.989  44.504  1.00  0.00     0.278 C 
ENDBRANCH   4  13
BRANCH   9  15
ATOM     15  O   UNL     1      16.059  26.578  41.622  1.00  0.00    -0.435 OA
BRANCH  15  16
ATOM     16  C   UNL     1      17.343  26.696  41.072  1.00  0.00     0.165 A 
ATOM     17  C   UNL     1      18.055  25.518  40.769  1.00  0.00     0.175 A 
ATOM     18  C   UNL     1      17.919  27.961  40.771  1.00  0.00     0.052 A 
ATOM     19  F   UNL     1      17.521  24.297  41.022  1.00  0.00    -0.202 F 
ATOM     20  C   UNL     1      19.325  25.640  40.208  1.00  0.00     0.039 A 
ATOM     21  C   UNL     1      19.201  28.049  40.201  1.00  0.00     0.031 A 
ATOM     22  C   UNL     1      19.880  26.862  39.935  1.00  0.00     0.049 A 
ATOM     23  C   UNL     1      20.227  24.677  39.810  1.00  0.00     0.034 A 
ATOM     24  N   UNL     1      21.095  26.724  39.380  1.00  0.00    -0.359 N 
ATOM     25  C   UNL     1      21.314  25.390  39.313  1.00  0.00     0.013 A 
ATOM     26  H   UNL     1      21.731  27.487  39.056  1.00  0.00     0.166 HD
ATOM     27  C   UNL     1      22.529  24.779  38.693  1.00  0.00     0.064 C 
ENDBRANCH  15  16
ENDBRANCH   9  15
ENDBRANCH   2   3
ENDBRANCH   1   2
BRANCH   1  28
ATOM     28  C   UNL     1       8.019  29.962  42.156  1.00  0.00     0.057 C 
BRANCH  28  29
ATOM     29  C   UNL     1       7.347  29.067  41.103  1.00  0.00     0.088 C 
BRANCH  29  30
ATOM     30  N   UNL     1       7.326  29.715  39.776  1.00  0.00    -0.303 NA
ATOM     31  C   UNL     1       7.766  31.117  39.818  1.00  0.00     0.084 C 
ATOM     32  C   UNL     1       8.233  29.044  38.842  1.00  0.00     0.084 C 
ATOM     33  C   UNL     1       8.493  31.411  38.508  1.00  0.00     0.017 C 
ATOM     34  C   UNL     1       8.611  30.074  37.797  1.00  0.00     0.017 C 
ENDBRANCH  29  30
ENDBRANCH  28  29
ENDBRANCH   1  28
TORSDOF 8
ENDMDL
MODEL 11
REMARK VINA RESULT:    -8.439      2.426      5.142
REMARK INTER + INTRA:         -13.172
REMARK INTER:                 -11.330
REMARK INTRA:                  -1.842
REMARK UNBOUND:                -0.786
REMARK SMILES COc1cc2c(Oc3ccc4[nH]c(C)cc4c3F)ncnc2cc1OCCCN1CCCC1
REMARK SMILES IDX 26 1 25 2 24 3 3 4 4 5 5 6 23 7 22 8 6 9 21 10 19 11 20 12
REMARK SMILES IDX 2 13 1 14 7 15 8 16 17 17 9 18 18 19 16 20 10 21 11 22 15 23
REMARK SMILES IDX 12 24 13 25 14 27 27 28 28 29 29 30 30 31 33 32 31 33 32 34
REMARK H PARENT 12 26
REMARK Flexibility Score: inf
ROOT
ATOM      1  C   UNL     1       9.372  29.512  42.348  1.00  0.00     0.231 C 
ENDROOT
BRANCH   1   2
ATOM      2  O   UNL     1      10.406  29.675  41.379  1.00  0.00    -0.490 OA
BRANCH   2   3
ATOM      3  C   UNL     1      11.503  28.813  41.229  1.00  0.00     0.163 A 
ATOM      4  C   UNL     1      12.642  29.045  42.016  1.00  0.00     0.161 A 
ATOM      5  C   UNL     1      13.762  28.198  41.893  1.00  0.00     0.066 A 
ATOM      6  C   UNL     1      13.744  27.125  40.989  1.00  0.00     0.067 A 
ATOM      7  C   UNL     1      11.488  27.738  40.320  1.00  0.00     0.079 A 
ATOM      8  C   UNL     1      12.598  26.898  40.200  1.00  0.00     0.081 A 
ATOM      9  C   UNL     1      14.834  26.252  40.842  1.00  0.00     0.230 A 
ATOM     10  N   UNL     1      12.576  25.861  39.322  1.00  0.00    -0.236 NA
ATOM     11  N   UNL     1      14.758  25.235  39.940  1.00  0.00    -0.201 NA
ATOM     12  C   UNL     1      13.644  25.035  39.190  1.00  0.00     0.226 A 
BRANCH   4  13
ATOM     13  O   UNL     1      12.622  30.129  42.907  1.00  0.00    -0.493 OA
ATOM     14  C   UNL     1      13.019  30.060  44.273  1.00  0.00     0.278 C 
ENDBRANCH   4  13
BRANCH   9  15
ATOM     15  O   UNL     1      16.003  26.455  41.591  1.00  0.00    -0.435 OA
BRANCH  15  16
ATOM     16  C   UNL     1      17.291  26.607  41.058  1.00  0.00     0.165 A 
ATOM     17  C   UNL     1      18.018  25.450  40.716  1.00  0.00     0.175 A 
ATOM     18  C   UNL     1      17.856  27.890  40.812  1.00  0.00     0.052 A 
ATOM     19  F   UNL     1      17.494  24.214  40.916  1.00  0.00    -0.202 F 
ATOM     20  C   UNL     1      19.291  25.606  40.172  1.00  0.00     0.039 A 
ATOM     21  C   UNL     1      19.142  28.012  40.257  1.00  0.00     0.031 A 
ATOM     22  C   UNL     1      19.835  26.844  39.951  1.00  0.00     0.049 A 
ATOM     23  C   UNL     1      20.207  24.669  39.745  1.00  0.00     0.034 A 
ATOM     24  N   UNL     1      21.057  26.741  39.402  1.00  0.00    -0.359 N 
ATOM     25  C   UNL     1      21.291  25.412  39.286  1.00  0.00     0.013 A 
ATOM     26  H   UNL     1      21.688  27.521  39.114  1.00  0.00     0.166 HD
ATOM     27  C   UNL     1      22.517  24.838  38.654  1.00  0.00     0.064 C 
ENDBRANCH  15  16
ENDBRANCH   9  15
ENDBRANCH   2   3
ENDBRANCH   1   2
BRANCH   1  28
ATOM     28  C   UNL     1       9.064  28.026  42.540  1.00  0.00     0.057 C 
BRANCH  28  29
ATOM     29  C   UNL     1       9.177  27.582  44.007  1.00  0.00     0.088 C 
BRANCH  29  30
ATOM     30  N   UNL     1       9.964  26.339  44.137  1.00  0.00    -0.303 NA
ATOM     31  C   UNL     1       9.912  25.501  42.931  1.00  0.00     0.084 C 
ATOM     32  C   UNL     1      11.383  26.628  44.357  1.00  0.00     0.084 C 
ATOM     33  C   UNL     1      11.263  24.803  42.796  1.00  0.00     0.017 C 
ATOM     34  C   UNL     1      12.148  25.415  43.868  1.00  0.00     0.017 C 
ENDBRANCH  29  30
ENDBRANCH  28  29
ENDBRANCH   1  28
TORSDOF 8
ENDMDL
MODEL 12
REMARK VINA RESULT:    -8.429      3.080     11.334
REMARK INTER + INTRA:         -13.157
REMARK INTER:                 -12.426
REMARK INTRA:                  -0.731
REMARK UNBOUND:                -0.786
REMARK SMILES COc1cc2c(Oc3ccc4[nH]c(C)cc4c3F)ncnc2cc1OCCCN1CCCC1
REMARK SMILES IDX 26 1 25 2 24 3 3 4 4 5 5 6 23 7 22 8 6 9 21 10 19 11 20 12
REMARK SMILES IDX 2 13 1 14 7 15 8 16 17 17 9 18 18 19 16 20 10 21 11 22 15 23
REMARK SMILES IDX 12 24 13 25 14 27 27 28 28 29 29 30 30 31 33 32 31 33 32 34
REMARK H PARENT 12 26
REMARK Flexibility Score: inf
ROOT
ATOM      1  C   UNL     1      19.945  25.256  39.138  1.00  0.00     0.231 C 
ENDROOT
BRANCH   1   2
ATOM      2  O   UNL     1      19.570  25.777  40.412  1.00  0.00    -0.490 OA
BRANCH   2   3
ATOM      3  C   UNL     1      18.300  26.284  40.725  1.00  0.00     0.163 A 
ATOM      4  C   UNL     1      18.200  27.630  41.112  1.00  0.00     0.161 A 
ATOM      5  C   UNL     1      16.940  28.174  41.432  1.00  0.00     0.066 A 
ATOM      6  C   UNL     1      15.786  27.379  41.366  1.00  0.00     0.067 A 
ATOM      7  C   UNL     1      17.141  25.486  40.661  1.00  0.00     0.079 A 
ATOM      8  C   UNL     1      15.892  26.028  40.978  1.00  0.00     0.081 A 
ATOM      9  C   UNL     1      14.511  27.884  41.667  1.00  0.00     0.230 A 
ATOM     10  N   UNL     1      14.778  25.253  40.912  1.00  0.00    -0.236 NA
ATOM     11  N   UNL     1      13.430  27.057  41.593  1.00  0.00    -0.201 NA
ATOM     12  C   UNL     1      13.556  25.759  41.217  1.00  0.00     0.226 A 
BRANCH   4  13
ATOM     13  O   UNL     1      19.377  28.392  41.169  1.00  0.00    -0.493 OA
ATOM     14  C   UNL     1      20.196  28.699  40.044  1.00  0.00     0.278 C 
ENDBRANCH   4  13
BRANCH   9  15
ATOM     15  O   UNL     1      14.362  29.216  42.079  1.00  0.00    -0.435 OA
BRANCH  15  16
ATOM     16  C   UNL     1      13.444  29.670  43.038  1.00  0.00     0.165 A 
ATOM     17  C   UNL     1      12.209  30.184  42.595  1.00  0.00     0.175 A 
ATOM     18  C   UNL     1      13.708  29.581  44.433  1.00  0.00     0.052 A 
ATOM     19  F   UNL     1      11.920  30.258  41.272  1.00  0.00    -0.202 F 
ATOM     20  C   UNL     1      11.294  30.620  43.551  1.00  0.00     0.039 A 
ATOM     21  C   UNL     1      12.761  30.026  45.372  1.00  0.00     0.031 A 
ATOM     22  C   UNL     1      11.560  30.545  44.893  1.00  0.00     0.049 A 
ATOM     23  C   UNL     1      10.029  31.150  43.409  1.00  0.00     0.034 A 
ATOM     24  N   UNL     1      10.524  31.002  45.615  1.00  0.00    -0.359 N 
ATOM     25  C   UNL     1       9.592  31.383  44.710  1.00  0.00     0.013 A 
ATOM     26  H   UNL     1      10.448  31.043  46.655  1.00  0.00     0.166 HD
ATOM     27  C   UNL     1       8.237  31.894  45.079  1.00  0.00     0.064 C 
ENDBRANCH  15  16
ENDBRANCH   9  15
ENDBRANCH   2   3
ENDBRANCH   1   2
BRANCH   1  28
ATOM     28  C   UNL     1      20.591  23.880  39.305  1.00  0.00     0.057 C 
BRANCH  28  29
ATOM     29  C   UNL     1      21.146  23.321  37.985  1.00  0.00     0.088 C 
BRANCH  29  30
ATOM     30  N   UNL     1      22.522  22.810  38.149  1.00  0.00    -0.303 NA
ATOM     31  C   UNL     1      23.467  23.392  37.185  1.00  0.00     0.084 C 
ATOM     32  C   UNL     1      23.057  23.137  39.473  1.00  0.00     0.084 C 
ATOM     33  C   UNL     1      24.819  23.515  37.882  1.00  0.00     0.017 C 
ATOM     34  C   UNL     1      24.566  23.150  39.334  1.00  0.00     0.017 C 
ENDBRANCH  29  30
ENDBRANCH  28  29
ENDBRANCH   1  28
TORSDOF 8
ENDMDL
MODEL 13
REMARK VINA RESULT:    -8.404      8.388     15.262
REMARK INTER + INTRA:         -13.121
REMARK INTER:                 -12.533
REMARK INTRA:                  -0.588
REMARK UNBOUND:                -0.786
REMARK SMILES COc1cc2c(Oc3ccc4[nH]c(C)cc4c3F)ncnc2cc1OCCCN1CCCC1
REMARK SMILES IDX 26 1 25 2 24 3 3 4 4 5 5 6 23 7 22 8 6 9 21 10 19 11 20 12
REMARK SMILES IDX 2 13 1 14 7 15 8 16 17 17 9 18 18 19 16 20 10 21 11 22 15 23
REMARK SMILES IDX 12 24 13 25 14 27 27 28 28 29 29 30 30 31 33 32 31 33 32 34
REMARK H PARENT 12 26
REMARK Flexibility Score: inf
ROOT
ATOM      1  C   UNL     1      28.829  21.296  28.389  1.00  0.00     0.231 C 
ENDROOT
BRANCH   1   2
ATOM      2  O   UNL     1      28.237  22.336  29.166  1.00  0.00    -0.490 OA
BRANCH   2   3
ATOM      3  C   UNL     1      27.647  22.155  30.425  1.00  0.00     0.163 A 
ATOM      4  C   UNL     1      27.119  23.281  31.078  1.00  0.00     0.161 A 
ATOM      5  C   UNL     1      26.516  23.137  32.344  1.00  0.00     0.066 A 
ATOM      6  C   UNL     1      26.440  21.876  32.954  1.00  0.00     0.067 A 
ATOM      7  C   UNL     1      27.571  20.891  31.040  1.00  0.00     0.079 A 
ATOM      8  C   UNL     1      26.972  20.749  32.295  1.00  0.00     0.081 A 
ATOM      9  C   UNL     1      25.839  21.686  34.210  1.00  0.00     0.230 A 
ATOM     10  N   UNL     1      26.901  19.525  32.881  1.00  0.00    -0.236 NA
ATOM     11  N   UNL     1      25.805  20.438  34.753  1.00  0.00    -0.201 NA
ATOM     12  C   UNL     1      26.325  19.367  34.099  1.00  0.00     0.226 A 
BRANCH   4  13
ATOM     13  O   UNL     1      27.217  24.525  30.437  1.00  0.00    -0.493 OA
ATOM     14  C   UNL     1      27.383  25.770  31.109  1.00  0.00     0.278 C 
ENDBRANCH   4  13
BRANCH   9  15
ATOM     15  O   UNL     1      25.317  22.783  34.911  1.00  0.00    -0.435 OA
BRANCH  15  16
ATOM     16  C   UNL     1      25.338  22.938  36.305  1.00  0.00     0.165 A 
ATOM     17  C   UNL     1      24.128  23.228  36.967  1.00  0.00     0.175 A 
ATOM     18  C   UNL     1      26.529  22.764  37.063  1.00  0.00     0.052 A 
ATOM     19  F   UNL     1      22.972  23.375  36.272  1.00  0.00    -0.202 F 
ATOM     20  C   UNL     1      24.151  23.365  38.354  1.00  0.00     0.039 A 
ATOM     21  C   UNL     1      26.516  22.905  38.462  1.00  0.00     0.031 A 
ATOM     22  C   UNL     1      25.304  23.211  39.076  1.00  0.00     0.049 A 
ATOM     23  C   UNL     1      23.136  23.635  39.246  1.00  0.00     0.034 A 
ATOM     24  N   UNL     1      25.073  23.369  40.390  1.00  0.00    -0.359 N 
ATOM     25  C   UNL     1      23.750  23.639  40.495  1.00  0.00     0.013 A 
ATOM     26  H   UNL     1      25.765  23.287  41.167  1.00  0.00     0.166 HD
ATOM     27  C   UNL     1      23.041  23.819  41.798  1.00  0.00     0.064 C 
ENDBRANCH  15  16
ENDBRANCH   9  15
ENDBRANCH   2   3
ENDBRANCH   1   2
BRANCH   1  28
ATOM     28  C   UNL     1      29.990  20.665  29.159  1.00  0.00     0.057 C 
BRANCH  28  29
ATOM     29  C   UNL     1      30.599  19.458  28.428  1.00  0.00     0.088 C 
BRANCH  29  30
ATOM     30  N   UNL     1      30.157  18.182  29.029  1.00  0.00    -0.303 NA
ATOM     31  C   UNL     1      31.172  17.123  28.932  1.00  0.00     0.084 C 
ATOM     32  C   UNL     1      29.880  18.335  30.458  1.00  0.00     0.084 C 
ATOM     33  C   UNL     1      31.050  16.253  30.180  1.00  0.00     0.017 C 
ATOM     34  C   UNL     1      30.051  16.962  31.076  1.00  0.00     0.017 C 
ENDBRANCH  29  30
ENDBRANCH  28  29
ENDBRANCH   1  28
TORSDOF 8
ENDMDL
MODEL 14
REMARK VINA RESULT:    -8.388      2.360      5.017
REMARK INTER + INTRA:         -13.097
REMARK INTER:                 -12.225
REMARK INTRA:                  -0.872
REMARK UNBOUND:                -0.786
REMARK SMILES COc1cc2c(Oc3ccc4[nH]c(C)cc4c3F)ncnc2cc1OCCCN1CCCC1
REMARK SMILES IDX 26 1 25 2 24 3 3 4 4 5 5 6 23 7 22 8 6 9 21 10 19 11 20 12
REMARK SMILES IDX 2 13 1 14 7 15 8 16 17 17 9 18 18 19 16 20 10 21 11 22 15 23
REMARK SMILES IDX 12 24 13 25 14 27 27 28 28 29 29 30 30 31 33 32 31 33 32 34
REMARK H PARENT 12 26
REMARK Flexibility Score: inf
ROOT
ATOM      1  C   UNL     1       8.586  25.962  40.449  1.00  0.00     0.231 C 
ENDROOT
BRANCH   1   2
ATOM      2  O   UNL     1       9.717  26.275  39.638  1.00  0.00    -0.490 OA
BRANCH   2   3
ATOM      3  C   UNL     1      10.991  26.593  40.131  1.00  0.00     0.163 A 
ATOM      4  C   UNL     1      11.976  25.592  40.116  1.00  0.00     0.161 A 
ATOM      5  C   UNL     1      13.269  25.876  40.602  1.00  0.00     0.066 A 
ATOM      6  C   UNL     1      13.576  27.152  41.099  1.00  0.00     0.067 A 
ATOM      7  C   UNL     1      11.301  27.872  40.632  1.00  0.00     0.079 A 
ATOM      8  C   UNL     1      12.583  28.152  41.112  1.00  0.00     0.081 A 
ATOM      9  C   UNL     1      14.853  27.479  41.583  1.00  0.00     0.230 A 
ATOM     10  N   UNL     1      12.875  29.389  41.593  1.00  0.00    -0.236 NA
ATOM     11  N   UNL     1      15.085  28.733  42.061  1.00  0.00    -0.201 NA
ATOM     12  C   UNL     1      14.113  29.681  42.064  1.00  0.00     0.226 A 
BRANCH   4  13
ATOM     13  O   UNL     1      11.630  24.328  39.614  1.00  0.00    -0.493 OA
ATOM     14  C   UNL     1      12.433  23.160  39.745  1.00  0.00     0.278 C 
ENDBRANCH   4  13
BRANCH   9  15
ATOM     15  O   UNL     1      15.865  26.507  41.609  1.00  0.00    -0.435 OA
BRANCH  15  16
ATOM     16  C   UNL     1      17.160  26.672  41.096  1.00  0.00     0.165 A 
ATOM     17  C   UNL     1      17.903  25.522  40.765  1.00  0.00     0.175 A 
ATOM     18  C   UNL     1      17.717  27.960  40.860  1.00  0.00     0.052 A 
ATOM     19  F   UNL     1      17.388  24.282  40.956  1.00  0.00    -0.202 F 
ATOM     20  C   UNL     1      19.183  25.690  40.241  1.00  0.00     0.039 A 
ATOM     21  C   UNL     1      19.010  28.095  40.326  1.00  0.00     0.031 A 
ATOM     22  C   UNL     1      19.720  26.933  40.030  1.00  0.00     0.049 A 
ATOM     23  C   UNL     1      20.115  24.762  39.829  1.00  0.00     0.034 A 
ATOM     24  N   UNL     1      20.950  26.841  39.501  1.00  0.00    -0.359 N 
ATOM     25  C   UNL     1      21.199  25.515  39.388  1.00  0.00     0.013 A 
ATOM     26  H   UNL     1      21.579  27.628  39.223  1.00  0.00     0.166 HD
ATOM     27  C   UNL     1      22.440  24.953  38.775  1.00  0.00     0.064 C 
ENDBRANCH  15  16
ENDBRANCH   9  15
ENDBRANCH   2   3
ENDBRANCH   1   2
BRANCH   1  28
ATOM     28  C   UNL     1       7.473  26.985  40.213  1.00  0.00     0.057 C 
BRANCH  28  29
ATOM     29  C   UNL     1       7.743  28.326  40.915  1.00  0.00     0.088 C 
BRANCH  29  30
ATOM     30  N   UNL     1       7.489  29.468  40.013  1.00  0.00    -0.303 NA
ATOM     31  C   UNL     1       8.684  30.296  39.789  1.00  0.00     0.084 C 
ATOM     32  C   UNL     1       7.067  29.017  38.686  1.00  0.00     0.084 C 
ATOM     33  C   UNL     1       8.614  30.828  38.360  1.00  0.00     0.017 C 
ATOM     34  C   UNL     1       7.430  30.126  37.720  1.00  0.00     0.017 C 
ENDBRANCH  29  30
ENDBRANCH  28  29
ENDBRANCH   1  28
TORSDOF 8
ENDMDL
MODEL 15
REMARK VINA RESULT:    -8.115      3.003      5.680
REMARK INTER + INTRA:         -12.695
REMARK INTER:                 -11.627
REMARK INTRA:                  -1.069
REMARK UNBOUND:                -0.786
REMARK SMILES COc1cc2c(Oc3ccc4[nH]c(C)cc4c3F)ncnc2cc1OCCCN1CCCC1
REMARK SMILES IDX 26 1 25 2 24 3 3 4 4 5 5 6 23 7 22 8 6 9 21 10 19 11 20 12
REMARK SMILES IDX 2 13 1 14 7 15 8 16 17 17 9 18 18 19 16 20 10 21 11 22 15 23
REMARK SMILES IDX 12 24 13 25 14 27 27 28 28 29 29 30 30 31 33 32 31 33 32 34
REMARK H PARENT 12 26
REMARK Flexibility Score: inf
ROOT
ATOM      1  C   UNL     1       9.680  30.498  40.494  1.00  0.00     0.231 C 
ENDROOT
BRANCH   1   2
ATOM      2  O   UNL     1      10.448  29.934  41.556  1.00  0.00    -0.490 OA
BRANCH   2   3
ATOM      3  C   UNL     1      11.513  29.037  41.384  1.00  0.00     0.163 A 
ATOM      4  C   UNL     1      12.663  29.215  42.168  1.00  0.00     0.161 A 
ATOM      5  C   UNL     1      13.752  28.332  42.024  1.00  0.00     0.066 A 
ATOM      6  C   UNL     1      13.692  27.276  41.102  1.00  0.00     0.067 A 
ATOM      7  C   UNL     1      11.455  27.979  40.457  1.00  0.00     0.079 A 
ATOM      8  C   UNL     1      12.534  27.103  40.315  1.00  0.00     0.081 A 
ATOM      9  C   UNL     1      14.749  26.368  40.933  1.00  0.00     0.230 A 
ATOM     10  N   UNL     1      12.470  26.082  39.420  1.00  0.00    -0.236 NA
ATOM     11  N   UNL     1      14.633  25.369  40.013  1.00  0.00    -0.201 NA
ATOM     12  C   UNL     1      13.508  25.222  39.267  1.00  0.00     0.226 A 
BRANCH   4  13
ATOM     13  O   UNL     1      12.686  30.284  43.078  1.00  0.00    -0.493 OA
ATOM     14  C   UNL     1      12.129  30.242  44.388  1.00  0.00     0.278 C 
ENDBRANCH   4  13
BRANCH   9  15
ATOM     15  O   UNL     1      15.929  26.516  41.678  1.00  0.00    -0.435 OA
BRANCH  15  16
ATOM     16  C   UNL     1      17.212  26.685  41.139  1.00  0.00     0.165 A 
ATOM     17  C   UNL     1      17.941  25.538  40.769  1.00  0.00     0.175 A 
ATOM     18  C   UNL     1      17.770  27.975  40.915  1.00  0.00     0.052 A 
ATOM     19  F   UNL     1      17.425  24.296  40.948  1.00  0.00    -0.202 F 
ATOM     20  C   UNL     1      19.210  25.711  40.219  1.00  0.00     0.039 A 
ATOM     21  C   UNL     1      19.051  28.114  40.354  1.00  0.00     0.031 A 
ATOM     22  C   UNL     1      19.748  26.955  40.020  1.00  0.00     0.049 A 
ATOM     23  C   UNL     1      20.127  24.787  39.767  1.00  0.00     0.034 A 
ATOM     24  N   UNL     1      20.965  26.869  39.461  1.00  0.00    -0.359 N 
ATOM     25  C   UNL     1      21.205  25.544  39.316  1.00  0.00     0.013 A 
ATOM     26  H   UNL     1      21.591  27.658  39.184  1.00  0.00     0.166 HD
ATOM     27  C   UNL     1      22.429  24.988  38.663  1.00  0.00     0.064 C 
ENDBRANCH  15  16
ENDBRANCH   9  15
ENDBRANCH   2   3
ENDBRANCH   1   2
BRANCH   1  28
ATOM     28  C   UNL     1       9.478  31.996  40.732  1.00  0.00     0.057 C 
BRANCH  28  29
ATOM     29  C   UNL     1       8.826  32.297  42.091  1.00  0.00     0.088 C 
BRANCH  29  30
ATOM     30  N   UNL     1       9.292  33.587  42.640  1.00  0.00    -0.303 NA
ATOM     31  C   UNL     1      10.457  33.443  43.526  1.00  0.00     0.084 C 
ATOM     32  C   UNL     1       9.716  34.497  41.575  1.00  0.00     0.084 C 
ATOM     33  C   UNL     1      11.324  34.687  43.352  1.00  0.00     0.017 C 
ATOM     34  C   UNL     1      10.704  35.460  42.202  1.00  0.00     0.017 C 
ENDBRANCH  29  30
ENDBRANCH  28  29
ENDBRANCH   1  28
TORSDOF 8
ENDMDL
