MODEL 1
REMARK VINA RESULT:    -7.094      0.000      0.000
REMARK INTER + INTRA:         -10.098
REMARK INTER:                  -9.375
REMARK INTRA:                  -0.723
REMARK UNBOUND:                -0.723
REMARK SMILES C[N+]1(C)CCCC(OC(=O)C(O)(c2ccccc2)c2ccccc2)C1
REMARK SMILES IDX 9 1 10 2 8 3 7 4 1 5 2 6 3 7 4 8 25 9 5 10 6 11 11 12 12 13
REMARK SMILES IDX 13 15 14 16 18 17 15 18 17 19 16 20 19 21 20 22 24 23 21 24
REMARK SMILES IDX 23 25 22 26
REMARK H PARENT 12 14
REMARK Flexibility Score: inf
ROOT
ATOM      1  C   UNL     1      24.449  20.643  12.280  1.00  0.00     0.348 C 
ATOM      2  O   UNL     1      25.078  21.587  12.825  1.00  0.00    -0.248 OA
ENDROOT
BRANCH   1   3
ATOM      3  O   UNL     1      25.138  19.560  11.711  1.00  0.00    -0.454 OA
BRANCH   3   4
ATOM      4  C   UNL     1      25.806  19.566  10.444  1.00  0.00     0.231 C 
ATOM      5  C   UNL     1      26.846  21.784   8.281  1.00  0.00     0.334 C 
ATOM      6  N   UNL     1      27.566  20.737   9.046  1.00  0.00    -0.325 N 
ATOM      7  C   UNL     1      28.972  21.180   9.202  1.00  0.00     0.334 C 
ATOM      8  C   UNL     1      27.534  19.458   8.262  1.00  0.00     0.263 C 
ATOM      9  C   UNL     1      26.950  20.603  10.409  1.00  0.00     0.309 C 
ATOM     10  C   UNL     1      27.552  18.210   9.159  1.00  0.00     0.065 C 
ATOM     11  C   UNL     1      26.295  18.156  10.040  1.00  0.00     0.057 C 
ENDBRANCH   3   4
ENDBRANCH   1   3
BRANCH   1  12
ATOM     12  C   UNL     1      22.927  20.601  12.330  1.00  0.00     0.213 C 
BRANCH  12  13
ATOM     13  O   UNL     1      22.493  20.140  11.070  1.00  0.00    -0.370 OA
ATOM     14  H   UNL     1      22.551  19.147  11.066  1.00  0.00     0.213 HD
ENDBRANCH  12  13
BRANCH  12  15
ATOM     15  C   UNL     1      22.401  19.694  13.450  1.00  0.00    -0.001 A 
ATOM     16  C   UNL     1      23.232  19.315  14.527  1.00  0.00     0.008 A 
ATOM     17  C   UNL     1      21.112  19.122  13.364  1.00  0.00     0.008 A 
ATOM     18  C   UNL     1      22.771  18.433  15.509  1.00  0.00     0.000 A 
ATOM     19  C   UNL     1      20.656  18.242  14.350  1.00  0.00     0.000 A 
ATOM     20  C   UNL     1      21.481  17.902  15.422  1.00  0.00     0.000 A 
ENDBRANCH  12  15
BRANCH  12  21
ATOM     21  C   UNL     1      22.346  21.994  12.567  1.00  0.00    -0.001 A 
ATOM     22  C   UNL     1      21.878  22.392  13.840  1.00  0.00     0.008 A 
ATOM     23  C   UNL     1      22.136  22.867  11.478  1.00  0.00     0.008 A 
ATOM     24  C   UNL     1      21.281  23.641  14.025  1.00  0.00     0.000 A 
ATOM     25  C   UNL     1      21.539  24.118  11.667  1.00  0.00     0.000 A 
ATOM     26  C   UNL     1      21.118  24.508  12.941  1.00  0.00     0.000 A 
ENDBRANCH  12  21
ENDBRANCH   1  12
TORSDOF 6
ENDMDL
MODEL 2
REMARK VINA RESULT:    -6.967      2.664      7.915
REMARK INTER + INTRA:          -9.930
REMARK INTER:                  -8.984
REMARK INTRA:                  -0.946
REMARK UNBOUND:                -0.723
REMARK SMILES C[N+]1(C)CCCC(OC(=O)C(O)(c2ccccc2)c2ccccc2)C1
REMARK SMILES IDX 9 1 10 2 8 3 7 4 1 5 2 6 3 7 4 8 25 9 5 10 6 11 11 12 12 13
REMARK SMILES IDX 13 15 14 16 18 17 15 18 17 19 16 20 19 21 20 22 24 23 21 24
REMARK SMILES IDX 23 25 22 26
REMARK H PARENT 12 14
REMARK Flexibility Score: inf
ROOT
ATOM      1  C   UNL     1      26.399  22.592   8.922  1.00  0.00     0.348 C 
ATOM      2  O   UNL     1      26.210  23.837   8.942  1.00  0.00    -0.248 OA
ENDROOT
BRANCH   1   3
ATOM      3  O   UNL     1      25.449  21.717   9.471  1.00  0.00    -0.454 OA
BRANCH   3   4
ATOM      4  C   UNL     1      25.104  21.620  10.859  1.00  0.00     0.231 C 
ATOM      5  C   UNL     1      24.172  23.639  13.254  1.00  0.00     0.334 C 
ATOM      6  N   UNL     1      23.517  22.452  12.651  1.00  0.00    -0.325 N 
ATOM      7  C   UNL     1      22.054  22.604  12.834  1.00  0.00     0.334 C 
ATOM      8  C   UNL     1      23.982  21.223  13.377  1.00  0.00     0.263 C 
ATOM      9  C   UNL     1      23.816  22.410  11.180  1.00  0.00     0.309 C 
ATOM     10  C   UNL     1      24.006  19.975  12.480  1.00  0.00     0.065 C 
ATOM     11  C   UNL     1      25.010  20.151  11.331  1.00  0.00     0.057 C 
ENDBRANCH   3   4
ENDBRANCH   1   3
BRANCH   1  12
ATOM     12  C   UNL     1      27.604  22.007   8.197  1.00  0.00     0.213 C 
BRANCH  12  13
ATOM     13  O   UNL     1      27.326  22.089   6.818  1.00  0.00    -0.370 OA
ATOM     14  H   UNL     1      27.078  23.029   6.606  1.00  0.00     0.213 HD
ENDBRANCH  12  13
BRANCH  12  15
ATOM     15  C   UNL     1      28.907  22.746   8.533  1.00  0.00    -0.001 A 
ATOM     16  C   UNL     1      29.093  23.349   9.797  1.00  0.00     0.008 A 
ATOM     17  C   UNL     1      29.895  22.943   7.544  1.00  0.00     0.008 A 
ATOM     18  C   UNL     1      30.251  24.080  10.075  1.00  0.00     0.000 A 
ATOM     19  C   UNL     1      31.052  23.673   7.828  1.00  0.00     0.000 A 
ATOM     20  C   UNL     1      31.232  24.237   9.092  1.00  0.00     0.000 A 
ENDBRANCH  12  15
BRANCH  12  21
ATOM     21  C   UNL     1      27.811  20.539   8.568  1.00  0.00    -0.001 A 
ATOM     22  C   UNL     1      27.176  19.500   7.850  1.00  0.00     0.008 A 
ATOM     23  C   UNL     1      28.535  20.199   9.730  1.00  0.00     0.008 A 
ATOM     24  C   UNL     1      27.314  18.168   8.247  1.00  0.00     0.000 A 
ATOM     25  C   UNL     1      28.674  18.864  10.124  1.00  0.00     0.000 A 
ATOM     26  C   UNL     1      28.069  17.848   9.379  1.00  0.00     0.000 A 
ENDBRANCH  12  21
ENDBRANCH   1  12
TORSDOF 6
ENDMDL
MODEL 3
REMARK VINA RESULT:    -6.944      0.909      3.849
REMARK INTER + INTRA:          -9.899
REMARK INTER:                  -9.393
REMARK INTRA:                  -0.507
REMARK UNBOUND:                -0.723
REMARK SMILES C[N+]1(C)CCCC(OC(=O)C(O)(c2ccccc2)c2ccccc2)C1
REMARK SMILES IDX 9 1 10 2 8 3 7 4 1 5 2 6 3 7 4 8 25 9 5 10 6 11 11 12 12 13
REMARK SMILES IDX 13 15 14 16 18 17 15 18 17 19 16 20 19 21 20 22 24 23 21 24
REMARK SMILES IDX 23 25 22 26
REMARK H PARENT 12 14
REMARK Flexibility Score: inf
ROOT
ATOM      1  C   UNL     1      23.614  20.008  11.842  1.00  0.00     0.348 C 
ATOM      2  O   UNL     1      22.833  20.455  10.961  1.00  0.00    -0.248 OA
ENDROOT
BRANCH   1   3
ATOM      3  O   UNL     1      24.737  19.248  11.481  1.00  0.00    -0.454 OA
BRANCH   3   4
ATOM      4  C   UNL     1      25.583  19.490  10.350  1.00  0.00     0.231 C 
ATOM      5  C   UNL     1      26.600  22.064   8.612  1.00  0.00     0.334 C 
ATOM      6  N   UNL     1      27.342  21.039   9.385  1.00  0.00    -0.325 N 
ATOM      7  C   UNL     1      28.626  21.641   9.817  1.00  0.00     0.334 C 
ATOM      8  C   UNL     1      27.622  19.867   8.490  1.00  0.00     0.263 C 
ATOM      9  C   UNL     1      26.552  20.666  10.607  1.00  0.00     0.309 C 
ATOM     10  C   UNL     1      27.688  18.535   9.255  1.00  0.00     0.065 C 
ATOM     11  C   UNL     1      26.333  18.214   9.903  1.00  0.00     0.057 C 
ENDBRANCH   3   4
ENDBRANCH   1   3
BRANCH   1  12
ATOM     12  C   UNL     1      23.418  20.380  13.306  1.00  0.00     0.213 C 
BRANCH  12  13
ATOM     13  O   UNL     1      24.699  20.397  13.894  1.00  0.00    -0.370 OA
ATOM     14  H   UNL     1      24.842  19.527  14.353  1.00  0.00     0.213 HD
ENDBRANCH  12  13
BRANCH  12  15
ATOM     15  C   UNL     1      22.723  21.737  13.479  1.00  0.00    -0.001 A 
ATOM     16  C   UNL     1      21.360  21.813  13.844  1.00  0.00     0.008 A 
ATOM     17  C   UNL     1      23.399  22.936  13.158  1.00  0.00     0.008 A 
ATOM     18  C   UNL     1      20.713  23.049  13.932  1.00  0.00     0.000 A 
ATOM     19  C   UNL     1      22.747  24.168  13.251  1.00  0.00     0.000 A 
ATOM     20  C   UNL     1      21.409  24.226  13.641  1.00  0.00     0.000 A 
ENDBRANCH  12  15
BRANCH  12  21
ATOM     21  C   UNL     1      22.562  19.341  14.028  1.00  0.00    -0.001 A 
ATOM     22  C   UNL     1      21.296  18.952  13.532  1.00  0.00     0.008 A 
ATOM     23  C   UNL     1      22.963  18.849  15.289  1.00  0.00     0.008 A 
ATOM     24  C   UNL     1      20.494  18.058  14.243  1.00  0.00     0.000 A 
ATOM     25  C   UNL     1      22.156  17.950  15.997  1.00  0.00     0.000 A 
ATOM     26  C   UNL     1      20.926  17.550  15.471  1.00  0.00     0.000 A 
ENDBRANCH  12  21
ENDBRANCH   1  12
TORSDOF 6
ENDMDL
MODEL 4
REMARK VINA RESULT:    -6.861      5.290      7.697
REMARK INTER + INTRA:          -9.790
REMARK INTER:                  -8.387
REMARK INTRA:                  -1.403
REMARK UNBOUND:                -0.723
REMARK SMILES C[N+]1(C)CCCC(OC(=O)C(O)(c2ccccc2)c2ccccc2)C1
REMARK SMILES IDX 9 1 10 2 8 3 7 4 1 5 2 6 3 7 4 8 25 9 5 10 6 11 11 12 12 13
REMARK SMILES IDX 13 15 14 16 18 17 15 18 17 19 16 20 19 21 20 22 24 23 21 24
REMARK SMILES IDX 23 25 22 26
REMARK H PARENT 12 14
REMARK Flexibility Score: inf
ROOT
ATOM      1  C   UNL     1      26.299  22.697   9.083  1.00  0.00     0.348 C 
ATOM      2  O   UNL     1      25.198  22.479   9.655  1.00  0.00    -0.248 OA
ENDROOT
BRANCH   1   3
ATOM      3  O   UNL     1      26.383  23.611   8.022  1.00  0.00    -0.454 OA
BRANCH   3   4
ATOM      4  C   UNL     1      26.366  25.039   8.144  1.00  0.00     0.231 C 
ATOM      5  C   UNL     1      24.653  27.295   9.773  1.00  0.00     0.334 C 
ATOM      6  N   UNL     1      26.099  26.966   9.768  1.00  0.00    -0.325 N 
ATOM      7  C   UNL     1      26.661  27.382  11.076  1.00  0.00     0.334 C 
ATOM      8  C   UNL     1      26.768  27.744   8.672  1.00  0.00     0.263 C 
ATOM      9  C   UNL     1      26.273  25.482   9.621  1.00  0.00     0.309 C 
ATOM     10  C   UNL     1      27.987  27.016   8.084  1.00  0.00     0.065 C 
ATOM     11  C   UNL     1      27.564  25.697   7.420  1.00  0.00     0.057 C 
ENDBRANCH   3   4
ENDBRANCH   1   3
BRANCH   1  12
ATOM     12  C   UNL     1      27.579  22.059   9.607  1.00  0.00     0.213 C 
BRANCH  12  13
ATOM     13  O   UNL     1      27.582  22.246  11.004  1.00  0.00    -0.370 OA
ATOM     14  H   UNL     1      27.534  23.223  11.187  1.00  0.00     0.213 HD
ENDBRANCH  12  13
BRANCH  12  15
ATOM     15  C   UNL     1      27.677  20.567   9.260  1.00  0.00    -0.001 A 
ATOM     16  C   UNL     1      26.943  20.024   8.181  1.00  0.00     0.008 A 
ATOM     17  C   UNL     1      28.407  19.685  10.086  1.00  0.00     0.008 A 
ATOM     18  C   UNL     1      26.980  18.653   7.912  1.00  0.00     0.000 A 
ATOM     19  C   UNL     1      28.443  18.315   9.810  1.00  0.00     0.000 A 
ATOM     20  C   UNL     1      27.735  17.801   8.723  1.00  0.00     0.000 A 
ENDBRANCH  12  15
BRANCH  12  21
ATOM     21  C   UNL     1      28.814  22.740   9.019  1.00  0.00    -0.001 A 
ATOM     22  C   UNL     1      29.324  22.378   7.752  1.00  0.00     0.008 A 
ATOM     23  C   UNL     1      29.555  23.654   9.799  1.00  0.00     0.008 A 
ATOM     24  C   UNL     1      30.497  22.956   7.261  1.00  0.00     0.000 A 
ATOM     25  C   UNL     1      30.728  24.233   9.302  1.00  0.00     0.000 A 
ATOM     26  C   UNL     1      31.195  23.890   8.032  1.00  0.00     0.000 A 
ENDBRANCH  12  21
ENDBRANCH   1  12
TORSDOF 6
ENDMDL
MODEL 5
REMARK VINA RESULT:    -6.842      3.802      8.659
REMARK INTER + INTRA:          -9.766
REMARK INTER:                  -8.727
REMARK INTRA:                  -1.038
REMARK UNBOUND:                -0.723
REMARK SMILES C[N+]1(C)CCCC(OC(=O)C(O)(c2ccccc2)c2ccccc2)C1
REMARK SMILES IDX 9 1 10 2 8 3 7 4 1 5 2 6 3 7 4 8 25 9 5 10 6 11 11 12 12 13
REMARK SMILES IDX 13 15 14 16 18 17 15 18 17 19 16 20 19 21 20 22 24 23 21 24
REMARK SMILES IDX 23 25 22 26
REMARK H PARENT 12 14
REMARK Flexibility Score: inf
ROOT
ATOM      1  C   UNL     1      28.849  21.610   8.227  1.00  0.00     0.348 C 
ATOM      2  O   UNL     1      29.887  21.274   8.857  1.00  0.00    -0.248 OA
ENDROOT
BRANCH   1   3
ATOM      3  O   UNL     1      27.620  20.989   8.496  1.00  0.00    -0.454 OA
BRANCH   3   4
ATOM      4  C   UNL     1      26.940  20.988   9.757  1.00  0.00     0.231 C 
ATOM      5  C   UNL     1      26.002  23.187  11.987  1.00  0.00     0.334 C 
ATOM      6  N   UNL     1      25.233  22.208  11.179  1.00  0.00    -0.325 N 
ATOM      7  C   UNL     1      23.855  22.734  11.026  1.00  0.00     0.334 C 
ATOM      8  C   UNL     1      25.185  20.903  11.919  1.00  0.00     0.263 C 
ATOM      9  C   UNL     1      25.854  22.086   9.817  1.00  0.00     0.309 C 
ATOM     10  C   UNL     1      25.107  19.689  10.979  1.00  0.00     0.065 C 
ATOM     11  C   UNL     1      26.368  19.595  10.107  1.00  0.00     0.057 C 
ENDBRANCH   3   4
ENDBRANCH   1   3
BRANCH   1  12
ATOM     12  C   UNL     1      28.886  22.774   7.246  1.00  0.00     0.213 C 
BRANCH  12  13
ATOM     13  O   UNL     1      28.085  22.403   6.147  1.00  0.00    -0.370 OA
ATOM     14  H   UNL     1      28.330  22.980   5.375  1.00  0.00     0.213 HD
ENDBRANCH  12  13
BRANCH  12  15
ATOM     15  C   UNL     1      28.381  24.083   7.868  1.00  0.00    -0.001 A 
ATOM     16  C   UNL     1      28.561  24.349   9.244  1.00  0.00     0.008 A 
ATOM     17  C   UNL     1      27.617  24.992   7.104  1.00  0.00     0.008 A 
ATOM     18  C   UNL     1      28.038  25.509   9.821  1.00  0.00     0.000 A 
ATOM     19  C   UNL     1      27.099  26.153   7.686  1.00  0.00     0.000 A 
ATOM     20  C   UNL     1      27.312  26.413   9.039  1.00  0.00     0.000 A 
ENDBRANCH  12  15
BRANCH  12  21
ATOM     21  C   UNL     1      30.308  23.031   6.750  1.00  0.00    -0.001 A 
ATOM     22  C   UNL     1      31.130  24.018   7.342  1.00  0.00     0.008 A 
ATOM     23  C   UNL     1      30.782  22.377   5.593  1.00  0.00     0.008 A 
ATOM     24  C   UNL     1      32.399  24.292   6.829  1.00  0.00     0.000 A 
ATOM     25  C   UNL     1      32.055  22.654   5.084  1.00  0.00     0.000 A 
ATOM     26  C   UNL     1      32.866  23.606   5.706  1.00  0.00     0.000 A 
ENDBRANCH  12  21
ENDBRANCH   1  12
TORSDOF 6
ENDMDL
MODEL 6
REMARK VINA RESULT:    -6.828      2.639      7.421
REMARK INTER + INTRA:          -9.746
REMARK INTER:                  -8.599
REMARK INTRA:                  -1.147
REMARK UNBOUND:                -0.723
REMARK SMILES C[N+]1(C)CCCC(OC(=O)C(O)(c2ccccc2)c2ccccc2)C1
REMARK SMILES IDX 9 1 10 2 8 3 7 4 1 5 2 6 3 7 4 8 25 9 5 10 6 11 11 12 12 13
REMARK SMILES IDX 13 15 14 16 18 17 15 18 17 19 16 20 19 21 20 22 24 23 21 24
REMARK SMILES IDX 23 25 22 26
REMARK H PARENT 12 14
REMARK Flexibility Score: inf
ROOT
ATOM      1  C   UNL     1      27.485  22.854  10.137  1.00  0.00     0.348 C 
ATOM      2  O   UNL     1      27.683  23.993  10.637  1.00  0.00    -0.248 OA
ENDROOT
BRANCH   1   3
ATOM      3  O   UNL     1      26.184  22.337  10.033  1.00  0.00    -0.454 OA
BRANCH   3   4
ATOM      4  C   UNL     1      25.352  21.937  11.129  1.00  0.00     0.231 C 
ATOM      5  C   UNL     1      23.223  23.342  13.173  1.00  0.00     0.334 C 
ATOM      6  N   UNL     1      23.074  22.231  12.202  1.00  0.00    -0.325 N 
ATOM      7  C   UNL     1      21.652  22.185  11.784  1.00  0.00     0.334 C 
ATOM      8  C   UNL     1      23.431  20.942  12.884  1.00  0.00     0.263 C 
ATOM      9  C   UNL     1      23.922  22.506  10.993  1.00  0.00     0.309 C 
ATOM     10  C   UNL     1      24.021  19.901  11.919  1.00  0.00     0.065 C 
ATOM     11  C   UNL     1      25.344  20.403  11.321  1.00  0.00     0.057 C 
ENDBRANCH   3   4
ENDBRANCH   1   3
BRANCH   1  12
ATOM     12  C   UNL     1      28.639  22.066   9.532  1.00  0.00     0.213 C 
BRANCH  12  13
ATOM     13  O   UNL     1      29.693  22.111  10.467  1.00  0.00    -0.370 OA
ATOM     14  H   UNL     1      30.552  22.021   9.973  1.00  0.00     0.213 HD
ENDBRANCH  12  13
BRANCH  12  15
ATOM     15  C   UNL     1      28.257  20.615   9.214  1.00  0.00    -0.001 A 
ATOM     16  C   UNL     1      27.353  20.314   8.171  1.00  0.00     0.008 A 
ATOM     17  C   UNL     1      28.707  19.558  10.036  1.00  0.00     0.008 A 
ATOM     18  C   UNL     1      26.954  18.997   7.930  1.00  0.00     0.000 A 
ATOM     19  C   UNL     1      28.306  18.242   9.789  1.00  0.00     0.000 A 
ATOM     20  C   UNL     1      27.435  17.962   8.736  1.00  0.00     0.000 A 
ENDBRANCH  12  15
BRANCH  12  21
ATOM     21  C   UNL     1      29.116  22.703   8.227  1.00  0.00    -0.001 A 
ATOM     22  C   UNL     1      28.253  23.493   7.434  1.00  0.00     0.008 A 
ATOM     23  C   UNL     1      30.395  22.396   7.718  1.00  0.00     0.008 A 
ATOM     24  C   UNL     1      28.681  24.006   6.207  1.00  0.00     0.000 A 
ATOM     25  C   UNL     1      30.820  22.914   6.489  1.00  0.00     0.000 A 
ATOM     26  C   UNL     1      29.966  23.724   5.738  1.00  0.00     0.000 A 
ENDBRANCH  12  21
ENDBRANCH   1  12
TORSDOF 6
ENDMDL
MODEL 7
REMARK VINA RESULT:    -6.797      4.790      6.997
REMARK INTER + INTRA:          -9.705
REMARK INTER:                  -8.934
REMARK INTRA:                  -0.771
REMARK UNBOUND:                -0.723
REMARK SMILES C[N+]1(C)CCCC(OC(=O)C(O)(c2ccccc2)c2ccccc2)C1
REMARK SMILES IDX 9 1 10 2 8 3 7 4 1 5 2 6 3 7 4 8 25 9 5 10 6 11 11 12 12 13
REMARK SMILES IDX 13 15 14 16 18 17 15 18 17 19 16 20 19 21 20 22 24 23 21 24
REMARK SMILES IDX 23 25 22 26
REMARK H PARENT 12 14
REMARK Flexibility Score: inf
ROOT
ATOM      1  C   UNL     1      29.289  22.077   8.187  1.00  0.00     0.348 C 
ATOM      2  O   UNL     1      29.992  21.211   8.771  1.00  0.00    -0.248 OA
ENDROOT
BRANCH   1   3
ATOM      3  O   UNL     1      29.890  23.076   7.407  1.00  0.00    -0.454 OA
BRANCH   3   4
ATOM      4  C   UNL     1      31.216  23.031   6.864  1.00  0.00     0.231 C 
ATOM      5  C   UNL     1      33.075  20.899   5.228  1.00  0.00     0.334 C 
ATOM      6  N   UNL     1      32.610  22.267   4.891  1.00  0.00    -0.325 N 
ATOM      7  C   UNL     1      32.570  22.378   3.413  1.00  0.00     0.334 C 
ATOM      8  C   UNL     1      33.596  23.260   5.435  1.00  0.00     0.263 C 
ATOM      9  C   UNL     1      31.221  22.468   5.425  1.00  0.00     0.309 C 
ATOM     10  C   UNL     1      32.943  24.598   5.816  1.00  0.00     0.065 C 
ATOM     11  C   UNL     1      31.923  24.403   6.948  1.00  0.00     0.057 C 
ENDBRANCH   3   4
ENDBRANCH   1   3
BRANCH   1  12
ATOM     12  C   UNL     1      27.769  21.987   8.223  1.00  0.00     0.213 C 
BRANCH  12  13
ATOM     13  O   UNL     1      27.322  22.158   6.898  1.00  0.00    -0.370 OA
ATOM     14  H   UNL     1      27.315  21.267   6.454  1.00  0.00     0.213 HD
ENDBRANCH  12  13
BRANCH  12  15
ATOM     15  C   UNL     1      27.273  20.652   8.795  1.00  0.00    -0.001 A 
ATOM     16  C   UNL     1      27.319  19.470   8.022  1.00  0.00     0.008 A 
ATOM     17  C   UNL     1      26.648  20.601  10.061  1.00  0.00     0.008 A 
ATOM     18  C   UNL     1      26.802  18.271   8.521  1.00  0.00     0.000 A 
ATOM     19  C   UNL     1      26.136  19.399  10.555  1.00  0.00     0.000 A 
ATOM     20  C   UNL     1      26.216  18.236   9.789  1.00  0.00     0.000 A 
ENDBRANCH  12  15
BRANCH  12  21
ATOM     21  C   UNL     1      27.172  23.096   9.088  1.00  0.00    -0.001 A 
ATOM     22  C   UNL     1      25.985  23.766   8.713  1.00  0.00     0.008 A 
ATOM     23  C   UNL     1      27.877  23.571  10.214  1.00  0.00     0.008 A 
ATOM     24  C   UNL     1      25.493  24.829   9.474  1.00  0.00     0.000 A 
ATOM     25  C   UNL     1      27.379  24.634  10.976  1.00  0.00     0.000 A 
ATOM     26  C   UNL     1      26.184  25.258  10.610  1.00  0.00     0.000 A 
ENDBRANCH  12  21
ENDBRANCH   1  12
TORSDOF 6
ENDMDL
MODEL 8
REMARK VINA RESULT:    -6.771      5.442      9.884
REMARK INTER + INTRA:          -9.672
REMARK INTER:                  -8.624
REMARK INTRA:                  -1.048
REMARK UNBOUND:                -0.723
REMARK SMILES C[N+]1(C)CCCC(OC(=O)C(O)(c2ccccc2)c2ccccc2)C1
REMARK SMILES IDX 9 1 10 2 8 3 7 4 1 5 2 6 3 7 4 8 25 9 5 10 6 11 11 12 12 13
REMARK SMILES IDX 13 15 14 16 18 17 15 18 17 19 16 20 19 21 20 22 24 23 21 24
REMARK SMILES IDX 23 25 22 26
REMARK H PARENT 12 14
REMARK Flexibility Score: inf
ROOT
ATOM      1  C   UNL     1      29.239  24.765   6.539  1.00  0.00     0.348 C 
ATOM      2  O   UNL     1      29.216  25.548   5.553  1.00  0.00    -0.248 OA
ENDROOT
BRANCH   1   3
ATOM      3  O   UNL     1      28.823  25.201   7.806  1.00  0.00    -0.454 OA
BRANCH   3   4
ATOM      4  C   UNL     1      27.468  25.257   8.270  1.00  0.00     0.231 C 
ATOM      5  C   UNL     1      25.441  23.376  10.012  1.00  0.00     0.334 C 
ATOM      6  N   UNL     1      25.937  24.758  10.226  1.00  0.00    -0.325 N 
ATOM      7  C   UNL     1      25.897  25.030  11.684  1.00  0.00     0.334 C 
ATOM      8  C   UNL     1      25.021  25.715   9.520  1.00  0.00     0.263 C 
ATOM      9  C   UNL     1      27.360  24.856   9.758  1.00  0.00     0.309 C 
ATOM     10  C   UNL     1      25.744  26.982   9.036  1.00  0.00     0.065 C 
ATOM     11  C   UNL     1      26.818  26.632   7.996  1.00  0.00     0.057 C 
ENDBRANCH   3   4
ENDBRANCH   1   3
BRANCH   1  12
ATOM     12  C   UNL     1      29.608  23.299   6.350  1.00  0.00     0.213 C 
BRANCH  12  13
ATOM     13  O   UNL     1      28.755  22.793   5.348  1.00  0.00    -0.370 OA
ATOM     14  H   UNL     1      29.294  22.215   4.744  1.00  0.00     0.213 HD
ENDBRANCH  12  13
BRANCH  12  15
ATOM     15  C   UNL     1      31.079  23.110   5.957  1.00  0.00    -0.001 A 
ATOM     16  C   UNL     1      32.029  24.130   6.188  1.00  0.00     0.008 A 
ATOM     17  C   UNL     1      31.489  21.961   5.245  1.00  0.00     0.008 A 
ATOM     18  C   UNL     1      33.352  23.981   5.764  1.00  0.00     0.000 A 
ATOM     19  C   UNL     1      32.815  21.817   4.827  1.00  0.00     0.000 A 
ATOM     20  C   UNL     1      33.745  22.822   5.090  1.00  0.00     0.000 A 
ENDBRANCH  12  15
BRANCH  12  21
ATOM     21  C   UNL     1      29.379  22.504   7.635  1.00  0.00    -0.001 A 
ATOM     22  C   UNL     1      30.348  22.468   8.663  1.00  0.00     0.008 A 
ATOM     23  C   UNL     1      28.246  21.672   7.758  1.00  0.00     0.008 A 
ATOM     24  C   UNL     1      30.157  21.677   9.798  1.00  0.00     0.000 A 
ATOM     25  C   UNL     1      28.057  20.883   8.898  1.00  0.00     0.000 A 
ATOM     26  C   UNL     1      29.008  20.890   9.920  1.00  0.00     0.000 A 
ENDBRANCH  12  21
ENDBRANCH   1  12
TORSDOF 6
ENDMDL
MODEL 9
REMARK VINA RESULT:    -6.752      6.498     10.116
REMARK INTER + INTRA:          -9.646
REMARK INTER:                  -8.280
REMARK INTRA:                  -1.366
REMARK UNBOUND:                -0.723
REMARK SMILES C[N+]1(C)CCCC(OC(=O)C(O)(c2ccccc2)c2ccccc2)C1
REMARK SMILES IDX 9 1 10 2 8 3 7 4 1 5 2 6 3 7 4 8 25 9 5 10 6 11 11 12 12 13
REMARK SMILES IDX 13 15 14 16 18 17 15 18 17 19 16 20 19 21 20 22 24 23 21 24
REMARK SMILES IDX 23 25 22 26
REMARK H PARENT 12 14
REMARK Flexibility Score: inf
ROOT
ATOM      1  C   UNL     1      29.849  25.141   6.578  1.00  0.00     0.348 C 
ATOM      2  O   UNL     1      29.576  26.048   5.749  1.00  0.00    -0.248 OA
ENDROOT
BRANCH   1   3
ATOM      3  O   UNL     1      30.106  25.455   7.922  1.00  0.00    -0.454 OA
BRANCH   3   4
ATOM      4  C   UNL     1      29.157  25.990   8.852  1.00  0.00     0.231 C 
ATOM      5  C   UNL     1      26.734  28.183   8.826  1.00  0.00     0.334 C 
ATOM      6  N   UNL     1      26.752  26.735   9.146  1.00  0.00    -0.325 N 
ATOM      7  C   UNL     1      25.398  26.196   8.874  1.00  0.00     0.334 C 
ATOM      8  C   UNL     1      27.069  26.566  10.604  1.00  0.00     0.263 C 
ATOM      9  C   UNL     1      27.735  26.038   8.250  1.00  0.00     0.309 C 
ATOM     10  C   UNL     1      27.816  25.256  10.902  1.00  0.00     0.065 C 
ATOM     11  C   UNL     1      29.184  25.240  10.204  1.00  0.00     0.057 C 
ENDBRANCH   3   4
ENDBRANCH   1   3
BRANCH   1  12
ATOM     12  C   UNL     1      29.793  23.676   6.164  1.00  0.00     0.213 C 
BRANCH  12  13
ATOM     13  O   UNL     1      28.802  23.576   5.167  1.00  0.00    -0.370 OA
ATOM     14  H   UNL     1      28.095  24.248   5.361  1.00  0.00     0.213 HD
ENDBRANCH  12  13
BRANCH  12  15
ATOM     15  C   UNL     1      31.141  23.160   5.643  1.00  0.00    -0.001 A 
ATOM     16  C   UNL     1      32.324  23.910   5.826  1.00  0.00     0.008 A 
ATOM     17  C   UNL     1      31.206  21.985   4.863  1.00  0.00     0.008 A 
ATOM     18  C   UNL     1      33.537  23.471   5.289  1.00  0.00     0.000 A 
ATOM     19  C   UNL     1      32.423  21.549   4.331  1.00  0.00     0.000 A 
ATOM     20  C   UNL     1      33.586  22.287   4.547  1.00  0.00     0.000 A 
ENDBRANCH  12  15
BRANCH  12  21
ATOM     21  C   UNL     1      29.394  22.786   7.341  1.00  0.00    -0.001 A 
ATOM     22  C   UNL     1      28.040  22.489   7.616  1.00  0.00     0.008 A 
ATOM     23  C   UNL     1      30.372  22.355   8.263  1.00  0.00     0.008 A 
ATOM     24  C   UNL     1      27.687  21.736   8.739  1.00  0.00     0.000 A 
ATOM     25  C   UNL     1      30.014  21.599   9.385  1.00  0.00     0.000 A 
ATOM     26  C   UNL     1      28.674  21.284   9.619  1.00  0.00     0.000 A 
ENDBRANCH  12  21
ENDBRANCH   1  12
TORSDOF 6
ENDMDL
MODEL 10
REMARK VINA RESULT:    -6.702      5.689      9.753
REMARK INTER + INTRA:          -9.581
REMARK INTER:                  -8.465
REMARK INTRA:                  -1.115
REMARK UNBOUND:                -0.723
REMARK SMILES C[N+]1(C)CCCC(OC(=O)C(O)(c2ccccc2)c2ccccc2)C1
REMARK SMILES IDX 9 1 10 2 8 3 7 4 1 5 2 6 3 7 4 8 25 9 5 10 6 11 11 12 12 13
REMARK SMILES IDX 13 15 14 16 18 17 15 18 17 19 16 20 19 21 20 22 24 23 21 24
REMARK SMILES IDX 23 25 22 26
REMARK H PARENT 12 14
REMARK Flexibility Score: inf
ROOT
ATOM      1  C   UNL     1      29.548  25.004   6.943  1.00  0.00     0.348 C 
ATOM      2  O   UNL     1      29.323  24.876   5.711  1.00  0.00    -0.248 OA
ENDROOT
BRANCH   1   3
ATOM      3  O   UNL     1      28.773  25.875   7.724  1.00  0.00    -0.454 OA
BRANCH   3   4
ATOM      4  C   UNL     1      27.503  25.568   8.312  1.00  0.00     0.231 C 
ATOM      5  C   UNL     1      26.298  23.399  10.440  1.00  0.00     0.334 C 
ATOM      6  N   UNL     1      26.336  24.882  10.454  1.00  0.00    -0.325 N 
ATOM      7  C   UNL     1      26.300  25.320  11.870  1.00  0.00     0.334 C 
ATOM      8  C   UNL     1      25.120  25.403   9.744  1.00  0.00     0.263 C 
ATOM      9  C   UNL     1      27.621  25.355   9.838  1.00  0.00     0.309 C 
ATOM     10  C   UNL     1      25.365  26.756   9.058  1.00  0.00     0.065 C 
ATOM     11  C   UNL     1      26.430  26.623   7.959  1.00  0.00     0.057 C 
ENDBRANCH   3   4
ENDBRANCH   1   3
BRANCH   1  12
ATOM     12  C   UNL     1      30.588  24.129   7.631  1.00  0.00     0.213 C 
BRANCH  12  13
ATOM     13  O   UNL     1      31.208  24.931   8.611  1.00  0.00    -0.370 OA
ATOM     14  H   UNL     1      30.804  25.840   8.570  1.00  0.00     0.213 HD
ENDBRANCH  12  13
BRANCH  12  15
ATOM     15  C   UNL     1      29.974  22.875   8.266  1.00  0.00    -0.001 A 
ATOM     16  C   UNL     1      28.874  22.222   7.665  1.00  0.00     0.008 A 
ATOM     17  C   UNL     1      30.418  22.418   9.527  1.00  0.00     0.008 A 
ATOM     18  C   UNL     1      28.274  21.122   8.283  1.00  0.00     0.000 A 
ATOM     19  C   UNL     1      29.815  21.316  10.138  1.00  0.00     0.000 A 
ATOM     20  C   UNL     1      28.748  20.666   9.516  1.00  0.00     0.000 A 
ENDBRANCH  12  15
BRANCH  12  21
ATOM     21  C   UNL     1      31.653  23.658   6.641  1.00  0.00    -0.001 A 
ATOM     22  C   UNL     1      31.685  22.325   6.170  1.00  0.00     0.008 A 
ATOM     23  C   UNL     1      32.714  24.516   6.283  1.00  0.00     0.008 A 
ATOM     24  C   UNL     1      32.708  21.890   5.325  1.00  0.00     0.000 A 
ATOM     25  C   UNL     1      33.736  24.077   5.433  1.00  0.00     0.000 A 
ATOM     26  C   UNL     1      33.729  22.767   4.949  1.00  0.00     0.000 A 
ENDBRANCH  12  21
ENDBRANCH   1  12
TORSDOF 6
ENDMDL
MODEL 11
REMARK VINA RESULT:    -6.682      5.726     10.492
REMARK INTER + INTRA:          -9.553
REMARK INTER:                  -8.376
REMARK INTRA:                  -1.177
REMARK UNBOUND:                -0.723
REMARK SMILES C[N+]1(C)CCCC(OC(=O)C(O)(c2ccccc2)c2ccccc2)C1
REMARK SMILES IDX 9 1 10 2 8 3 7 4 1 5 2 6 3 7 4 8 25 9 5 10 6 11 11 12 12 13
REMARK SMILES IDX 13 15 14 16 18 17 15 18 17 19 16 20 19 21 20 22 24 23 21 24
REMARK SMILES IDX 23 25 22 26
REMARK H PARENT 12 14
REMARK Flexibility Score: inf
ROOT
ATOM      1  C   UNL     1      29.441  23.433   6.295  1.00  0.00     0.348 C 
ATOM      2  O   UNL     1      29.377  23.528   5.041  1.00  0.00    -0.248 OA
ENDROOT
BRANCH   1   3
ATOM      3  O   UNL     1      28.316  23.044   7.039  1.00  0.00    -0.454 OA
BRANCH   3   4
ATOM      4  C   UNL     1      27.387  23.929   7.677  1.00  0.00     0.231 C 
ATOM      5  C   UNL     1      25.485  23.913  10.334  1.00  0.00     0.334 C 
ATOM      6  N   UNL     1      26.586  24.813   9.912  1.00  0.00    -0.325 N 
ATOM      7  C   UNL     1      27.183  25.398  11.137  1.00  0.00     0.334 C 
ATOM      8  C   UNL     1      26.013  25.914   9.067  1.00  0.00     0.263 C 
ATOM      9  C   UNL     1      27.638  24.014   9.199  1.00  0.00     0.309 C 
ATOM     10  C   UNL     1      27.006  26.435   8.016  1.00  0.00     0.065 C 
ATOM     11  C   UNL     1      27.371  25.327   7.016  1.00  0.00     0.057 C 
ENDBRANCH   3   4
ENDBRANCH   1   3
BRANCH   1  12
ATOM     12  C   UNL     1      30.768  23.624   7.016  1.00  0.00     0.213 C 
BRANCH  12  13
ATOM     13  O   UNL     1      30.729  22.805   8.162  1.00  0.00    -0.370 OA
ATOM     14  H   UNL     1      30.733  21.855   7.866  1.00  0.00     0.213 HD
ENDBRANCH  12  13
BRANCH  12  15
ATOM     15  C   UNL     1      31.972  23.266   6.135  1.00  0.00    -0.001 A 
ATOM     16  C   UNL     1      32.220  21.928   5.753  1.00  0.00     0.008 A 
ATOM     17  C   UNL     1      32.926  24.249   5.789  1.00  0.00     0.008 A 
ATOM     18  C   UNL     1      33.356  21.597   5.010  1.00  0.00     0.000 A 
ATOM     19  C   UNL     1      34.059  23.912   5.043  1.00  0.00     0.000 A 
ATOM     20  C   UNL     1      34.271  22.590   4.651  1.00  0.00     0.000 A 
ENDBRANCH  12  15
BRANCH  12  21
ATOM     21  C   UNL     1      30.950  25.076   7.458  1.00  0.00    -0.001 A 
ATOM     22  C   UNL     1      31.287  25.405   8.791  1.00  0.00     0.008 A 
ATOM     23  C   UNL     1      30.646  26.128   6.569  1.00  0.00     0.008 A 
ATOM     24  C   UNL     1      31.376  26.738   9.198  1.00  0.00     0.000 A 
ATOM     25  C   UNL     1      30.738  27.463   6.980  1.00  0.00     0.000 A 
ATOM     26  C   UNL     1      31.110  27.768   8.291  1.00  0.00     0.000 A 
ENDBRANCH  12  21
ENDBRANCH   1  12
TORSDOF 6
ENDMDL
MODEL 12
REMARK VINA RESULT:    -6.654      6.416     10.076
REMARK INTER + INTRA:          -9.516
REMARK INTER:                  -8.381
REMARK INTRA:                  -1.135
REMARK UNBOUND:                -0.723
REMARK SMILES C[N+]1(C)CCCC(OC(=O)C(O)(c2ccccc2)c2ccccc2)C1
REMARK SMILES IDX 9 1 10 2 8 3 7 4 1 5 2 6 3 7 4 8 25 9 5 10 6 11 11 12 12 13
REMARK SMILES IDX 13 15 14 16 18 17 15 18 17 19 16 20 19 21 20 22 24 23 21 24
REMARK SMILES IDX 23 25 22 26
REMARK H PARENT 12 14
REMARK Flexibility Score: inf
ROOT
ATOM      1  C   UNL     1      29.317  24.829   6.702  1.00  0.00     0.348 C 
ATOM      2  O   UNL     1      28.944  25.621   5.798  1.00  0.00    -0.248 OA
ENDROOT
BRANCH   1   3
ATOM      3  O   UNL     1      29.421  25.263   8.033  1.00  0.00    -0.454 OA
BRANCH   3   4
ATOM      4  C   UNL     1      28.336  25.712   8.854  1.00  0.00     0.231 C 
ATOM      5  C   UNL     1      27.902  27.773  11.354  1.00  0.00     0.334 C 
ATOM      6  N   UNL     1      27.312  27.731   9.993  1.00  0.00    -0.325 N 
ATOM      7  C   UNL     1      26.923  29.115   9.629  1.00  0.00     0.334 C 
ATOM      8  C   UNL     1      26.086  26.865  10.024  1.00  0.00     0.263 C 
ATOM      9  C   UNL     1      28.345  27.249   9.015  1.00  0.00     0.309 C 
ATOM     10  C   UNL     1      25.823  26.158   8.685  1.00  0.00     0.065 C 
ATOM     11  C   UNL     1      26.971  25.195   8.344  1.00  0.00     0.057 C 
ENDBRANCH   3   4
ENDBRANCH   1   3
BRANCH   1  12
ATOM     12  C   UNL     1      29.552  23.357   6.389  1.00  0.00     0.213 C 
BRANCH  12  13
ATOM     13  O   UNL     1      28.629  23.005   5.383  1.00  0.00    -0.370 OA
ATOM     14  H   UNL     1      29.077  23.105   4.501  1.00  0.00     0.213 HD
ENDBRANCH  12  13
BRANCH  12  15
ATOM     15  C   UNL     1      30.988  23.076   5.929  1.00  0.00    -0.001 A 
ATOM     16  C   UNL     1      32.007  24.040   6.100  1.00  0.00     0.008 A 
ATOM     17  C   UNL     1      31.295  21.896   5.216  1.00  0.00     0.008 A 
ATOM     18  C   UNL     1      33.297  23.808   5.617  1.00  0.00     0.000 A 
ATOM     19  C   UNL     1      32.589  21.668   4.737  1.00  0.00     0.000 A 
ATOM     20  C   UNL     1      33.588  22.620   4.941  1.00  0.00     0.000 A 
ENDBRANCH  12  15
BRANCH  12  21
ATOM     21  C   UNL     1      29.293  22.485   7.617  1.00  0.00    -0.001 A 
ATOM     22  C   UNL     1      30.289  22.277   8.598  1.00  0.00     0.008 A 
ATOM     23  C   UNL     1      28.091  21.753   7.722  1.00  0.00     0.008 A 
ATOM     24  C   UNL     1      30.062  21.418   9.675  1.00  0.00     0.000 A 
ATOM     25  C   UNL     1      27.868  20.894   8.804  1.00  0.00     0.000 A 
ATOM     26  C   UNL     1      28.850  20.732   9.784  1.00  0.00     0.000 A 
ENDBRANCH  12  21
ENDBRANCH   1  12
TORSDOF 6
ENDMDL
MODEL 13
REMARK VINA RESULT:    -6.645      6.802     10.410
REMARK INTER + INTRA:          -9.504
REMARK INTER:                  -8.286
REMARK INTRA:                  -1.219
REMARK UNBOUND:                -0.723
REMARK SMILES C[N+]1(C)CCCC(OC(=O)C(O)(c2ccccc2)c2ccccc2)C1
REMARK SMILES IDX 9 1 10 2 8 3 7 4 1 5 2 6 3 7 4 8 25 9 5 10 6 11 11 12 12 13
REMARK SMILES IDX 13 15 14 16 18 17 15 18 17 19 16 20 19 21 20 22 24 23 21 24
REMARK SMILES IDX 23 25 22 26
REMARK H PARENT 12 14
REMARK Flexibility Score: inf
ROOT
ATOM      1  C   UNL     1      29.193  24.659   6.577  1.00  0.00     0.348 C 
ATOM      2  O   UNL     1      28.894  25.426   5.624  1.00  0.00    -0.248 OA
ENDROOT
BRANCH   1   3
ATOM      3  O   UNL     1      29.051  25.084   7.907  1.00  0.00    -0.454 OA
BRANCH   3   4
ATOM      4  C   UNL     1      29.809  26.123   8.539  1.00  0.00     0.231 C 
ATOM      5  C   UNL     1      30.776  29.165   7.837  1.00  0.00     0.334 C 
ATOM      6  N   UNL     1      29.946  28.621   8.941  1.00  0.00    -0.325 N 
ATOM      7  C   UNL     1      29.050  29.706   9.408  1.00  0.00     0.334 C 
ATOM      8  C   UNL     1      30.850  28.207  10.066  1.00  0.00     0.263 C 
ATOM      9  C   UNL     1      29.103  27.492   8.422  1.00  0.00     0.309 C 
ATOM     10  C   UNL     1      30.286  27.033  10.881  1.00  0.00     0.065 C 
ATOM     11  C   UNL     1      30.154  25.777  10.006  1.00  0.00     0.057 C 
ENDBRANCH   3   4
ENDBRANCH   1   3
BRANCH   1  12
ATOM     12  C   UNL     1      29.604  23.218   6.305  1.00  0.00     0.213 C 
BRANCH  12  13
ATOM     13  O   UNL     1      28.774  22.749   5.267  1.00  0.00    -0.370 OA
ATOM     14  H   UNL     1      27.950  23.306   5.252  1.00  0.00     0.213 HD
ENDBRANCH  12  13
BRANCH  12  15
ATOM     15  C   UNL     1      31.083  23.091   5.917  1.00  0.00    -0.001 A 
ATOM     16  C   UNL     1      31.984  24.157   6.136  1.00  0.00     0.008 A 
ATOM     17  C   UNL     1      31.547  21.954   5.220  1.00  0.00     0.008 A 
ATOM     18  C   UNL     1      33.314  24.064   5.717  1.00  0.00     0.000 A 
ATOM     19  C   UNL     1      32.879  21.866   4.805  1.00  0.00     0.000 A 
ATOM     20  C   UNL     1      33.761  22.916   5.057  1.00  0.00     0.000 A 
ENDBRANCH  12  15
BRANCH  12  21
ATOM     21  C   UNL     1      29.386  22.342   7.539  1.00  0.00    -0.001 A 
ATOM     22  C   UNL     1      28.159  21.678   7.765  1.00  0.00     0.008 A 
ATOM     23  C   UNL     1      30.368  22.291   8.551  1.00  0.00     0.008 A 
ATOM     24  C   UNL     1      27.949  20.943   8.934  1.00  0.00     0.000 A 
ATOM     25  C   UNL     1      30.155  21.551   9.719  1.00  0.00     0.000 A 
ATOM     26  C   UNL     1      28.949  20.871   9.908  1.00  0.00     0.000 A 
ENDBRANCH  12  21
ENDBRANCH   1  12
TORSDOF 6
ENDMDL
MODEL 14
REMARK VINA RESULT:    -6.618      5.713     10.557
REMARK INTER + INTRA:          -9.469
REMARK INTER:                  -8.361
REMARK INTRA:                  -1.108
REMARK UNBOUND:                -0.723
REMARK SMILES C[N+]1(C)CCCC(OC(=O)C(O)(c2ccccc2)c2ccccc2)C1
REMARK SMILES IDX 9 1 10 2 8 3 7 4 1 5 2 6 3 7 4 8 25 9 5 10 6 11 11 12 12 13
REMARK SMILES IDX 13 15 14 16 18 17 15 18 17 19 16 20 19 21 20 22 24 23 21 24
REMARK SMILES IDX 23 25 22 26
REMARK H PARENT 12 14
REMARK Flexibility Score: inf
ROOT
ATOM      1  C   UNL     1      29.287  22.697   7.116  1.00  0.00     0.348 C 
ATOM      2  O   UNL     1      29.988  21.791   7.639  1.00  0.00    -0.248 OA
ENDROOT
BRANCH   1   3
ATOM      3  O   UNL     1      27.951  22.880   7.506  1.00  0.00    -0.454 OA
BRANCH   3   4
ATOM      4  C   UNL     1      27.491  23.781   8.520  1.00  0.00     0.231 C 
ATOM      5  C   UNL     1      27.837  26.944   9.269  1.00  0.00     0.334 C 
ATOM      6  N   UNL     1      26.638  26.126   8.962  1.00  0.00    -0.325 N 
ATOM      7  C   UNL     1      25.601  27.035   8.417  1.00  0.00     0.334 C 
ATOM      8  C   UNL     1      26.136  25.509  10.235  1.00  0.00     0.263 C 
ATOM      9  C   UNL     1      26.982  25.108   7.914  1.00  0.00     0.309 C 
ATOM     10  C   UNL     1      25.444  24.155  10.007  1.00  0.00     0.065 C 
ATOM     11  C   UNL     1      26.434  23.127   9.440  1.00  0.00     0.057 C 
ENDBRANCH   3   4
ENDBRANCH   1   3
BRANCH   1  12
ATOM     12  C   UNL     1      29.909  23.684   6.136  1.00  0.00     0.213 C 
BRANCH  12  13
ATOM     13  O   UNL     1      28.890  24.056   5.236  1.00  0.00    -0.370 OA
ATOM     14  H   UNL     1      28.081  23.516   5.440  1.00  0.00     0.213 HD
ENDBRANCH  12  13
BRANCH  12  15
ATOM     15  C   UNL     1      30.492  24.918   6.837  1.00  0.00    -0.001 A 
ATOM     16  C   UNL     1      31.023  24.828   8.143  1.00  0.00     0.008 A 
ATOM     17  C   UNL     1      30.398  26.194   6.238  1.00  0.00     0.008 A 
ATOM     18  C   UNL     1      31.488  25.968   8.804  1.00  0.00     0.000 A 
ATOM     19  C   UNL     1      30.868  27.330   6.903  1.00  0.00     0.000 A 
ATOM     20  C   UNL     1      31.416  27.217   8.181  1.00  0.00     0.000 A 
ENDBRANCH  12  15
BRANCH  12  21
ATOM     21  C   UNL     1      31.046  23.034   5.348  1.00  0.00    -0.001 A 
ATOM     22  C   UNL     1      32.400  23.293   5.658  1.00  0.00     0.008 A 
ATOM     23  C   UNL     1      30.760  22.267   4.199  1.00  0.00     0.008 A 
ATOM     24  C   UNL     1      33.427  22.751   4.881  1.00  0.00     0.000 A 
ATOM     25  C   UNL     1      31.791  21.725   3.424  1.00  0.00     0.000 A 
ATOM     26  C   UNL     1      33.124  21.961   3.769  1.00  0.00     0.000 A 
ENDBRANCH  12  21
ENDBRANCH   1  12
TORSDOF 6
ENDMDL
MODEL 15
REMARK VINA RESULT:    -6.594      4.827     10.188
REMARK INTER + INTRA:          -9.437
REMARK INTER:                  -8.906
REMARK INTRA:                  -0.531
REMARK UNBOUND:                -0.723
REMARK SMILES C[N+]1(C)CCCC(OC(=O)C(O)(c2ccccc2)c2ccccc2)C1
REMARK SMILES IDX 9 1 10 2 8 3 7 4 1 5 2 6 3 7 4 8 25 9 5 10 6 11 11 12 12 13
REMARK SMILES IDX 13 15 14 16 18 17 15 18 17 19 16 20 19 21 20 22 24 23 21 24
REMARK SMILES IDX 23 25 22 26
REMARK H PARENT 12 14
REMARK Flexibility Score: inf
ROOT
ATOM      1  C   UNL     1      29.889  22.510   7.766  1.00  0.00     0.348 C 
ATOM      2  O   UNL     1      30.731  21.593   7.953  1.00  0.00    -0.248 OA
ENDROOT
BRANCH   1   3
ATOM      3  O   UNL     1      28.857  22.731   8.691  1.00  0.00    -0.454 OA
BRANCH   3   4
ATOM      4  C   UNL     1      27.753  21.852   8.938  1.00  0.00     0.231 C 
ATOM      5  C   UNL     1      26.695  18.953   7.861  1.00  0.00     0.334 C 
ATOM      6  N   UNL     1      27.070  19.427   9.216  1.00  0.00    -0.325 N 
ATOM      7  C   UNL     1      27.510  18.249  10.000  1.00  0.00     0.334 C 
ATOM      8  C   UNL     1      25.860  20.032   9.868  1.00  0.00     0.263 C 
ATOM      9  C   UNL     1      28.218  20.389   9.109  1.00  0.00     0.309 C 
ATOM     10  C   UNL     1      26.215  21.152  10.858  1.00  0.00     0.065 C 
ATOM     11  C   UNL     1      26.892  22.325  10.132  1.00  0.00     0.057 C 
ENDBRANCH   3   4
ENDBRANCH   1   3
BRANCH   1  12
ATOM     12  C   UNL     1      30.044  23.470   6.594  1.00  0.00     0.213 C 
BRANCH  12  13
ATOM     13  O   UNL     1      28.803  23.499   5.927  1.00  0.00    -0.370 OA
ATOM     14  H   UNL     1      28.549  22.564   5.701  1.00  0.00     0.213 HD
ENDBRANCH  12  13
BRANCH  12  15
ATOM     15  C   UNL     1      30.453  24.881   7.039  1.00  0.00    -0.001 A 
ATOM     16  C   UNL     1      30.316  25.985   6.168  1.00  0.00     0.008 A 
ATOM     17  C   UNL     1      31.088  25.084   8.284  1.00  0.00     0.008 A 
ATOM     18  C   UNL     1      30.754  27.255   6.552  1.00  0.00     0.000 A 
ATOM     19  C   UNL     1      31.522  26.357   8.664  1.00  0.00     0.000 A 
ATOM     20  C   UNL     1      31.352  27.441   7.802  1.00  0.00     0.000 A 
ENDBRANCH  12  15
BRANCH  12  21
ATOM     21  C   UNL     1      31.112  22.979   5.617  1.00  0.00    -0.001 A 
ATOM     22  C   UNL     1      32.476  23.312   5.786  1.00  0.00     0.008 A 
ATOM     23  C   UNL     1      30.734  22.295   4.443  1.00  0.00     0.008 A 
ATOM     24  C   UNL     1      33.429  22.919   4.845  1.00  0.00     0.000 A 
ATOM     25  C   UNL     1      31.694  21.900   3.503  1.00  0.00     0.000 A 
ATOM     26  C   UNL     1      33.041  22.206   3.707  1.00  0.00     0.000 A 
ENDBRANCH  12  21
ENDBRANCH   1  12
TORSDOF 6
ENDMDL
