MODEL 1
REMARK VINA RESULT:    -8.818      0.000      0.000
REMARK INTER + INTRA:         -15.164
REMARK INTER:                 -13.199
REMARK INTRA:                  -1.965
REMARK UNBOUND:                -1.965
REMARK SMILES CC/C(=C(\c1ccc(O)cc1)c1ccc(OCCN(C)C)cc1)c1ccccc1
REMARK SMILES IDX 12 1 13 2 14 3 15 4 22 5 23 6 4 7 3 8 2 9 1 10 24 11 25 12
REMARK SMILES IDX 29 13 26 14 28 15 27 16 5 17 6 18 11 19 7 20 10 21 8 22 9 23
REMARK SMILES IDX 16 25 17 26 18 27 19 28 20 29 21 30
REMARK H PARENT 9 24
REMARK Flexibility Score: inf
ROOT
ATOM      1  C   UNL     1      10.422  76.620  -1.841  1.00  0.00    -0.017 A 
ATOM      2  C   UNL     1      10.988  77.144  -3.013  1.00  0.00     0.012 A 
ATOM      3  C   UNL     1      12.125  77.954  -2.946  1.00  0.00     0.047 A 
ATOM      4  C   UNL     1      12.720  78.246  -1.713  1.00  0.00     0.119 A 
ATOM      5  C   UNL     1      12.165  77.704  -0.539  1.00  0.00     0.047 A 
ATOM      6  C   UNL     1      11.029  76.893  -0.604  1.00  0.00     0.012 A 
ENDROOT
BRANCH   1   7
ATOM      7  C   UNL     1       9.214  75.758  -1.920  1.00  0.00    -0.007 C 
ATOM      8  C   UNL     1       7.981  76.218  -1.560  1.00  0.00    -0.033 C 
BRANCH   8   9
ATOM      9  C   UNL     1       6.785  75.292  -1.422  1.00  0.00     0.033 C 
ATOM     10  C   UNL     1       6.480  74.967   0.040  1.00  0.00     0.009 C 
ENDBRANCH   8   9
BRANCH   8  11
ATOM     11  C   UNL     1       7.750  77.665  -1.302  1.00  0.00    -0.022 A 
ATOM     12  C   UNL     1       7.932  78.607  -2.332  1.00  0.00     0.008 A 
ATOM     13  C   UNL     1       7.329  78.109  -0.037  1.00  0.00     0.008 A 
ATOM     14  C   UNL     1       7.720  79.967  -2.091  1.00  0.00     0.001 A 
ATOM     15  C   UNL     1       7.117  79.471   0.200  1.00  0.00     0.001 A 
ATOM     16  C   UNL     1       7.315  80.399  -0.825  1.00  0.00     0.000 A 
ENDBRANCH   8  11
BRANCH   7  17
ATOM     17  C   UNL     1       9.428  74.365  -2.378  1.00  0.00    -0.017 A 
ATOM     18  C   UNL     1       9.985  73.408  -1.515  1.00  0.00     0.012 A 
ATOM     19  C   UNL     1       8.997  73.975  -3.655  1.00  0.00     0.012 A 
ATOM     20  C   UNL     1      10.146  72.086  -1.940  1.00  0.00     0.047 A 
ATOM     21  C   UNL     1       9.161  72.652  -4.080  1.00  0.00     0.047 A 
ATOM     22  C   UNL     1       9.739  71.705  -3.223  1.00  0.00     0.115 A 
BRANCH  22  23
ATOM     23  O   UNL     1       9.908  70.385  -3.635  1.00  0.00    -0.508 OA
ATOM     24  H   UNL     1       9.244  69.935  -4.254  1.00  0.00     0.293 HD
ENDBRANCH  22  23
ENDBRANCH   7  17
ENDBRANCH   1   7
BRANCH   4  25
ATOM     25  O   UNL     1      13.853  79.070  -1.701  1.00  0.00    -0.492 OA
BRANCH  25  26
ATOM     26  C   UNL     1      14.064  80.166  -2.589  1.00  0.00     0.245 C 
BRANCH  26  27
ATOM     27  C   UNL     1      15.124  79.803  -3.645  1.00  0.00     0.125 C 
BRANCH  27  28
ATOM     28  N   UNL     1      14.679  79.936  -5.051  1.00  0.00    -0.306 NA
ATOM     29  C   UNL     1      14.515  78.645  -5.739  1.00  0.00     0.105 C 
ATOM     30  C   UNL     1      13.480  80.777  -5.201  1.00  0.00     0.105 C 
ENDBRANCH  27  28
ENDBRANCH  26  27
ENDBRANCH  25  26
ENDBRANCH   4  25
TORSDOF 9
ENDMDL
MODEL 2
REMARK VINA RESULT:    -8.763      1.686      2.295
REMARK INTER + INTRA:         -15.082
REMARK INTER:                 -12.879
REMARK INTRA:                  -2.203
REMARK UNBOUND:                -1.965
REMARK SMILES CC/C(=C(\c1ccc(O)cc1)c1ccc(OCCN(C)C)cc1)c1ccccc1
REMARK SMILES IDX 12 1 13 2 14 3 15 4 22 5 23 6 4 7 3 8 2 9 1 10 24 11 25 12
REMARK SMILES IDX 29 13 26 14 28 15 27 16 5 17 6 18 11 19 7 20 10 21 8 22 9 23
REMARK SMILES IDX 16 25 17 26 18 27 19 28 20 29 21 30
REMARK H PARENT 9 24
REMARK Flexibility Score: inf
ROOT
ATOM      1  C   UNL     1      10.367  76.530  -1.844  1.00  0.00    -0.017 A 
ATOM      2  C   UNL     1      10.950  77.094  -2.990  1.00  0.00     0.012 A 
ATOM      3  C   UNL     1      12.096  77.886  -2.881  1.00  0.00     0.047 A 
ATOM      4  C   UNL     1      12.684  78.120  -1.633  1.00  0.00     0.119 A 
ATOM      5  C   UNL     1      12.113  77.539  -0.485  1.00  0.00     0.047 A 
ATOM      6  C   UNL     1      10.967  76.746  -0.592  1.00  0.00     0.012 A 
ENDROOT
BRANCH   1   7
ATOM      7  C   UNL     1       9.150  75.687  -1.967  1.00  0.00    -0.007 C 
ATOM      8  C   UNL     1       7.918  76.152  -1.611  1.00  0.00    -0.033 C 
BRANCH   8   9
ATOM      9  C   UNL     1       6.708  75.238  -1.519  1.00  0.00     0.033 C 
ATOM     10  C   UNL     1       6.381  74.867  -0.073  1.00  0.00     0.009 C 
ENDBRANCH   8   9
BRANCH   8  11
ATOM     11  C   UNL     1       7.701  77.594  -1.311  1.00  0.00    -0.022 A 
ATOM     12  C   UNL     1       7.916  78.565  -2.306  1.00  0.00     0.008 A 
ATOM     13  C   UNL     1       7.262  78.002  -0.041  1.00  0.00     0.008 A 
ATOM     14  C   UNL     1       7.719  79.920  -2.026  1.00  0.00     0.001 A 
ATOM     15  C   UNL     1       7.064  79.359   0.236  1.00  0.00     0.001 A 
ATOM     16  C   UNL     1       7.295  80.316  -0.755  1.00  0.00     0.000 A 
ENDBRANCH   8  11
BRANCH   7  17
ATOM     17  C   UNL     1       9.353  74.307  -2.466  1.00  0.00    -0.017 A 
ATOM     18  C   UNL     1       9.886  73.316  -1.626  1.00  0.00     0.012 A 
ATOM     19  C   UNL     1       8.934  73.961  -3.760  1.00  0.00     0.012 A 
ATOM     20  C   UNL     1      10.037  72.006  -2.090  1.00  0.00     0.047 A 
ATOM     21  C   UNL     1       9.087  72.650  -4.223  1.00  0.00     0.047 A 
ATOM     22  C   UNL     1       9.642  71.670  -3.389  1.00  0.00     0.115 A 
BRANCH  22  23
ATOM     23  O   UNL     1       9.800  70.361  -3.839  1.00  0.00    -0.508 OA
ATOM     24  H   UNL     1       9.973  70.155  -4.816  1.00  0.00     0.293 HD
ENDBRANCH  22  23
ENDBRANCH   7  17
ENDBRANCH   1   7
BRANCH   4  25
ATOM     25  O   UNL     1      13.827  78.930  -1.578  1.00  0.00    -0.492 OA
BRANCH  25  26
ATOM     26  C   UNL     1      14.077  79.906  -0.569  1.00  0.00     0.245 C 
BRANCH  26  27
ATOM     27  C   UNL     1      13.147  81.119  -0.755  1.00  0.00     0.125 C 
BRANCH  27  28
ATOM     28  N   UNL     1      12.115  81.284   0.294  1.00  0.00    -0.306 NA
ATOM     29  C   UNL     1      10.750  81.002  -0.178  1.00  0.00     0.105 C 
ATOM     30  C   UNL     1      12.418  80.539   1.526  1.00  0.00     0.105 C 
ENDBRANCH  27  28
ENDBRANCH  26  27
ENDBRANCH  25  26
ENDBRANCH   4  25
TORSDOF 9
ENDMDL
MODEL 3
REMARK VINA RESULT:    -8.629      2.334      6.235
REMARK INTER + INTRA:         -14.882
REMARK INTER:                 -14.346
REMARK INTRA:                  -0.536
REMARK UNBOUND:                -1.965
REMARK SMILES CC/C(=C(\c1ccc(O)cc1)c1ccc(OCCN(C)C)cc1)c1ccccc1
REMARK SMILES IDX 12 1 13 2 14 3 15 4 22 5 23 6 4 7 3 8 2 9 1 10 24 11 25 12
REMARK SMILES IDX 29 13 26 14 28 15 27 16 5 17 6 18 11 19 7 20 10 21 8 22 9 23
REMARK SMILES IDX 16 25 17 26 18 27 19 28 20 29 21 30
REMARK H PARENT 9 24
REMARK Flexibility Score: inf
ROOT
ATOM      1  C   UNL     1      10.073  76.549  -1.558  1.00  0.00    -0.017 A 
ATOM      2  C   UNL     1      10.499  75.595  -0.621  1.00  0.00     0.012 A 
ATOM      3  C   UNL     1      10.167  74.248  -0.784  1.00  0.00     0.047 A 
ATOM      4  C   UNL     1       9.413  73.829  -1.887  1.00  0.00     0.119 A 
ATOM      5  C   UNL     1       9.002  74.781  -2.839  1.00  0.00     0.047 A 
ATOM      6  C   UNL     1       9.335  76.128  -2.677  1.00  0.00     0.012 A 
ENDROOT
BRANCH   1   7
ATOM      7  C   UNL     1      10.431  77.980  -1.379  1.00  0.00    -0.007 C 
ATOM      8  C   UNL     1       9.530  78.892  -0.915  1.00  0.00    -0.033 C 
BRANCH   8   9
ATOM      9  C   UNL     1       9.809  80.385  -0.940  1.00  0.00     0.033 C 
ATOM     10  C   UNL     1      10.274  80.901   0.422  1.00  0.00     0.009 C 
ENDBRANCH   8   9
BRANCH   8  11
ATOM     11  C   UNL     1       8.227  78.456  -0.344  1.00  0.00    -0.022 A 
ATOM     12  C   UNL     1       7.223  79.402  -0.064  1.00  0.00     0.008 A 
ATOM     13  C   UNL     1       7.972  77.097  -0.095  1.00  0.00     0.008 A 
ATOM     14  C   UNL     1       6.001  78.997   0.477  1.00  0.00     0.001 A 
ATOM     15  C   UNL     1       6.746  76.695   0.445  1.00  0.00     0.001 A 
ATOM     16  C   UNL     1       5.763  77.644   0.733  1.00  0.00     0.000 A 
ENDBRANCH   8  11
BRANCH   7  17
ATOM     17  C   UNL     1      11.810  78.365  -1.764  1.00  0.00    -0.017 A 
ATOM     18  C   UNL     1      12.798  78.554  -0.784  1.00  0.00     0.012 A 
ATOM     19  C   UNL     1      12.156  78.465  -3.120  1.00  0.00     0.012 A 
ATOM     20  C   UNL     1      14.105  78.878  -1.157  1.00  0.00     0.047 A 
ATOM     21  C   UNL     1      13.465  78.790  -3.491  1.00  0.00     0.047 A 
ATOM     22  C   UNL     1      14.442  79.001  -2.509  1.00  0.00     0.115 A 
BRANCH  22  23
ATOM     23  O   UNL     1      15.749  79.326  -2.865  1.00  0.00    -0.508 OA
ATOM     24  H   UNL     1      15.950  79.877  -3.692  1.00  0.00     0.293 HD
ENDBRANCH  22  23
ENDBRANCH   7  17
ENDBRANCH   1   7
BRANCH   4  25
ATOM     25  O   UNL     1       9.099  72.467  -1.999  1.00  0.00    -0.492 OA
BRANCH  25  26
ATOM     26  C   UNL     1      10.035  71.449  -2.346  1.00  0.00     0.245 C 
BRANCH  26  27
ATOM     27  C   UNL     1       9.717  70.883  -3.742  1.00  0.00     0.125 C 
BRANCH  27  28
ATOM     28  N   UNL     1      10.406  71.562  -4.864  1.00  0.00    -0.306 NA
ATOM     29  C   UNL     1       9.512  72.401  -5.678  1.00  0.00     0.105 C 
ATOM     30  C   UNL     1      11.602  72.308  -4.443  1.00  0.00     0.105 C 
ENDBRANCH  27  28
ENDBRANCH  26  27
ENDBRANCH  25  26
ENDBRANCH   4  25
TORSDOF 9
ENDMDL
MODEL 4
REMARK VINA RESULT:    -8.114      2.455      5.406
REMARK INTER + INTRA:         -14.112
REMARK INTER:                 -11.966
REMARK INTRA:                  -2.146
REMARK UNBOUND:                -1.965
REMARK SMILES CC/C(=C(\c1ccc(O)cc1)c1ccc(OCCN(C)C)cc1)c1ccccc1
REMARK SMILES IDX 12 1 13 2 14 3 15 4 22 5 23 6 4 7 3 8 2 9 1 10 24 11 25 12
REMARK SMILES IDX 29 13 26 14 28 15 27 16 5 17 6 18 11 19 7 20 10 21 8 22 9 23
REMARK SMILES IDX 16 25 17 26 18 27 19 28 20 29 21 30
REMARK H PARENT 9 24
REMARK Flexibility Score: inf
ROOT
ATOM      1  C   UNL     1      10.174  76.702  -1.493  1.00  0.00    -0.017 A 
ATOM      2  C   UNL     1      11.071  76.691  -0.414  1.00  0.00     0.012 A 
ATOM      3  C   UNL     1      12.356  77.222  -0.559  1.00  0.00     0.047 A 
ATOM      4  C   UNL     1      12.763  77.781  -1.776  1.00  0.00     0.119 A 
ATOM      5  C   UNL     1      11.857  77.812  -2.853  1.00  0.00     0.047 A 
ATOM      6  C   UNL     1      10.572  77.281  -2.710  1.00  0.00     0.012 A 
ENDROOT
BRANCH   1   7
ATOM      7  C   UNL     1       8.810  76.137  -1.332  1.00  0.00    -0.007 C 
ATOM      8  C   UNL     1       8.475  74.917  -1.841  1.00  0.00    -0.033 C 
BRANCH   8   9
ATOM      9  C   UNL     1       7.037  74.428  -1.881  1.00  0.00     0.033 C 
ATOM     10  C   UNL     1       6.345  74.794  -3.194  1.00  0.00     0.009 C 
ENDBRANCH   8   9
BRANCH   8  11
ATOM     11  C   UNL     1       9.518  73.997  -2.370  1.00  0.00    -0.022 A 
ATOM     12  C   UNL     1       9.904  74.064  -3.721  1.00  0.00     0.008 A 
ATOM     13  C   UNL     1      10.143  73.063  -1.527  1.00  0.00     0.008 A 
ATOM     14  C   UNL     1      10.880  73.198  -4.222  1.00  0.00     0.001 A 
ATOM     15  C   UNL     1      11.121  72.199  -2.031  1.00  0.00     0.001 A 
ATOM     16  C   UNL     1      11.486  72.265  -3.377  1.00  0.00     0.000 A 
ENDBRANCH   8  11
BRANCH   7  17
ATOM     17  C   UNL     1       7.827  76.985  -0.618  1.00  0.00    -0.017 A 
ATOM     18  C   UNL     1       7.024  76.445   0.400  1.00  0.00     0.012 A 
ATOM     19  C   UNL     1       7.751  78.358  -0.900  1.00  0.00     0.012 A 
ATOM     20  C   UNL     1       6.128  77.261   1.097  1.00  0.00     0.047 A 
ATOM     21  C   UNL     1       6.852  79.172  -0.203  1.00  0.00     0.047 A 
ATOM     22  C   UNL     1       6.037  78.624   0.796  1.00  0.00     0.115 A 
BRANCH  22  23
ATOM     23  O   UNL     1       5.137  79.424   1.497  1.00  0.00    -0.508 OA
ATOM     24  H   UNL     1       4.136  79.311   1.393  1.00  0.00     0.293 HD
ENDBRANCH  22  23
ENDBRANCH   7  17
ENDBRANCH   1   7
BRANCH   4  25
ATOM     25  O   UNL     1      14.065  78.292  -1.871  1.00  0.00    -0.492 OA
BRANCH  25  26
ATOM     26  C   UNL     1      14.543  79.422  -1.145  1.00  0.00     0.245 C 
BRANCH  26  27
ATOM     27  C   UNL     1      13.644  80.644  -1.404  1.00  0.00     0.125 C 
BRANCH  27  28
ATOM     28  N   UNL     1      12.757  81.020  -0.279  1.00  0.00    -0.306 NA
ATOM     29  C   UNL     1      11.326  80.867  -0.586  1.00  0.00     0.105 C 
ATOM     30  C   UNL     1      13.107  80.349   0.983  1.00  0.00     0.105 C 
ENDBRANCH  27  28
ENDBRANCH  26  27
ENDBRANCH  25  26
ENDBRANCH   4  25
TORSDOF 9
ENDMDL
MODEL 5
REMARK VINA RESULT:    -8.020      2.001      5.093
REMARK INTER + INTRA:         -13.970
REMARK INTER:                 -12.131
REMARK INTRA:                  -1.839
REMARK UNBOUND:                -1.965
REMARK SMILES CC/C(=C(\c1ccc(O)cc1)c1ccc(OCCN(C)C)cc1)c1ccccc1
REMARK SMILES IDX 12 1 13 2 14 3 15 4 22 5 23 6 4 7 3 8 2 9 1 10 24 11 25 12
REMARK SMILES IDX 29 13 26 14 28 15 27 16 5 17 6 18 11 19 7 20 10 21 8 22 9 23
REMARK SMILES IDX 16 25 17 26 18 27 19 28 20 29 21 30
REMARK H PARENT 9 24
REMARK Flexibility Score: inf
ROOT
ATOM      1  C   UNL     1      10.217  76.734  -1.459  1.00  0.00    -0.017 A 
ATOM      2  C   UNL     1      10.587  77.290  -2.693  1.00  0.00     0.012 A 
ATOM      3  C   UNL     1      11.872  77.809  -2.876  1.00  0.00     0.047 A 
ATOM      4  C   UNL     1      12.809  77.773  -1.837  1.00  0.00     0.119 A 
ATOM      5  C   UNL     1      12.446  77.197  -0.605  1.00  0.00     0.047 A 
ATOM      6  C   UNL     1      11.162  76.678  -0.421  1.00  0.00     0.012 A 
ENDROOT
BRANCH   1   7
ATOM      7  C   UNL     1       8.850  76.183  -1.272  1.00  0.00    -0.007 C 
ATOM      8  C   UNL     1       8.491  74.967  -1.776  1.00  0.00    -0.033 C 
BRANCH   8   9
ATOM      9  C   UNL     1       7.048  74.494  -1.788  1.00  0.00     0.033 C 
ATOM     10  C   UNL     1       6.358  74.799  -3.117  1.00  0.00     0.009 C 
ENDBRANCH   8   9
BRANCH   8  11
ATOM     11  C   UNL     1       9.514  74.037  -2.326  1.00  0.00    -0.022 A 
ATOM     12  C   UNL     1      10.111  73.069  -1.497  1.00  0.00     0.008 A 
ATOM     13  C   UNL     1       9.882  74.097  -3.680  1.00  0.00     0.008 A 
ATOM     14  C   UNL     1      11.074  72.197  -2.010  1.00  0.00     0.001 A 
ATOM     15  C   UNL     1      10.846  73.221  -4.190  1.00  0.00     0.001 A 
ATOM     16  C   UNL     1      11.443  72.274  -3.355  1.00  0.00     0.000 A 
ENDBRANCH   8  11
BRANCH   7  17
ATOM     17  C   UNL     1       7.890  77.041  -0.538  1.00  0.00    -0.017 A 
ATOM     18  C   UNL     1       7.769  78.405  -0.848  1.00  0.00     0.012 A 
ATOM     19  C   UNL     1       7.034  76.473   0.419  1.00  0.00     0.012 A 
ATOM     20  C   UNL     1       6.834  79.199  -0.179  1.00  0.00     0.047 A 
ATOM     21  C   UNL     1       6.098  77.270   1.088  1.00  0.00     0.047 A 
ATOM     22  C   UNL     1       5.999  78.636   0.792  1.00  0.00     0.115 A 
BRANCH  22  23
ATOM     23  O   UNL     1       5.071  79.440   1.452  1.00  0.00    -0.508 OA
ATOM     24  H   UNL     1       5.206  80.440   1.539  1.00  0.00     0.293 HD
ENDBRANCH  22  23
ENDBRANCH   7  17
ENDBRANCH   1   7
BRANCH   4  25
ATOM     25  O   UNL     1      14.081  78.315  -2.069  1.00  0.00    -0.492 OA
BRANCH  25  26
ATOM     26  C   UNL     1      14.339  79.698  -2.299  1.00  0.00     0.245 C 
BRANCH  26  27
ATOM     27  C   UNL     1      15.022  79.896  -3.665  1.00  0.00     0.125 C 
BRANCH  27  28
ATOM     28  N   UNL     1      14.097  80.049  -4.812  1.00  0.00    -0.306 NA
ATOM     29  C   UNL     1      14.200  81.358  -5.476  1.00  0.00     0.105 C 
ATOM     30  C   UNL     1      14.193  78.948  -5.783  1.00  0.00     0.105 C 
ENDBRANCH  27  28
ENDBRANCH  26  27
ENDBRANCH  25  26
ENDBRANCH   4  25
TORSDOF 9
ENDMDL
MODEL 6
REMARK VINA RESULT:    -7.384      2.570      4.664
REMARK INTER + INTRA:         -13.018
REMARK INTER:                 -10.917
REMARK INTRA:                  -2.101
REMARK UNBOUND:                -1.965
REMARK SMILES CC/C(=C(\c1ccc(O)cc1)c1ccc(OCCN(C)C)cc1)c1ccccc1
REMARK SMILES IDX 12 1 13 2 14 3 15 4 22 5 23 6 4 7 3 8 2 9 1 10 24 11 25 12
REMARK SMILES IDX 29 13 26 14 28 15 27 16 5 17 6 18 11 19 7 20 10 21 8 22 9 23
REMARK SMILES IDX 16 25 17 26 18 27 19 28 20 29 21 30
REMARK H PARENT 9 24
REMARK Flexibility Score: inf
ROOT
ATOM      1  C   UNL     1      12.294  78.259  -3.208  1.00  0.00    -0.017 A 
ATOM      2  C   UNL     1      12.315  79.646  -3.421  1.00  0.00     0.012 A 
ATOM      3  C   UNL     1      13.134  80.195  -4.412  1.00  0.00     0.047 A 
ATOM      4  C   UNL     1      13.937  79.372  -5.209  1.00  0.00     0.119 A 
ATOM      5  C   UNL     1      13.902  77.979  -5.010  1.00  0.00     0.047 A 
ATOM      6  C   UNL     1      13.083  77.428  -4.021  1.00  0.00     0.012 A 
ENDROOT
BRANCH   1   7
ATOM      7  C   UNL     1      11.420  77.682  -2.154  1.00  0.00    -0.007 C 
ATOM      8  C   UNL     1      11.715  77.811  -0.828  1.00  0.00    -0.033 C 
BRANCH   8   9
ATOM      9  C   UNL     1      10.960  77.041   0.242  1.00  0.00     0.033 C 
ATOM     10  C   UNL     1      11.542  75.645   0.459  1.00  0.00     0.009 C 
ENDBRANCH   8   9
BRANCH   8  11
ATOM     11  C   UNL     1      12.788  78.734  -0.370  1.00  0.00    -0.022 A 
ATOM     12  C   UNL     1      12.459  79.983   0.187  1.00  0.00     0.008 A 
ATOM     13  C   UNL     1      14.140  78.364  -0.467  1.00  0.00     0.008 A 
ATOM     14  C   UNL     1      13.464  80.854   0.614  1.00  0.00     0.001 A 
ATOM     15  C   UNL     1      15.144  79.238  -0.037  1.00  0.00     0.001 A 
ATOM     16  C   UNL     1      14.807  80.482   0.500  1.00  0.00     0.000 A 
ENDBRANCH   8  11
BRANCH   7  17
ATOM     17  C   UNL     1      10.232  76.931  -2.624  1.00  0.00    -0.017 A 
ATOM     18  C   UNL     1      10.317  75.556  -2.894  1.00  0.00     0.012 A 
ATOM     19  C   UNL     1       8.990  77.578  -2.723  1.00  0.00     0.012 A 
ATOM     20  C   UNL     1       9.182  74.847  -3.298  1.00  0.00     0.047 A 
ATOM     21  C   UNL     1       7.856  76.866  -3.128  1.00  0.00     0.047 A 
ATOM     22  C   UNL     1       7.951  75.499  -3.420  1.00  0.00     0.115 A 
BRANCH  22  23
ATOM     23  O   UNL     1       6.828  74.780  -3.825  1.00  0.00    -0.508 OA
ATOM     24  H   UNL     1       6.901  73.819  -4.140  1.00  0.00     0.293 HD
ENDBRANCH  22  23
ENDBRANCH   7  17
ENDBRANCH   1   7
BRANCH   4  25
ATOM     25  O   UNL     1      14.747  79.974  -6.182  1.00  0.00    -0.492 OA
BRANCH  25  26
ATOM     26  C   UNL     1      15.694  81.007  -5.917  1.00  0.00     0.245 C 
BRANCH  26  27
ATOM     27  C   UNL     1      16.870  80.455  -5.092  1.00  0.00     0.125 C 
BRANCH  27  28
ATOM     28  N   UNL     1      18.197  80.565  -5.741  1.00  0.00    -0.306 NA
ATOM     29  C   UNL     1      18.126  80.646  -7.209  1.00  0.00     0.105 C 
ATOM     30  C   UNL     1      19.024  81.649  -5.187  1.00  0.00     0.105 C 
ENDBRANCH  27  28
ENDBRANCH  26  27
ENDBRANCH  25  26
ENDBRANCH   4  25
TORSDOF 9
ENDMDL
MODEL 7
REMARK VINA RESULT:    -7.321      2.342      6.290
REMARK INTER + INTRA:         -12.923
REMARK INTER:                 -12.056
REMARK INTRA:                  -0.867
REMARK UNBOUND:                -1.965
REMARK SMILES CC/C(=C(\c1ccc(O)cc1)c1ccc(OCCN(C)C)cc1)c1ccccc1
REMARK SMILES IDX 12 1 13 2 14 3 15 4 22 5 23 6 4 7 3 8 2 9 1 10 24 11 25 12
REMARK SMILES IDX 29 13 26 14 28 15 27 16 5 17 6 18 11 19 7 20 10 21 8 22 9 23
REMARK SMILES IDX 16 25 17 26 18 27 19 28 20 29 21 30
REMARK H PARENT 9 24
REMARK Flexibility Score: inf
ROOT
ATOM      1  C   UNL     1       9.961  76.237  -1.385  1.00  0.00    -0.017 A 
ATOM      2  C   UNL     1       9.889  75.746  -2.698  1.00  0.00     0.012 A 
ATOM      3  C   UNL     1      10.133  74.395  -2.961  1.00  0.00     0.047 A 
ATOM      4  C   UNL     1      10.443  73.512  -1.920  1.00  0.00     0.119 A 
ATOM      5  C   UNL     1      10.495  73.998  -0.600  1.00  0.00     0.047 A 
ATOM      6  C   UNL     1      10.251  75.348  -0.336  1.00  0.00     0.012 A 
ENDROOT
BRANCH   1   7
ATOM      7  C   UNL     1       9.699  77.674  -1.113  1.00  0.00    -0.007 C 
ATOM      8  C   UNL     1       8.463  78.120  -0.746  1.00  0.00    -0.033 C 
BRANCH   8   9
ATOM      9  C   UNL     1       8.127  79.600  -0.684  1.00  0.00     0.033 C 
ATOM     10  C   UNL     1       7.570  80.116  -2.011  1.00  0.00     0.009 C 
ENDBRANCH   8   9
BRANCH   8  11
ATOM     11  C   UNL     1       7.385  77.165  -0.371  1.00  0.00    -0.022 A 
ATOM     12  C   UNL     1       7.127  76.037  -1.173  1.00  0.00     0.008 A 
ATOM     13  C   UNL     1       6.626  77.363   0.794  1.00  0.00     0.008 A 
ATOM     14  C   UNL     1       6.112  75.141  -0.826  1.00  0.00     0.001 A 
ATOM     15  C   UNL     1       5.612  76.463   1.139  1.00  0.00     0.001 A 
ATOM     16  C   UNL     1       5.354  75.355   0.329  1.00  0.00     0.000 A 
ENDBRANCH   8  11
BRANCH   7  17
ATOM     17  C   UNL     1      10.844  78.597  -1.294  1.00  0.00    -0.017 A 
ATOM     18  C   UNL     1      11.566  79.065  -0.184  1.00  0.00     0.012 A 
ATOM     19  C   UNL     1      11.265  78.944  -2.587  1.00  0.00     0.012 A 
ATOM     20  C   UNL     1      12.669  79.903  -0.365  1.00  0.00     0.047 A 
ATOM     21  C   UNL     1      12.369  79.785  -2.766  1.00  0.00     0.047 A 
ATOM     22  C   UNL     1      13.072  80.268  -1.654  1.00  0.00     0.115 A 
BRANCH  22  23
ATOM     23  O   UNL     1      14.173  81.106  -1.820  1.00  0.00    -0.508 OA
ATOM     24  H   UNL     1      15.112  80.735  -1.904  1.00  0.00     0.293 HD
ENDBRANCH  22  23
ENDBRANCH   7  17
ENDBRANCH   1   7
BRANCH   4  25
ATOM     25  O   UNL     1      10.688  72.169  -2.239  1.00  0.00    -0.492 OA
BRANCH  25  26
ATOM     26  C   UNL     1       9.681  71.231  -2.609  1.00  0.00     0.245 C 
BRANCH  26  27
ATOM     27  C   UNL     1       9.739  70.954  -4.123  1.00  0.00     0.125 C 
BRANCH  27  28
ATOM     28  N   UNL     1       9.999  72.142  -4.968  1.00  0.00    -0.306 NA
ATOM     29  C   UNL     1      11.323  72.127  -5.608  1.00  0.00     0.105 C 
ATOM     30  C   UNL     1       8.933  72.398  -5.950  1.00  0.00     0.105 C 
ENDBRANCH  27  28
ENDBRANCH  26  27
ENDBRANCH  25  26
ENDBRANCH   4  25
TORSDOF 9
ENDMDL
MODEL 8
REMARK VINA RESULT:    -7.162      2.569      6.432
REMARK INTER + INTRA:         -12.686
REMARK INTER:                 -10.503
REMARK INTRA:                  -2.183
REMARK UNBOUND:                -1.965
REMARK SMILES CC/C(=C(\c1ccc(O)cc1)c1ccc(OCCN(C)C)cc1)c1ccccc1
REMARK SMILES IDX 12 1 13 2 14 3 15 4 22 5 23 6 4 7 3 8 2 9 1 10 24 11 25 12
REMARK SMILES IDX 29 13 26 14 28 15 27 16 5 17 6 18 11 19 7 20 10 21 8 22 9 23
REMARK SMILES IDX 16 25 17 26 18 27 19 28 20 29 21 30
REMARK H PARENT 9 24
REMARK Flexibility Score: inf
ROOT
ATOM      1  C   UNL     1      10.524  77.465  -1.344  1.00  0.00    -0.017 A 
ATOM      2  C   UNL     1      10.578  76.396  -0.438  1.00  0.00     0.012 A 
ATOM      3  C   UNL     1       9.954  75.182  -0.741  1.00  0.00     0.047 A 
ATOM      4  C   UNL     1       9.277  75.013  -1.954  1.00  0.00     0.119 A 
ATOM      5  C   UNL     1       9.239  76.078  -2.873  1.00  0.00     0.047 A 
ATOM      6  C   UNL     1       9.862  77.292  -2.572  1.00  0.00     0.012 A 
ENDROOT
BRANCH   1   7
ATOM      7  C   UNL     1      11.190  78.753  -1.016  1.00  0.00    -0.007 C 
ATOM      8  C   UNL     1      10.486  79.916  -0.907  1.00  0.00    -0.033 C 
BRANCH   8   9
ATOM      9  C   UNL     1      11.175  81.266  -0.796  1.00  0.00     0.033 C 
ATOM     10  C   UNL     1      11.156  81.799   0.637  1.00  0.00     0.009 C 
ENDBRANCH   8   9
BRANCH   8  11
ATOM     11  C   UNL     1       8.999  79.910  -0.876  1.00  0.00    -0.022 A 
ATOM     12  C   UNL     1       8.315  79.378   0.233  1.00  0.00     0.008 A 
ATOM     13  C   UNL     1       8.258  80.452  -1.940  1.00  0.00     0.008 A 
ATOM     14  C   UNL     1       6.918  79.367   0.263  1.00  0.00     0.001 A 
ATOM     15  C   UNL     1       6.860  80.441  -1.905  1.00  0.00     0.001 A 
ATOM     16  C   UNL     1       6.191  79.897  -0.807  1.00  0.00     0.000 A 
ENDBRANCH   8  11
BRANCH   7  17
ATOM     17  C   UNL     1      12.661  78.707  -0.847  1.00  0.00    -0.017 A 
ATOM     18  C   UNL     1      13.513  78.905  -1.945  1.00  0.00     0.012 A 
ATOM     19  C   UNL     1      13.214  78.547   0.434  1.00  0.00     0.012 A 
ATOM     20  C   UNL     1      14.900  78.901  -1.771  1.00  0.00     0.047 A 
ATOM     21  C   UNL     1      14.602  78.542   0.606  1.00  0.00     0.047 A 
ATOM     22  C   UNL     1      15.448  78.716  -0.497  1.00  0.00     0.115 A 
BRANCH  22  23
ATOM     23  O   UNL     1      16.832  78.713  -0.339  1.00  0.00    -0.508 OA
ATOM     24  H   UNL     1      17.434  78.177  -0.953  1.00  0.00     0.293 HD
ENDBRANCH  22  23
ENDBRANCH   7  17
ENDBRANCH   1   7
BRANCH   4  25
ATOM     25  O   UNL     1       8.661  73.779  -2.205  1.00  0.00    -0.492 OA
BRANCH  25  26
ATOM     26  C   UNL     1       9.274  72.698  -2.905  1.00  0.00     0.245 C 
BRANCH  26  27
ATOM     27  C   UNL     1       9.010  72.821  -4.416  1.00  0.00     0.125 C 
BRANCH  27  28
ATOM     28  N   UNL     1      10.213  72.708  -5.274  1.00  0.00    -0.306 NA
ATOM     29  C   UNL     1      11.430  73.247  -4.648  1.00  0.00     0.105 C 
ATOM     30  C   UNL     1      10.433  71.346  -5.785  1.00  0.00     0.105 C 
ENDBRANCH  27  28
ENDBRANCH  26  27
ENDBRANCH  25  26
ENDBRANCH   4  25
TORSDOF 9
ENDMDL
MODEL 9
REMARK VINA RESULT:    -6.896      1.961      2.531
REMARK INTER + INTRA:         -12.288
REMARK INTER:                 -11.462
REMARK INTRA:                  -0.826
REMARK UNBOUND:                -1.965
REMARK SMILES CC/C(=C(\c1ccc(O)cc1)c1ccc(OCCN(C)C)cc1)c1ccccc1
REMARK SMILES IDX 12 1 13 2 14 3 15 4 22 5 23 6 4 7 3 8 2 9 1 10 24 11 25 12
REMARK SMILES IDX 29 13 26 14 28 15 27 16 5 17 6 18 11 19 7 20 10 21 8 22 9 23
REMARK SMILES IDX 16 25 17 26 18 27 19 28 20 29 21 30
REMARK H PARENT 9 24
REMARK Flexibility Score: inf
ROOT
ATOM      1  C   UNL     1       9.783  76.530  -1.587  1.00  0.00    -0.017 A 
ATOM      2  C   UNL     1      10.653  76.628  -0.490  1.00  0.00     0.012 A 
ATOM      3  C   UNL     1      11.601  77.653  -0.430  1.00  0.00     0.047 A 
ATOM      4  C   UNL     1      11.692  78.600  -1.457  1.00  0.00     0.119 A 
ATOM      5  C   UNL     1      10.807  78.515  -2.548  1.00  0.00     0.047 A 
ATOM      6  C   UNL     1       9.857  77.492  -2.609  1.00  0.00     0.012 A 
ENDROOT
BRANCH   1   7
ATOM      7  C   UNL     1       8.776  75.440  -1.643  1.00  0.00    -0.007 C 
ATOM      8  C   UNL     1       7.596  75.518  -0.963  1.00  0.00    -0.033 C 
BRANCH   8   9
ATOM      9  C   UNL     1       6.663  74.326  -0.830  1.00  0.00     0.033 C 
ATOM     10  C   UNL     1       5.430  74.465  -1.722  1.00  0.00     0.009 C 
ENDBRANCH   8   9
BRANCH   8  11
ATOM     11  C   UNL     1       7.161  76.792  -0.330  1.00  0.00    -0.022 A 
ATOM     12  C   UNL     1       7.452  78.024  -0.944  1.00  0.00     0.008 A 
ATOM     13  C   UNL     1       6.439  76.783   0.875  1.00  0.00     0.008 A 
ATOM     14  C   UNL     1       7.050  79.223  -0.350  1.00  0.00     0.001 A 
ATOM     15  C   UNL     1       6.035  77.985   1.466  1.00  0.00     0.001 A 
ATOM     16  C   UNL     1       6.343  79.203   0.856  1.00  0.00     0.000 A 
ENDBRANCH   8  11
BRANCH   7  17
ATOM     17  C   UNL     1       9.138  74.251  -2.450  1.00  0.00    -0.017 A 
ATOM     18  C   UNL     1       9.926  73.227  -1.900  1.00  0.00     0.012 A 
ATOM     19  C   UNL     1       8.624  74.103  -3.748  1.00  0.00     0.012 A 
ATOM     20  C   UNL     1      10.231  72.091  -2.654  1.00  0.00     0.047 A 
ATOM     21  C   UNL     1       8.931  72.965  -4.502  1.00  0.00     0.047 A 
ATOM     22  C   UNL     1       9.737  71.958  -3.957  1.00  0.00     0.115 A 
BRANCH  22  23
ATOM     23  O   UNL     1      10.050  70.820  -4.698  1.00  0.00    -0.508 OA
ATOM     24  H   UNL     1       9.795  70.738  -5.675  1.00  0.00     0.293 HD
ENDBRANCH  22  23
ENDBRANCH   7  17
ENDBRANCH   1   7
BRANCH   4  25
ATOM     25  O   UNL     1      12.667  79.601  -1.353  1.00  0.00    -0.492 OA
BRANCH  25  26
ATOM     26  C   UNL     1      12.908  80.375  -0.180  1.00  0.00     0.245 C 
BRANCH  26  27
ATOM     27  C   UNL     1      14.421  80.534   0.055  1.00  0.00     0.125 C 
BRANCH  27  28
ATOM     28  N   UNL     1      15.162  79.267   0.250  1.00  0.00    -0.306 NA
ATOM     29  C   UNL     1      14.449  78.295   1.094  1.00  0.00     0.105 C 
ATOM     30  C   UNL     1      15.603  78.654  -1.013  1.00  0.00     0.105 C 
ENDBRANCH  27  28
ENDBRANCH  26  27
ENDBRANCH  25  26
ENDBRANCH   4  25
TORSDOF 9
ENDMDL
MODEL 10
REMARK VINA RESULT:    -6.507      2.905      6.791
REMARK INTER + INTRA:         -11.706
REMARK INTER:                  -9.931
REMARK INTRA:                  -1.775
REMARK UNBOUND:                -1.965
REMARK SMILES CC/C(=C(\c1ccc(O)cc1)c1ccc(OCCN(C)C)cc1)c1ccccc1
REMARK SMILES IDX 12 1 13 2 14 3 15 4 22 5 23 6 4 7 3 8 2 9 1 10 24 11 25 12
REMARK SMILES IDX 29 13 26 14 28 15 27 16 5 17 6 18 11 19 7 20 10 21 8 22 9 23
REMARK SMILES IDX 16 25 17 26 18 27 19 28 20 29 21 30
REMARK H PARENT 9 24
REMARK Flexibility Score: inf
ROOT
ATOM      1  C   UNL     1      10.606  77.722  -1.425  1.00  0.00    -0.017 A 
ATOM      2  C   UNL     1      10.789  76.599  -0.604  1.00  0.00     0.012 A 
ATOM      3  C   UNL     1      10.176  75.384  -0.924  1.00  0.00     0.047 A 
ATOM      4  C   UNL     1       9.380  75.268  -2.069  1.00  0.00     0.119 A 
ATOM      5  C   UNL     1       9.213  76.388  -2.905  1.00  0.00     0.047 A 
ATOM      6  C   UNL     1       9.825  77.603  -2.588  1.00  0.00     0.012 A 
ENDROOT
BRANCH   1   7
ATOM      7  C   UNL     1      11.262  79.010  -1.081  1.00  0.00    -0.007 C 
ATOM      8  C   UNL     1      10.553  80.171  -0.978  1.00  0.00    -0.033 C 
BRANCH   8   9
ATOM      9  C   UNL     1      11.234  81.522  -0.849  1.00  0.00     0.033 C 
ATOM     10  C   UNL     1      11.243  82.022   0.595  1.00  0.00     0.009 C 
ENDBRANCH   8   9
BRANCH   8  11
ATOM     11  C   UNL     1       9.065  80.159  -0.971  1.00  0.00    -0.022 A 
ATOM     12  C   UNL     1       8.347  80.551  -2.116  1.00  0.00     0.008 A 
ATOM     13  C   UNL     1       8.358  79.741   0.169  1.00  0.00     0.008 A 
ATOM     14  C   UNL     1       6.950  80.545  -2.110  1.00  0.00     0.001 A 
ATOM     15  C   UNL     1       6.959  79.735   0.170  1.00  0.00     0.001 A 
ATOM     16  C   UNL     1       6.256  80.140  -0.967  1.00  0.00     0.000 A 
ENDBRANCH   8  11
BRANCH   7  17
ATOM     17  C   UNL     1      12.731  78.969  -0.888  1.00  0.00    -0.017 A 
ATOM     18  C   UNL     1      13.278  78.759   0.388  1.00  0.00     0.012 A 
ATOM     19  C   UNL     1      13.585  79.060  -1.998  1.00  0.00     0.012 A 
ATOM     20  C   UNL     1      14.664  78.681   0.555  1.00  0.00     0.047 A 
ATOM     21  C   UNL     1      14.971  78.983  -1.828  1.00  0.00     0.047 A 
ATOM     22  C   UNL     1      15.514  78.796  -0.550  1.00  0.00     0.115 A 
BRANCH  22  23
ATOM     23  O   UNL     1      16.893  78.719  -0.368  1.00  0.00    -0.508 OA
ATOM     24  H   UNL     1      17.535  78.817  -1.145  1.00  0.00     0.293 HD
ENDBRANCH  22  23
ENDBRANCH   7  17
ENDBRANCH   1   7
BRANCH   4  25
ATOM     25  O   UNL     1       8.781  74.030  -2.339  1.00  0.00    -0.492 OA
BRANCH  25  26
ATOM     26  C   UNL     1       7.586  73.559  -1.718  1.00  0.00     0.245 C 
BRANCH  26  27
ATOM     27  C   UNL     1       6.667  74.742  -1.361  1.00  0.00     0.125 C 
BRANCH  27  28
ATOM     28  N   UNL     1       6.590  75.061   0.084  1.00  0.00    -0.306 NA
ATOM     29  C   UNL     1       7.164  76.372   0.425  1.00  0.00     0.105 C 
ATOM     30  C   UNL     1       5.235  74.910   0.638  1.00  0.00     0.105 C 
ENDBRANCH  27  28
ENDBRANCH  26  27
ENDBRANCH  25  26
ENDBRANCH   4  25
TORSDOF 9
ENDMDL
MODEL 11
REMARK VINA RESULT:    -6.468      3.006      6.739
REMARK INTER + INTRA:         -11.647
REMARK INTER:                 -10.215
REMARK INTRA:                  -1.432
REMARK UNBOUND:                -1.965
REMARK SMILES CC/C(=C(\c1ccc(O)cc1)c1ccc(OCCN(C)C)cc1)c1ccccc1
REMARK SMILES IDX 12 1 13 2 14 3 15 4 22 5 23 6 4 7 3 8 2 9 1 10 24 11 25 12
REMARK SMILES IDX 29 13 26 14 28 15 27 16 5 17 6 18 11 19 7 20 10 21 8 22 9 23
REMARK SMILES IDX 16 25 17 26 18 27 19 28 20 29 21 30
REMARK H PARENT 9 24
REMARK Flexibility Score: inf
ROOT
ATOM      1  C   UNL     1      11.062  78.463  -2.005  1.00  0.00    -0.017 A 
ATOM      2  C   UNL     1       9.819  78.954  -2.432  1.00  0.00     0.012 A 
ATOM      3  C   UNL     1       8.643  78.264  -2.122  1.00  0.00     0.047 A 
ATOM      4  C   UNL     1       8.688  77.081  -1.375  1.00  0.00     0.119 A 
ATOM      5  C   UNL     1       9.933  76.598  -0.929  1.00  0.00     0.047 A 
ATOM      6  C   UNL     1      11.109  77.287  -1.237  1.00  0.00     0.012 A 
ENDROOT
BRANCH   1   7
ATOM      7  C   UNL     1      12.307  79.202  -2.337  1.00  0.00    -0.007 C 
ATOM      8  C   UNL     1      12.793  80.188  -1.529  1.00  0.00    -0.033 C 
BRANCH   8   9
ATOM      9  C   UNL     1      13.929  81.098  -1.962  1.00  0.00     0.033 C 
ATOM     10  C   UNL     1      15.297  80.483  -1.668  1.00  0.00     0.009 C 
ENDBRANCH   8   9
BRANCH   8  11
ATOM     11  C   UNL     1      12.235  80.403  -0.166  1.00  0.00    -0.022 A 
ATOM     12  C   UNL     1      12.856  79.823   0.955  1.00  0.00     0.008 A 
ATOM     13  C   UNL     1      11.095  81.203   0.022  1.00  0.00     0.008 A 
ATOM     14  C   UNL     1      12.331  80.019   2.235  1.00  0.00     0.001 A 
ATOM     15  C   UNL     1      10.574  81.399   1.306  1.00  0.00     0.001 A 
ATOM     16  C   UNL     1      11.190  80.806   2.409  1.00  0.00     0.000 A 
ENDBRANCH   8  11
BRANCH   7  17
ATOM     17  C   UNL     1      12.972  78.833  -3.609  1.00  0.00    -0.017 A 
ATOM     18  C   UNL     1      13.406  79.826  -4.502  1.00  0.00     0.012 A 
ATOM     19  C   UNL     1      13.246  77.486  -3.890  1.00  0.00     0.012 A 
ATOM     20  C   UNL     1      14.068  79.472  -5.681  1.00  0.00     0.047 A 
ATOM     21  C   UNL     1      13.908  77.133  -5.071  1.00  0.00     0.047 A 
ATOM     22  C   UNL     1      14.318  78.126  -5.971  1.00  0.00     0.115 A 
BRANCH  22  23
ATOM     23  O   UNL     1      14.978  77.787  -7.150  1.00  0.00    -0.508 OA
ATOM     24  H   UNL     1      14.989  78.412  -7.948  1.00  0.00     0.293 HD
ENDBRANCH  22  23
ENDBRANCH   7  17
ENDBRANCH   1   7
BRANCH   4  25
ATOM     25  O   UNL     1       7.482  76.422  -1.099  1.00  0.00    -0.492 OA
BRANCH  25  26
ATOM     26  C   UNL     1       7.133  75.134  -1.600  1.00  0.00     0.245 C 
BRANCH  26  27
ATOM     27  C   UNL     1       7.626  74.970  -3.049  1.00  0.00     0.125 C 
BRANCH  27  28
ATOM     28  N   UNL     1       8.803  74.086  -3.214  1.00  0.00    -0.306 NA
ATOM     29  C   UNL     1       9.085  73.259  -2.030  1.00  0.00     0.105 C 
ATOM     30  C   UNL     1       8.745  73.268  -4.436  1.00  0.00     0.105 C 
ENDBRANCH  27  28
ENDBRANCH  26  27
ENDBRANCH  25  26
ENDBRANCH   4  25
TORSDOF 9
ENDMDL
MODEL 12
REMARK VINA RESULT:    -6.203      2.622      3.562
REMARK INTER + INTRA:         -11.250
REMARK INTER:                  -9.613
REMARK INTRA:                  -1.636
REMARK UNBOUND:                -1.965
REMARK SMILES CC/C(=C(\c1ccc(O)cc1)c1ccc(OCCN(C)C)cc1)c1ccccc1
REMARK SMILES IDX 12 1 13 2 14 3 15 4 22 5 23 6 4 7 3 8 2 9 1 10 24 11 25 12
REMARK SMILES IDX 29 13 26 14 28 15 27 16 5 17 6 18 11 19 7 20 10 21 8 22 9 23
REMARK SMILES IDX 16 25 17 26 18 27 19 28 20 29 21 30
REMARK H PARENT 9 24
REMARK Flexibility Score: inf
ROOT
ATOM      1  C   UNL     1      11.737  78.616  -2.092  1.00  0.00    -0.017 A 
ATOM      2  C   UNL     1      11.960  79.151  -3.369  1.00  0.00     0.012 A 
ATOM      3  C   UNL     1      13.262  79.399  -3.813  1.00  0.00     0.047 A 
ATOM      4  C   UNL     1      14.360  79.108  -2.995  1.00  0.00     0.119 A 
ATOM      5  C   UNL     1      14.139  78.552  -1.721  1.00  0.00     0.047 A 
ATOM      6  C   UNL     1      12.838  78.303  -1.277  1.00  0.00     0.012 A 
ENDROOT
BRANCH   1   7
ATOM      7  C   UNL     1      10.350  78.354  -1.627  1.00  0.00    -0.007 C 
ATOM      8  C   UNL     1       9.774  79.093  -0.636  1.00  0.00    -0.033 C 
BRANCH   8   9
ATOM      9  C   UNL     1       8.453  78.698  -0.000  1.00  0.00     0.033 C 
ATOM     10  C   UNL     1       7.343  79.700  -0.319  1.00  0.00     0.009 C 
ENDBRANCH   8   9
BRANCH   8  11
ATOM     11  C   UNL     1      10.416  80.341  -0.142  1.00  0.00    -0.022 A 
ATOM     12  C   UNL     1      10.638  81.419  -1.018  1.00  0.00     0.008 A 
ATOM     13  C   UNL     1      10.791  80.469   1.206  1.00  0.00     0.008 A 
ATOM     14  C   UNL     1      11.245  82.591  -0.558  1.00  0.00     0.001 A 
ATOM     15  C   UNL     1      11.397  81.644   1.664  1.00  0.00     0.001 A 
ATOM     16  C   UNL     1      11.626  82.702   0.782  1.00  0.00     0.000 A 
ENDBRANCH   8  11
BRANCH   7  17
ATOM     17  C   UNL     1       9.641  77.226  -2.276  1.00  0.00    -0.017 A 
ATOM     18  C   UNL     1      10.213  75.944  -2.304  1.00  0.00     0.012 A 
ATOM     19  C   UNL     1       8.351  77.417  -2.797  1.00  0.00     0.012 A 
ATOM     20  C   UNL     1       9.521  74.877  -2.883  1.00  0.00     0.047 A 
ATOM     21  C   UNL     1       7.660  76.348  -3.376  1.00  0.00     0.047 A 
ATOM     22  C   UNL     1       8.245  75.075  -3.423  1.00  0.00     0.115 A 
BRANCH  22  23
ATOM     23  O   UNL     1       7.568  74.002  -3.998  1.00  0.00    -0.508 OA
ATOM     24  H   UNL     1       6.868  74.143  -4.718  1.00  0.00     0.293 HD
ENDBRANCH  22  23
ENDBRANCH   7  17
ENDBRANCH   1   7
BRANCH   4  25
ATOM     25  O   UNL     1      15.645  79.384  -3.484  1.00  0.00    -0.492 OA
BRANCH  25  26
ATOM     26  C   UNL     1      15.956  80.448  -4.381  1.00  0.00     0.245 C 
BRANCH  26  27
ATOM     27  C   UNL     1      16.096  79.912  -5.818  1.00  0.00     0.125 C 
BRANCH  27  28
ATOM     28  N   UNL     1      17.489  79.684  -6.268  1.00  0.00    -0.306 NA
ATOM     29  C   UNL     1      17.601  78.682  -7.339  1.00  0.00     0.105 C 
ATOM     30  C   UNL     1      18.192  80.927  -6.624  1.00  0.00     0.105 C 
ENDBRANCH  27  28
ENDBRANCH  26  27
ENDBRANCH  25  26
ENDBRANCH   4  25
TORSDOF 9
ENDMDL
MODEL 13
REMARK VINA RESULT:    -6.000      3.456      7.148
REMARK INTER + INTRA:         -10.947
REMARK INTER:                  -9.792
REMARK INTRA:                  -1.155
REMARK UNBOUND:                -1.965
REMARK SMILES CC/C(=C(\c1ccc(O)cc1)c1ccc(OCCN(C)C)cc1)c1ccccc1
REMARK SMILES IDX 12 1 13 2 14 3 15 4 22 5 23 6 4 7 3 8 2 9 1 10 24 11 25 12
REMARK SMILES IDX 29 13 26 14 28 15 27 16 5 17 6 18 11 19 7 20 10 21 8 22 9 23
REMARK SMILES IDX 16 25 17 26 18 27 19 28 20 29 21 30
REMARK H PARENT 9 24
REMARK Flexibility Score: inf
ROOT
ATOM      1  C   UNL     1      11.014  78.688  -2.283  1.00  0.00    -0.017 A 
ATOM      2  C   UNL     1       9.858  79.482  -2.336  1.00  0.00     0.012 A 
ATOM      3  C   UNL     1       8.600  78.912  -2.121  1.00  0.00     0.047 A 
ATOM      4  C   UNL     1       8.475  77.546  -1.842  1.00  0.00     0.119 A 
ATOM      5  C   UNL     1       9.635  76.752  -1.769  1.00  0.00     0.047 A 
ATOM      6  C   UNL     1      10.894  77.321  -1.982  1.00  0.00     0.012 A 
ENDROOT
BRANCH   1   7
ATOM      7  C   UNL     1      12.348  79.301  -2.510  1.00  0.00    -0.007 C 
ATOM      8  C   UNL     1      12.888  80.190  -1.628  1.00  0.00    -0.033 C 
BRANCH   8   9
ATOM      9  C   UNL     1      14.138  80.989  -1.954  1.00  0.00     0.033 C 
ATOM     10  C   UNL     1      15.408  80.279  -1.486  1.00  0.00     0.009 C 
ENDBRANCH   8   9
BRANCH   8  11
ATOM     11  C   UNL     1      12.278  80.404  -0.288  1.00  0.00    -0.022 A 
ATOM     12  C   UNL     1      11.174  81.265  -0.140  1.00  0.00     0.008 A 
ATOM     13  C   UNL     1      12.780  79.737   0.842  1.00  0.00     0.008 A 
ATOM     14  C   UNL     1      10.602  81.471   1.118  1.00  0.00     0.001 A 
ATOM     15  C   UNL     1      12.203  79.945   2.100  1.00  0.00     0.001 A 
ATOM     16  C   UNL     1      11.118  80.813   2.237  1.00  0.00     0.000 A 
ENDBRANCH   8  11
BRANCH   7  17
ATOM     17  C   UNL     1      13.042  78.919  -3.763  1.00  0.00    -0.017 A 
ATOM     18  C   UNL     1      13.453  79.900  -4.679  1.00  0.00     0.012 A 
ATOM     19  C   UNL     1      13.367  77.575  -4.000  1.00  0.00     0.012 A 
ATOM     20  C   UNL     1      14.143  79.536  -5.838  1.00  0.00     0.047 A 
ATOM     21  C   UNL     1      14.057  77.211  -5.162  1.00  0.00     0.047 A 
ATOM     22  C   UNL     1      14.444  78.192  -6.085  1.00  0.00     0.115 A 
BRANCH  22  23
ATOM     23  O   UNL     1      15.131  77.843  -7.246  1.00  0.00    -0.508 OA
ATOM     24  H   UNL     1      15.131  78.444  -8.062  1.00  0.00     0.293 HD
ENDBRANCH  22  23
ENDBRANCH   7  17
ENDBRANCH   1   7
BRANCH   4  25
ATOM     25  O   UNL     1       7.190  77.022  -1.645  1.00  0.00    -0.492 OA
BRANCH  25  26
ATOM     26  C   UNL     1       6.834  76.136  -0.586  1.00  0.00     0.245 C 
BRANCH  26  27
ATOM     27  C   UNL     1       7.009  76.832   0.776  1.00  0.00     0.125 C 
BRANCH  27  28
ATOM     28  N   UNL     1       5.931  77.781   1.138  1.00  0.00    -0.306 NA
ATOM     29  C   UNL     1       5.589  77.762   2.569  1.00  0.00     0.105 C 
ATOM     30  C   UNL     1       6.186  79.152   0.668  1.00  0.00     0.105 C 
ENDBRANCH  27  28
ENDBRANCH  26  27
ENDBRANCH  25  26
ENDBRANCH   4  25
TORSDOF 9
ENDMDL
