MODEL 1
REMARK VINA RESULT:    -8.942      0.000      0.000
REMARK INTER + INTRA:         -12.556
REMARK INTER:                 -12.078
REMARK INTRA:                  -0.478
REMARK UNBOUND:                -0.478
REMARK SMILES COc1cc2c(Nc3ccc(Br)cc3F)ncnc2cc1OCC1CCN(C)CC1
REMARK SMILES IDX 3 1 21 2 20 3 19 4 18 5 17 6 16 7 6 8 5 9 4 10 2 11 1 12
REMARK SMILES IDX 22 13 23 14 24 15 25 16 30 17 26 18 29 19 27 20 28 21 7 22
REMARK SMILES IDX 8 24 14 25 9 26 15 27 13 28 10 29 11 30 12 31
REMARK H PARENT 7 23
REMARK Flexibility Score: inf
ROOT
ATOM      1  C   UNL     1      29.443   8.340   9.594  1.00  0.00     0.161 A 
ATOM      2  C   UNL     1      29.604   9.738   9.774  1.00  0.00     0.163 A 
ATOM      3  C   UNL     1      30.887  10.296   9.708  1.00  0.00     0.079 A 
ATOM      4  C   UNL     1      32.007   9.501   9.459  1.00  0.00     0.080 A 
ATOM      5  N   UNL     1      33.242  10.064   9.433  1.00  0.00    -0.236 NA
ATOM      6  C   UNL     1      34.349   9.312   9.206  1.00  0.00     0.224 A 
ATOM      7  N   UNL     1      34.232   7.980   8.981  1.00  0.00    -0.219 NA
ATOM      8  C   UNL     1      33.021   7.362   8.975  1.00  0.00     0.141 A 
ATOM      9  C   UNL     1      31.859   8.117   9.250  1.00  0.00     0.047 A 
ATOM     10  C   UNL     1      30.580   7.542   9.346  1.00  0.00     0.064 A 
ENDROOT
BRANCH   1  11
ATOM     11  O   UNL     1      28.163   7.766   9.662  1.00  0.00    -0.493 OA
ATOM     12  C   UNL     1      27.477   7.163   8.569  1.00  0.00     0.278 C 
ENDBRANCH   1  11
BRANCH   2  13
ATOM     13  O   UNL     1      28.545  10.629  10.026  1.00  0.00    -0.489 OA
BRANCH  13  14
ATOM     14  C   UNL     1      27.800  11.358   9.054  1.00  0.00     0.233 C 
BRANCH  14  15
ATOM     15  C   UNL     1      26.310  11.341   9.423  1.00  0.00     0.029 C 
ATOM     16  C   UNL     1      26.002  12.417  10.479  1.00  0.00     0.022 C 
ATOM     17  C   UNL     1      25.881   9.956   9.944  1.00  0.00     0.022 C 
ATOM     18  C   UNL     1      24.531  12.350  10.902  1.00  0.00     0.084 C 
ATOM     19  C   UNL     1      24.415   9.981  10.394  1.00  0.00     0.084 C 
ATOM     20  N   UNL     1      24.214  11.011  11.433  1.00  0.00    -0.306 NA
ATOM     21  C   UNL     1      22.821  10.976  11.908  1.00  0.00     0.105 C 
ENDBRANCH  14  15
ENDBRANCH  13  14
ENDBRANCH   2  13
BRANCH   8  22
ATOM     22  N   UNL     1      32.969   5.955   8.700  1.00  0.00    -0.337 N 
ATOM     23  H   UNL     1      32.420   5.362   9.361  1.00  0.00     0.168 HD
BRANCH  22  24
ATOM     24  C   UNL     1      33.783   5.303   7.706  1.00  0.00     0.076 A 
ATOM     25  C   UNL     1      34.178   3.967   7.898  1.00  0.00     0.147 A 
ATOM     26  C   UNL     1      34.206   5.980   6.545  1.00  0.00     0.030 A 
ATOM     27  F   UNL     1      33.789   3.287   9.005  1.00  0.00    -0.205 F 
ATOM     28  C   UNL     1      34.963   3.317   6.939  1.00  0.00     0.057 A 
ATOM     29  C   UNL     1      34.990   5.326   5.590  1.00  0.00     0.018 A 
ATOM     30  C   UNL     1      35.366   3.994   5.785  1.00  0.00     0.021 A 
ATOM     31  Br  UNL     1      36.435   3.102   4.476  1.00  0.00    -0.051 Br
ENDBRANCH  22  24
ENDBRANCH   8  22
TORSDOF 6
ENDMDL
MODEL 2
REMARK VINA RESULT:    -8.872      4.850      9.718
REMARK INTER + INTRA:         -12.462
REMARK INTER:                 -11.674
REMARK INTRA:                  -0.788
REMARK UNBOUND:                -0.478
REMARK SMILES COc1cc2c(Nc3ccc(Br)cc3F)ncnc2cc1OCC1CCN(C)CC1
REMARK SMILES IDX 3 1 21 2 20 3 19 4 18 5 17 6 16 7 6 8 5 9 4 10 2 11 1 12
REMARK SMILES IDX 22 13 23 14 24 15 25 16 30 17 26 18 29 19 27 20 28 21 7 22
REMARK SMILES IDX 8 24 14 25 9 26 15 27 13 28 10 29 11 30 12 31
REMARK H PARENT 7 23
REMARK Flexibility Score: inf
ROOT
ATOM      1  C   UNL     1      30.376  11.356   8.989  1.00  0.00     0.161 A 
ATOM      2  C   UNL     1      31.593  11.429   9.714  1.00  0.00     0.163 A 
ATOM      3  C   UNL     1      31.732  12.384  10.728  1.00  0.00     0.079 A 
ATOM      4  C   UNL     1      30.691  13.259  11.044  1.00  0.00     0.080 A 
ATOM      5  N   UNL     1      30.866  14.197  12.009  1.00  0.00    -0.236 NA
ATOM      6  C   UNL     1      29.875  15.068  12.325  1.00  0.00     0.224 A 
ATOM      7  N   UNL     1      28.679  15.000  11.688  1.00  0.00    -0.219 NA
ATOM      8  C   UNL     1      28.437  14.071  10.726  1.00  0.00     0.141 A 
ATOM      9  C   UNL     1      29.468  13.180  10.351  1.00  0.00     0.047 A 
ATOM     10  C   UNL     1      29.329  12.246   9.310  1.00  0.00     0.064 A 
ENDROOT
BRANCH   1  11
ATOM     11  O   UNL     1      30.223  10.406   7.966  1.00  0.00    -0.493 OA
ATOM     12  C   UNL     1      29.024   9.690   7.686  1.00  0.00     0.278 C 
ENDBRANCH   1  11
BRANCH   2  13
ATOM     13  O   UNL     1      32.701  10.595   9.481  1.00  0.00    -0.489 OA
BRANCH  13  14
ATOM     14  C   UNL     1      32.914   9.294  10.024  1.00  0.00     0.233 C 
BRANCH  14  15
ATOM     15  C   UNL     1      33.028   8.269   8.886  1.00  0.00     0.029 C 
ATOM     16  C   UNL     1      32.649   6.864   9.385  1.00  0.00     0.022 C 
ATOM     17  C   UNL     1      34.450   8.251   8.294  1.00  0.00     0.022 C 
ATOM     18  C   UNL     1      32.837   5.830   8.270  1.00  0.00     0.084 C 
ATOM     19  C   UNL     1      34.573   7.161   7.223  1.00  0.00     0.084 C 
ATOM     20  N   UNL     1      34.232   5.841   7.791  1.00  0.00    -0.306 NA
ATOM     21  C   UNL     1      34.423   4.794   6.775  1.00  0.00     0.105 C 
ENDBRANCH  14  15
ENDBRANCH  13  14
ENDBRANCH   2  13
BRANCH   8  22
ATOM     22  N   UNL     1      27.139  14.036  10.116  1.00  0.00    -0.337 N 
ATOM     23  H   UNL     1      26.894  14.826   9.478  1.00  0.00     0.168 HD
BRANCH  22  24
ATOM     24  C   UNL     1      26.105  13.105  10.486  1.00  0.00     0.076 A 
ATOM     25  C   UNL     1      25.077  13.516  11.354  1.00  0.00     0.147 A 
ATOM     26  C   UNL     1      26.105  11.780  10.007  1.00  0.00     0.030 A 
ATOM     27  F   UNL     1      25.049  14.784  11.833  1.00  0.00    -0.205 F 
ATOM     28  C   UNL     1      24.061  12.625  11.717  1.00  0.00     0.057 A 
ATOM     29  C   UNL     1      25.087  10.895  10.373  1.00  0.00     0.018 A 
ATOM     30  C   UNL     1      24.064  11.317  11.226  1.00  0.00     0.021 A 
ATOM     31  Br  UNL     1      22.672  10.106  11.723  1.00  0.00    -0.051 Br
ENDBRANCH  22  24
ENDBRANCH   8  22
TORSDOF 6
ENDMDL
MODEL 3
REMARK VINA RESULT:    -8.778      1.722      1.987
REMARK INTER + INTRA:         -12.336
REMARK INTER:                 -11.248
REMARK INTRA:                  -1.088
REMARK UNBOUND:                -0.478
REMARK SMILES COc1cc2c(Nc3ccc(Br)cc3F)ncnc2cc1OCC1CCN(C)CC1
REMARK SMILES IDX 3 1 21 2 20 3 19 4 18 5 17 6 16 7 6 8 5 9 4 10 2 11 1 12
REMARK SMILES IDX 22 13 23 14 24 15 25 16 30 17 26 18 29 19 27 20 28 21 7 22
REMARK SMILES IDX 8 24 14 25 9 26 15 27 13 28 10 29 11 30 12 31
REMARK H PARENT 7 23
REMARK Flexibility Score: inf
ROOT
ATOM      1  C   UNL     1      29.665   9.493   9.017  1.00  0.00     0.161 A 
ATOM      2  C   UNL     1      29.563  10.372  10.127  1.00  0.00     0.163 A 
ATOM      3  C   UNL     1      30.730  10.835  10.745  1.00  0.00     0.079 A 
ATOM      4  C   UNL     1      31.991  10.455  10.283  1.00  0.00     0.080 A 
ATOM      5  N   UNL     1      33.106  10.893  10.922  1.00  0.00    -0.236 NA
ATOM      6  C   UNL     1      34.343  10.527  10.502  1.00  0.00     0.224 A 
ATOM      7  N   UNL     1      34.484   9.727   9.416  1.00  0.00    -0.219 NA
ATOM      8  C   UNL     1      33.407   9.272   8.722  1.00  0.00     0.141 A 
ATOM      9  C   UNL     1      32.108   9.606   9.166  1.00  0.00     0.047 A 
ATOM     10  C   UNL     1      30.942   9.109   8.558  1.00  0.00     0.064 A 
ENDROOT
BRANCH   1  11
ATOM     11  O   UNL     1      28.502   9.017   8.389  1.00  0.00    -0.493 OA
ATOM     12  C   UNL     1      27.945   7.719   8.574  1.00  0.00     0.278 C 
ENDBRANCH   1  11
BRANCH   2  13
ATOM     13  O   UNL     1      28.345  10.820  10.669  1.00  0.00    -0.489 OA
BRANCH  13  14
ATOM     14  C   UNL     1      27.631  11.996  10.295  1.00  0.00     0.233 C 
BRANCH  14  15
ATOM     15  C   UNL     1      26.123  11.704  10.282  1.00  0.00     0.029 C 
ATOM     16  C   UNL     1      25.422  12.433  11.441  1.00  0.00     0.022 C 
ATOM     17  C   UNL     1      25.848  10.191  10.369  1.00  0.00     0.022 C 
ATOM     18  C   UNL     1      23.931  12.082  11.473  1.00  0.00     0.084 C 
ATOM     19  C   UNL     1      24.340   9.922  10.447  1.00  0.00     0.084 C 
ATOM     20  N   UNL     1      23.752  10.624  11.606  1.00  0.00    -0.306 NA
ATOM     21  C   UNL     1      22.321  10.301  11.713  1.00  0.00     0.105 C 
ENDBRANCH  14  15
ENDBRANCH  13  14
ENDBRANCH   2  13
BRANCH   8  22
ATOM     22  N   UNL     1      33.631   8.455   7.564  1.00  0.00    -0.337 N 
ATOM     23  H   UNL     1      33.364   8.860   6.639  1.00  0.00     0.168 HD
BRANCH  22  24
ATOM     24  C   UNL     1      34.000   7.064   7.624  1.00  0.00     0.076 A 
ATOM     25  C   UNL     1      35.275   6.663   7.190  1.00  0.00     0.147 A 
ATOM     26  C   UNL     1      33.101   6.088   8.100  1.00  0.00     0.030 A 
ATOM     27  F   UNL     1      36.162   7.577   6.726  1.00  0.00    -0.205 F 
ATOM     28  C   UNL     1      35.650   5.316   7.249  1.00  0.00     0.057 A 
ATOM     29  C   UNL     1      33.482   4.744   8.156  1.00  0.00     0.018 A 
ATOM     30  C   UNL     1      34.756   4.357   7.734  1.00  0.00     0.021 A 
ATOM     31  Br  UNL     1      35.274   2.520   7.815  1.00  0.00    -0.051 Br
ENDBRANCH  22  24
ENDBRANCH   8  22
TORSDOF 6
ENDMDL
MODEL 4
REMARK VINA RESULT:    -8.775      4.072      9.610
REMARK INTER + INTRA:         -12.331
REMARK INTER:                 -11.480
REMARK INTRA:                  -0.851
REMARK UNBOUND:                -0.478
REMARK SMILES COc1cc2c(Nc3ccc(Br)cc3F)ncnc2cc1OCC1CCN(C)CC1
REMARK SMILES IDX 3 1 21 2 20 3 19 4 18 5 17 6 16 7 6 8 5 9 4 10 2 11 1 12
REMARK SMILES IDX 22 13 23 14 24 15 25 16 30 17 26 18 29 19 27 20 28 21 7 22
REMARK SMILES IDX 8 24 14 25 9 26 15 27 13 28 10 29 11 30 12 31
REMARK H PARENT 7 23
REMARK Flexibility Score: inf
ROOT
ATOM      1  C   UNL     1      33.131   6.266   8.113  1.00  0.00     0.161 A 
ATOM      2  C   UNL     1      34.193   6.590   7.229  1.00  0.00     0.163 A 
ATOM      3  C   UNL     1      34.657   7.910   7.168  1.00  0.00     0.079 A 
ATOM      4  C   UNL     1      34.099   8.909   7.967  1.00  0.00     0.080 A 
ATOM      5  N   UNL     1      34.546  10.186   7.862  1.00  0.00    -0.236 NA
ATOM      6  C   UNL     1      34.011  11.178   8.618  1.00  0.00     0.224 A 
ATOM      7  N   UNL     1      33.027  10.901   9.509  1.00  0.00    -0.219 NA
ATOM      8  C   UNL     1      32.551   9.638   9.673  1.00  0.00     0.141 A 
ATOM      9  C   UNL     1      33.063   8.596   8.868  1.00  0.00     0.047 A 
ATOM     10  C   UNL     1      32.569   7.281   8.915  1.00  0.00     0.064 A 
ENDROOT
BRANCH   1  11
ATOM     11  O   UNL     1      32.653   4.948   8.182  1.00  0.00    -0.493 OA
ATOM     12  C   UNL     1      33.422   3.817   8.580  1.00  0.00     0.278 C 
ENDBRANCH   1  11
BRANCH   2  13
ATOM     13  O   UNL     1      34.828   5.662   6.385  1.00  0.00    -0.489 OA
BRANCH  13  14
ATOM     14  C   UNL     1      34.999   5.775   4.974  1.00  0.00     0.233 C 
BRANCH  14  15
ATOM     15  C   UNL     1      35.556   4.459   4.412  1.00  0.00     0.029 C 
ATOM     16  C   UNL     1      34.879   4.116   3.073  1.00  0.00     0.022 C 
ATOM     17  C   UNL     1      35.364   3.302   5.410  1.00  0.00     0.022 C 
ATOM     18  C   UNL     1      35.379   2.765   2.550  1.00  0.00     0.084 C 
ATOM     19  C   UNL     1      35.841   1.979   4.798  1.00  0.00     0.084 C 
ATOM     20  N   UNL     1      35.116   1.704   3.540  1.00  0.00    -0.306 NA
ATOM     21  C   UNL     1      35.529   0.399   3.000  1.00  0.00     0.105 C 
ENDBRANCH  14  15
ENDBRANCH  13  14
ENDBRANCH   2  13
BRANCH   8  22
ATOM     22  N   UNL     1      31.530   9.411  10.656  1.00  0.00    -0.337 N 
ATOM     23  H   UNL     1      31.770   8.776  11.450  1.00  0.00     0.168 HD
BRANCH  22  24
ATOM     24  C   UNL     1      30.162   9.833  10.503  1.00  0.00     0.076 A 
ATOM     25  C   UNL     1      29.192   8.908  10.077  1.00  0.00     0.147 A 
ATOM     26  C   UNL     1      29.773  11.163  10.758  1.00  0.00     0.030 A 
ATOM     27  F   UNL     1      29.535   7.621   9.823  1.00  0.00    -0.205 F 
ATOM     28  C   UNL     1      27.857   9.302   9.930  1.00  0.00     0.057 A 
ATOM     29  C   UNL     1      28.438  11.550  10.609  1.00  0.00     0.018 A 
ATOM     30  C   UNL     1      27.479  10.620  10.198  1.00  0.00     0.021 A 
ATOM     31  Br  UNL     1      25.655  11.152  10.000  1.00  0.00    -0.051 Br
ENDBRANCH  22  24
ENDBRANCH   8  22
TORSDOF 6
ENDMDL
MODEL 5
REMARK VINA RESULT:    -8.715      4.419      9.067
REMARK INTER + INTRA:         -12.250
REMARK INTER:                 -10.915
REMARK INTRA:                  -1.335
REMARK UNBOUND:                -0.478
REMARK SMILES COc1cc2c(Nc3ccc(Br)cc3F)ncnc2cc1OCC1CCN(C)CC1
REMARK SMILES IDX 3 1 21 2 20 3 19 4 18 5 17 6 16 7 6 8 5 9 4 10 2 11 1 12
REMARK SMILES IDX 22 13 23 14 24 15 25 16 30 17 26 18 29 19 27 20 28 21 7 22
REMARK SMILES IDX 8 24 14 25 9 26 15 27 13 28 10 29 11 30 12 31
REMARK H PARENT 7 23
REMARK Flexibility Score: inf
ROOT
ATOM      1  C   UNL     1      31.177   9.895   9.266  1.00  0.00     0.161 A 
ATOM      2  C   UNL     1      32.042  10.604  10.139  1.00  0.00     0.163 A 
ATOM      3  C   UNL     1      31.564  11.735  10.810  1.00  0.00     0.079 A 
ATOM      4  C   UNL     1      30.248  12.171  10.643  1.00  0.00     0.080 A 
ATOM      5  N   UNL     1      29.821  13.290  11.281  1.00  0.00    -0.236 NA
ATOM      6  C   UNL     1      28.551  13.743  11.124  1.00  0.00     0.224 A 
ATOM      7  N   UNL     1      27.679  13.067  10.336  1.00  0.00    -0.219 NA
ATOM      8  C   UNL     1      28.042  11.929   9.687  1.00  0.00     0.141 A 
ATOM      9  C   UNL     1      29.370  11.461   9.801  1.00  0.00     0.047 A 
ATOM     10  C   UNL     1      29.850  10.343   9.097  1.00  0.00     0.064 A 
ENDROOT
BRANCH   1  11
ATOM     11  O   UNL     1      31.644   8.761   8.582  1.00  0.00    -0.493 OA
ATOM     12  C   UNL     1      31.572   7.424   9.068  1.00  0.00     0.278 C 
ENDBRANCH   1  11
BRANCH   2  13
ATOM     13  O   UNL     1      33.381  10.248  10.383  1.00  0.00    -0.489 OA
BRANCH  13  14
ATOM     14  C   UNL     1      34.540  10.958   9.951  1.00  0.00     0.233 C 
BRANCH  14  15
ATOM     15  C   UNL     1      35.215  10.197   8.801  1.00  0.00     0.029 C 
ATOM     16  C   UNL     1      34.610  10.613   7.449  1.00  0.00     0.022 C 
ATOM     17  C   UNL     1      35.084   8.673   8.988  1.00  0.00     0.022 C 
ATOM     18  C   UNL     1      35.231   9.799   6.309  1.00  0.00     0.084 C 
ATOM     19  C   UNL     1      35.682   7.930   7.788  1.00  0.00     0.084 C 
ATOM     20  N   UNL     1      35.021   8.357   6.538  1.00  0.00    -0.306 NA
ATOM     21  C   UNL     1      35.552   7.585   5.403  1.00  0.00     0.105 C 
ENDBRANCH  14  15
ENDBRANCH  13  14
ENDBRANCH   2  13
BRANCH   8  22
ATOM     22  N   UNL     1      27.059  11.247   8.894  1.00  0.00    -0.337 N 
ATOM     23  H   UNL     1      26.912  11.594   7.920  1.00  0.00     0.168 HD
BRANCH  22  24
ATOM     24  C   UNL     1      26.142  10.271   9.422  1.00  0.00     0.076 A 
ATOM     25  C   UNL     1      24.924  10.692   9.984  1.00  0.00     0.147 A 
ATOM     26  C   UNL     1      26.444   8.894   9.399  1.00  0.00     0.030 A 
ATOM     27  F   UNL     1      24.605  12.010  10.022  1.00  0.00    -0.205 F 
ATOM     28  C   UNL     1      24.019   9.755  10.495  1.00  0.00     0.057 A 
ATOM     29  C   UNL     1      25.536   7.962   9.910  1.00  0.00     0.018 A 
ATOM     30  C   UNL     1      24.323   8.391  10.456  1.00  0.00     0.021 A 
ATOM     31  Br  UNL     1      23.083   7.115  11.151  1.00  0.00    -0.051 Br
ENDBRANCH  22  24
ENDBRANCH   8  22
TORSDOF 6
ENDMDL
MODEL 6
REMARK VINA RESULT:    -8.614      5.584      8.944
REMARK INTER + INTRA:         -12.114
REMARK INTER:                 -11.131
REMARK INTRA:                  -0.983
REMARK UNBOUND:                -0.478
REMARK SMILES COc1cc2c(Nc3ccc(Br)cc3F)ncnc2cc1OCC1CCN(C)CC1
REMARK SMILES IDX 3 1 21 2 20 3 19 4 18 5 17 6 16 7 6 8 5 9 4 10 2 11 1 12
REMARK SMILES IDX 22 13 23 14 24 15 25 16 30 17 26 18 29 19 27 20 28 21 7 22
REMARK SMILES IDX 8 24 14 25 9 26 15 27 13 28 10 29 11 30 12 31
REMARK H PARENT 7 23
REMARK Flexibility Score: inf
ROOT
ATOM      1  C   UNL     1      30.834  12.822  10.362  1.00  0.00     0.161 A 
ATOM      2  C   UNL     1      32.091  12.311  10.774  1.00  0.00     0.163 A 
ATOM      3  C   UNL     1      32.382  10.957  10.570  1.00  0.00     0.079 A 
ATOM      4  C   UNL     1      31.460  10.105   9.960  1.00  0.00     0.080 A 
ATOM      5  N   UNL     1      31.756   8.789   9.805  1.00  0.00    -0.236 NA
ATOM      6  C   UNL     1      30.871   7.936   9.228  1.00  0.00     0.224 A 
ATOM      7  N   UNL     1      29.678   8.396   8.777  1.00  0.00    -0.219 NA
ATOM      8  C   UNL     1      29.332   9.706   8.887  1.00  0.00     0.141 A 
ATOM      9  C   UNL     1      30.219  10.604   9.521  1.00  0.00     0.047 A 
ATOM     10  C   UNL     1      29.904  11.955   9.750  1.00  0.00     0.064 A 
ENDROOT
BRANCH   1  11
ATOM     11  O   UNL     1      30.526  14.178  10.564  1.00  0.00    -0.493 OA
ATOM     12  C   UNL     1      29.592  14.672  11.519  1.00  0.00     0.278 C 
ENDBRANCH   1  11
BRANCH   2  13
ATOM     13  O   UNL     1      33.092  13.081  11.392  1.00  0.00    -0.489 OA
BRANCH  13  14
ATOM     14  C   UNL     1      34.268  13.600  10.775  1.00  0.00     0.233 C 
BRANCH  14  15
ATOM     15  C   UNL     1      34.374  15.108  11.047  1.00  0.00     0.029 C 
ATOM     16  C   UNL     1      35.743  15.451  11.659  1.00  0.00     0.022 C 
ATOM     17  C   UNL     1      33.246  15.586  11.981  1.00  0.00     0.022 C 
ATOM     18  C   UNL     1      35.821  16.942  12.001  1.00  0.00     0.084 C 
ATOM     19  C   UNL     1      33.419  17.072  12.316  1.00  0.00     0.084 C 
ATOM     20  N   UNL     1      34.739  17.309  12.935  1.00  0.00    -0.306 NA
ATOM     21  C   UNL     1      34.865  18.724  13.318  1.00  0.00     0.105 C 
ENDBRANCH  14  15
ENDBRANCH  13  14
ENDBRANCH   2  13
BRANCH   8  22
ATOM     22  N   UNL     1      28.066  10.129   8.360  1.00  0.00    -0.337 N 
ATOM     23  H   UNL     1      28.062  10.525   7.393  1.00  0.00     0.168 HD
BRANCH  22  24
ATOM     24  C   UNL     1      26.864  10.227   9.147  1.00  0.00     0.076 A 
ATOM     25  C   UNL     1      26.185   9.057   9.530  1.00  0.00     0.147 A 
ATOM     26  C   UNL     1      26.342  11.478   9.534  1.00  0.00     0.030 A 
ATOM     27  F   UNL     1      26.661   7.839   9.173  1.00  0.00    -0.205 F 
ATOM     28  C   UNL     1      25.019   9.137  10.301  1.00  0.00     0.057 A 
ATOM     29  C   UNL     1      25.177  11.551  10.303  1.00  0.00     0.018 A 
ATOM     30  C   UNL     1      24.517  10.381  10.689  1.00  0.00     0.021 A 
ATOM     31  Br  UNL     1      22.928  10.484  11.745  1.00  0.00    -0.051 Br
ENDBRANCH  22  24
ENDBRANCH   8  22
TORSDOF 6
ENDMDL
MODEL 7
REMARK VINA RESULT:    -8.606      4.329      9.808
REMARK INTER + INTRA:         -12.103
REMARK INTER:                 -11.183
REMARK INTRA:                  -0.920
REMARK UNBOUND:                -0.478
REMARK SMILES COc1cc2c(Nc3ccc(Br)cc3F)ncnc2cc1OCC1CCN(C)CC1
REMARK SMILES IDX 3 1 21 2 20 3 19 4 18 5 17 6 16 7 6 8 5 9 4 10 2 11 1 12
REMARK SMILES IDX 22 13 23 14 24 15 25 16 30 17 26 18 29 19 27 20 28 21 7 22
REMARK SMILES IDX 8 24 14 25 9 26 15 27 13 28 10 29 11 30 12 31
REMARK H PARENT 7 23
REMARK Flexibility Score: inf
ROOT
ATOM      1  C   UNL     1      33.405   6.072   7.856  1.00  0.00     0.161 A 
ATOM      2  C   UNL     1      34.443   6.339   6.926  1.00  0.00     0.163 A 
ATOM      3  C   UNL     1      34.965   7.635   6.832  1.00  0.00     0.079 A 
ATOM      4  C   UNL     1      34.488   8.665   7.645  1.00  0.00     0.080 A 
ATOM      5  N   UNL     1      34.990   9.919   7.509  1.00  0.00    -0.236 NA
ATOM      6  C   UNL     1      34.534  10.941   8.277  1.00  0.00     0.224 A 
ATOM      7  N   UNL     1      33.576  10.717   9.211  1.00  0.00    -0.219 NA
ATOM      8  C   UNL     1      33.049   9.479   9.407  1.00  0.00     0.141 A 
ATOM      9  C   UNL     1      33.478   8.408   8.591  1.00  0.00     0.047 A 
ATOM     10  C   UNL     1      32.925   7.118   8.671  1.00  0.00     0.064 A 
ENDROOT
BRANCH   1  11
ATOM     11  O   UNL     1      32.869   4.778   7.958  1.00  0.00    -0.493 OA
ATOM     12  C   UNL     1      33.512   3.672   8.585  1.00  0.00     0.278 C 
ENDBRANCH   1  11
BRANCH   2  13
ATOM     13  O   UNL     1      34.998   5.375   6.065  1.00  0.00    -0.489 OA
BRANCH  13  14
ATOM     14  C   UNL     1      35.205   5.510   4.661  1.00  0.00     0.233 C 
BRANCH  14  15
ATOM     15  C   UNL     1      34.869   4.186   3.958  1.00  0.00     0.029 C 
ATOM     16  C   UNL     1      35.605   3.015   4.632  1.00  0.00     0.022 C 
ATOM     17  C   UNL     1      35.230   4.242   2.462  1.00  0.00     0.022 C 
ATOM     18  C   UNL     1      35.329   1.706   3.885  1.00  0.00     0.084 C 
ATOM     19  C   UNL     1      34.975   2.885   1.795  1.00  0.00     0.084 C 
ATOM     20  N   UNL     1      35.747   1.825   2.475  1.00  0.00    -0.306 NA
ATOM     21  C   UNL     1      35.550   0.542   1.783  1.00  0.00     0.105 C 
ENDBRANCH  14  15
ENDBRANCH  13  14
ENDBRANCH   2  13
BRANCH   8  22
ATOM     22  N   UNL     1      32.061   9.308  10.434  1.00  0.00    -0.337 N 
ATOM     23  H   UNL     1      32.349   8.774  11.284  1.00  0.00     0.168 HD
BRANCH  22  24
ATOM     24  C   UNL     1      30.670   9.642  10.271  1.00  0.00     0.076 A 
ATOM     25  C   UNL     1      30.236  10.956  10.524  1.00  0.00     0.147 A 
ATOM     26  C   UNL     1      29.726   8.675   9.874  1.00  0.00     0.030 A 
ATOM     27  F   UNL     1      31.120  11.910  10.908  1.00  0.00    -0.205 F 
ATOM     28  C   UNL     1      28.888  11.297  10.363  1.00  0.00     0.057 A 
ATOM     29  C   UNL     1      28.381   9.022   9.715  1.00  0.00     0.018 A 
ATOM     30  C   UNL     1      27.962  10.333   9.957  1.00  0.00     0.021 A 
ATOM     31  Br  UNL     1      26.124  10.806   9.736  1.00  0.00    -0.051 Br
ENDBRANCH  22  24
ENDBRANCH   8  22
TORSDOF 6
ENDMDL
MODEL 8
REMARK VINA RESULT:    -8.573      4.969      9.318
REMARK INTER + INTRA:         -12.058
REMARK INTER:                 -11.328
REMARK INTRA:                  -0.730
REMARK UNBOUND:                -0.478
REMARK SMILES COc1cc2c(Nc3ccc(Br)cc3F)ncnc2cc1OCC1CCN(C)CC1
REMARK SMILES IDX 3 1 21 2 20 3 19 4 18 5 17 6 16 7 6 8 5 9 4 10 2 11 1 12
REMARK SMILES IDX 22 13 23 14 24 15 25 16 30 17 26 18 29 19 27 20 28 21 7 22
REMARK SMILES IDX 8 24 14 25 9 26 15 27 13 28 10 29 11 30 12 31
REMARK H PARENT 7 23
REMARK Flexibility Score: inf
ROOT
ATOM      1  C   UNL     1      30.797  12.583  10.243  1.00  0.00     0.161 A 
ATOM      2  C   UNL     1      32.020  11.964  10.610  1.00  0.00     0.163 A 
ATOM      3  C   UNL     1      32.175  10.585  10.427  1.00  0.00     0.079 A 
ATOM      4  C   UNL     1      31.151   9.811   9.880  1.00  0.00     0.080 A 
ATOM      5  N   UNL     1      31.316   8.470   9.745  1.00  0.00    -0.236 NA
ATOM      6  C   UNL     1      30.331   7.693   9.229  1.00  0.00     0.224 A 
ATOM      7  N   UNL     1      29.165   8.252   8.821  1.00  0.00    -0.219 NA
ATOM      8  C   UNL     1      28.947   9.591   8.913  1.00  0.00     0.141 A 
ATOM      9  C   UNL     1      29.942  10.415   9.485  1.00  0.00     0.047 A 
ATOM     10  C   UNL     1      29.764  11.793   9.695  1.00  0.00     0.064 A 
ENDROOT
BRANCH   1  11
ATOM     11  O   UNL     1      30.626  13.965  10.425  1.00  0.00    -0.493 OA
ATOM     12  C   UNL     1      30.222  14.586  11.641  1.00  0.00     0.278 C 
ENDBRANCH   1  11
BRANCH   2  13
ATOM     13  O   UNL     1      33.116  12.651  11.165  1.00  0.00    -0.489 OA
BRANCH  13  14
ATOM     14  C   UNL     1      34.150  13.320  10.447  1.00  0.00     0.233 C 
BRANCH  14  15
ATOM     15  C   UNL     1      35.127  12.290   9.864  1.00  0.00     0.029 C 
ATOM     16  C   UNL     1      35.423  11.184  10.893  1.00  0.00     0.022 C 
ATOM     17  C   UNL     1      36.442  12.958   9.419  1.00  0.00     0.022 C 
ATOM     18  C   UNL     1      36.456  10.198  10.340  1.00  0.00     0.084 C 
ATOM     19  C   UNL     1      37.441  11.905   8.926  1.00  0.00     0.084 C 
ATOM     20  N   UNL     1      37.700  10.907   9.983  1.00  0.00    -0.306 NA
ATOM     21  C   UNL     1      38.713   9.944   9.524  1.00  0.00     0.105 C 
ENDBRANCH  14  15
ENDBRANCH  13  14
ENDBRANCH   2  13
BRANCH   8  22
ATOM     22  N   UNL     1      27.702  10.119   8.433  1.00  0.00    -0.337 N 
ATOM     23  H   UNL     1      27.707  10.557   7.485  1.00  0.00     0.168 HD
BRANCH  22  24
ATOM     24  C   UNL     1      26.525  10.261   9.250  1.00  0.00     0.076 A 
ATOM     25  C   UNL     1      25.775   9.123   9.595  1.00  0.00     0.147 A 
ATOM     26  C   UNL     1      26.097  11.525   9.704  1.00  0.00     0.030 A 
ATOM     27  F   UNL     1      26.160   7.893   9.173  1.00  0.00    -0.205 F 
ATOM     28  C   UNL     1      24.632   9.245  10.394  1.00  0.00     0.057 A 
ATOM     29  C   UNL     1      24.955  11.640  10.502  1.00  0.00     0.018 A 
ATOM     30  C   UNL     1      24.224  10.501  10.849  1.00  0.00     0.021 A 
ATOM     31  Br  UNL     1      22.665  10.662  11.943  1.00  0.00    -0.051 Br
ENDBRANCH  22  24
ENDBRANCH   8  22
TORSDOF 6
ENDMDL
MODEL 9
REMARK VINA RESULT:    -8.569      6.514      9.403
REMARK INTER + INTRA:         -12.052
REMARK INTER:                 -11.003
REMARK INTRA:                  -1.050
REMARK UNBOUND:                -0.478
REMARK SMILES COc1cc2c(Nc3ccc(Br)cc3F)ncnc2cc1OCC1CCN(C)CC1
REMARK SMILES IDX 3 1 21 2 20 3 19 4 18 5 17 6 16 7 6 8 5 9 4 10 2 11 1 12
REMARK SMILES IDX 22 13 23 14 24 15 25 16 30 17 26 18 29 19 27 20 28 21 7 22
REMARK SMILES IDX 8 24 14 25 9 26 15 27 13 28 10 29 11 30 12 31
REMARK H PARENT 7 23
REMARK Flexibility Score: inf
ROOT
ATOM      1  C   UNL     1      27.094  15.792  11.145  1.00  0.00     0.161 A 
ATOM      2  C   UNL     1      28.213  16.228  11.901  1.00  0.00     0.163 A 
ATOM      3  C   UNL     1      29.335  15.397  12.010  1.00  0.00     0.079 A 
ATOM      4  C   UNL     1      29.374  14.153  11.378  1.00  0.00     0.080 A 
ATOM      5  N   UNL     1      30.462  13.354  11.528  1.00  0.00    -0.236 NA
ATOM      6  C   UNL     1      30.520  12.134  10.936  1.00  0.00     0.224 A 
ATOM      7  N   UNL     1      29.491  11.701  10.166  1.00  0.00    -0.219 NA
ATOM      8  C   UNL     1      28.384  12.463   9.962  1.00  0.00     0.141 A 
ATOM      9  C   UNL     1      28.283  13.720  10.602  1.00  0.00     0.047 A 
ATOM     10  C   UNL     1      27.139  14.532  10.513  1.00  0.00     0.064 A 
ENDROOT
BRANCH   1  11
ATOM     11  O   UNL     1      25.961  16.613  11.031  1.00  0.00    -0.493 OA
ATOM     12  C   UNL     1      24.875  16.642  11.952  1.00  0.00     0.278 C 
ENDBRANCH   1  11
BRANCH   2  13
ATOM     13  O   UNL     1      28.279  17.462  12.573  1.00  0.00    -0.489 OA
BRANCH  13  14
ATOM     14  C   UNL     1      28.985  17.735  13.781  1.00  0.00     0.233 C 
BRANCH  14  15
ATOM     15  C   UNL     1      28.365  18.953  14.480  1.00  0.00     0.029 C 
ATOM     16  C   UNL     1      28.574  18.867  16.002  1.00  0.00     0.022 C 
ATOM     17  C   UNL     1      26.862  19.073  14.162  1.00  0.00     0.022 C 
ATOM     18  C   UNL     1      27.889  20.043  16.706  1.00  0.00     0.084 C 
ATOM     19  C   UNL     1      26.239  20.239  14.939  1.00  0.00     0.084 C 
ATOM     20  N   UNL     1      26.448  20.059  16.390  1.00  0.00    -0.306 NA
ATOM     21  C   UNL     1      25.784  21.145  17.129  1.00  0.00     0.105 C 
ENDBRANCH  14  15
ENDBRANCH  13  14
ENDBRANCH   2  13
BRANCH   8  22
ATOM     22  N   UNL     1      27.347  11.956   9.110  1.00  0.00    -0.337 N 
ATOM     23  H   UNL     1      27.258  12.388   8.163  1.00  0.00     0.168 HD
BRANCH  22  24
ATOM     24  C   UNL     1      26.317  11.053   9.553  1.00  0.00     0.076 A 
ATOM     25  C   UNL     1      26.527   9.665   9.473  1.00  0.00     0.147 A 
ATOM     26  C   UNL     1      25.090  11.530  10.055  1.00  0.00     0.030 A 
ATOM     27  F   UNL     1      27.696   9.173   8.993  1.00  0.00    -0.205 F 
ATOM     28  C   UNL     1      25.538   8.774   9.905  1.00  0.00     0.057 A 
ATOM     29  C   UNL     1      24.106  10.636  10.486  1.00  0.00     0.018 A 
ATOM     30  C   UNL     1      24.330   9.258  10.414  1.00  0.00     0.021 A 
ATOM     31  Br  UNL     1      22.984   8.039  11.007  1.00  0.00    -0.051 Br
ENDBRANCH  22  24
ENDBRANCH   8  22
TORSDOF 6
ENDMDL
MODEL 10
REMARK VINA RESULT:    -8.473      3.398      5.107
REMARK INTER + INTRA:         -11.924
REMARK INTER:                 -10.875
REMARK INTRA:                  -1.049
REMARK UNBOUND:                -0.478
REMARK SMILES COc1cc2c(Nc3ccc(Br)cc3F)ncnc2cc1OCC1CCN(C)CC1
REMARK SMILES IDX 3 1 21 2 20 3 19 4 18 5 17 6 16 7 6 8 5 9 4 10 2 11 1 12
REMARK SMILES IDX 22 13 23 14 24 15 25 16 30 17 26 18 29 19 27 20 28 21 7 22
REMARK SMILES IDX 8 24 14 25 9 26 15 27 13 28 10 29 11 30 12 31
REMARK H PARENT 7 23
REMARK Flexibility Score: inf
ROOT
ATOM      1  C   UNL     1      30.277   9.961  10.372  1.00  0.00     0.161 A 
ATOM      2  C   UNL     1      29.562   8.763  10.110  1.00  0.00     0.163 A 
ATOM      3  C   UNL     1      30.227   7.683   9.517  1.00  0.00     0.079 A 
ATOM      4  C   UNL     1      31.582   7.762   9.189  1.00  0.00     0.080 A 
ATOM      5  N   UNL     1      32.192   6.710   8.584  1.00  0.00    -0.236 NA
ATOM      6  C   UNL     1      33.504   6.767   8.242  1.00  0.00     0.224 A 
ATOM      7  N   UNL     1      34.234   7.876   8.520  1.00  0.00    -0.219 NA
ATOM      8  C   UNL     1      33.684   8.952   9.141  1.00  0.00     0.141 A 
ATOM      9  C   UNL     1      32.309   8.934   9.469  1.00  0.00     0.047 A 
ATOM     10  C   UNL     1      31.644  10.035  10.034  1.00  0.00     0.064 A 
ENDROOT
BRANCH   1  11
ATOM     11  O   UNL     1      29.622  11.054  10.963  1.00  0.00    -0.493 OA
ATOM     12  C   UNL     1      30.002  12.417  10.808  1.00  0.00     0.278 C 
ENDBRANCH   1  11
BRANCH   2  13
ATOM     13  O   UNL     1      28.200   8.576  10.404  1.00  0.00    -0.489 OA
BRANCH  13  14
ATOM     14  C   UNL     1      27.197   8.093   9.513  1.00  0.00     0.233 C 
BRANCH  14  15
ATOM     15  C   UNL     1      25.982   9.031   9.543  1.00  0.00     0.029 C 
ATOM     16  C   UNL     1      26.386  10.422  10.062  1.00  0.00     0.022 C 
ATOM     17  C   UNL     1      24.852   8.452  10.415  1.00  0.00     0.022 C 
ATOM     18  C   UNL     1      25.159  11.334  10.163  1.00  0.00     0.084 C 
ATOM     19  C   UNL     1      23.684   9.440  10.509  1.00  0.00     0.084 C 
ATOM     20  N   UNL     1      24.147  10.733  11.052  1.00  0.00    -0.306 NA
ATOM     21  C   UNL     1      23.005  11.649  11.205  1.00  0.00     0.105 C 
ENDBRANCH  14  15
ENDBRANCH  13  14
ENDBRANCH   2  13
BRANCH   8  22
ATOM     22  N   UNL     1      34.522  10.080   9.431  1.00  0.00    -0.337 N 
ATOM     23  H   UNL     1      34.963  10.112  10.378  1.00  0.00     0.168 HD
BRANCH  22  24
ATOM     24  C   UNL     1      34.619  11.244   8.589  1.00  0.00     0.076 A 
ATOM     25  C   UNL     1      34.229  12.499   9.088  1.00  0.00     0.147 A 
ATOM     26  C   UNL     1      35.088  11.152   7.263  1.00  0.00     0.030 A 
ATOM     27  F   UNL     1      33.773  12.621  10.360  1.00  0.00    -0.205 F 
ATOM     28  C   UNL     1      34.324  13.640   8.284  1.00  0.00     0.057 A 
ATOM     29  C   UNL     1      35.181  12.295   6.464  1.00  0.00     0.018 A 
ATOM     30  C   UNL     1      34.802  13.540   6.975  1.00  0.00     0.021 A 
ATOM     31  Br  UNL     1      34.933  15.101   5.882  1.00  0.00    -0.051 Br
ENDBRANCH  22  24
ENDBRANCH   8  22
TORSDOF 6
ENDMDL
MODEL 11
REMARK VINA RESULT:    -8.455      5.320      9.751
REMARK INTER + INTRA:         -11.899
REMARK INTER:                 -10.724
REMARK INTRA:                  -1.175
REMARK UNBOUND:                -0.478
REMARK SMILES COc1cc2c(Nc3ccc(Br)cc3F)ncnc2cc1OCC1CCN(C)CC1
REMARK SMILES IDX 3 1 21 2 20 3 19 4 18 5 17 6 16 7 6 8 5 9 4 10 2 11 1 12
REMARK SMILES IDX 22 13 23 14 24 15 25 16 30 17 26 18 29 19 27 20 28 21 7 22
REMARK SMILES IDX 8 24 14 25 9 26 15 27 13 28 10 29 11 30 12 31
REMARK H PARENT 7 23
REMARK Flexibility Score: inf
ROOT
ATOM      1  C   UNL     1      31.929  12.772   8.697  1.00  0.00     0.161 A 
ATOM      2  C   UNL     1      33.061  12.713   9.550  1.00  0.00     0.163 A 
ATOM      3  C   UNL     1      32.995  13.295  10.821  1.00  0.00     0.079 A 
ATOM      4  C   UNL     1      31.831  13.925  11.266  1.00  0.00     0.080 A 
ATOM      5  N   UNL     1      31.806  14.511  12.491  1.00  0.00    -0.236 NA
ATOM      6  C   UNL     1      30.692  15.141  12.941  1.00  0.00     0.224 A 
ATOM      7  N   UNL     1      29.574  15.179  12.176  1.00  0.00    -0.219 NA
ATOM      8  C   UNL     1      29.531  14.594  10.949  1.00  0.00     0.141 A 
ATOM      9  C   UNL     1      30.691  13.968  10.441  1.00  0.00     0.047 A 
ATOM     10  C   UNL     1      30.757  13.414   9.151  1.00  0.00     0.064 A 
ENDROOT
BRANCH   1  11
ATOM     11  O   UNL     1      31.982  12.196   7.417  1.00  0.00    -0.493 OA
ATOM     12  C   UNL     1      32.711  12.721   6.312  1.00  0.00     0.278 C 
ENDBRANCH   1  11
BRANCH   2  13
ATOM     13  O   UNL     1      34.278  12.100   9.203  1.00  0.00    -0.489 OA
BRANCH  13  14
ATOM     14  C   UNL     1      34.774  10.857   9.695  1.00  0.00     0.233 C 
BRANCH  14  15
ATOM     15  C   UNL     1      34.076   9.697   8.970  1.00  0.00     0.029 C 
ATOM     16  C   UNL     1      32.908   9.158   9.814  1.00  0.00     0.022 C 
ATOM     17  C   UNL     1      35.067   8.560   8.657  1.00  0.00     0.022 C 
ATOM     18  C   UNL     1      32.260   7.953   9.126  1.00  0.00     0.084 C 
ATOM     19  C   UNL     1      34.338   7.372   8.017  1.00  0.00     0.084 C 
ATOM     20  N   UNL     1      33.260   6.891   8.906  1.00  0.00    -0.306 NA
ATOM     21  C   UNL     1      32.615   5.708   8.314  1.00  0.00     0.105 C 
ENDBRANCH  14  15
ENDBRANCH  13  14
ENDBRANCH   2  13
BRANCH   8  22
ATOM     22  N   UNL     1      28.304  14.645  10.206  1.00  0.00    -0.337 N 
ATOM     23  H   UNL     1      28.211  15.406   9.495  1.00  0.00     0.168 HD
BRANCH  22  24
ATOM     24  C   UNL     1      27.142  13.856  10.523  1.00  0.00     0.076 A 
ATOM     25  C   UNL     1      25.997  14.482  11.045  1.00  0.00     0.147 A 
ATOM     26  C   UNL     1      27.132  12.459  10.333  1.00  0.00     0.030 A 
ATOM     27  F   UNL     1      25.975  15.824  11.240  1.00  0.00    -0.205 F 
ATOM     28  C   UNL     1      24.857  13.729  11.351  1.00  0.00     0.057 A 
ATOM     29  C   UNL     1      25.991  11.712  10.641  1.00  0.00     0.018 A 
ATOM     30  C   UNL     1      24.853  12.347  11.147  1.00  0.00     0.021 A 
ATOM     31  Br  UNL     1      23.294  11.324  11.563  1.00  0.00    -0.051 Br
ENDBRANCH  22  24
ENDBRANCH   8  22
TORSDOF 6
ENDMDL
MODEL 12
REMARK VINA RESULT:    -8.405      1.999      2.918
REMARK INTER + INTRA:         -11.831
REMARK INTER:                 -10.746
REMARK INTRA:                  -1.085
REMARK UNBOUND:                -0.478
REMARK SMILES COc1cc2c(Nc3ccc(Br)cc3F)ncnc2cc1OCC1CCN(C)CC1
REMARK SMILES IDX 3 1 21 2 20 3 19 4 18 5 17 6 16 7 6 8 5 9 4 10 2 11 1 12
REMARK SMILES IDX 22 13 23 14 24 15 25 16 30 17 26 18 29 19 27 20 28 21 7 22
REMARK SMILES IDX 8 24 14 25 9 26 15 27 13 28 10 29 11 30 12 31
REMARK H PARENT 7 23
REMARK Flexibility Score: inf
ROOT
ATOM      1  C   UNL     1      30.051  10.558  10.609  1.00  0.00     0.161 A 
ATOM      2  C   UNL     1      29.552  11.807  10.157  1.00  0.00     0.163 A 
ATOM      3  C   UNL     1      30.413  12.690   9.494  1.00  0.00     0.079 A 
ATOM      4  C   UNL     1      31.749  12.359   9.262  1.00  0.00     0.080 A 
ATOM      5  N   UNL     1      32.569  13.248   8.646  1.00  0.00    -0.236 NA
ATOM      6  C   UNL     1      33.875  12.956   8.422  1.00  0.00     0.224 A 
ATOM      7  N   UNL     1      34.378  11.754   8.796  1.00  0.00    -0.219 NA
ATOM      8  C   UNL     1      33.602  10.814   9.400  1.00  0.00     0.141 A 
ATOM      9  C   UNL     1      32.250  11.111   9.681  1.00  0.00     0.047 A 
ATOM     10  C   UNL     1      31.403  10.231  10.376  1.00  0.00     0.064 A 
ENDROOT
BRANCH   1  11
ATOM     11  O   UNL     1      29.200   9.663  11.280  1.00  0.00    -0.493 OA
ATOM     12  C   UNL     1      28.941   8.323  10.877  1.00  0.00     0.278 C 
ENDBRANCH   1  11
BRANCH   2  13
ATOM     13  O   UNL     1      28.225  12.238  10.333  1.00  0.00    -0.489 OA
BRANCH  13  14
ATOM     14  C   UNL     1      27.108  11.903   9.514  1.00  0.00     0.233 C 
BRANCH  14  15
ATOM     15  C   UNL     1      26.125  11.030  10.308  1.00  0.00     0.029 C 
ATOM     16  C   UNL     1      25.960   9.656   9.637  1.00  0.00     0.022 C 
ATOM     17  C   UNL     1      24.753  11.717  10.442  1.00  0.00     0.022 C 
ATOM     18  C   UNL     1      24.923   8.813  10.386  1.00  0.00     0.084 C 
ATOM     19  C   UNL     1      23.757  10.796  11.157  1.00  0.00     0.084 C 
ATOM     20  N   UNL     1      23.627   9.517  10.429  1.00  0.00    -0.306 NA
ATOM     21  C   UNL     1      22.617   8.670  11.083  1.00  0.00     0.105 C 
ENDBRANCH  14  15
ENDBRANCH  13  14
ENDBRANCH   2  13
BRANCH   8  22
ATOM     22  N   UNL     1      34.193   9.552   9.741  1.00  0.00    -0.337 N 
ATOM     23  H   UNL     1      34.647   9.478  10.679  1.00  0.00     0.168 HD
BRANCH  22  24
ATOM     24  C   UNL     1      34.372   8.472   8.805  1.00  0.00     0.076 A 
ATOM     25  C   UNL     1      33.463   7.399   8.797  1.00  0.00     0.147 A 
ATOM     26  C   UNL     1      35.452   8.460   7.899  1.00  0.00     0.030 A 
ATOM     27  F   UNL     1      32.414   7.381   9.656  1.00  0.00    -0.205 F 
ATOM     28  C   UNL     1      33.621   6.347   7.888  1.00  0.00     0.057 A 
ATOM     29  C   UNL     1      35.604   7.405   6.994  1.00  0.00     0.018 A 
ATOM     30  C   UNL     1      34.687   6.350   6.986  1.00  0.00     0.021 A 
ATOM     31  Br  UNL     1      34.896   4.913   5.745  1.00  0.00    -0.051 Br
ENDBRANCH  22  24
ENDBRANCH   8  22
TORSDOF 6
ENDMDL
MODEL 13
REMARK VINA RESULT:    -8.340      2.663      3.549
REMARK INTER + INTRA:         -11.743
REMARK INTER:                 -10.649
REMARK INTRA:                  -1.094
REMARK UNBOUND:                -0.478
REMARK SMILES COc1cc2c(Nc3ccc(Br)cc3F)ncnc2cc1OCC1CCN(C)CC1
REMARK SMILES IDX 3 1 21 2 20 3 19 4 18 5 17 6 16 7 6 8 5 9 4 10 2 11 1 12
REMARK SMILES IDX 22 13 23 14 24 15 25 16 30 17 26 18 29 19 27 20 28 21 7 22
REMARK SMILES IDX 8 24 14 25 9 26 15 27 13 28 10 29 11 30 12 31
REMARK H PARENT 7 23
REMARK Flexibility Score: inf
ROOT
ATOM      1  C   UNL     1      30.559   9.984  10.061  1.00  0.00     0.161 A 
ATOM      2  C   UNL     1      29.824  11.145  10.418  1.00  0.00     0.163 A 
ATOM      3  C   UNL     1      30.512  12.315  10.760  1.00  0.00     0.079 A 
ATOM      4  C   UNL     1      31.907  12.362  10.746  1.00  0.00     0.080 A 
ATOM      5  N   UNL     1      32.549  13.501  11.113  1.00  0.00    -0.236 NA
ATOM      6  C   UNL     1      33.904  13.568  11.122  1.00  0.00     0.224 A 
ATOM      7  N   UNL     1      34.642  12.496  10.741  1.00  0.00    -0.219 NA
ATOM      8  C   UNL     1      34.058  11.335  10.344  1.00  0.00     0.141 A 
ATOM      9  C   UNL     1      32.649  11.227  10.367  1.00  0.00     0.047 A 
ATOM     10  C   UNL     1      31.969  10.037  10.053  1.00  0.00     0.064 A 
ENDROOT
BRANCH   1  11
ATOM     11  O   UNL     1      29.882   8.802   9.720  1.00  0.00    -0.493 OA
ATOM     12  C   UNL     1      30.508   7.558   9.421  1.00  0.00     0.278 C 
ENDBRANCH   1  11
BRANCH   2  13
ATOM     13  O   UNL     1      28.420  11.207  10.460  1.00  0.00    -0.489 OA
BRANCH  13  14
ATOM     14  C   UNL     1      27.568  11.817   9.494  1.00  0.00     0.233 C 
BRANCH  14  15
ATOM     15  C   UNL     1      26.221  11.081   9.451  1.00  0.00     0.029 C 
ATOM     16  C   UNL     1      25.211  11.746  10.403  1.00  0.00     0.022 C 
ATOM     17  C   UNL     1      26.388   9.594   9.818  1.00  0.00     0.022 C 
ATOM     18  C   UNL     1      23.893  10.966  10.417  1.00  0.00     0.084 C 
ATOM     19  C   UNL     1      25.024   8.894   9.861  1.00  0.00     0.084 C 
ATOM     20  N   UNL     1      24.130   9.568  10.824  1.00  0.00    -0.306 NA
ATOM     21  C   UNL     1      22.851   8.846  10.910  1.00  0.00     0.105 C 
ENDBRANCH  14  15
ENDBRANCH  13  14
ENDBRANCH   2  13
BRANCH   8  22
ATOM     22  N   UNL     1      34.899  10.250   9.925  1.00  0.00    -0.337 N 
ATOM     23  H   UNL     1      35.486   9.794  10.659  1.00  0.00     0.168 HD
BRANCH  22  24
ATOM     24  C   UNL     1      35.129   9.902   8.547  1.00  0.00     0.076 A 
ATOM     25  C   UNL     1      34.771   8.624   8.083  1.00  0.00     0.147 A 
ATOM     26  C   UNL     1      35.721  10.814   7.650  1.00  0.00     0.030 A 
ATOM     27  F   UNL     1      34.201   7.724   8.921  1.00  0.00    -0.205 F 
ATOM     28  C   UNL     1      34.982   8.273   6.745  1.00  0.00     0.057 A 
ATOM     29  C   UNL     1      35.929  10.457   6.314  1.00  0.00     0.018 A 
ATOM     30  C   UNL     1      35.558   9.189   5.860  1.00  0.00     0.021 A 
ATOM     31  Br  UNL     1      35.841   8.706   4.033  1.00  0.00    -0.051 Br
ENDBRANCH  22  24
ENDBRANCH   8  22
TORSDOF 6
ENDMDL
MODEL 14
REMARK VINA RESULT:    -8.194      5.408      7.950
REMARK INTER + INTRA:         -11.547
REMARK INTER:                 -10.430
REMARK INTRA:                  -1.117
REMARK UNBOUND:                -0.478
REMARK SMILES COc1cc2c(Nc3ccc(Br)cc3F)ncnc2cc1OCC1CCN(C)CC1
REMARK SMILES IDX 3 1 21 2 20 3 19 4 18 5 17 6 16 7 6 8 5 9 4 10 2 11 1 12
REMARK SMILES IDX 22 13 23 14 24 15 25 16 30 17 26 18 29 19 27 20 28 21 7 22
REMARK SMILES IDX 8 24 14 25 9 26 15 27 13 28 10 29 11 30 12 31
REMARK H PARENT 7 23
REMARK Flexibility Score: inf
ROOT
ATOM      1  C   UNL     1      31.533  13.335   9.283  1.00  0.00     0.161 A 
ATOM      2  C   UNL     1      32.807  13.105   9.863  1.00  0.00     0.163 A 
ATOM      3  C   UNL     1      33.248  11.790  10.052  1.00  0.00     0.079 A 
ATOM      4  C   UNL     1      32.460  10.703   9.670  1.00  0.00     0.080 A 
ATOM      5  N   UNL     1      32.899   9.438   9.896  1.00  0.00    -0.236 NA
ATOM      6  C   UNL     1      32.146   8.364   9.547  1.00  0.00     0.224 A 
ATOM      7  N   UNL     1      30.943   8.542   8.946  1.00  0.00    -0.219 NA
ATOM      8  C   UNL     1      30.459   9.783   8.676  1.00  0.00     0.141 A 
ATOM      9  C   UNL     1      31.206  10.917   9.068  1.00  0.00     0.047 A 
ATOM     10  C   UNL     1      30.740  12.232   8.903  1.00  0.00     0.064 A 
ENDROOT
BRANCH   1  11
ATOM     11  O   UNL     1      31.076  14.649   9.091  1.00  0.00    -0.493 OA
ATOM     12  C   UNL     1      31.569  15.553   8.107  1.00  0.00     0.278 C 
ENDBRANCH   1  11
BRANCH   2  13
ATOM     13  O   UNL     1      33.681  14.126  10.279  1.00  0.00    -0.489 OA
BRANCH  13  14
ATOM     14  C   UNL     1      33.813  14.644  11.600  1.00  0.00     0.233 C 
BRANCH  14  15
ATOM     15  C   UNL     1      32.711  15.680  11.863  1.00  0.00     0.029 C 
ATOM     16  C   UNL     1      33.278  16.891  12.624  1.00  0.00     0.022 C 
ATOM     17  C   UNL     1      31.543  15.062  12.655  1.00  0.00     0.022 C 
ATOM     18  C   UNL     1      32.163  17.889  12.953  1.00  0.00     0.084 C 
ATOM     19  C   UNL     1      30.494  16.129  12.989  1.00  0.00     0.084 C 
ATOM     20  N   UNL     1      31.110  17.234  13.752  1.00  0.00    -0.306 NA
ATOM     21  C   UNL     1      30.081  18.216  14.128  1.00  0.00     0.105 C 
ENDBRANCH  14  15
ENDBRANCH  13  14
ENDBRANCH   2  13
BRANCH   8  22
ATOM     22  N   UNL     1      29.193   9.896   8.010  1.00  0.00    -0.337 N 
ATOM     23  H   UNL     1      29.213  10.050   6.977  1.00  0.00     0.168 HD
BRANCH  22  24
ATOM     24  C   UNL     1      27.933  10.015   8.698  1.00  0.00     0.076 A 
ATOM     25  C   UNL     1      27.349   8.877   9.281  1.00  0.00     0.147 A 
ATOM     26  C   UNL     1      27.263  11.252   8.790  1.00  0.00     0.030 A 
ATOM     27  F   UNL     1      27.968   7.673   9.209  1.00  0.00    -0.205 F 
ATOM     28  C   UNL     1      26.128   8.979   9.959  1.00  0.00     0.057 A 
ATOM     29  C   UNL     1      26.044  11.346   9.469  1.00  0.00     0.018 A 
ATOM     30  C   UNL     1      25.478  10.212  10.055  1.00  0.00     0.021 A 
ATOM     31  Br  UNL     1      23.814  10.346  10.985  1.00  0.00    -0.051 Br
ENDBRANCH  22  24
ENDBRANCH   8  22
TORSDOF 6
ENDMDL
MODEL 15
REMARK VINA RESULT:    -8.121      4.893      9.014
REMARK INTER + INTRA:         -11.448
REMARK INTER:                 -10.310
REMARK INTRA:                  -1.138
REMARK UNBOUND:                -0.478
REMARK SMILES COc1cc2c(Nc3ccc(Br)cc3F)ncnc2cc1OCC1CCN(C)CC1
REMARK SMILES IDX 3 1 21 2 20 3 19 4 18 5 17 6 16 7 6 8 5 9 4 10 2 11 1 12
REMARK SMILES IDX 22 13 23 14 24 15 25 16 30 17 26 18 29 19 27 20 28 21 7 22
REMARK SMILES IDX 8 24 14 25 9 26 15 27 13 28 10 29 11 30 12 31
REMARK H PARENT 7 23
REMARK Flexibility Score: inf
ROOT
ATOM      1  C   UNL     1      30.976  12.583  10.385  1.00  0.00     0.161 A 
ATOM      2  C   UNL     1      32.194  11.977  10.791  1.00  0.00     0.163 A 
ATOM      3  C   UNL     1      32.379  10.604  10.589  1.00  0.00     0.079 A 
ATOM      4  C   UNL     1      31.391   9.824   9.986  1.00  0.00     0.080 A 
ATOM      5  N   UNL     1      31.584   8.489   9.832  1.00  0.00    -0.236 NA
ATOM      6  C   UNL     1      30.633   7.706   9.262  1.00  0.00     0.224 A 
ATOM      7  N   UNL     1      29.476   8.255   8.817  1.00  0.00    -0.219 NA
ATOM      8  C   UNL     1      29.232   9.588   8.925  1.00  0.00     0.141 A 
ATOM      9  C   UNL     1      30.189  10.417   9.553  1.00  0.00     0.047 A 
ATOM     10  C   UNL     1      29.980  11.788   9.781  1.00  0.00     0.064 A 
ENDROOT
BRANCH   1  11
ATOM     11  O   UNL     1      30.775  13.958  10.586  1.00  0.00    -0.493 OA
ATOM     12  C   UNL     1      29.508  14.608  10.590  1.00  0.00     0.278 C 
ENDBRANCH   1  11
BRANCH   2  13
ATOM     13  O   UNL     1      33.254  12.670  11.402  1.00  0.00    -0.489 OA
BRANCH  13  14
ATOM     14  C   UNL     1      34.569  12.841  10.880  1.00  0.00     0.233 C 
BRANCH  14  15
ATOM     15  C   UNL     1      34.492  13.422   9.460  1.00  0.00     0.029 C 
ATOM     16  C   UNL     1      35.041  12.415   8.435  1.00  0.00     0.022 C 
ATOM     17  C   UNL     1      35.265  14.750   9.358  1.00  0.00     0.022 C 
ATOM     18  C   UNL     1      35.034  13.022   7.029  1.00  0.00     0.084 C 
ATOM     19  C   UNL     1      35.256  15.269   7.916  1.00  0.00     0.084 C 
ATOM     20  N   UNL     1      35.834  14.261   7.003  1.00  0.00    -0.306 NA
ATOM     21  C   UNL     1      35.886  14.798   5.634  1.00  0.00     0.105 C 
ENDBRANCH  14  15
ENDBRANCH  13  14
ENDBRANCH   2  13
BRANCH   8  22
ATOM     22  N   UNL     1      27.999  10.105   8.405  1.00  0.00    -0.337 N 
ATOM     23  H   UNL     1      28.020  10.497   7.436  1.00  0.00     0.168 HD
BRANCH  22  24
ATOM     24  C   UNL     1      26.814  10.301   9.199  1.00  0.00     0.076 A 
ATOM     25  C   UNL     1      26.047   9.189   9.591  1.00  0.00     0.147 A 
ATOM     26  C   UNL     1      26.394  11.590   9.585  1.00  0.00     0.030 A 
ATOM     27  F   UNL     1      26.423   7.935   9.235  1.00  0.00    -0.205 F 
ATOM     28  C   UNL     1      24.897   9.362  10.368  1.00  0.00     0.057 A 
ATOM     29  C   UNL     1      25.244  11.756  10.362  1.00  0.00     0.018 A 
ATOM     30  C   UNL     1      24.497  10.643  10.756  1.00  0.00     0.021 A 
ATOM     31  Br  UNL     1      22.927  10.874  11.821  1.00  0.00    -0.051 Br
ENDBRANCH  22  24
ENDBRANCH   8  22
TORSDOF 6
ENDMDL
