MODEL 1
REMARK VINA RESULT:    -6.176      0.000      0.000
REMARK INTER + INTRA:          -6.626
REMARK INTER:                  -6.537
REMARK INTRA:                  -0.088
REMARK UNBOUND:                -0.088
REMARK SMILES CC[C@@H]1SC2(CCN(C)CC2)NC1=O
REMARK SMILES IDX 3 1 4 2 5 3 6 4 7 5 8 6 9 7 10 8 11 9 12 10 13 11 14 12 2 14
REMARK SMILES IDX 1 15
REMARK H PARENT 12 13
REMARK Flexibility Score: inf
ROOT
ATOM      1  C   UNL     1      11.283  10.271  17.060  1.00  0.00     0.138 C 
ATOM      2  S   UNL     1      12.734  10.938  17.956  1.00  0.00    -0.120 SA
ATOM      3  C   UNL     1      12.720   9.611  19.230  1.00  0.00     0.089 C 
ATOM      4  C   UNL     1      12.809  10.246  20.639  1.00  0.00     0.055 C 
ATOM      5  C   UNL     1      13.476   9.321  21.676  1.00  0.00     0.087 C 
ATOM      6  N   UNL     1      13.284   7.909  21.307  1.00  0.00    -0.306 NA
ATOM      7  C   UNL     1      13.697   7.028  22.409  1.00  0.00     0.105 C 
ATOM      8  C   UNL     1      14.034   7.575  20.074  1.00  0.00     0.087 C 
ATOM      9  C   UNL     1      13.909   8.664  18.984  1.00  0.00     0.055 C 
ATOM     10  N   UNL     1      11.467   8.882  19.082  1.00  0.00    -0.341 N 
ATOM     11  C   UNL     1      10.707   9.227  17.941  1.00  0.00     0.234 C 
ATOM     12  O   UNL     1       9.602   8.673  17.696  1.00  0.00    -0.274 OA
ATOM     13  H   UNL     1      11.162   8.126  19.736  1.00  0.00     0.164 HD
ENDROOT
BRANCH   1  14
ATOM     14  C   UNL     1      11.699   9.671  15.707  1.00  0.00     0.021 C 
ATOM     15  C   UNL     1      13.211   9.481  15.604  1.00  0.00     0.005 C 
ENDBRANCH   1  14
TORSDOF 1
ENDMDL
MODEL 2
REMARK VINA RESULT:    -5.994      1.069      1.159
REMARK INTER + INTRA:          -6.433
REMARK INTER:                  -6.282
REMARK INTRA:                  -0.151
REMARK UNBOUND:                -0.088
REMARK SMILES CC[C@@H]1SC2(CCN(C)CC2)NC1=O
REMARK SMILES IDX 3 1 4 2 5 3 6 4 7 5 8 6 9 7 10 8 11 9 12 10 13 11 14 12 2 14
REMARK SMILES IDX 1 15
REMARK H PARENT 12 13
REMARK Flexibility Score: inf
ROOT
ATOM      1  C   UNL     1      11.615   9.857  16.693  1.00  0.00     0.138 C 
ATOM      2  S   UNL     1      12.951  10.838  17.471  1.00  0.00    -0.120 SA
ATOM      3  C   UNL     1      12.649  10.158  19.153  1.00  0.00     0.089 C 
ATOM      4  C   UNL     1      12.560  11.319  20.172  1.00  0.00     0.055 C 
ATOM      5  C   UNL     1      12.993  10.908  21.593  1.00  0.00     0.087 C 
ATOM      6  N   UNL     1      12.766   9.470  21.807  1.00  0.00    -0.306 NA
ATOM      7  C   UNL     1      12.940   9.125  23.226  1.00  0.00     0.105 C 
ATOM      8  C   UNL     1      13.673   8.657  20.965  1.00  0.00     0.087 C 
ATOM      9  C   UNL     1      13.794   9.197  19.521  1.00  0.00     0.055 C 
ATOM     10  N   UNL     1      11.387   9.430  19.106  1.00  0.00    -0.341 N 
ATOM     11  C   UNL     1      10.839   9.270  17.812  1.00  0.00     0.234 C 
ATOM     12  O   UNL     1       9.751   8.662  17.632  1.00  0.00    -0.274 OA
ATOM     13  H   UNL     1      10.933   9.012  19.950  1.00  0.00     0.164 HD
ENDROOT
BRANCH   1  14
ATOM     14  C   UNL     1      12.194   8.751  15.796  1.00  0.00     0.021 C 
ATOM     15  C   UNL     1      13.722   8.734  15.820  1.00  0.00     0.005 C 
ENDBRANCH   1  14
TORSDOF 1
ENDMDL
MODEL 3
REMARK VINA RESULT:    -5.870      2.385      2.985
REMARK INTER + INTRA:          -6.302
REMARK INTER:                  -6.239
REMARK INTRA:                  -0.062
REMARK UNBOUND:                -0.088
REMARK SMILES CC[C@@H]1SC2(CCN(C)CC2)NC1=O
REMARK SMILES IDX 3 1 4 2 5 3 6 4 7 5 8 6 9 7 10 8 11 9 12 10 13 11 14 12 2 14
REMARK SMILES IDX 1 15
REMARK H PARENT 12 13
REMARK Flexibility Score: inf
ROOT
ATOM      1  C   UNL     1      14.046   9.932  16.586  1.00  0.00     0.138 C 
ATOM      2  S   UNL     1      13.198   8.473  17.296  1.00  0.00    -0.120 SA
ATOM      3  C   UNL     1      13.377   9.050  19.033  1.00  0.00     0.089 C 
ATOM      4  C   UNL     1      13.943   7.902  19.904  1.00  0.00     0.055 C 
ATOM      5  C   UNL     1      13.508   7.995  21.380  1.00  0.00     0.087 C 
ATOM      6  N   UNL     1      13.239   9.394  21.752  1.00  0.00    -0.306 NA
ATOM      7  C   UNL     1      13.068   9.517  23.207  1.00  0.00     0.105 C 
ATOM      8  C   UNL     1      12.043   9.912  21.049  1.00  0.00     0.087 C 
ATOM      9  C   UNL     1      12.004   9.505  19.557  1.00  0.00     0.055 C 
ATOM     10  N   UNL     1      14.302  10.178  19.021  1.00  0.00    -0.341 N 
ATOM     11  C   UNL     1      14.656  10.645  17.735  1.00  0.00     0.234 C 
ATOM     12  O   UNL     1      15.449  11.611  17.584  1.00  0.00    -0.274 OA
ATOM     13  H   UNL     1      14.647  10.645  19.890  1.00  0.00     0.164 HD
ENDROOT
BRANCH   1  14
ATOM     14  C   UNL     1      13.051  10.844  15.849  1.00  0.00     0.021 C 
ATOM     15  C   UNL     1      12.094  10.049  14.962  1.00  0.00     0.005 C 
ENDBRANCH   1  14
TORSDOF 1
ENDMDL
MODEL 4
REMARK VINA RESULT:    -5.719      3.076      4.315
REMARK INTER + INTRA:          -6.141
REMARK INTER:                  -5.991
REMARK INTRA:                  -0.151
REMARK UNBOUND:                -0.088
REMARK SMILES CC[C@@H]1SC2(CCN(C)CC2)NC1=O
REMARK SMILES IDX 3 1 4 2 5 3 6 4 7 5 8 6 9 7 10 8 11 9 12 10 13 11 14 12 2 14
REMARK SMILES IDX 1 15
REMARK H PARENT 12 13
REMARK Flexibility Score: inf
ROOT
ATOM      1  C   UNL     1      13.180  10.526  16.015  1.00  0.00     0.138 C 
ATOM      2  S   UNL     1      12.679  11.903  17.113  1.00  0.00    -0.120 SA
ATOM      3  C   UNL     1      11.039  11.166  17.505  1.00  0.00     0.089 C 
ATOM      4  C   UNL     1       9.935  12.234  17.315  1.00  0.00     0.055 C 
ATOM      5  C   UNL     1       8.707  11.997  18.216  1.00  0.00     0.087 C 
ATOM      6  N   UNL     1       8.568  10.567  18.535  1.00  0.00    -0.306 NA
ATOM      7  C   UNL     1       7.272  10.306  19.180  1.00  0.00     0.105 C 
ATOM      8  C   UNL     1       9.675  10.104  19.401  1.00  0.00     0.087 C 
ATOM      9  C   UNL     1      11.052  10.648  18.954  1.00  0.00     0.055 C 
ATOM     10  N   UNL     1      10.832  10.056  16.583  1.00  0.00    -0.341 N 
ATOM     11  C   UNL     1      11.957   9.716  15.796  1.00  0.00     0.234 C 
ATOM     12  O   UNL     1      11.912   8.777  14.959  1.00  0.00    -0.274 OA
ATOM     13  H   UNL     1       9.941   9.512  16.530  1.00  0.00     0.164 HD
ENDROOT
BRANCH   1  14
ATOM     14  C   UNL     1      14.285   9.676  16.664  1.00  0.00     0.021 C 
ATOM     15  C   UNL     1      14.714  10.233  18.020  1.00  0.00     0.005 C 
ENDBRANCH   1  14
TORSDOF 1
ENDMDL
MODEL 5
REMARK VINA RESULT:    -5.713      2.234      5.023
REMARK INTER + INTRA:          -6.135
REMARK INTER:                  -6.095
REMARK INTRA:                  -0.040
REMARK UNBOUND:                -0.088
REMARK SMILES CC[C@@H]1SC2(CCN(C)CC2)NC1=O
REMARK SMILES IDX 3 1 4 2 5 3 6 4 7 5 8 6 9 7 10 8 11 9 12 10 13 11 14 12 2 14
REMARK SMILES IDX 1 15
REMARK H PARENT 12 13
REMARK Flexibility Score: inf
ROOT
ATOM      1  C   UNL     1      12.840   8.376  20.436  1.00  0.00     0.138 C 
ATOM      2  S   UNL     1      13.203   7.539  18.849  1.00  0.00    -0.120 SA
ATOM      3  C   UNL     1      12.780   9.009  17.827  1.00  0.00     0.089 C 
ATOM      4  C   UNL     1      11.821   8.589  16.688  1.00  0.00     0.055 C 
ATOM      5  C   UNL     1      11.943   9.482  15.438  1.00  0.00     0.087 C 
ATOM      6  N   UNL     1      12.405  10.829  15.809  1.00  0.00    -0.306 NA
ATOM      7  C   UNL     1      12.285  11.748  14.667  1.00  0.00     0.105 C 
ATOM      8  C   UNL     1      13.803  10.797  16.296  1.00  0.00     0.087 C 
ATOM      9  C   UNL     1      14.075   9.614  17.254  1.00  0.00     0.055 C 
ATOM     10  N   UNL     1      12.129   9.974  18.705  1.00  0.00    -0.341 N 
ATOM     11  C   UNL     1      12.158   9.644  20.080  1.00  0.00     0.234 C 
ATOM     12  O   UNL     1      11.629  10.391  20.945  1.00  0.00    -0.274 OA
ATOM     13  H   UNL     1      11.709  10.868  18.364  1.00  0.00     0.164 HD
ENDROOT
BRANCH   1  14
ATOM     14  C   UNL     1      14.133   8.658  21.220  1.00  0.00     0.021 C 
ATOM     15  C   UNL     1      14.792   7.374  21.719  1.00  0.00     0.005 C 
ENDBRANCH   1  14
TORSDOF 1
ENDMDL
MODEL 6
REMARK VINA RESULT:    -5.677     10.413     11.430
REMARK INTER + INTRA:          -6.097
REMARK INTER:                  -5.953
REMARK INTRA:                  -0.144
REMARK UNBOUND:                -0.088
REMARK SMILES CC[C@@H]1SC2(CCN(C)CC2)NC1=O
REMARK SMILES IDX 3 1 4 2 5 3 6 4 7 5 8 6 9 7 10 8 11 9 12 10 13 11 14 12 2 14
REMARK SMILES IDX 1 15
REMARK H PARENT 12 13
REMARK Flexibility Score: inf
ROOT
ATOM      1  C   UNL     1      24.557   8.651  15.527  1.00  0.00     0.138 C 
ATOM      2  S   UNL     1      25.063  10.176  16.405  1.00  0.00    -0.120 SA
ATOM      3  C   UNL     1      23.338  10.679  16.797  1.00  0.00     0.089 C 
ATOM      4  C   UNL     1      23.130  12.162  16.406  1.00  0.00     0.055 C 
ATOM      5  C   UNL     1      22.058  12.866  17.261  1.00  0.00     0.087 C 
ATOM      6  N   UNL     1      21.071  11.892  17.756  1.00  0.00    -0.306 NA
ATOM      7  C   UNL     1      19.921  12.584  18.356  1.00  0.00     0.105 C 
ATOM      8  C   UNL     1      21.683  10.967  18.737  1.00  0.00     0.087 C 
ATOM      9  C   UNL     1      23.081  10.471  18.300  1.00  0.00     0.055 C 
ATOM     10  N   UNL     1      22.450   9.823  16.019  1.00  0.00    -0.341 N 
ATOM     11  C   UNL     1      23.089   8.754  15.349  1.00  0.00     0.234 C 
ATOM     12  O   UNL     1      22.437   7.942  14.640  1.00  0.00    -0.274 OA
ATOM     13  H   UNL     1      21.413   9.950  15.988  1.00  0.00     0.164 HD
ENDROOT
BRANCH   1  14
ATOM     14  C   UNL     1      24.918   7.399  16.343  1.00  0.00     0.021 C 
ATOM     15  C   UNL     1      25.503   7.754  17.709  1.00  0.00     0.005 C 
ENDBRANCH   1  14
TORSDOF 1
ENDMDL
MODEL 7
REMARK VINA RESULT:    -5.653      2.657      4.510
REMARK INTER + INTRA:          -6.071
REMARK INTER:                  -5.973
REMARK INTRA:                  -0.098
REMARK UNBOUND:                -0.088
REMARK SMILES CC[C@@H]1SC2(CCN(C)CC2)NC1=O
REMARK SMILES IDX 3 1 4 2 5 3 6 4 7 5 8 6 9 7 10 8 11 9 12 10 13 11 14 12 2 14
REMARK SMILES IDX 1 15
REMARK H PARENT 12 13
REMARK Flexibility Score: inf
ROOT
ATOM      1  C   UNL     1      13.107   8.454  17.754  1.00  0.00     0.138 C 
ATOM      2  S   UNL     1      11.344   8.163  17.353  1.00  0.00    -0.120 SA
ATOM      3  C   UNL     1      10.780   9.751  18.091  1.00  0.00     0.089 C 
ATOM      4  C   UNL     1       9.581   9.486  19.033  1.00  0.00     0.055 C 
ATOM      5  C   UNL     1       8.629  10.693  19.150  1.00  0.00     0.087 C 
ATOM      6  N   UNL     1       9.356  11.950  18.907  1.00  0.00    -0.306 NA
ATOM      7  C   UNL     1       8.518  13.106  19.260  1.00  0.00     0.105 C 
ATOM      8  C   UNL     1       9.796  12.046  17.497  1.00  0.00     0.087 C 
ATOM      9  C   UNL     1      10.382  10.718  16.962  1.00  0.00     0.055 C 
ATOM     10  N   UNL     1      11.901  10.302  18.844  1.00  0.00    -0.341 N 
ATOM     11  C   UNL     1      13.128   9.621  18.669  1.00  0.00     0.234 C 
ATOM     12  O   UNL     1      14.174   9.993  19.263  1.00  0.00    -0.274 OA
ATOM     13  H   UNL     1      11.829  11.161  19.434  1.00  0.00     0.164 HD
ENDROOT
BRANCH   1  14
ATOM     14  C   UNL     1      13.921   8.747  16.483  1.00  0.00     0.021 C 
ATOM     15  C   UNL     1      13.023   9.018  15.277  1.00  0.00     0.005 C 
ENDBRANCH   1  14
TORSDOF 1
ENDMDL
MODEL 8
REMARK VINA RESULT:    -5.541      2.375      5.261
REMARK INTER + INTRA:          -5.953
REMARK INTER:                  -5.891
REMARK INTRA:                  -0.062
REMARK UNBOUND:                -0.088
REMARK SMILES CC[C@@H]1SC2(CCN(C)CC2)NC1=O
REMARK SMILES IDX 3 1 4 2 5 3 6 4 7 5 8 6 9 7 10 8 11 9 12 10 13 11 14 12 2 14
REMARK SMILES IDX 1 15
REMARK H PARENT 12 13
REMARK Flexibility Score: inf
ROOT
ATOM      1  C   UNL     1      12.805   8.204  18.689  1.00  0.00     0.138 C 
ATOM      2  S   UNL     1      13.343   8.307  16.942  1.00  0.00    -0.120 SA
ATOM      3  C   UNL     1      12.517   9.924  16.647  1.00  0.00     0.089 C 
ATOM      4  C   UNL     1      11.681   9.848  15.346  1.00  0.00     0.055 C 
ATOM      5  C   UNL     1      11.529  11.213  14.647  1.00  0.00     0.087 C 
ATOM      6  N   UNL     1      11.620  12.308  15.626  1.00  0.00    -0.306 NA
ATOM      7  C   UNL     1      11.231  13.585  15.010  1.00  0.00     0.105 C 
ATOM      8  C   UNL     1      12.985  12.406  16.190  1.00  0.00     0.087 C 
ATOM      9  C   UNL     1      13.588  11.025  16.542  1.00  0.00     0.055 C 
ATOM     10  N   UNL     1      11.650  10.183  17.790  1.00  0.00    -0.341 N 
ATOM     11  C   UNL     1      11.799   9.279  18.867  1.00  0.00     0.234 C 
ATOM     12  O   UNL     1      11.108   9.389  19.915  1.00  0.00    -0.274 OA
ATOM     13  H   UNL     1      10.998  10.997  17.843  1.00  0.00     0.164 HD
ENDROOT
BRANCH   1  14
ATOM     14  C   UNL     1      13.992   8.409  19.645  1.00  0.00     0.021 C 
ATOM     15  C   UNL     1      13.952   7.438  20.824  1.00  0.00     0.005 C 
ENDBRANCH   1  14
TORSDOF 1
ENDMDL
MODEL 9
REMARK VINA RESULT:    -5.342      3.231      4.745
REMARK INTER + INTRA:          -5.742
REMARK INTER:                  -5.676
REMARK INTRA:                  -0.067
REMARK UNBOUND:                -0.088
REMARK SMILES CC[C@@H]1SC2(CCN(C)CC2)NC1=O
REMARK SMILES IDX 3 1 4 2 5 3 6 4 7 5 8 6 9 7 10 8 11 9 12 10 13 11 14 12 2 14
REMARK SMILES IDX 1 15
REMARK H PARENT 12 13
REMARK Flexibility Score: inf
ROOT
ATOM      1  C   UNL     1      12.289   9.109  15.924  1.00  0.00     0.138 C 
ATOM      2  S   UNL     1      12.407  10.862  15.410  1.00  0.00    -0.120 SA
ATOM      3  C   UNL     1      11.183  11.444  16.654  1.00  0.00     0.089 C 
ATOM      4  C   UNL     1      10.133  12.347  15.962  1.00  0.00     0.055 C 
ATOM      5  C   UNL     1       9.522  13.397  16.911  1.00  0.00     0.087 C 
ATOM      6  N   UNL     1       9.560  12.918  18.303  1.00  0.00    -0.306 NA
ATOM      7  C   UNL     1       8.761  13.796  19.172  1.00  0.00     0.105 C 
ATOM      8  C   UNL     1      10.952  12.833  18.800  1.00  0.00     0.087 C 
ATOM      9  C   UNL     1      11.920  12.217  17.762  1.00  0.00     0.055 C 
ATOM     10  N   UNL     1      10.541  10.262  17.216  1.00  0.00    -0.341 N 
ATOM     11  C   UNL     1      11.120   9.030  16.834  1.00  0.00     0.234 C 
ATOM     12  O   UNL     1      10.660   7.933  17.247  1.00  0.00    -0.274 OA
ATOM     13  H   UNL     1       9.743  10.308  17.889  1.00  0.00     0.164 HD
ENDROOT
BRANCH   1  14
ATOM     14  C   UNL     1      13.570   8.658  16.646  1.00  0.00     0.021 C 
ATOM     15  C   UNL     1      14.422   9.843  17.095  1.00  0.00     0.005 C 
ENDBRANCH   1  14
TORSDOF 1
ENDMDL
MODEL 10
REMARK VINA RESULT:    -5.340     16.165     17.323
REMARK INTER + INTRA:          -5.740
REMARK INTER:                  -5.681
REMARK INTRA:                  -0.059
REMARK UNBOUND:                -0.088
REMARK SMILES CC[C@@H]1SC2(CCN(C)CC2)NC1=O
REMARK SMILES IDX 3 1 4 2 5 3 6 4 7 5 8 6 9 7 10 8 11 9 12 10 13 11 14 12 2 14
REMARK SMILES IDX 1 15
REMARK H PARENT 12 13
REMARK Flexibility Score: inf
ROOT
ATOM      1  C   UNL     1      20.967  14.005   4.575  1.00  0.00     0.138 C 
ATOM      2  S   UNL     1      19.658  15.096   3.907  1.00  0.00    -0.120 SA
ATOM      3  C   UNL     1      18.472  13.718   3.624  1.00  0.00     0.089 C 
ATOM      4  C   UNL     1      17.900  13.815   2.190  1.00  0.00     0.055 C 
ATOM      5  C   UNL     1      16.486  13.215   2.064  1.00  0.00     0.087 C 
ATOM      6  N   UNL     1      16.278  12.165   3.075  1.00  0.00    -0.306 NA
ATOM      7  C   UNL     1      15.037  11.425   2.802  1.00  0.00     0.105 C 
ATOM      8  C   UNL     1      16.245  12.739   4.439  1.00  0.00     0.087 C 
ATOM      9  C   UNL     1      17.344  13.803   4.668  1.00  0.00     0.055 C 
ATOM     10  N   UNL     1      19.209  12.472   3.791  1.00  0.00    -0.341 N 
ATOM     11  C   UNL     1      20.524  12.618   4.291  1.00  0.00     0.234 C 
ATOM     12  O   UNL     1      21.269  11.621   4.479  1.00  0.00    -0.274 OA
ATOM     13  H   UNL     1      18.795  11.531   3.603  1.00  0.00     0.164 HD
ENDROOT
BRANCH   1  14
ATOM     14  C   UNL     1      21.145  14.218   6.087  1.00  0.00     0.021 C 
ATOM     15  C   UNL     1      21.224  15.700   6.452  1.00  0.00     0.005 C 
ENDBRANCH   1  14
TORSDOF 1
ENDMDL
MODEL 11
REMARK VINA RESULT:    -5.322      2.368      5.084
REMARK INTER + INTRA:          -5.722
REMARK INTER:                  -5.591
REMARK INTRA:                  -0.131
REMARK UNBOUND:                -0.088
REMARK SMILES CC[C@@H]1SC2(CCN(C)CC2)NC1=O
REMARK SMILES IDX 3 1 4 2 5 3 6 4 7 5 8 6 9 7 10 8 11 9 12 10 13 11 14 12 2 14
REMARK SMILES IDX 1 15
REMARK H PARENT 12 13
REMARK Flexibility Score: inf
ROOT
ATOM      1  C   UNL     1      12.901   7.946  17.691  1.00  0.00     0.138 C 
ATOM      2  S   UNL     1      13.872   9.434  17.249  1.00  0.00    -0.120 SA
ATOM      3  C   UNL     1      12.393  10.414  16.762  1.00  0.00     0.089 C 
ATOM      4  C   UNL     1      12.636  11.064  15.378  1.00  0.00     0.055 C 
ATOM      5  C   UNL     1      11.853  12.377  15.183  1.00  0.00     0.087 C 
ATOM      6  N   UNL     1      10.631  12.376  16.004  1.00  0.00    -0.306 NA
ATOM      7  C   UNL     1       9.763  13.505  15.637  1.00  0.00     0.105 C 
ATOM      8  C   UNL     1      10.959  12.429  17.447  1.00  0.00     0.087 C 
ATOM      9  C   UNL     1      12.127  11.490  17.829  1.00  0.00     0.055 C 
ATOM     10  N   UNL     1      11.265   9.492  16.695  1.00  0.00    -0.341 N 
ATOM     11  C   UNL     1      11.529   8.192  17.183  1.00  0.00     0.234 C 
ATOM     12  O   UNL     1      10.641   7.298  17.181  1.00  0.00    -0.274 OA
ATOM     13  H   UNL     1      10.316   9.771  16.359  1.00  0.00     0.164 HD
ENDROOT
BRANCH   1  14
ATOM     14  C   UNL     1      12.885   7.729  19.213  1.00  0.00     0.021 C 
ATOM     15  C   UNL     1      13.944   8.571  19.923  1.00  0.00     0.005 C 
ENDBRANCH   1  14
TORSDOF 1
ENDMDL
MODEL 12
REMARK VINA RESULT:    -5.322      2.181      5.054
REMARK INTER + INTRA:          -5.721
REMARK INTER:                  -5.721
REMARK INTRA:                  -0.000
REMARK UNBOUND:                -0.088
REMARK SMILES CC[C@@H]1SC2(CCN(C)CC2)NC1=O
REMARK SMILES IDX 3 1 4 2 5 3 6 4 7 5 8 6 9 7 10 8 11 9 12 10 13 11 14 12 2 14
REMARK SMILES IDX 1 15
REMARK H PARENT 12 13
REMARK Flexibility Score: inf
ROOT
ATOM      1  C   UNL     1      13.857   9.564  21.595  1.00  0.00     0.138 C 
ATOM      2  S   UNL     1      14.276  10.985  20.520  1.00  0.00    -0.120 SA
ATOM      3  C   UNL     1      13.546  10.228  19.011  1.00  0.00     0.089 C 
ATOM      4  C   UNL     1      14.557  10.322  17.844  1.00  0.00     0.055 C 
ATOM      5  C   UNL     1      13.878  10.378  16.461  1.00  0.00     0.087 C 
ATOM      6  N   UNL     1      12.570   9.704  16.501  1.00  0.00    -0.306 NA
ATOM      7  C   UNL     1      12.034   9.537  15.141  1.00  0.00     0.105 C 
ATOM      8  C   UNL     1      11.610  10.455  17.342  1.00  0.00     0.087 C 
ATOM      9  C   UNL     1      12.239  10.962  18.660  1.00  0.00     0.055 C 
ATOM     10  N   UNL     1      13.262   8.832  19.322  1.00  0.00    -0.341 N 
ATOM     11  C   UNL     1      13.425   8.478  20.681  1.00  0.00     0.234 C 
ATOM     12  O   UNL     1      13.214   7.303  21.083  1.00  0.00    -0.274 OA
ATOM     13  H   UNL     1      12.918   8.145  18.613  1.00  0.00     0.164 HD
ENDROOT
BRANCH   1  14
ATOM     14  C   UNL     1      12.730   9.927  22.576  1.00  0.00     0.021 C 
ATOM     15  C   UNL     1      12.805   9.109  23.863  1.00  0.00     0.005 C 
ENDBRANCH   1  14
TORSDOF 1
ENDMDL
MODEL 13
REMARK VINA RESULT:    -5.225      3.348      5.516
REMARK INTER + INTRA:          -5.618
REMARK INTER:                  -5.467
REMARK INTRA:                  -0.151
REMARK UNBOUND:                -0.088
REMARK SMILES CC[C@@H]1SC2(CCN(C)CC2)NC1=O
REMARK SMILES IDX 3 1 4 2 5 3 6 4 7 5 8 6 9 7 10 8 11 9 12 10 13 11 14 12 2 14
REMARK SMILES IDX 1 15
REMARK H PARENT 12 13
REMARK Flexibility Score: inf
ROOT
ATOM      1  C   UNL     1      10.236   9.639  18.895  1.00  0.00     0.138 C 
ATOM      2  S   UNL     1      10.859  11.359  18.968  1.00  0.00    -0.120 SA
ATOM      3  C   UNL     1      11.311  11.409  17.186  1.00  0.00     0.089 C 
ATOM      4  C   UNL     1      12.754  11.948  17.033  1.00  0.00     0.055 C 
ATOM      5  C   UNL     1      12.991  12.663  15.689  1.00  0.00     0.087 C 
ATOM      6  N   UNL     1      12.086  12.134  14.655  1.00  0.00    -0.306 NA
ATOM      7  C   UNL     1      12.474  12.631  13.326  1.00  0.00     0.105 C 
ATOM      8  C   UNL     1      10.679  12.491  14.946  1.00  0.00     0.087 C 
ATOM      9  C   UNL     1      10.312  12.310  16.437  1.00  0.00     0.055 C 
ATOM     10  N   UNL     1      11.225  10.045  16.678  1.00  0.00    -0.341 N 
ATOM     11  C   UNL     1      10.660   9.110  17.576  1.00  0.00     0.234 C 
ATOM     12  O   UNL     1      10.529   7.897  17.263  1.00  0.00    -0.274 OA
ATOM     13  H   UNL     1      11.511   9.773  15.711  1.00  0.00     0.164 HD
ENDROOT
BRANCH   1  14
ATOM     14  C   UNL     1       8.705   9.601  19.029  1.00  0.00     0.021 C 
ATOM     15  C   UNL     1       8.112  10.994  19.235  1.00  0.00     0.005 C 
ENDBRANCH   1  14
TORSDOF 1
ENDMDL
MODEL 14
REMARK VINA RESULT:    -5.187     15.799     16.823
REMARK INTER + INTRA:          -5.578
REMARK INTER:                  -5.541
REMARK INTRA:                  -0.037
REMARK UNBOUND:                -0.088
REMARK SMILES CC[C@@H]1SC2(CCN(C)CC2)NC1=O
REMARK SMILES IDX 3 1 4 2 5 3 6 4 7 5 8 6 9 7 10 8 11 9 12 10 13 11 14 12 2 14
REMARK SMILES IDX 1 15
REMARK H PARENT 12 13
REMARK Flexibility Score: inf
ROOT
ATOM      1  C   UNL     1      15.643  12.998   3.128  1.00  0.00     0.138 C 
ATOM      2  S   UNL     1      16.991  13.658   2.080  1.00  0.00    -0.120 SA
ATOM      3  C   UNL     1      18.154  13.879   3.489  1.00  0.00     0.089 C 
ATOM      4  C   UNL     1      18.763  15.301   3.437  1.00  0.00     0.055 C 
ATOM      5  C   UNL     1      20.167  15.378   4.070  1.00  0.00     0.087 C 
ATOM      6  N   UNL     1      20.327  14.338   5.100  1.00  0.00    -0.306 NA
ATOM      7  C   UNL     1      21.558  14.563   5.872  1.00  0.00     0.105 C 
ATOM      8  C   UNL     1      20.339  12.987   4.495  1.00  0.00     0.087 C 
ATOM      9  C   UNL     1      19.258  12.810   3.404  1.00  0.00     0.055 C 
ATOM     10  N   UNL     1      17.386  13.703   4.716  1.00  0.00    -0.341 N 
ATOM     11  C   UNL     1      16.063  13.239   4.530  1.00  0.00     0.234 C 
ATOM     12  O   UNL     1      15.293  13.047   5.508  1.00  0.00    -0.274 OA
ATOM     13  H   UNL     1      17.785  13.858   5.669  1.00  0.00     0.164 HD
ENDROOT
BRANCH   1  14
ATOM     14  C   UNL     1      15.432  11.496   2.876  1.00  0.00     0.021 C 
ATOM     15  C   UNL     1      14.741  11.230   1.540  1.00  0.00     0.005 C 
ENDBRANCH   1  14
TORSDOF 1
ENDMDL
MODEL 15
REMARK VINA RESULT:    -5.150      2.962      3.600
REMARK INTER + INTRA:          -5.539
REMARK INTER:                  -5.407
REMARK INTRA:                  -0.132
REMARK UNBOUND:                -0.088
REMARK SMILES CC[C@@H]1SC2(CCN(C)CC2)NC1=O
REMARK SMILES IDX 3 1 4 2 5 3 6 4 7 5 8 6 9 7 10 8 11 9 12 10 13 11 14 12 2 14
REMARK SMILES IDX 1 15
REMARK H PARENT 12 13
REMARK Flexibility Score: inf
ROOT
ATOM      1  C   UNL     1      11.978   8.492  17.842  1.00  0.00     0.138 C 
ATOM      2  S   UNL     1      11.651  10.289  17.719  1.00  0.00    -0.120 SA
ATOM      3  C   UNL     1      13.287  10.767  18.413  1.00  0.00     0.089 C 
ATOM      4  C   UNL     1      13.086  11.816  19.532  1.00  0.00     0.055 C 
ATOM      5  C   UNL     1      14.294  12.760  19.697  1.00  0.00     0.087 C 
ATOM      6  N   UNL     1      15.533  12.093  19.263  1.00  0.00    -0.306 NA
ATOM      7  C   UNL     1      16.708  12.889  19.646  1.00  0.00     0.105 C 
ATOM      8  C   UNL     1      15.527  11.858  17.801  1.00  0.00     0.087 C 
ATOM      9  C   UNL     1      14.166  11.335  17.285  1.00  0.00     0.055 C 
ATOM     10  N   UNL     1      13.895   9.559  18.956  1.00  0.00    -0.341 N 
ATOM     11  C   UNL     1      13.209   8.359  18.658  1.00  0.00     0.234 C 
ATOM     12  O   UNL     1      13.628   7.245  19.069  1.00  0.00    -0.274 OA
ATOM     13  H   UNL     1      14.796   9.559  19.487  1.00  0.00     0.164 HD
ENDROOT
BRANCH   1  14
ATOM     14  C   UNL     1      12.180   7.871  16.450  1.00  0.00     0.021 C 
ATOM     15  C   UNL     1      12.228   8.931  15.351  1.00  0.00     0.005 C 
ENDBRANCH   1  14
TORSDOF 1
ENDMDL
