MODEL 1
REMARK VINA RESULT:    -8.837      0.000      0.000
REMARK INTER + INTRA:         -14.840
REMARK INTER:                 -13.486
REMARK INTRA:                  -1.354
REMARK UNBOUND:                -1.354
REMARK SMILES CCOc1cc2ncc(C#N)c(Nc3ccc(F)c(Cl)c3)c2cc1NC(=O)/C=C/CN(C)C
REMARK SMILES IDX 25 1 26 2 27 3 24 5 4 6 5 7 6 8 23 9 22 10 7 11 12 12 8 13
REMARK SMILES IDX 9 14 3 15 2 16 1 17 13 18 14 20 21 21 15 22 19 23 16 24
REMARK SMILES IDX 20 25 17 26 18 27 10 28 11 29 28 30 29 31 30 32 31 33 32 34
REMARK SMILES IDX 33 35
REMARK H PARENT 25 4 13 19
REMARK Flexibility Score: inf
ROOT
ATOM      1  N   UNL     1      22.718  33.724  12.447  1.00  0.00    -0.319 N 
ATOM      2  C   UNL     1      23.730  32.839  12.954  1.00  0.00     0.248 C 
ATOM      3  O   UNL     1      23.609  32.342  14.107  1.00  0.00    -0.270 OA
ATOM      4  H   UNL     1      22.547  33.741  11.417  1.00  0.00     0.170 HD
ENDROOT
BRANCH   1   5
ATOM      5  C   UNL     1      21.768  34.393  13.293  1.00  0.00     0.084 A 
ATOM      6  C   UNL     1      22.158  35.462  14.126  1.00  0.00     0.144 A 
ATOM      7  C   UNL     1      21.198  36.082  14.947  1.00  0.00     0.077 A 
ATOM      8  C   UNL     1      19.862  35.673  14.914  1.00  0.00     0.076 A 
ATOM      9  C   UNL     1      20.423  33.999  13.246  1.00  0.00     0.042 A 
ATOM     10  C   UNL     1      19.456  34.636  14.043  1.00  0.00     0.027 A 
ATOM     11  N   UNL     1      18.954  36.277  15.724  1.00  0.00    -0.255 NA
ATOM     12  C   UNL     1      18.093  34.264  14.018  1.00  0.00     0.068 A 
ATOM     13  C   UNL     1      17.647  35.915  15.734  1.00  0.00     0.133 A 
ATOM     14  C   UNL     1      17.189  34.901  14.888  1.00  0.00     0.094 A 
BRANCH   6  15
ATOM     15  O   UNL     1      23.494  35.892  14.098  1.00  0.00    -0.492 OA
BRANCH  15  16
ATOM     16  C   UNL     1      23.919  37.208  13.753  1.00  0.00     0.226 C 
ATOM     17  C   UNL     1      23.287  37.612  12.431  1.00  0.00     0.049 C 
ENDBRANCH  15  16
ENDBRANCH   6  15
BRANCH  12  18
ATOM     18  N   UNL     1      17.617  33.237  13.130  1.00  0.00    -0.354 N 
ATOM     19  H   UNL     1      17.389  32.306  13.547  1.00  0.00     0.167 HD
BRANCH  18  20
ATOM     20  C   UNL     1      17.304  33.467  11.744  1.00  0.00     0.040 A 
ATOM     21  C   UNL     1      17.728  32.539  10.780  1.00  0.00     0.049 A 
ATOM     22  C   UNL     1      16.570  34.596  11.331  1.00  0.00     0.029 A 
ATOM     23  C   UNL     1      17.440  32.740   9.424  1.00  0.00     0.078 A 
ATOM     24  C   UNL     1      16.284  34.795   9.976  1.00  0.00     0.043 A 
ATOM     25  Cl  UNL     1      17.987  31.570   8.236  1.00  0.00    -0.081 Cl
ATOM     26  C   UNL     1      16.718  33.870   9.023  1.00  0.00     0.141 A 
ATOM     27  F   UNL     1      16.434  34.073   7.713  1.00  0.00    -0.205 F 
ENDBRANCH  18  20
ENDBRANCH  12  18
BRANCH  14  28
ATOM     28  C   UNL     1      15.791  34.546  14.901  1.00  0.00     0.103 C 
ATOM     29  N   UNL     1      14.670  34.261  14.912  1.00  0.00    -0.192 NA
ENDBRANCH  14  28
ENDBRANCH   1   5
BRANCH   2  30
ATOM     30  C   UNL     1      24.897  32.454  12.139  1.00  0.00     0.068 C 
ATOM     31  C   UNL     1      25.824  31.588  12.561  1.00  0.00    -0.006 C 
BRANCH  31  32
ATOM     32  C   UNL     1      26.989  31.214  11.691  1.00  0.00     0.111 C 
BRANCH  32  33
ATOM     33  N   UNL     1      28.038  30.534  12.479  1.00  0.00    -0.306 NA
ATOM     34  C   UNL     1      28.776  31.518  13.287  1.00  0.00     0.105 C 
ATOM     35  C   UNL     1      28.977  29.819  11.597  1.00  0.00     0.105 C 
ENDBRANCH  32  33
ENDBRANCH  31  32
ENDBRANCH   2  30
TORSDOF 9
ENDMDL
MODEL 2
REMARK VINA RESULT:    -8.758      1.174      1.472
REMARK INTER + INTRA:         -14.719
REMARK INTER:                 -13.308
REMARK INTRA:                  -1.412
REMARK UNBOUND:                -1.354
REMARK SMILES CCOc1cc2ncc(C#N)c(Nc3ccc(F)c(Cl)c3)c2cc1NC(=O)/C=C/CN(C)C
REMARK SMILES IDX 25 1 26 2 27 3 24 5 4 6 5 7 6 8 23 9 22 10 7 11 12 12 8 13
REMARK SMILES IDX 9 14 3 15 2 16 1 17 13 18 14 20 21 21 15 22 19 23 16 24
REMARK SMILES IDX 20 25 17 26 18 27 10 28 11 29 28 30 29 31 30 32 31 33 32 34
REMARK SMILES IDX 33 35
REMARK H PARENT 25 4 13 19
REMARK Flexibility Score: inf
ROOT
ATOM      1  N   UNL     1      23.236  33.409  12.511  1.00  0.00    -0.319 N 
ATOM      2  C   UNL     1      24.111  32.420  13.078  1.00  0.00     0.248 C 
ATOM      3  O   UNL     1      23.932  32.029  14.264  1.00  0.00    -0.270 OA
ATOM      4  H   UNL     1      23.057  33.378  11.483  1.00  0.00     0.170 HD
ENDROOT
BRANCH   1   5
ATOM      5  C   UNL     1      22.407  34.270  13.309  1.00  0.00     0.084 A 
ATOM      6  C   UNL     1      22.929  35.432  13.914  1.00  0.00     0.144 A 
ATOM      7  C   UNL     1      22.085  36.241  14.696  1.00  0.00     0.077 A 
ATOM      8  C   UNL     1      20.733  35.923  14.845  1.00  0.00     0.076 A 
ATOM      9  C   UNL     1      21.044  33.966  13.442  1.00  0.00     0.042 A 
ATOM     10  C   UNL     1      20.192  34.789  14.199  1.00  0.00     0.027 A 
ATOM     11  N   UNL     1      19.938  36.712  15.615  1.00  0.00    -0.255 NA
ATOM     12  C   UNL     1      18.814  34.510  14.352  1.00  0.00     0.068 A 
ATOM     13  C   UNL     1      18.620  36.446  15.797  1.00  0.00     0.133 A 
ATOM     14  C   UNL     1      18.032  35.341  15.175  1.00  0.00     0.094 A 
BRANCH   6  15
ATOM     15  O   UNL     1      24.278  35.759  13.701  1.00  0.00    -0.492 OA
BRANCH  15  16
ATOM     16  C   UNL     1      24.734  36.868  12.931  1.00  0.00     0.226 C 
ATOM     17  C   UNL     1      24.397  36.640  11.467  1.00  0.00     0.049 C 
ENDBRANCH  15  16
ENDBRANCH   6  15
BRANCH  12  18
ATOM     18  N   UNL     1      18.204  33.387  13.694  1.00  0.00    -0.354 N 
ATOM     19  H   UNL     1      17.821  32.624  14.297  1.00  0.00     0.167 HD
BRANCH  18  20
ATOM     20  C   UNL     1      17.965  33.331  12.275  1.00  0.00     0.040 A 
ATOM     21  C   UNL     1      17.104  34.270  11.685  1.00  0.00     0.049 A 
ATOM     22  C   UNL     1      18.582  32.361  11.460  1.00  0.00     0.029 A 
ATOM     23  C   UNL     1      16.851  34.236  10.308  1.00  0.00     0.078 A 
ATOM     24  C   UNL     1      18.327  32.330  10.085  1.00  0.00     0.043 A 
ATOM     25  Cl  UNL     1      15.766  35.416   9.594  1.00  0.00    -0.081 Cl
ATOM     26  C   UNL     1      17.463  33.264   9.509  1.00  0.00     0.141 A 
ATOM     27  F   UNL     1      17.224  33.223   8.175  1.00  0.00    -0.205 F 
ENDBRANCH  18  20
ENDBRANCH  12  18
BRANCH  14  28
ATOM     28  C   UNL     1      16.625  35.088  15.366  1.00  0.00     0.103 C 
ATOM     29  N   UNL     1      15.497  34.885  15.519  1.00  0.00    -0.192 NA
ENDBRANCH  14  28
ENDBRANCH   1   5
BRANCH   2  30
ATOM     30  C   UNL     1      25.198  31.808  12.291  1.00  0.00     0.068 C 
ATOM     31  C   UNL     1      26.491  32.035  12.539  1.00  0.00    -0.006 C 
BRANCH  31  32
ATOM     32  C   UNL     1      27.565  31.378  11.719  1.00  0.00     0.111 C 
BRANCH  32  33
ATOM     33  N   UNL     1      28.410  30.507  12.560  1.00  0.00    -0.306 NA
ATOM     34  C   UNL     1      29.158  31.319  13.533  1.00  0.00     0.105 C 
ATOM     35  C   UNL     1      29.356  29.736  11.733  1.00  0.00     0.105 C 
ENDBRANCH  32  33
ENDBRANCH  31  32
ENDBRANCH   2  30
TORSDOF 9
ENDMDL
MODEL 3
REMARK VINA RESULT:    -8.640      1.338      1.627
REMARK INTER + INTRA:         -14.539
REMARK INTER:                 -12.978
REMARK INTRA:                  -1.562
REMARK UNBOUND:                -1.354
REMARK SMILES CCOc1cc2ncc(C#N)c(Nc3ccc(F)c(Cl)c3)c2cc1NC(=O)/C=C/CN(C)C
REMARK SMILES IDX 25 1 26 2 27 3 24 5 4 6 5 7 6 8 23 9 22 10 7 11 12 12 8 13
REMARK SMILES IDX 9 14 3 15 2 16 1 17 13 18 14 20 21 21 15 22 19 23 16 24
REMARK SMILES IDX 20 25 17 26 18 27 10 28 11 29 28 30 29 31 30 32 31 33 32 34
REMARK SMILES IDX 33 35
REMARK H PARENT 25 4 13 19
REMARK Flexibility Score: inf
ROOT
ATOM      1  N   UNL     1      23.128  33.565  13.835  1.00  0.00    -0.319 N 
ATOM      2  C   UNL     1      23.549  33.687  12.467  1.00  0.00     0.248 C 
ATOM      3  O   UNL     1      23.227  34.707  11.799  1.00  0.00    -0.270 OA
ATOM      4  H   UNL     1      23.743  33.039  14.496  1.00  0.00     0.170 HD
ENDROOT
BRANCH   1   5
ATOM      5  C   UNL     1      22.047  34.331  14.392  1.00  0.00     0.084 A 
ATOM      6  C   UNL     1      22.290  35.512  15.124  1.00  0.00     0.144 A 
ATOM      7  C   UNL     1      21.203  36.226  15.661  1.00  0.00     0.077 A 
ATOM      8  C   UNL     1      19.892  35.795  15.443  1.00  0.00     0.076 A 
ATOM      9  C   UNL     1      20.729  33.914  14.156  1.00  0.00     0.042 A 
ATOM     10  C   UNL     1      19.640  34.642  14.667  1.00  0.00     0.027 A 
ATOM     11  N   UNL     1      18.858  36.493  15.982  1.00  0.00    -0.255 NA
ATOM     12  C   UNL     1      18.300  34.248  14.446  1.00  0.00     0.068 A 
ATOM     13  C   UNL     1      17.567  36.116  15.805  1.00  0.00     0.133 A 
ATOM     14  C   UNL     1      17.260  34.987  15.040  1.00  0.00     0.094 A 
BRANCH   6  15
ATOM     15  O   UNL     1      23.614  35.953  15.279  1.00  0.00    -0.492 OA
BRANCH  15  16
ATOM     16  C   UNL     1      24.273  36.869  14.409  1.00  0.00     0.226 C 
ATOM     17  C   UNL     1      25.622  36.298  14.004  1.00  0.00     0.049 C 
ENDBRANCH  15  16
ENDBRANCH   6  15
BRANCH  12  18
ATOM     18  N   UNL     1      17.984  33.101  13.640  1.00  0.00    -0.354 N 
ATOM     19  H   UNL     1      17.738  32.215  14.137  1.00  0.00     0.167 HD
BRANCH  18  20
ATOM     20  C   UNL     1      17.845  33.149  12.207  1.00  0.00     0.040 A 
ATOM     21  C   UNL     1      17.003  34.112  11.631  1.00  0.00     0.049 A 
ATOM     22  C   UNL     1      18.545  32.260  11.368  1.00  0.00     0.029 A 
ATOM     23  C   UNL     1      16.847  34.179  10.241  1.00  0.00     0.078 A 
ATOM     24  C   UNL     1      18.387  32.329   9.980  1.00  0.00     0.043 A 
ATOM     25  Cl  UNL     1      15.782  35.387   9.542  1.00  0.00    -0.081 Cl
ATOM     26  C   UNL     1      17.540  33.286   9.415  1.00  0.00     0.141 A 
ATOM     27  F   UNL     1      17.395  33.343   8.069  1.00  0.00    -0.205 F 
ENDBRANCH  18  20
ENDBRANCH  12  18
BRANCH  14  28
ATOM     28  C   UNL     1      15.880  34.616  14.848  1.00  0.00     0.103 C 
ATOM     29  N   UNL     1      14.773  34.319  14.693  1.00  0.00    -0.192 NA
ENDBRANCH  14  28
ENDBRANCH   1   5
BRANCH   2  30
ATOM     30  C   UNL     1      24.395  32.663  11.825  1.00  0.00     0.068 C 
ATOM     31  C   UNL     1      25.731  32.705  11.849  1.00  0.00    -0.006 C 
BRANCH  31  32
ATOM     32  C   UNL     1      26.553  31.632  11.193  1.00  0.00     0.111 C 
BRANCH  32  33
ATOM     33  N   UNL     1      27.429  30.965  12.177  1.00  0.00    -0.306 NA
ATOM     34  C   UNL     1      27.873  31.934  13.192  1.00  0.00     0.105 C 
ATOM     35  C   UNL     1      28.605  30.373  11.515  1.00  0.00     0.105 C 
ENDBRANCH  32  33
ENDBRANCH  31  32
ENDBRANCH   2  30
TORSDOF 9
ENDMDL
MODEL 4
REMARK VINA RESULT:    -8.298      3.995      6.659
REMARK INTER + INTRA:         -14.017
REMARK INTER:                 -12.766
REMARK INTRA:                  -1.251
REMARK UNBOUND:                -1.354
REMARK SMILES CCOc1cc2ncc(C#N)c(Nc3ccc(F)c(Cl)c3)c2cc1NC(=O)/C=C/CN(C)C
REMARK SMILES IDX 25 1 26 2 27 3 24 5 4 6 5 7 6 8 23 9 22 10 7 11 12 12 8 13
REMARK SMILES IDX 9 14 3 15 2 16 1 17 13 18 14 20 21 21 15 22 19 23 16 24
REMARK SMILES IDX 20 25 17 26 18 27 10 28 11 29 28 30 29 31 30 32 31 33 32 34
REMARK SMILES IDX 33 35
REMARK H PARENT 25 4 13 19
REMARK Flexibility Score: inf
ROOT
ATOM      1  N   UNL     1      20.459  32.926  12.144  1.00  0.00    -0.319 N 
ATOM      2  C   UNL     1      19.237  33.159  11.426  1.00  0.00     0.248 C 
ATOM      3  O   UNL     1      18.676  34.287  11.490  1.00  0.00    -0.270 OA
ATOM      4  H   UNL     1      21.145  32.247  11.744  1.00  0.00     0.170 HD
ENDROOT
BRANCH   1   5
ATOM      5  C   UNL     1      20.895  33.752  13.236  1.00  0.00     0.084 A 
ATOM      6  C   UNL     1      21.993  34.627  13.098  1.00  0.00     0.144 A 
ATOM      7  C   UNL     1      22.393  35.410  14.196  1.00  0.00     0.077 A 
ATOM      8  C   UNL     1      21.690  35.356  15.402  1.00  0.00     0.076 A 
ATOM      9  C   UNL     1      20.178  33.717  14.441  1.00  0.00     0.042 A 
ATOM     10  C   UNL     1      20.558  34.520  15.530  1.00  0.00     0.027 A 
ATOM     11  N   UNL     1      22.101  36.113  16.454  1.00  0.00    -0.255 NA
ATOM     12  C   UNL     1      19.855  34.508  16.757  1.00  0.00     0.068 A 
ATOM     13  C   UNL     1      21.457  36.094  17.648  1.00  0.00     0.133 A 
ATOM     14  C   UNL     1      20.327  35.291  17.828  1.00  0.00     0.094 A 
BRANCH   6  15
ATOM     15  O   UNL     1      22.646  34.704  11.858  1.00  0.00    -0.492 OA
BRANCH  15  16
ATOM     16  C   UNL     1      23.994  35.126  11.672  1.00  0.00     0.226 C 
ATOM     17  C   UNL     1      24.009  36.529  11.090  1.00  0.00     0.049 C 
ENDBRANCH  15  16
ENDBRANCH   6  15
BRANCH  12  18
ATOM     18  N   UNL     1      18.679  33.701  16.935  1.00  0.00    -0.354 N 
ATOM     19  H   UNL     1      18.780  32.813  17.477  1.00  0.00     0.167 HD
BRANCH  18  20
ATOM     20  C   UNL     1      17.360  34.119  16.537  1.00  0.00     0.040 A 
ATOM     21  C   UNL     1      16.547  34.798  17.458  1.00  0.00     0.049 A 
ATOM     22  C   UNL     1      16.868  33.874  15.240  1.00  0.00     0.029 A 
ATOM     23  C   UNL     1      15.259  35.213  17.098  1.00  0.00     0.078 A 
ATOM     24  C   UNL     1      15.581  34.289  14.883  1.00  0.00     0.043 A 
ATOM     25  Cl  UNL     1      14.257  36.054  18.269  1.00  0.00    -0.081 Cl
ATOM     26  C   UNL     1      14.776  34.957  15.809  1.00  0.00     0.141 A 
ATOM     27  F   UNL     1      13.530  35.355  15.452  1.00  0.00    -0.205 F 
ENDBRANCH  18  20
ENDBRANCH  12  18
BRANCH  14  28
ATOM     28  C   UNL     1      19.647  35.302  19.099  1.00  0.00     0.103 C 
ATOM     29  N   UNL     1      19.101  35.310  20.119  1.00  0.00    -0.192 NA
ENDBRANCH  14  28
ENDBRANCH   1   5
BRANCH   2  30
ATOM     30  C   UNL     1      18.634  32.120  10.570  1.00  0.00     0.068 C 
ATOM     31  C   UNL     1      18.226  32.356   9.320  1.00  0.00    -0.006 C 
BRANCH  31  32
ATOM     32  C   UNL     1      17.630  31.263   8.479  1.00  0.00     0.111 C 
BRANCH  32  33
ATOM     33  N   UNL     1      16.172  31.449   8.331  1.00  0.00    -0.306 NA
ATOM     34  C   UNL     1      15.636  30.470   7.372  1.00  0.00     0.105 C 
ATOM     35  C   UNL     1      15.862  32.813   7.866  1.00  0.00     0.105 C 
ENDBRANCH  32  33
ENDBRANCH  31  32
ENDBRANCH   2  30
TORSDOF 9
ENDMDL
MODEL 5
REMARK VINA RESULT:    -8.223      3.736      7.928
REMARK INTER + INTRA:         -13.904
REMARK INTER:                 -12.716
REMARK INTRA:                  -1.188
REMARK UNBOUND:                -1.354
REMARK SMILES CCOc1cc2ncc(C#N)c(Nc3ccc(F)c(Cl)c3)c2cc1NC(=O)/C=C/CN(C)C
REMARK SMILES IDX 25 1 26 2 27 3 24 5 4 6 5 7 6 8 23 9 22 10 7 11 12 12 8 13
REMARK SMILES IDX 9 14 3 15 2 16 1 17 13 18 14 20 21 21 15 22 19 23 16 24
REMARK SMILES IDX 20 25 17 26 18 27 10 28 11 29 28 30 29 31 30 32 31 33 32 34
REMARK SMILES IDX 33 35
REMARK H PARENT 25 4 13 19
REMARK Flexibility Score: inf
ROOT
ATOM      1  N   UNL     1      17.112  32.705  12.608  1.00  0.00    -0.319 N 
ATOM      2  C   UNL     1      17.266  33.306  11.313  1.00  0.00     0.248 C 
ATOM      3  O   UNL     1      18.111  34.228  11.145  1.00  0.00    -0.270 OA
ATOM      4  H   UNL     1      16.824  31.702  12.656  1.00  0.00     0.170 HD
ENDROOT
BRANCH   1   5
ATOM      5  C   UNL     1      17.571  33.328  13.820  1.00  0.00     0.084 A 
ATOM      6  C   UNL     1      16.736  34.191  14.559  1.00  0.00     0.144 A 
ATOM      7  C   UNL     1      17.228  34.788  15.734  1.00  0.00     0.077 A 
ATOM      8  C   UNL     1      18.518  34.504  16.189  1.00  0.00     0.076 A 
ATOM      9  C   UNL     1      18.856  33.027  14.292  1.00  0.00     0.042 A 
ATOM     10  C   UNL     1      19.341  33.600  15.481  1.00  0.00     0.027 A 
ATOM     11  N   UNL     1      18.978  35.101  17.320  1.00  0.00    -0.255 NA
ATOM     12  C   UNL     1      20.632  33.316  15.983  1.00  0.00     0.068 A 
ATOM     13  C   UNL     1      20.224  34.864  17.803  1.00  0.00     0.133 A 
ATOM     14  C   UNL     1      21.077  33.973  17.146  1.00  0.00     0.094 A 
BRANCH   6  15
ATOM     15  O   UNL     1      15.424  34.415  14.110  1.00  0.00    -0.492 OA
BRANCH  15  16
ATOM     16  C   UNL     1      14.256  33.838  14.688  1.00  0.00     0.226 C 
ATOM     17  C   UNL     1      13.897  34.593  15.957  1.00  0.00     0.049 C 
ENDBRANCH  15  16
ENDBRANCH   6  15
BRANCH  12  18
ATOM     18  N   UNL     1      21.501  32.381  15.321  1.00  0.00    -0.354 N 
ATOM     19  H   UNL     1      21.274  31.365  15.409  1.00  0.00     0.167 HD
BRANCH  18  20
ATOM     20  C   UNL     1      22.564  32.776  14.433  1.00  0.00     0.040 A 
ATOM     21  C   UNL     1      22.401  33.915  13.630  1.00  0.00     0.049 A 
ATOM     22  C   UNL     1      23.770  32.052  14.359  1.00  0.00     0.029 A 
ATOM     23  C   UNL     1      23.418  34.319  12.756  1.00  0.00     0.078 A 
ATOM     24  C   UNL     1      24.783  32.458  13.485  1.00  0.00     0.043 A 
ATOM     25  Cl  UNL     1      23.189  35.743  11.755  1.00  0.00    -0.081 Cl
ATOM     26  C   UNL     1      24.609  33.589  12.683  1.00  0.00     0.141 A 
ATOM     27  F   UNL     1      25.599  33.972  11.840  1.00  0.00    -0.205 F 
ENDBRANCH  18  20
ENDBRANCH  12  18
BRANCH  14  28
ATOM     28  C   UNL     1      22.389  33.719  17.688  1.00  0.00     0.103 C 
ATOM     29  N   UNL     1      23.441  33.517  18.123  1.00  0.00    -0.192 NA
ENDBRANCH  14  28
ENDBRANCH   1   5
BRANCH   2  30
ATOM     30  C   UNL     1      16.489  32.842  10.148  1.00  0.00     0.068 C 
ATOM     31  C   UNL     1      17.050  32.540   8.973  1.00  0.00    -0.006 C 
BRANCH  31  32
ATOM     32  C   UNL     1      16.220  32.057   7.818  1.00  0.00     0.111 C 
BRANCH  32  33
ATOM     33  N   UNL     1      15.936  30.613   7.943  1.00  0.00    -0.306 NA
ATOM     34  C   UNL     1      16.788  29.851   7.016  1.00  0.00     0.105 C 
ATOM     35  C   UNL     1      14.519  30.331   7.652  1.00  0.00     0.105 C 
ENDBRANCH  32  33
ENDBRANCH  31  32
ENDBRANCH   2  30
TORSDOF 9
ENDMDL
MODEL 6
REMARK VINA RESULT:    -8.189      3.397      6.620
REMARK INTER + INTRA:         -13.852
REMARK INTER:                 -12.708
REMARK INTRA:                  -1.144
REMARK UNBOUND:                -1.354
REMARK SMILES CCOc1cc2ncc(C#N)c(Nc3ccc(F)c(Cl)c3)c2cc1NC(=O)/C=C/CN(C)C
REMARK SMILES IDX 25 1 26 2 27 3 24 5 4 6 5 7 6 8 23 9 22 10 7 11 12 12 8 13
REMARK SMILES IDX 9 14 3 15 2 16 1 17 13 18 14 20 21 21 15 22 19 23 16 24
REMARK SMILES IDX 20 25 17 26 18 27 10 28 11 29 28 30 29 31 30 32 31 33 32 34
REMARK SMILES IDX 33 35
REMARK H PARENT 25 4 13 19
REMARK Flexibility Score: inf
ROOT
ATOM      1  N   UNL     1      20.031  33.744  11.836  1.00  0.00    -0.319 N 
ATOM      2  C   UNL     1      18.904  32.873  11.650  1.00  0.00     0.248 C 
ATOM      3  O   UNL     1      18.234  32.492  12.648  1.00  0.00    -0.270 OA
ATOM      4  H   UNL     1      20.266  34.418  11.074  1.00  0.00     0.170 HD
ENDROOT
BRANCH   1   5
ATOM      5  C   UNL     1      20.691  33.911  13.102  1.00  0.00     0.084 A 
ATOM      6  C   UNL     1      21.940  33.308  13.360  1.00  0.00     0.144 A 
ATOM      7  C   UNL     1      22.546  33.488  14.617  1.00  0.00     0.077 A 
ATOM      8  C   UNL     1      21.940  34.285  15.591  1.00  0.00     0.076 A 
ATOM      9  C   UNL     1      20.097  34.728  14.074  1.00  0.00     0.042 A 
ATOM     10  C   UNL     1      20.714  34.933  15.320  1.00  0.00     0.027 A 
ATOM     11  N   UNL     1      22.537  34.435  16.803  1.00  0.00    -0.255 NA
ATOM     12  C   UNL     1      20.142  35.753  16.320  1.00  0.00     0.068 A 
ATOM     13  C   UNL     1      21.990  35.194  17.785  1.00  0.00     0.133 A 
ATOM     14  C   UNL     1      20.782  35.864  17.568  1.00  0.00     0.094 A 
BRANCH   6  15
ATOM     15  O   UNL     1      22.554  32.559  12.343  1.00  0.00    -0.492 OA
BRANCH  15  16
ATOM     16  C   UNL     1      23.956  32.325  12.238  1.00  0.00     0.226 C 
ATOM     17  C   UNL     1      24.638  33.577  11.712  1.00  0.00     0.049 C 
ENDBRANCH  15  16
ENDBRANCH   6  15
BRANCH  12  18
ATOM     18  N   UNL     1      18.911  36.460  16.089  1.00  0.00    -0.354 N 
ATOM     19  H   UNL     1      18.978  37.447  15.750  1.00  0.00     0.167 HD
BRANCH  18  20
ATOM     20  C   UNL     1      17.613  35.841  16.158  1.00  0.00     0.040 A 
ATOM     21  C   UNL     1      17.064  35.265  15.002  1.00  0.00     0.049 A 
ATOM     22  C   UNL     1      16.883  35.789  17.361  1.00  0.00     0.029 A 
ATOM     23  C   UNL     1      15.802  34.660  15.039  1.00  0.00     0.078 A 
ATOM     24  C   UNL     1      15.623  35.184  17.396  1.00  0.00     0.043 A 
ATOM     25  Cl  UNL     1      15.133  33.953  13.579  1.00  0.00    -0.081 Cl
ATOM     26  C   UNL     1      15.081  34.620  16.239  1.00  0.00     0.141 A 
ATOM     27  F   UNL     1      13.858  34.037  16.285  1.00  0.00    -0.205 F 
ENDBRANCH  18  20
ENDBRANCH  12  18
BRANCH  14  28
ATOM     28  C   UNL     1      20.228  36.681  18.619  1.00  0.00     0.103 C 
ATOM     29  N   UNL     1      19.784  37.338  19.462  1.00  0.00    -0.192 NA
ENDBRANCH  14  28
ENDBRANCH   1   5
BRANCH   2  30
ATOM     30  C   UNL     1      18.474  32.443  10.307  1.00  0.00     0.068 C 
ATOM     31  C   UNL     1      17.591  33.126   9.573  1.00  0.00    -0.006 C 
BRANCH  31  32
ATOM     32  C   UNL     1      17.192  32.657   8.202  1.00  0.00     0.111 C 
BRANCH  32  33
ATOM     33  N   UNL     1      16.758  31.246   8.235  1.00  0.00    -0.306 NA
ATOM     34  C   UNL     1      17.473  30.476   7.206  1.00  0.00     0.105 C 
ATOM     35  C   UNL     1      15.305  31.139   8.008  1.00  0.00     0.105 C 
ENDBRANCH  32  33
ENDBRANCH  31  32
ENDBRANCH   2  30
TORSDOF 9
ENDMDL
MODEL 7
REMARK VINA RESULT:    -8.051      3.843      7.788
REMARK INTER + INTRA:         -13.641
REMARK INTER:                 -12.254
REMARK INTRA:                  -1.387
REMARK UNBOUND:                -1.354
REMARK SMILES CCOc1cc2ncc(C#N)c(Nc3ccc(F)c(Cl)c3)c2cc1NC(=O)/C=C/CN(C)C
REMARK SMILES IDX 25 1 26 2 27 3 24 5 4 6 5 7 6 8 23 9 22 10 7 11 12 12 8 13
REMARK SMILES IDX 9 14 3 15 2 16 1 17 13 18 14 20 21 21 15 22 19 23 16 24
REMARK SMILES IDX 20 25 17 26 18 27 10 28 11 29 28 30 29 31 30 32 31 33 32 34
REMARK SMILES IDX 33 35
REMARK H PARENT 25 4 13 19
REMARK Flexibility Score: inf
ROOT
ATOM      1  N   UNL     1      17.053  34.628  13.781  1.00  0.00    -0.319 N 
ATOM      2  C   UNL     1      17.148  33.492  12.907  1.00  0.00     0.248 C 
ATOM      3  O   UNL     1      17.706  32.435  13.308  1.00  0.00    -0.270 OA
ATOM      4  H   UNL     1      16.234  35.267  13.674  1.00  0.00     0.170 HD
ENDROOT
BRANCH   1   5
ATOM      5  C   UNL     1      17.880  34.790  14.946  1.00  0.00     0.084 A 
ATOM      6  C   UNL     1      17.470  34.305  16.206  1.00  0.00     0.144 A 
ATOM      7  C   UNL     1      18.306  34.494  17.322  1.00  0.00     0.077 A 
ATOM      8  C   UNL     1      19.547  35.120  17.183  1.00  0.00     0.076 A 
ATOM      9  C   UNL     1      19.136  35.397  14.807  1.00  0.00     0.042 A 
ATOM     10  C   UNL     1      19.985  35.561  15.915  1.00  0.00     0.027 A 
ATOM     11  N   UNL     1      20.333  35.303  18.277  1.00  0.00    -0.255 NA
ATOM     12  C   UNL     1      21.258  36.169  15.807  1.00  0.00     0.068 A 
ATOM     13  C   UNL     1      21.544  35.909  18.199  1.00  0.00     0.133 A 
ATOM     14  C   UNL     1      22.030  36.358  16.968  1.00  0.00     0.094 A 
BRANCH   6  15
ATOM     15  O   UNL     1      16.244  33.629  16.306  1.00  0.00    -0.492 OA
BRANCH  15  16
ATOM     16  C   UNL     1      15.080  34.145  16.945  1.00  0.00     0.226 C 
ATOM     17  C   UNL     1      14.105  34.645  15.891  1.00  0.00     0.049 C 
ENDBRANCH  15  16
ENDBRANCH   6  15
BRANCH  12  18
ATOM     18  N   UNL     1      21.768  36.609  14.537  1.00  0.00    -0.354 N 
ATOM     19  H   UNL     1      21.589  37.601  14.262  1.00  0.00     0.167 HD
BRANCH  18  20
ATOM     20  C   UNL     1      22.626  35.807  13.704  1.00  0.00     0.040 A 
ATOM     21  C   UNL     1      22.977  34.514  14.121  1.00  0.00     0.049 A 
ATOM     22  C   UNL     1      23.115  36.285  12.472  1.00  0.00     0.029 A 
ATOM     23  C   UNL     1      23.813  33.714  13.333  1.00  0.00     0.078 A 
ATOM     24  C   UNL     1      23.950  35.484  11.687  1.00  0.00     0.043 A 
ATOM     25  Cl  UNL     1      24.244  32.103  13.879  1.00  0.00    -0.081 Cl
ATOM     26  C   UNL     1      24.300  34.201  12.114  1.00  0.00     0.141 A 
ATOM     27  F   UNL     1      25.110  33.434  11.344  1.00  0.00    -0.205 F 
ENDBRANCH  18  20
ENDBRANCH  12  18
BRANCH  14  28
ATOM     28  C   UNL     1      23.329  36.981  16.905  1.00  0.00     0.103 C 
ATOM     29  N   UNL     1      24.371  37.481  16.855  1.00  0.00    -0.192 NA
ENDBRANCH  14  28
ENDBRANCH   1   5
BRANCH   2  30
ATOM     30  C   UNL     1      16.566  33.511  11.551  1.00  0.00     0.068 C 
ATOM     31  C   UNL     1      17.029  32.755  10.551  1.00  0.00    -0.006 C 
BRANCH  31  32
ATOM     32  C   UNL     1      16.396  32.797   9.190  1.00  0.00     0.111 C 
BRANCH  32  33
ATOM     33  N   UNL     1      16.404  31.458   8.565  1.00  0.00    -0.306 NA
ATOM     34  C   UNL     1      17.624  31.286   7.762  1.00  0.00     0.105 C 
ATOM     35  C   UNL     1      15.220  31.274   7.706  1.00  0.00     0.105 C 
ENDBRANCH  32  33
ENDBRANCH  31  32
ENDBRANCH   2  30
TORSDOF 9
ENDMDL
MODEL 8
REMARK VINA RESULT:    -8.038      3.790      7.872
REMARK INTER + INTRA:         -13.622
REMARK INTER:                 -12.469
REMARK INTRA:                  -1.153
REMARK UNBOUND:                -1.354
REMARK SMILES CCOc1cc2ncc(C#N)c(Nc3ccc(F)c(Cl)c3)c2cc1NC(=O)/C=C/CN(C)C
REMARK SMILES IDX 25 1 26 2 27 3 24 5 4 6 5 7 6 8 23 9 22 10 7 11 12 12 8 13
REMARK SMILES IDX 9 14 3 15 2 16 1 17 13 18 14 20 21 21 15 22 19 23 16 24
REMARK SMILES IDX 20 25 17 26 18 27 10 28 11 29 28 30 29 31 30 32 31 33 32 34
REMARK SMILES IDX 33 35
REMARK H PARENT 25 4 13 19
REMARK Flexibility Score: inf
ROOT
ATOM      1  N   UNL     1      16.923  33.209  13.016  1.00  0.00    -0.319 N 
ATOM      2  C   UNL     1      17.345  33.645  11.714  1.00  0.00     0.248 C 
ATOM      3  O   UNL     1      18.444  34.249  11.579  1.00  0.00    -0.270 OA
ATOM      4  H   UNL     1      16.335  32.348  13.082  1.00  0.00     0.170 HD
ENDROOT
BRANCH   1   5
ATOM      5  C   UNL     1      17.469  33.741  14.234  1.00  0.00     0.084 A 
ATOM      6  C   UNL     1      16.706  34.581  15.071  1.00  0.00     0.144 A 
ATOM      7  C   UNL     1      17.283  35.088  16.250  1.00  0.00     0.077 A 
ATOM      8  C   UNL     1      18.586  34.738  16.612  1.00  0.00     0.076 A 
ATOM      9  C   UNL     1      18.769  33.373  14.612  1.00  0.00     0.042 A 
ATOM     10  C   UNL     1      19.337  33.856  15.803  1.00  0.00     0.027 A 
ATOM     11  N   UNL     1      19.128  35.250  17.748  1.00  0.00    -0.255 NA
ATOM     12  C   UNL     1      20.644  33.503  16.213  1.00  0.00     0.068 A 
ATOM     13  C   UNL     1      20.390  34.946  18.143  1.00  0.00     0.133 A 
ATOM     14  C   UNL     1      21.175  34.073  17.385  1.00  0.00     0.094 A 
BRANCH   6  15
ATOM     15  O   UNL     1      15.380  34.870  14.713  1.00  0.00    -0.492 OA
BRANCH  15  16
ATOM     16  C   UNL     1      14.232  34.206  15.235  1.00  0.00     0.226 C 
ATOM     17  C   UNL     1      13.497  33.505  14.104  1.00  0.00     0.049 C 
ENDBRANCH  15  16
ENDBRANCH   6  15
BRANCH  12  18
ATOM     18  N   UNL     1      21.444  32.587  15.445  1.00  0.00    -0.354 N 
ATOM     19  H   UNL     1      21.263  31.565  15.573  1.00  0.00     0.167 HD
BRANCH  18  20
ATOM     20  C   UNL     1      22.362  33.001  14.417  1.00  0.00     0.040 A 
ATOM     21  C   UNL     1      23.624  32.392  14.336  1.00  0.00     0.049 A 
ATOM     22  C   UNL     1      22.021  33.997  13.480  1.00  0.00     0.029 A 
ATOM     23  C   UNL     1      24.538  32.779  13.348  1.00  0.00     0.078 A 
ATOM     24  C   UNL     1      22.936  34.381  12.495  1.00  0.00     0.043 A 
ATOM     25  Cl  UNL     1      26.113  32.009  13.272  1.00  0.00    -0.081 Cl
ATOM     26  C   UNL     1      24.193  33.775  12.428  1.00  0.00     0.141 A 
ATOM     27  F   UNL     1      25.071  34.156  11.468  1.00  0.00    -0.205 F 
ENDBRANCH  18  20
ENDBRANCH  12  18
BRANCH  14  28
ATOM     28  C   UNL     1      22.506  33.748  17.834  1.00  0.00     0.103 C 
ATOM     29  N   UNL     1      23.574  33.487  18.194  1.00  0.00    -0.192 NA
ENDBRANCH  14  28
ENDBRANCH   1   5
BRANCH   2  30
ATOM     30  C   UNL     1      16.543  33.364  10.508  1.00  0.00     0.068 C 
ATOM     31  C   UNL     1      16.989  32.610   9.498  1.00  0.00    -0.006 C 
BRANCH  31  32
ATOM     32  C   UNL     1      16.132  32.339   8.295  1.00  0.00     0.111 C 
BRANCH  32  33
ATOM     33  N   UNL     1      15.983  30.887   8.072  1.00  0.00    -0.306 NA
ATOM     34  C   UNL     1      16.919  30.440   7.029  1.00  0.00     0.105 C 
ATOM     35  C   UNL     1      14.604  30.557   7.669  1.00  0.00     0.105 C 
ENDBRANCH  32  33
ENDBRANCH  31  32
ENDBRANCH   2  30
TORSDOF 9
ENDMDL
MODEL 9
REMARK VINA RESULT:    -7.922      3.875      8.349
REMARK INTER + INTRA:         -13.444
REMARK INTER:                 -12.148
REMARK INTRA:                  -1.296
REMARK UNBOUND:                -1.354
REMARK SMILES CCOc1cc2ncc(C#N)c(Nc3ccc(F)c(Cl)c3)c2cc1NC(=O)/C=C/CN(C)C
REMARK SMILES IDX 25 1 26 2 27 3 24 5 4 6 5 7 6 8 23 9 22 10 7 11 12 12 8 13
REMARK SMILES IDX 9 14 3 15 2 16 1 17 13 18 14 20 21 21 15 22 19 23 16 24
REMARK SMILES IDX 20 25 17 26 18 27 10 28 11 29 28 30 29 31 30 32 31 33 32 34
REMARK SMILES IDX 33 35
REMARK H PARENT 25 4 13 19
REMARK Flexibility Score: inf
ROOT
ATOM      1  N   UNL     1      18.937  32.705  11.651  1.00  0.00    -0.319 N 
ATOM      2  C   UNL     1      17.996  33.256  10.716  1.00  0.00     0.248 C 
ATOM      3  O   UNL     1      17.977  34.499  10.502  1.00  0.00    -0.270 OA
ATOM      4  H   UNL     1      19.290  31.736  11.485  1.00  0.00     0.170 HD
ENDROOT
BRANCH   1   5
ATOM      5  C   UNL     1      19.602  33.497  12.649  1.00  0.00     0.084 A 
ATOM      6  C   UNL     1      18.938  33.894  13.828  1.00  0.00     0.144 A 
ATOM      7  C   UNL     1      19.624  34.678  14.775  1.00  0.00     0.077 A 
ATOM      8  C   UNL     1      20.960  35.031  14.572  1.00  0.00     0.076 A 
ATOM      9  C   UNL     1      20.950  33.834  12.460  1.00  0.00     0.042 A 
ATOM     10  C   UNL     1      21.646  34.592  13.418  1.00  0.00     0.027 A 
ATOM     11  N   UNL     1      21.599  35.799  15.494  1.00  0.00    -0.255 NA
ATOM     12  C   UNL     1      23.005  34.947  13.256  1.00  0.00     0.068 A 
ATOM     13  C   UNL     1      22.894  36.174  15.344  1.00  0.00     0.133 A 
ATOM     14  C   UNL     1      23.623  35.762  14.224  1.00  0.00     0.094 A 
BRANCH   6  15
ATOM     15  O   UNL     1      17.614  33.477  14.034  1.00  0.00    -0.492 OA
BRANCH  15  16
ATOM     16  C   UNL     1      16.464  34.300  13.853  1.00  0.00     0.226 C 
ATOM     17  C   UNL     1      15.839  34.599  15.205  1.00  0.00     0.049 C 
ENDBRANCH  15  16
ENDBRANCH   6  15
BRANCH  12  18
ATOM     18  N   UNL     1      23.761  34.504  12.116  1.00  0.00    -0.354 N 
ATOM     19  H   UNL     1      23.732  35.098  11.257  1.00  0.00     0.167 HD
BRANCH  18  20
ATOM     20  C   UNL     1      24.660  33.380  12.147  1.00  0.00     0.040 A 
ATOM     21  C   UNL     1      26.019  33.578  11.856  1.00  0.00     0.049 A 
ATOM     22  C   UNL     1      24.212  32.085  12.473  1.00  0.00     0.029 A 
ATOM     23  C   UNL     1      26.915  32.502  11.875  1.00  0.00     0.078 A 
ATOM     24  C   UNL     1      25.108  31.012  12.491  1.00  0.00     0.043 A 
ATOM     25  Cl  UNL     1      28.608  32.773  11.501  1.00  0.00    -0.081 Cl
ATOM     26  C   UNL     1      26.457  31.218  12.192  1.00  0.00     0.141 A 
ATOM     27  F   UNL     1      27.317  30.169  12.213  1.00  0.00    -0.205 F 
ENDBRANCH  18  20
ENDBRANCH  12  18
BRANCH  14  28
ATOM     28  C   UNL     1      25.004  36.155  14.095  1.00  0.00     0.103 C 
ATOM     29  N   UNL     1      26.112  36.469  13.991  1.00  0.00    -0.192 NA
ENDBRANCH  14  28
ENDBRANCH   1   5
BRANCH   2  30
ATOM     30  C   UNL     1      17.071  32.395   9.954  1.00  0.00     0.068 C 
ATOM     31  C   UNL     1      16.661  32.686   8.716  1.00  0.00    -0.006 C 
BRANCH  31  32
ATOM     32  C   UNL     1      15.729  31.772   7.973  1.00  0.00     0.111 C 
BRANCH  32  33
ATOM     33  N   UNL     1      16.262  30.395   7.932  1.00  0.00    -0.306 NA
ATOM     34  C   UNL     1      17.350  30.307   6.947  1.00  0.00     0.105 C 
ATOM     35  C   UNL     1      15.202  29.433   7.582  1.00  0.00     0.105 C 
ENDBRANCH  32  33
ENDBRANCH  31  32
ENDBRANCH   2  30
TORSDOF 9
ENDMDL
MODEL 10
REMARK VINA RESULT:    -7.866      2.335      3.386
REMARK INTER + INTRA:         -13.359
REMARK INTER:                 -12.154
REMARK INTRA:                  -1.205
REMARK UNBOUND:                -1.354
REMARK SMILES CCOc1cc2ncc(C#N)c(Nc3ccc(F)c(Cl)c3)c2cc1NC(=O)/C=C/CN(C)C
REMARK SMILES IDX 25 1 26 2 27 3 24 5 4 6 5 7 6 8 23 9 22 10 7 11 12 12 8 13
REMARK SMILES IDX 9 14 3 15 2 16 1 17 13 18 14 20 21 21 15 22 19 23 16 24
REMARK SMILES IDX 20 25 17 26 18 27 10 28 11 29 28 30 29 31 30 32 31 33 32 34
REMARK SMILES IDX 33 35
REMARK H PARENT 25 4 13 19
REMARK Flexibility Score: inf
ROOT
ATOM      1  N   UNL     1      21.349  35.783  14.783  1.00  0.00    -0.319 N 
ATOM      2  C   UNL     1      22.063  34.931  13.874  1.00  0.00     0.248 C 
ATOM      3  O   UNL     1      21.515  33.884  13.432  1.00  0.00    -0.270 OA
ATOM      4  H   UNL     1      21.553  36.807  14.765  1.00  0.00     0.170 HD
ENDROOT
BRANCH   1   5
ATOM      5  C   UNL     1      20.202  35.343  15.530  1.00  0.00     0.084 A 
ATOM      6  C   UNL     1      20.291  35.072  16.912  1.00  0.00     0.144 A 
ATOM      7  C   UNL     1      19.147  34.634  17.603  1.00  0.00     0.077 A 
ATOM      8  C   UNL     1      17.923  34.502  16.941  1.00  0.00     0.076 A 
ATOM      9  C   UNL     1      18.968  35.232  14.875  1.00  0.00     0.042 A 
ATOM     10  C   UNL     1      17.817  34.821  15.569  1.00  0.00     0.027 A 
ATOM     11  N   UNL     1      16.833  34.065  17.626  1.00  0.00    -0.255 NA
ATOM     12  C   UNL     1      16.558  34.700  14.937  1.00  0.00     0.068 A 
ATOM     13  C   UNL     1      15.623  33.915  17.030  1.00  0.00     0.133 A 
ATOM     14  C   UNL     1      15.459  34.224  15.677  1.00  0.00     0.094 A 
BRANCH   6  15
ATOM     15  O   UNL     1      21.518  35.268  17.564  1.00  0.00    -0.492 OA
BRANCH  15  16
ATOM     16  C   UNL     1      22.314  34.230  18.130  1.00  0.00     0.226 C 
ATOM     17  C   UNL     1      22.476  33.109  17.117  1.00  0.00     0.049 C 
ENDBRANCH  15  16
ENDBRANCH   6  15
BRANCH  12  18
ATOM     18  N   UNL     1      16.384  35.040  13.551  1.00  0.00    -0.354 N 
ATOM     19  H   UNL     1      16.034  36.000  13.329  1.00  0.00     0.167 HD
BRANCH  18  20
ATOM     20  C   UNL     1      16.802  34.191  12.465  1.00  0.00     0.040 A 
ATOM     21  C   UNL     1      16.390  34.493  11.158  1.00  0.00     0.049 A 
ATOM     22  C   UNL     1      17.625  33.068  12.681  1.00  0.00     0.029 A 
ATOM     23  C   UNL     1      16.778  33.682  10.085  1.00  0.00     0.078 A 
ATOM     24  C   UNL     1      18.011  32.260  11.608  1.00  0.00     0.043 A 
ATOM     25  Cl  UNL     1      16.244  34.075   8.460  1.00  0.00    -0.081 Cl
ATOM     26  C   UNL     1      17.589  32.564  10.311  1.00  0.00     0.141 A 
ATOM     27  F   UNL     1      17.971  31.773   9.278  1.00  0.00    -0.205 F 
ENDBRANCH  18  20
ENDBRANCH  12  18
BRANCH  14  28
ATOM     28  C   UNL     1      14.160  34.076  15.070  1.00  0.00     0.103 C 
ATOM     29  N   UNL     1      13.118  33.958  14.582  1.00  0.00    -0.192 NA
ENDBRANCH  14  28
ENDBRANCH   1   5
BRANCH   2  30
ATOM     30  C   UNL     1      23.419  35.270  13.401  1.00  0.00     0.068 C 
ATOM     31  C   UNL     1      24.489  35.272  14.201  1.00  0.00    -0.006 C 
BRANCH  31  32
ATOM     32  C   UNL     1      25.853  35.611  13.672  1.00  0.00     0.111 C 
BRANCH  32  33
ATOM     33  N   UNL     1      26.785  34.479  13.855  1.00  0.00    -0.306 NA
ATOM     34  C   UNL     1      26.497  33.427  12.869  1.00  0.00     0.105 C 
ATOM     35  C   UNL     1      26.673  33.923  15.215  1.00  0.00     0.105 C 
ENDBRANCH  32  33
ENDBRANCH  31  32
ENDBRANCH   2  30
TORSDOF 9
ENDMDL
MODEL 11
REMARK VINA RESULT:    -7.843      2.138      3.028
REMARK INTER + INTRA:         -13.324
REMARK INTER:                 -12.719
REMARK INTRA:                  -0.605
REMARK UNBOUND:                -1.354
REMARK SMILES CCOc1cc2ncc(C#N)c(Nc3ccc(F)c(Cl)c3)c2cc1NC(=O)/C=C/CN(C)C
REMARK SMILES IDX 25 1 26 2 27 3 24 5 4 6 5 7 6 8 23 9 22 10 7 11 12 12 8 13
REMARK SMILES IDX 9 14 3 15 2 16 1 17 13 18 14 20 21 21 15 22 19 23 16 24
REMARK SMILES IDX 20 25 17 26 18 27 10 28 11 29 28 30 29 31 30 32 31 33 32 34
REMARK SMILES IDX 33 35
REMARK H PARENT 25 4 13 19
REMARK Flexibility Score: inf
ROOT
ATOM      1  N   UNL     1      21.535  35.195  14.651  1.00  0.00    -0.319 N 
ATOM      2  C   UNL     1      21.875  34.510  13.434  1.00  0.00     0.248 C 
ATOM      3  O   UNL     1      20.998  33.840  12.825  1.00  0.00    -0.270 OA
ATOM      4  H   UNL     1      22.040  36.080  14.877  1.00  0.00     0.170 HD
ENDROOT
BRANCH   1   5
ATOM      5  C   UNL     1      20.376  34.867  15.436  1.00  0.00     0.084 A 
ATOM      6  C   UNL     1      20.485  34.574  16.811  1.00  0.00     0.144 A 
ATOM      7  C   UNL     1      19.327  34.247  17.540  1.00  0.00     0.077 A 
ATOM      8  C   UNL     1      18.073  34.248  16.922  1.00  0.00     0.076 A 
ATOM      9  C   UNL     1      19.115  34.888  14.824  1.00  0.00     0.042 A 
ATOM     10  C   UNL     1      17.952  34.590  15.556  1.00  0.00     0.027 A 
ATOM     11  N   UNL     1      16.969  33.917  17.642  1.00  0.00    -0.255 NA
ATOM     12  C   UNL     1      16.666  34.604  14.969  1.00  0.00     0.068 A 
ATOM     13  C   UNL     1      15.730  33.897  17.089  1.00  0.00     0.133 A 
ATOM     14  C   UNL     1      15.552  34.234  15.745  1.00  0.00     0.094 A 
BRANCH   6  15
ATOM     15  O   UNL     1      21.748  34.638  17.420  1.00  0.00    -0.492 OA
BRANCH  15  16
ATOM     16  C   UNL     1      22.090  35.506  18.497  1.00  0.00     0.226 C 
ATOM     17  C   UNL     1      21.543  36.896  18.218  1.00  0.00     0.049 C 
ENDBRANCH  15  16
ENDBRANCH   6  15
BRANCH  12  18
ATOM     18  N   UNL     1      16.480  34.974  13.592  1.00  0.00    -0.354 N 
ATOM     19  H   UNL     1      16.155  35.947  13.394  1.00  0.00     0.167 HD
BRANCH  18  20
ATOM     20  C   UNL     1      16.854  34.133  12.485  1.00  0.00     0.040 A 
ATOM     21  C   UNL     1      16.453  34.485  11.187  1.00  0.00     0.049 A 
ATOM     22  C   UNL     1      17.624  32.968  12.671  1.00  0.00     0.029 A 
ATOM     23  C   UNL     1      16.800  33.683  10.093  1.00  0.00     0.078 A 
ATOM     24  C   UNL     1      17.969  32.169  11.576  1.00  0.00     0.043 A 
ATOM     25  Cl  UNL     1      16.280  34.140   8.480  1.00  0.00    -0.081 Cl
ATOM     26  C   UNL     1      17.558  32.523  10.289  1.00  0.00     0.141 A 
ATOM     27  F   UNL     1      17.899  31.741   9.236  1.00  0.00    -0.205 F 
ENDBRANCH  18  20
ENDBRANCH  12  18
BRANCH  14  28
ATOM     28  C   UNL     1      14.223  34.226  15.184  1.00  0.00     0.103 C 
ATOM     29  N   UNL     1      13.158  34.220  14.733  1.00  0.00    -0.192 NA
ENDBRANCH  14  28
ENDBRANCH   1   5
BRANCH   2  30
ATOM     30  C   UNL     1      23.224  34.607  12.845  1.00  0.00     0.068 C 
ATOM     31  C   UNL     1      23.990  33.538  12.605  1.00  0.00    -0.006 C 
BRANCH  31  32
ATOM     32  C   UNL     1      25.352  33.683  11.991  1.00  0.00     0.111 C 
BRANCH  32  33
ATOM     33  N   UNL     1      25.814  32.399  11.425  1.00  0.00    -0.306 NA
ATOM     34  C   UNL     1      25.223  31.279  12.174  1.00  0.00     0.105 C 
ATOM     35  C   UNL     1      27.283  32.302  11.473  1.00  0.00     0.105 C 
ENDBRANCH  32  33
ENDBRANCH  31  32
ENDBRANCH   2  30
TORSDOF 9
ENDMDL
MODEL 12
REMARK VINA RESULT:    -7.828      3.919      7.822
REMARK INTER + INTRA:         -13.300
REMARK INTER:                 -11.903
REMARK INTRA:                  -1.397
REMARK UNBOUND:                -1.354
REMARK SMILES CCOc1cc2ncc(C#N)c(Nc3ccc(F)c(Cl)c3)c2cc1NC(=O)/C=C/CN(C)C
REMARK SMILES IDX 25 1 26 2 27 3 24 5 4 6 5 7 6 8 23 9 22 10 7 11 12 12 8 13
REMARK SMILES IDX 9 14 3 15 2 16 1 17 13 18 14 20 21 21 15 22 19 23 16 24
REMARK SMILES IDX 20 25 17 26 18 27 10 28 11 29 28 30 29 31 30 32 31 33 32 34
REMARK SMILES IDX 33 35
REMARK H PARENT 25 4 13 19
REMARK Flexibility Score: inf
ROOT
ATOM      1  N   UNL     1      16.867  34.929  14.220  1.00  0.00    -0.319 N 
ATOM      2  C   UNL     1      17.053  33.917  13.216  1.00  0.00     0.248 C 
ATOM      3  O   UNL     1      17.640  32.841  13.511  1.00  0.00    -0.270 OA
ATOM      4  H   UNL     1      16.025  35.542  14.152  1.00  0.00     0.170 HD
ENDROOT
BRANCH   1   5
ATOM      5  C   UNL     1      17.633  34.975  15.435  1.00  0.00     0.084 A 
ATOM      6  C   UNL     1      17.140  34.413  16.631  1.00  0.00     0.144 A 
ATOM      7  C   UNL     1      17.918  34.489  17.801  1.00  0.00     0.077 A 
ATOM      8  C   UNL     1      19.184  35.081  17.776  1.00  0.00     0.076 A 
ATOM      9  C   UNL     1      18.912  35.548  15.408  1.00  0.00     0.042 A 
ATOM     10  C   UNL     1      19.704  35.600  16.569  1.00  0.00     0.027 A 
ATOM     11  N   UNL     1      19.913  35.156  18.920  1.00  0.00    -0.255 NA
ATOM     12  C   UNL     1      20.998  36.171  16.574  1.00  0.00     0.068 A 
ATOM     13  C   UNL     1      21.144  35.724  18.952  1.00  0.00     0.133 A 
ATOM     14  C   UNL     1      21.711  36.247  17.785  1.00  0.00     0.094 A 
BRANCH   6  15
ATOM     15  O   UNL     1      15.891  33.773  16.615  1.00  0.00    -0.492 OA
BRANCH  15  16
ATOM     16  C   UNL     1      14.638  34.429  16.786  1.00  0.00     0.226 C 
ATOM     17  C   UNL     1      13.823  34.303  15.509  1.00  0.00     0.049 C 
ENDBRANCH  15  16
ENDBRANCH   6  15
BRANCH  12  18
ATOM     18  N   UNL     1      21.590  36.687  15.370  1.00  0.00    -0.354 N 
ATOM     19  H   UNL     1      21.602  37.724  15.244  1.00  0.00     0.167 HD
BRANCH  18  20
ATOM     20  C   UNL     1      22.288  35.868  14.413  1.00  0.00     0.040 A 
ATOM     21  C   UNL     1      22.824  36.463  13.261  1.00  0.00     0.049 A 
ATOM     22  C   UNL     1      22.456  34.484  14.610  1.00  0.00     0.029 A 
ATOM     23  C   UNL     1      23.505  35.690  12.312  1.00  0.00     0.078 A 
ATOM     24  C   UNL     1      23.136  33.713  13.661  1.00  0.00     0.043 A 
ATOM     25  Cl  UNL     1      24.160  36.454  10.875  1.00  0.00    -0.081 Cl
ATOM     26  C   UNL     1      23.659  34.313  12.513  1.00  0.00     0.141 A 
ATOM     27  F   UNL     1      24.316  33.556  11.601  1.00  0.00    -0.205 F 
ENDBRANCH  18  20
ENDBRANCH  12  18
BRANCH  14  28
ATOM     28  C   UNL     1      23.029  36.828  17.838  1.00  0.00     0.103 C 
ATOM     29  N   UNL     1      24.087  37.295  17.880  1.00  0.00    -0.192 NA
ENDBRANCH  14  28
ENDBRANCH   1   5
BRANCH   2  30
ATOM     30  C   UNL     1      16.531  34.084  11.847  1.00  0.00     0.068 C 
ATOM     31  C   UNL     1      17.121  33.546  10.774  1.00  0.00    -0.006 C 
BRANCH  31  32
ATOM     32  C   UNL     1      16.545  33.730   9.399  1.00  0.00     0.111 C 
BRANCH  32  33
ATOM     33  N   UNL     1      16.429  32.434   8.700  1.00  0.00    -0.306 NA
ATOM     34  C   UNL     1      17.759  31.823   8.549  1.00  0.00     0.105 C 
ATOM     35  C   UNL     1      15.814  32.608   7.372  1.00  0.00     0.105 C 
ENDBRANCH  32  33
ENDBRANCH  31  32
ENDBRANCH   2  30
TORSDOF 9
ENDMDL
MODEL 13
REMARK VINA RESULT:    -7.651      3.744      6.107
REMARK INTER + INTRA:         -13.030
REMARK INTER:                 -12.077
REMARK INTRA:                  -0.953
REMARK UNBOUND:                -1.354
REMARK SMILES CCOc1cc2ncc(C#N)c(Nc3ccc(F)c(Cl)c3)c2cc1NC(=O)/C=C/CN(C)C
REMARK SMILES IDX 25 1 26 2 27 3 24 5 4 6 5 7 6 8 23 9 22 10 7 11 12 12 8 13
REMARK SMILES IDX 9 14 3 15 2 16 1 17 13 18 14 20 21 21 15 22 19 23 16 24
REMARK SMILES IDX 20 25 17 26 18 27 10 28 11 29 28 30 29 31 30 32 31 33 32 34
REMARK SMILES IDX 33 35
REMARK H PARENT 25 4 13 19
REMARK Flexibility Score: inf
ROOT
ATOM      1  N   UNL     1      19.670  33.751  12.133  1.00  0.00    -0.319 N 
ATOM      2  C   UNL     1      20.741  33.041  12.776  1.00  0.00     0.248 C 
ATOM      3  O   UNL     1      20.481  32.136  13.615  1.00  0.00    -0.270 OA
ATOM      4  H   UNL     1      19.824  34.106  11.164  1.00  0.00     0.170 HD
ENDROOT
BRANCH   1   5
ATOM      5  C   UNL     1      18.329  33.779  12.650  1.00  0.00     0.084 A 
ATOM      6  C   UNL     1      17.265  33.171  11.953  1.00  0.00     0.144 A 
ATOM      7  C   UNL     1      15.966  33.230  12.489  1.00  0.00     0.077 A 
ATOM      8  C   UNL     1      15.732  33.850  13.719  1.00  0.00     0.076 A 
ATOM      9  C   UNL     1      18.095  34.380  13.895  1.00  0.00     0.042 A 
ATOM     10  C   UNL     1      16.803  34.415  14.447  1.00  0.00     0.027 A 
ATOM     11  N   UNL     1      14.467  33.907  14.213  1.00  0.00    -0.255 NA
ATOM     12  C   UNL     1      16.534  35.013  15.701  1.00  0.00     0.068 A 
ATOM     13  C   UNL     1      14.184  34.501  15.400  1.00  0.00     0.133 A 
ATOM     14  C   UNL     1      15.207  35.069  16.165  1.00  0.00     0.094 A 
BRANCH   6  15
ATOM     15  O   UNL     1      17.537  32.505  10.747  1.00  0.00    -0.492 OA
BRANCH  15  16
ATOM     16  C   UNL     1      17.325  33.053   9.449  1.00  0.00     0.226 C 
ATOM     17  C   UNL     1      16.183  32.316   8.770  1.00  0.00     0.049 C 
ENDBRANCH  15  16
ENDBRANCH   6  15
BRANCH  12  18
ATOM     18  N   UNL     1      17.589  35.577  16.499  1.00  0.00    -0.354 N 
ATOM     19  H   UNL     1      17.325  36.300  17.206  1.00  0.00     0.167 HD
BRANCH  18  20
ATOM     20  C   UNL     1      18.946  35.096  16.477  1.00  0.00     0.040 A 
ATOM     21  C   UNL     1      19.964  35.931  15.990  1.00  0.00     0.049 A 
ATOM     22  C   UNL     1      19.281  33.810  16.943  1.00  0.00     0.029 A 
ATOM     23  C   UNL     1      21.291  35.487  15.954  1.00  0.00     0.078 A 
ATOM     24  C   UNL     1      20.607  33.369  16.906  1.00  0.00     0.043 A 
ATOM     25  Cl  UNL     1      22.545  36.547  15.334  1.00  0.00    -0.081 Cl
ATOM     26  C   UNL     1      21.612  34.204  16.412  1.00  0.00     0.141 A 
ATOM     27  F   UNL     1      22.895  33.766  16.381  1.00  0.00    -0.205 F 
ENDBRANCH  18  20
ENDBRANCH  12  18
BRANCH  14  28
ATOM     28  C   UNL     1      14.887  35.678  17.433  1.00  0.00     0.103 C 
ATOM     29  N   UNL     1      14.631  36.166  18.450  1.00  0.00    -0.192 NA
ENDBRANCH  14  28
ENDBRANCH   1   5
BRANCH   2  30
ATOM     30  C   UNL     1      22.153  33.311  12.446  1.00  0.00     0.068 C 
ATOM     31  C   UNL     1      22.710  34.520  12.567  1.00  0.00    -0.006 C 
BRANCH  31  32
ATOM     32  C   UNL     1      24.156  34.745  12.233  1.00  0.00     0.111 C 
BRANCH  32  33
ATOM     33  N   UNL     1      24.379  36.129  11.765  1.00  0.00    -0.306 NA
ATOM     34  C   UNL     1      25.129  36.888  12.778  1.00  0.00     0.105 C 
ATOM     35  C   UNL     1      23.097  36.803  11.495  1.00  0.00     0.105 C 
ENDBRANCH  32  33
ENDBRANCH  31  32
ENDBRANCH   2  30
TORSDOF 9
ENDMDL
MODEL 14
REMARK VINA RESULT:    -7.574      4.013      6.702
REMARK INTER + INTRA:         -12.913
REMARK INTER:                 -11.438
REMARK INTRA:                  -1.474
REMARK UNBOUND:                -1.354
REMARK SMILES CCOc1cc2ncc(C#N)c(Nc3ccc(F)c(Cl)c3)c2cc1NC(=O)/C=C/CN(C)C
REMARK SMILES IDX 25 1 26 2 27 3 24 5 4 6 5 7 6 8 23 9 22 10 7 11 12 12 8 13
REMARK SMILES IDX 9 14 3 15 2 16 1 17 13 18 14 20 21 21 15 22 19 23 16 24
REMARK SMILES IDX 20 25 17 26 18 27 10 28 11 29 28 30 29 31 30 32 31 33 32 34
REMARK SMILES IDX 33 35
REMARK H PARENT 25 4 13 19
REMARK Flexibility Score: inf
ROOT
ATOM      1  N   UNL     1      19.260  34.708  17.865  1.00  0.00    -0.319 N 
ATOM      2  C   UNL     1      20.358  35.621  18.022  1.00  0.00     0.248 C 
ATOM      3  O   UNL     1      20.448  36.631  17.273  1.00  0.00    -0.270 OA
ATOM      4  H   UNL     1      18.913  34.203  18.710  1.00  0.00     0.170 HD
ENDROOT
BRANCH   1   5
ATOM      5  C   UNL     1      18.461  34.644  16.672  1.00  0.00     0.084 A 
ATOM      6  C   UNL     1      17.289  35.416  16.536  1.00  0.00     0.144 A 
ATOM      7  C   UNL     1      16.530  35.316  15.355  1.00  0.00     0.077 A 
ATOM      8  C   UNL     1      16.948  34.489  14.309  1.00  0.00     0.076 A 
ATOM      9  C   UNL     1      18.890  33.833  15.612  1.00  0.00     0.042 A 
ATOM     10  C   UNL     1      18.149  33.752  14.420  1.00  0.00     0.027 A 
ATOM     11  N   UNL     1      16.194  34.397  13.183  1.00  0.00    -0.255 NA
ATOM     12  C   UNL     1      18.555  32.945  13.332  1.00  0.00     0.068 A 
ATOM     13  C   UNL     1      16.552  33.606  12.140  1.00  0.00     0.133 A 
ATOM     14  C   UNL     1      17.734  32.862  12.193  1.00  0.00     0.094 A 
BRANCH   6  15
ATOM     15  O   UNL     1      16.922  36.282  17.578  1.00  0.00    -0.492 OA
BRANCH  15  16
ATOM     16  C   UNL     1      16.139  35.909  18.709  1.00  0.00     0.226 C 
ATOM     17  C   UNL     1      14.677  36.222  18.437  1.00  0.00     0.049 C 
ENDBRANCH  15  16
ENDBRANCH   6  15
BRANCH  12  18
ATOM     18  N   UNL     1      19.783  32.197  13.377  1.00  0.00    -0.354 N 
ATOM     19  H   UNL     1      19.732  31.173  13.176  1.00  0.00     0.167 HD
BRANCH  18  20
ATOM     20  C   UNL     1      21.079  32.805  13.535  1.00  0.00     0.040 A 
ATOM     21  C   UNL     1      21.436  33.885  12.713  1.00  0.00     0.049 A 
ATOM     22  C   UNL     1      21.994  32.350  14.504  1.00  0.00     0.029 A 
ATOM     23  C   UNL     1      22.691  34.493  12.843  1.00  0.00     0.078 A 
ATOM     24  C   UNL     1      23.247  32.959  14.631  1.00  0.00     0.043 A 
ATOM     25  Cl  UNL     1      23.119  35.836  11.798  1.00  0.00    -0.081 Cl
ATOM     26  C   UNL     1      23.597  34.028  13.803  1.00  0.00     0.141 A 
ATOM     27  F   UNL     1      24.814  34.609  13.936  1.00  0.00    -0.205 F 
ENDBRANCH  18  20
ENDBRANCH  12  18
BRANCH  14  28
ATOM     28  C   UNL     1      18.105  32.044  11.065  1.00  0.00     0.103 C 
ATOM     29  N   UNL     1      18.403  31.388  10.160  1.00  0.00    -0.192 NA
ENDBRANCH  14  28
ENDBRANCH   1   5
BRANCH   2  30
ATOM     30  C   UNL     1      21.373  35.434  19.077  1.00  0.00     0.068 C 
ATOM     31  C   UNL     1      22.627  35.052  18.819  1.00  0.00    -0.006 C 
BRANCH  31  32
ATOM     32  C   UNL     1      23.631  34.888  19.924  1.00  0.00     0.111 C 
BRANCH  32  33
ATOM     33  N   UNL     1      24.591  33.810  19.607  1.00  0.00    -0.306 NA
ATOM     34  C   UNL     1      24.778  33.715  18.151  1.00  0.00     0.105 C 
ATOM     35  C   UNL     1      24.115  32.515  20.127  1.00  0.00     0.105 C 
ENDBRANCH  32  33
ENDBRANCH  31  32
ENDBRANCH   2  30
TORSDOF 9
ENDMDL
MODEL 15
REMARK VINA RESULT:    -7.552      3.825      5.744
REMARK INTER + INTRA:         -12.879
REMARK INTER:                 -11.461
REMARK INTRA:                  -1.418
REMARK UNBOUND:                -1.354
REMARK SMILES CCOc1cc2ncc(C#N)c(Nc3ccc(F)c(Cl)c3)c2cc1NC(=O)/C=C/CN(C)C
REMARK SMILES IDX 25 1 26 2 27 3 24 5 4 6 5 7 6 8 23 9 22 10 7 11 12 12 8 13
REMARK SMILES IDX 9 14 3 15 2 16 1 17 13 18 14 20 21 21 15 22 19 23 16 24
REMARK SMILES IDX 20 25 17 26 18 27 10 28 11 29 28 30 29 31 30 32 31 33 32 34
REMARK SMILES IDX 33 35
REMARK H PARENT 25 4 13 19
REMARK Flexibility Score: inf
ROOT
ATOM      1  N   UNL     1      23.963  34.940  14.175  1.00  0.00    -0.319 N 
ATOM      2  C   UNL     1      24.624  35.947  13.391  1.00  0.00     0.248 C 
ATOM      3  O   UNL     1      24.015  36.499  12.435  1.00  0.00    -0.270 OA
ATOM      4  H   UNL     1      24.227  34.845  15.181  1.00  0.00     0.170 HD
ENDROOT
BRANCH   1   5
ATOM      5  C   UNL     1      22.796  34.236  13.720  1.00  0.00     0.084 A 
ATOM      6  C   UNL     1      22.906  33.070  12.935  1.00  0.00     0.144 A 
ATOM      7  C   UNL     1      21.737  32.417  12.502  1.00  0.00     0.077 A 
ATOM      8  C   UNL     1      20.477  32.893  12.874  1.00  0.00     0.076 A 
ATOM      9  C   UNL     1      21.531  34.698  14.110  1.00  0.00     0.042 A 
ATOM     10  C   UNL     1      20.362  34.031  13.703  1.00  0.00     0.027 A 
ATOM     11  N   UNL     1      19.362  32.254  12.434  1.00  0.00    -0.255 NA
ATOM     12  C   UNL     1      19.072  34.471  14.080  1.00  0.00     0.068 A 
ATOM     13  C   UNL     1      18.115  32.678  12.762  1.00  0.00     0.133 A 
ATOM     14  C   UNL     1      17.942  33.794  13.586  1.00  0.00     0.094 A 
BRANCH   6  15
ATOM     15  O   UNL     1      24.185  32.580  12.623  1.00  0.00    -0.492 OA
BRANCH  15  16
ATOM     16  C   UNL     1      24.817  32.705  11.352  1.00  0.00     0.226 C 
ATOM     17  C   UNL     1      26.308  32.454  11.504  1.00  0.00     0.049 C 
ENDBRANCH  15  16
ENDBRANCH   6  15
BRANCH  12  18
ATOM     18  N   UNL     1      18.895  35.605  14.947  1.00  0.00    -0.354 N 
ATOM     19  H   UNL     1      18.827  36.547  14.501  1.00  0.00     0.167 HD
BRANCH  18  20
ATOM     20  C   UNL     1      18.663  35.494  16.364  1.00  0.00     0.040 A 
ATOM     21  C   UNL     1      17.447  35.948  16.898  1.00  0.00     0.049 A 
ATOM     22  C   UNL     1      19.623  34.931  17.227  1.00  0.00     0.029 A 
ATOM     23  C   UNL     1      17.196  35.855  18.273  1.00  0.00     0.078 A 
ATOM     24  C   UNL     1      19.370  34.840  18.599  1.00  0.00     0.043 A 
ATOM     25  Cl  UNL     1      15.672  36.436  18.920  1.00  0.00    -0.081 Cl
ATOM     26  C   UNL     1      18.160  35.301  19.124  1.00  0.00     0.141 A 
ATOM     27  F   UNL     1      17.926  35.208  20.456  1.00  0.00    -0.205 F 
ENDBRANCH  18  20
ENDBRANCH  12  18
BRANCH  14  28
ATOM     28  C   UNL     1      16.609  34.214  13.938  1.00  0.00     0.103 C 
ATOM     29  N   UNL     1      15.539  34.550  14.220  1.00  0.00    -0.192 NA
ENDBRANCH  14  28
ENDBRANCH   1   5
BRANCH   2  30
ATOM     30  C   UNL     1      25.995  36.393  13.704  1.00  0.00     0.068 C 
ATOM     31  C   UNL     1      26.843  35.670  14.442  1.00  0.00    -0.006 C 
BRANCH  31  32
ATOM     32  C   UNL     1      28.236  36.158  14.724  1.00  0.00     0.111 C 
BRANCH  32  33
ATOM     33  N   UNL     1      29.189  35.633  13.724  1.00  0.00    -0.306 NA
ATOM     34  C   UNL     1      28.999  34.184  13.561  1.00  0.00     0.105 C 
ATOM     35  C   UNL     1      30.579  35.905  14.132  1.00  0.00     0.105 C 
ENDBRANCH  32  33
ENDBRANCH  31  32
ENDBRANCH   2  30
TORSDOF 9
ENDMDL
