MODEL 1
REMARK VINA RESULT:    -8.633      0.000      0.000
REMARK INTER + INTRA:         -15.327
REMARK INTER:                 -13.933
REMARK INTRA:                  -1.395
REMARK UNBOUND:                -1.395
REMARK SMILES CC#CCC(C)[C@H](O)/C=C/[C@@H]1[C@H]2c3cccc(CCCC(=O)O)c3O[C@H]2C[C@H]1O
REMARK SMILES IDX 26 1 27 2 28 3 11 4 12 5 13 6 24 7 25 8 17 9 16 10 15 11
REMARK SMILES IDX 14 12 29 13 10 15 9 16 7 17 8 18 5 20 6 21 4 22 3 23 2 24
REMARK SMILES IDX 1 25 18 26 19 27 20 28 21 29 22 30 23 31
REMARK H PARENT 29 14 8 19 23 32
REMARK Flexibility Score: inf
ROOT
ATOM      1  C   UNL     1      13.559   8.978  15.982  1.00  0.00     0.184 C 
ATOM      2  C   UNL     1      12.167   8.791  15.384  1.00  0.00     0.078 C 
ATOM      3  C   UNL     1      11.379  10.060  15.692  1.00  0.00     0.125 C 
ATOM      4  C   UNL     1      12.418  11.180  15.881  1.00  0.00     0.052 C 
ATOM      5  C   UNL     1      13.738  10.489  16.274  1.00  0.00     0.073 C 
ATOM      6  C   UNL     1      13.968  10.506  17.749  1.00  0.00     0.002 A 
ATOM      7  C   UNL     1      13.905   9.235  18.247  1.00  0.00     0.126 A 
ATOM      8  O   UNL     1      13.655   8.320  17.248  1.00  0.00    -0.489 OA
ATOM      9  C   UNL     1      14.088   8.965  19.609  1.00  0.00    -0.006 A 
ATOM     10  C   UNL     1      14.341  10.057  20.466  1.00  0.00     0.007 A 
ATOM     11  C   UNL     1      14.410  11.365  19.950  1.00  0.00     0.001 A 
ATOM     12  C   UNL     1      14.227  11.597  18.577  1.00  0.00     0.008 A 
ENDROOT
BRANCH   3  13
ATOM     13  O   UNL     1      10.656   9.872  16.883  1.00  0.00    -0.392 OA
ATOM     14  H   UNL     1       9.965  10.586  16.911  1.00  0.00     0.210 HD
ENDBRANCH   3  13
BRANCH   4  15
ATOM     15  C   UNL     1      12.571  12.037  14.640  1.00  0.00    -0.022 C 
ATOM     16  C   UNL     1      11.542  12.357  13.834  1.00  0.00     0.000 C 
BRANCH  16  17
ATOM     17  C   UNL     1      11.717  13.192  12.582  1.00  0.00     0.140 C 
BRANCH  17  18
ATOM     18  O   UNL     1      10.918  14.346  12.662  1.00  0.00    -0.389 OA
ATOM     19  H   UNL     1      11.217  14.872  13.449  1.00  0.00     0.211 HD
ENDBRANCH  17  18
BRANCH  17  20
ATOM     20  C   UNL     1      13.211  13.532  12.281  1.00  0.00     0.030 C 
ATOM     21  C   UNL     1      13.546  13.252  10.805  1.00  0.00     0.012 C 
BRANCH  20  22
ATOM     22  C   UNL     1      13.536  15.011  12.599  1.00  0.00     0.095 C 
BRANCH  22  23
ATOM     23  C   UNL     1      13.930  15.200  14.001  1.00  0.00    -0.103 C 
ATOM     24  C   UNL     1      14.256  15.355  15.151  1.00  0.00    -0.107 C 
ATOM     25  C   UNL     1      14.651  15.541  16.548  1.00  0.00     0.107 C 
ENDBRANCH  22  23
ENDBRANCH  20  22
ENDBRANCH  17  20
ENDBRANCH  16  17
ENDBRANCH   4  15
BRANCH   9  26
ATOM     26  C   UNL     1      14.037   7.556  20.141  1.00  0.00     0.040 C 
BRANCH  26  27
ATOM     27  C   UNL     1      14.690   7.415  21.527  1.00  0.00     0.017 C 
BRANCH  27  28
ATOM     28  C   UNL     1      13.689   7.115  22.657  1.00  0.00     0.123 C 
BRANCH  28  29
ATOM     29  C   UNL     1      13.647   5.657  23.010  1.00  0.00     0.303 C 
ATOM     30  O   UNL     1      12.540   5.078  23.172  1.00  0.00    -0.252 OA
BRANCH  29  31
ATOM     31  O   UNL     1      14.832   4.937  23.135  1.00  0.00    -0.481 OA
ATOM     32  H   UNL     1      14.824   3.973  23.447  1.00  0.00     0.296 HD
ENDBRANCH  29  31
ENDBRANCH  28  29
ENDBRANCH  27  28
ENDBRANCH  26  27
ENDBRANCH   9  26
TORSDOF 12
ENDMDL
MODEL 2
REMARK VINA RESULT:    -8.488      1.341      2.297
REMARK INTER + INTRA:         -15.093
REMARK INTER:                 -14.379
REMARK INTRA:                  -0.714
REMARK UNBOUND:                -1.395
REMARK SMILES CC#CCC(C)[C@H](O)/C=C/[C@@H]1[C@H]2c3cccc(CCCC(=O)O)c3O[C@H]2C[C@H]1O
REMARK SMILES IDX 26 1 27 2 28 3 11 4 12 5 13 6 24 7 25 8 17 9 16 10 15 11
REMARK SMILES IDX 14 12 29 13 10 15 9 16 7 17 8 18 5 20 6 21 4 22 3 23 2 24
REMARK SMILES IDX 1 25 18 26 19 27 20 28 21 29 22 30 23 31
REMARK H PARENT 29 14 8 19 23 32
REMARK Flexibility Score: inf
ROOT
ATOM      1  C   UNL     1      13.558   9.069  16.014  1.00  0.00     0.184 C 
ATOM      2  C   UNL     1      12.174   8.900  15.394  1.00  0.00     0.078 C 
ATOM      3  C   UNL     1      11.384  10.161  15.725  1.00  0.00     0.125 C 
ATOM      4  C   UNL     1      12.421  11.274  15.955  1.00  0.00     0.052 C 
ATOM      5  C   UNL     1      13.735  10.572  16.346  1.00  0.00     0.073 C 
ATOM      6  C   UNL     1      13.947  10.551  17.824  1.00  0.00     0.002 A 
ATOM      7  C   UNL     1      13.876   9.268  18.289  1.00  0.00     0.126 A 
ATOM      8  O   UNL     1      13.638   8.379  17.264  1.00  0.00    -0.489 OA
ATOM      9  C   UNL     1      14.042   8.963  19.646  1.00  0.00    -0.006 A 
ATOM     10  C   UNL     1      14.286  10.033  20.533  1.00  0.00     0.007 A 
ATOM     11  C   UNL     1      14.364  11.353  20.051  1.00  0.00     0.001 A 
ATOM     12  C   UNL     1      14.197  11.620  18.683  1.00  0.00     0.008 A 
ENDROOT
BRANCH   3  13
ATOM     13  O   UNL     1      10.645   9.944  16.902  1.00  0.00    -0.392 OA
ATOM     14  H   UNL     1       9.732  10.298  16.733  1.00  0.00     0.210 HD
ENDBRANCH   3  13
BRANCH   4  15
ATOM     15  C   UNL     1      12.591  12.163  14.738  1.00  0.00    -0.022 C 
ATOM     16  C   UNL     1      11.587  12.888  14.210  1.00  0.00     0.000 C 
BRANCH  16  17
ATOM     17  C   UNL     1      11.766  13.749  12.977  1.00  0.00     0.140 C 
BRANCH  17  18
ATOM     18  O   UNL     1      12.885  14.585  13.136  1.00  0.00    -0.389 OA
ATOM     19  H   UNL     1      12.955  15.160  12.330  1.00  0.00     0.211 HD
ENDBRANCH  17  18
BRANCH  17  20
ATOM     20  C   UNL     1      11.840  12.916  11.658  1.00  0.00     0.030 C 
ATOM     21  C   UNL     1      10.876  13.484  10.601  1.00  0.00     0.012 C 
BRANCH  20  22
ATOM     22  C   UNL     1      13.273  12.894  11.074  1.00  0.00     0.095 C 
BRANCH  22  23
ATOM     23  C   UNL     1      13.431  13.846   9.968  1.00  0.00    -0.103 C 
ATOM     24  C   UNL     1      13.563  14.628   9.059  1.00  0.00    -0.107 C 
ATOM     25  C   UNL     1      13.723  15.579   7.959  1.00  0.00     0.107 C 
ENDBRANCH  22  23
ENDBRANCH  20  22
ENDBRANCH  17  20
ENDBRANCH  16  17
ENDBRANCH   4  15
BRANCH   9  26
ATOM     26  C   UNL     1      13.983   7.541  20.141  1.00  0.00     0.040 C 
BRANCH  26  27
ATOM     27  C   UNL     1      14.650   7.357  21.516  1.00  0.00     0.017 C 
BRANCH  27  28
ATOM     28  C   UNL     1      13.655   7.064  22.654  1.00  0.00     0.123 C 
BRANCH  28  29
ATOM     29  C   UNL     1      13.608   5.607  23.009  1.00  0.00     0.303 C 
ATOM     30  O   UNL     1      12.499   5.029  23.160  1.00  0.00    -0.252 OA
BRANCH  29  31
ATOM     31  O   UNL     1      14.791   4.886  23.148  1.00  0.00    -0.481 OA
ATOM     32  H   UNL     1      15.491   4.889  22.416  1.00  0.00     0.296 HD
ENDBRANCH  29  31
ENDBRANCH  28  29
ENDBRANCH  27  28
ENDBRANCH  26  27
ENDBRANCH   9  26
TORSDOF 12
ENDMDL
MODEL 3
REMARK VINA RESULT:    -8.437      1.797      2.988
REMARK INTER + INTRA:         -15.010
REMARK INTER:                 -14.153
REMARK INTRA:                  -0.856
REMARK UNBOUND:                -1.395
REMARK SMILES CC#CCC(C)[C@H](O)/C=C/[C@@H]1[C@H]2c3cccc(CCCC(=O)O)c3O[C@H]2C[C@H]1O
REMARK SMILES IDX 26 1 27 2 28 3 11 4 12 5 13 6 24 7 25 8 17 9 16 10 15 11
REMARK SMILES IDX 14 12 29 13 10 15 9 16 7 17 8 18 5 20 6 21 4 22 3 23 2 24
REMARK SMILES IDX 1 25 18 26 19 27 20 28 21 29 22 30 23 31
REMARK H PARENT 29 14 8 19 23 32
REMARK Flexibility Score: inf
ROOT
ATOM      1  C   UNL     1      13.677   9.091  16.054  1.00  0.00     0.184 C 
ATOM      2  C   UNL     1      12.318   8.913  15.383  1.00  0.00     0.078 C 
ATOM      3  C   UNL     1      11.496  10.155  15.711  1.00  0.00     0.125 C 
ATOM      4  C   UNL     1      12.508  11.280  15.998  1.00  0.00     0.052 C 
ATOM      5  C   UNL     1      13.818  10.590  16.421  1.00  0.00     0.073 C 
ATOM      6  C   UNL     1      13.979  10.542  17.905  1.00  0.00     0.002 A 
ATOM      7  C   UNL     1      13.913   9.249  18.342  1.00  0.00     0.126 A 
ATOM      8  O   UNL     1      13.725   8.378  17.291  1.00  0.00    -0.489 OA
ATOM      9  C   UNL     1      14.037   8.920  19.697  1.00  0.00    -0.006 A 
ATOM     10  C   UNL     1      14.233   9.974  20.613  1.00  0.00     0.007 A 
ATOM     11  C   UNL     1      14.306  11.306  20.160  1.00  0.00     0.001 A 
ATOM     12  C   UNL     1      14.182  11.598  18.793  1.00  0.00     0.008 A 
ENDROOT
BRANCH   3  13
ATOM     13  O   UNL     1      10.721   9.903  16.856  1.00  0.00    -0.392 OA
ATOM     14  H   UNL     1      10.390  10.785  17.174  1.00  0.00     0.210 HD
ENDBRANCH   3  13
BRANCH   4  15
ATOM     15  C   UNL     1      12.704  12.195  14.806  1.00  0.00    -0.022 C 
ATOM     16  C   UNL     1      11.907  12.176  13.722  1.00  0.00     0.000 C 
BRANCH  16  17
ATOM     17  C   UNL     1      12.135  13.078  12.527  1.00  0.00     0.140 C 
BRANCH  17  18
ATOM     18  O   UNL     1      12.631  12.325  11.448  1.00  0.00    -0.389 OA
ATOM     19  H   UNL     1      12.245  12.696  10.613  1.00  0.00     0.211 HD
ENDBRANCH  17  18
BRANCH  17  20
ATOM     20  C   UNL     1      10.867  13.900  12.134  1.00  0.00     0.030 C 
ATOM     21  C   UNL     1      11.146  15.411  12.231  1.00  0.00     0.012 C 
BRANCH  20  22
ATOM     22  C   UNL     1      10.391  13.568  10.700  1.00  0.00     0.095 C 
BRANCH  22  23
ATOM     23  C   UNL     1       9.210  14.350  10.315  1.00  0.00    -0.103 C 
ATOM     24  C   UNL     1       8.240  14.993  10.000  1.00  0.00    -0.107 C 
ATOM     25  C   UNL     1       7.061  15.772   9.619  1.00  0.00     0.107 C 
ENDBRANCH  22  23
ENDBRANCH  20  22
ENDBRANCH  17  20
ENDBRANCH  16  17
ENDBRANCH   4  15
BRANCH   9  26
ATOM     26  C   UNL     1      13.984   7.487  20.162  1.00  0.00     0.040 C 
BRANCH  26  27
ATOM     27  C   UNL     1      14.625   7.282  21.546  1.00  0.00     0.017 C 
BRANCH  27  28
ATOM     28  C   UNL     1      13.603   7.058  22.675  1.00  0.00     0.123 C 
BRANCH  28  29
ATOM     29  C   UNL     1      13.503   5.616  23.076  1.00  0.00     0.303 C 
ATOM     30  O   UNL     1      14.548   4.946  23.292  1.00  0.00    -0.252 OA
BRANCH  29  31
ATOM     31  O   UNL     1      12.254   5.022  23.234  1.00  0.00    -0.481 OA
ATOM     32  H   UNL     1      11.695   4.763  22.429  1.00  0.00     0.296 HD
ENDBRANCH  29  31
ENDBRANCH  28  29
ENDBRANCH  27  28
ENDBRANCH  26  27
ENDBRANCH   9  26
TORSDOF 12
ENDMDL
MODEL 4
REMARK VINA RESULT:    -8.212      1.305      1.949
REMARK INTER + INTRA:         -14.647
REMARK INTER:                 -13.493
REMARK INTRA:                  -1.153
REMARK UNBOUND:                -1.395
REMARK SMILES CC#CCC(C)[C@H](O)/C=C/[C@@H]1[C@H]2c3cccc(CCCC(=O)O)c3O[C@H]2C[C@H]1O
REMARK SMILES IDX 26 1 27 2 28 3 11 4 12 5 13 6 24 7 25 8 17 9 16 10 15 11
REMARK SMILES IDX 14 12 29 13 10 15 9 16 7 17 8 18 5 20 6 21 4 22 3 23 2 24
REMARK SMILES IDX 1 25 18 26 19 27 20 28 21 29 22 30 23 31
REMARK H PARENT 29 14 8 19 23 32
REMARK Flexibility Score: inf
ROOT
ATOM      1  C   UNL     1      13.598   9.018  16.201  1.00  0.00     0.184 C 
ATOM      2  C   UNL     1      12.212   8.920  15.571  1.00  0.00     0.078 C 
ATOM      3  C   UNL     1      11.481  10.216  15.906  1.00  0.00     0.125 C 
ATOM      4  C   UNL     1      12.570  11.276  16.149  1.00  0.00     0.052 C 
ATOM      5  C   UNL     1      13.846  10.509  16.544  1.00  0.00     0.073 C 
ATOM      6  C   UNL     1      14.047  10.468  18.023  1.00  0.00     0.002 A 
ATOM      7  C   UNL     1      13.911   9.187  18.479  1.00  0.00     0.126 A 
ATOM      8  O   UNL     1      13.637   8.318  17.446  1.00  0.00    -0.489 OA
ATOM      9  C   UNL     1      14.054   8.867  19.835  1.00  0.00    -0.006 A 
ATOM     10  C   UNL     1      14.343   9.917  20.730  1.00  0.00     0.007 A 
ATOM     11  C   UNL     1      14.487  11.236  20.257  1.00  0.00     0.001 A 
ATOM     12  C   UNL     1      14.343  11.519  18.890  1.00  0.00     0.008 A 
ENDROOT
BRANCH   3  13
ATOM     13  O   UNL     1      10.726  10.027  17.076  1.00  0.00    -0.392 OA
ATOM     14  H   UNL     1      11.373   9.818  17.801  1.00  0.00     0.210 HD
ENDBRANCH   3  13
BRANCH   4  15
ATOM     15  C   UNL     1      12.790  12.163  14.940  1.00  0.00    -0.022 C 
ATOM     16  C   UNL     1      12.109  12.021  13.787  1.00  0.00     0.000 C 
BRANCH  16  17
ATOM     17  C   UNL     1      12.361  12.898  12.578  1.00  0.00     0.140 C 
BRANCH  17  18
ATOM     18  O   UNL     1      11.520  12.508  11.521  1.00  0.00    -0.389 OA
ATOM     19  H   UNL     1      10.587  12.723  11.778  1.00  0.00     0.211 HD
ENDBRANCH  17  18
BRANCH  17  20
ATOM     20  C   UNL     1      12.237  14.422  12.895  1.00  0.00     0.030 C 
ATOM     21  C   UNL     1      13.196  15.241  12.011  1.00  0.00     0.012 C 
BRANCH  20  22
ATOM     22  C   UNL     1      10.793  14.934  12.681  1.00  0.00     0.095 C 
BRANCH  22  23
ATOM     23  C   UNL     1       9.918  14.606  13.814  1.00  0.00    -0.103 C 
ATOM     24  C   UNL     1       9.200  14.336  14.744  1.00  0.00    -0.107 C 
ATOM     25  C   UNL     1       8.330  14.006  15.873  1.00  0.00     0.107 C 
ENDBRANCH  22  23
ENDBRANCH  20  22
ENDBRANCH  17  20
ENDBRANCH  16  17
ENDBRANCH   4  15
BRANCH   9  26
ATOM     26  C   UNL     1      13.923   7.446  20.320  1.00  0.00     0.040 C 
BRANCH  26  27
ATOM     27  C   UNL     1      14.578   7.219  21.694  1.00  0.00     0.017 C 
BRANCH  27  28
ATOM     28  C   UNL     1      13.616   6.651  22.753  1.00  0.00     0.123 C 
BRANCH  28  29
ATOM     29  C   UNL     1      13.991   5.261  23.177  1.00  0.00     0.303 C 
ATOM     30  O   UNL     1      13.101   4.458  23.566  1.00  0.00    -0.252 OA
BRANCH  29  31
ATOM     31  O   UNL     1      15.319   4.849  23.116  1.00  0.00    -0.481 OA
ATOM     32  H   UNL     1      15.652   4.280  22.347  1.00  0.00     0.296 HD
ENDBRANCH  29  31
ENDBRANCH  28  29
ENDBRANCH  27  28
ENDBRANCH  26  27
ENDBRANCH   9  26
TORSDOF 12
ENDMDL
MODEL 5
REMARK VINA RESULT:    -8.174      4.612      6.454
REMARK INTER + INTRA:         -14.586
REMARK INTER:                 -12.340
REMARK INTRA:                  -2.246
REMARK UNBOUND:                -1.395
REMARK SMILES CC#CCC(C)[C@H](O)/C=C/[C@@H]1[C@H]2c3cccc(CCCC(=O)O)c3O[C@H]2C[C@H]1O
REMARK SMILES IDX 26 1 27 2 28 3 11 4 12 5 13 6 24 7 25 8 17 9 16 10 15 11
REMARK SMILES IDX 14 12 29 13 10 15 9 16 7 17 8 18 5 20 6 21 4 22 3 23 2 24
REMARK SMILES IDX 1 25 18 26 19 27 20 28 21 29 22 30 23 31
REMARK H PARENT 29 14 8 19 23 32
REMARK Flexibility Score: inf
ROOT
ATOM      1  C   UNL     1       8.893  10.832  17.608  1.00  0.00     0.184 C 
ATOM      2  C   UNL     1       9.037  10.769  19.126  1.00  0.00     0.078 C 
ATOM      3  C   UNL     1       9.719  12.061  19.560  1.00  0.00     0.125 C 
ATOM      4  C   UNL     1       9.410  13.102  18.468  1.00  0.00     0.052 C 
ATOM      5  C   UNL     1       9.099  12.308  17.185  1.00  0.00     0.073 C 
ATOM      6  C   UNL     1      10.280  12.219  16.275  1.00  0.00     0.002 A 
ATOM      7  C   UNL     1      10.715  10.926  16.198  1.00  0.00     0.126 A 
ATOM      8  O   UNL     1       9.937  10.092  16.972  1.00  0.00    -0.489 OA
ATOM      9  C   UNL     1      11.812  10.561  15.408  1.00  0.00    -0.006 A 
ATOM     10  C   UNL     1      12.466  11.580  14.684  1.00  0.00     0.007 A 
ATOM     11  C   UNL     1      12.013  12.911  14.761  1.00  0.00     0.001 A 
ATOM     12  C   UNL     1      10.907  13.238  15.561  1.00  0.00     0.008 A 
ENDROOT
BRANCH   3  13
ATOM     13  O   UNL     1      11.106  11.844  19.637  1.00  0.00    -0.392 OA
ATOM     14  H   UNL     1      11.394  11.527  18.740  1.00  0.00     0.210 HD
ENDBRANCH   3  13
BRANCH   4  15
ATOM     15  C   UNL     1       8.272  14.024  18.858  1.00  0.00    -0.022 C 
ATOM     16  C   UNL     1       8.437  15.338  19.100  1.00  0.00     0.000 C 
BRANCH  16  17
ATOM     17  C   UNL     1       7.294  16.239  19.517  1.00  0.00     0.140 C 
BRANCH  17  18
ATOM     18  O   UNL     1       7.548  16.774  20.792  1.00  0.00    -0.389 OA
ATOM     19  H   UNL     1       7.740  16.020  21.407  1.00  0.00     0.211 HD
ENDBRANCH  17  18
BRANCH  17  20
ATOM     20  C   UNL     1       6.981  17.351  18.466  1.00  0.00     0.030 C 
ATOM     21  C   UNL     1       8.234  17.682  17.634  1.00  0.00     0.012 C 
BRANCH  20  22
ATOM     22  C   UNL     1       5.840  16.931  17.511  1.00  0.00     0.095 C 
BRANCH  22  23
ATOM     23  C   UNL     1       6.308  16.021  16.458  1.00  0.00    -0.103 C 
ATOM     24  C   UNL     1       6.694  15.274  15.594  1.00  0.00    -0.107 C 
ATOM     25  C   UNL     1       7.164  14.370  14.543  1.00  0.00     0.107 C 
ENDBRANCH  22  23
ENDBRANCH  20  22
ENDBRANCH  17  20
ENDBRANCH  16  17
ENDBRANCH   4  15
BRANCH   9  26
ATOM     26  C   UNL     1      12.266   9.127  15.315  1.00  0.00     0.040 C 
BRANCH  26  27
ATOM     27  C   UNL     1      13.718   8.927  15.785  1.00  0.00     0.017 C 
BRANCH  27  28
ATOM     28  C   UNL     1      13.986   9.449  17.209  1.00  0.00     0.123 C 
BRANCH  28  29
ATOM     29  C   UNL     1      13.306   8.620  18.258  1.00  0.00     0.303 C 
ATOM     30  O   UNL     1      12.411   9.129  18.983  1.00  0.00    -0.252 OA
BRANCH  29  31
ATOM     31  O   UNL     1      13.647   7.279  18.414  1.00  0.00    -0.481 OA
ATOM     32  H   UNL     1      14.601   7.005  18.618  1.00  0.00     0.296 HD
ENDBRANCH  29  31
ENDBRANCH  28  29
ENDBRANCH  27  28
ENDBRANCH  26  27
ENDBRANCH   9  26
TORSDOF 12
ENDMDL
MODEL 6
REMARK VINA RESULT:    -8.103      5.005      6.667
REMARK INTER + INTRA:         -14.471
REMARK INTER:                 -12.891
REMARK INTRA:                  -1.580
REMARK UNBOUND:                -1.395
REMARK SMILES CC#CCC(C)[C@H](O)/C=C/[C@@H]1[C@H]2c3cccc(CCCC(=O)O)c3O[C@H]2C[C@H]1O
REMARK SMILES IDX 26 1 27 2 28 3 11 4 12 5 13 6 24 7 25 8 17 9 16 10 15 11
REMARK SMILES IDX 14 12 29 13 10 15 9 16 7 17 8 18 5 20 6 21 4 22 3 23 2 24
REMARK SMILES IDX 1 25 18 26 19 27 20 28 21 29 22 30 23 31
REMARK H PARENT 29 14 8 19 23 32
REMARK Flexibility Score: inf
ROOT
ATOM      1  C   UNL     1       8.978  10.544  17.585  1.00  0.00     0.184 C 
ATOM      2  C   UNL     1       9.044  10.423  19.105  1.00  0.00     0.078 C 
ATOM      3  C   UNL     1       9.703  11.698  19.622  1.00  0.00     0.125 C 
ATOM      4  C   UNL     1       9.449  12.779  18.556  1.00  0.00     0.052 C 
ATOM      5  C   UNL     1       9.204  12.035  17.230  1.00  0.00     0.073 C 
ATOM      6  C   UNL     1      10.430  11.979  16.378  1.00  0.00     0.002 A 
ATOM      7  C   UNL     1      10.869  10.689  16.274  1.00  0.00     0.126 A 
ATOM      8  O   UNL     1      10.053   9.828  16.975  1.00  0.00    -0.489 OA
ATOM      9  C   UNL     1      12.004  10.353  15.527  1.00  0.00    -0.006 A 
ATOM     10  C   UNL     1      12.694  11.397  14.877  1.00  0.00     0.007 A 
ATOM     11  C   UNL     1      12.238  12.725  14.981  1.00  0.00     0.001 A 
ATOM     12  C   UNL     1      11.092  13.024  15.735  1.00  0.00     0.008 A 
ENDROOT
BRANCH   3  13
ATOM     13  O   UNL     1      11.084  11.476  19.760  1.00  0.00    -0.392 OA
ATOM     14  H   UNL     1      11.491  12.353  19.991  1.00  0.00     0.210 HD
ENDBRANCH   3  13
BRANCH   4  15
ATOM     15  C   UNL     1       8.293  13.687  18.923  1.00  0.00    -0.022 C 
ATOM     16  C   UNL     1       8.238  14.987  18.577  1.00  0.00     0.000 C 
BRANCH  16  17
ATOM     17  C   UNL     1       7.088  15.888  18.977  1.00  0.00     0.140 C 
BRANCH  17  18
ATOM     18  O   UNL     1       7.398  16.556  20.175  1.00  0.00    -0.389 OA
ATOM     19  H   UNL     1       8.054  17.270  19.966  1.00  0.00     0.211 HD
ENDBRANCH  17  18
BRANCH  17  20
ATOM     20  C   UNL     1       6.669  16.879  17.845  1.00  0.00     0.030 C 
ATOM     21  C   UNL     1       7.810  17.865  17.535  1.00  0.00     0.012 C 
BRANCH  20  22
ATOM     22  C   UNL     1       6.283  16.133  16.546  1.00  0.00     0.095 C 
BRANCH  22  23
ATOM     23  C   UNL     1       4.906  16.428  16.129  1.00  0.00    -0.103 C 
ATOM     24  C   UNL     1       3.776  16.671  15.786  1.00  0.00    -0.107 C 
ATOM     25  C   UNL     1       2.403  16.966  15.374  1.00  0.00     0.107 C 
ENDBRANCH  22  23
ENDBRANCH  20  22
ENDBRANCH  17  20
ENDBRANCH  16  17
ENDBRANCH   4  15
BRANCH   9  26
ATOM     26  C   UNL     1      12.464   8.923  15.402  1.00  0.00     0.040 C 
BRANCH  26  27
ATOM     27  C   UNL     1      13.863   8.689  16.000  1.00  0.00     0.017 C 
BRANCH  27  28
ATOM     28  C   UNL     1      14.031   9.249  17.423  1.00  0.00     0.123 C 
BRANCH  28  29
ATOM     29  C   UNL     1      13.383   8.379  18.459  1.00  0.00     0.303 C 
ATOM     30  O   UNL     1      12.400   8.809  19.120  1.00  0.00    -0.252 OA
BRANCH  29  31
ATOM     31  O   UNL     1      13.851   7.086  18.674  1.00  0.00    -0.481 OA
ATOM     32  H   UNL     1      13.515   6.312  18.115  1.00  0.00     0.296 HD
ENDBRANCH  29  31
ENDBRANCH  28  29
ENDBRANCH  27  28
ENDBRANCH  26  27
ENDBRANCH   9  26
TORSDOF 12
ENDMDL
MODEL 7
REMARK VINA RESULT:    -8.024      2.984      4.560
REMARK INTER + INTRA:         -14.344
REMARK INTER:                 -13.467
REMARK INTRA:                  -0.877
REMARK UNBOUND:                -1.395
REMARK SMILES CC#CCC(C)[C@H](O)/C=C/[C@@H]1[C@H]2c3cccc(CCCC(=O)O)c3O[C@H]2C[C@H]1O
REMARK SMILES IDX 26 1 27 2 28 3 11 4 12 5 13 6 24 7 25 8 17 9 16 10 15 11
REMARK SMILES IDX 14 12 29 13 10 15 9 16 7 17 8 18 5 20 6 21 4 22 3 23 2 24
REMARK SMILES IDX 1 25 18 26 19 27 20 28 21 29 22 30 23 31
REMARK H PARENT 29 14 8 19 23 32
REMARK Flexibility Score: inf
ROOT
ATOM      1  C   UNL     1      11.254  11.339  15.192  1.00  0.00     0.184 C 
ATOM      2  C   UNL     1      10.305  12.515  15.403  1.00  0.00     0.078 C 
ATOM      3  C   UNL     1      11.103  13.606  16.110  1.00  0.00     0.125 C 
ATOM      4  C   UNL     1      12.581  13.358  15.758  1.00  0.00     0.052 C 
ATOM      5  C   UNL     1      12.697  11.868  15.387  1.00  0.00     0.073 C 
ATOM      6  C   UNL     1      13.192  11.038  16.526  1.00  0.00     0.002 A 
ATOM      7  C   UNL     1      12.207  10.191  16.950  1.00  0.00     0.126 A 
ATOM      8  O   UNL     1      11.060  10.348  16.204  1.00  0.00    -0.489 OA
ATOM      9  C   UNL     1      12.408   9.297  18.009  1.00  0.00    -0.006 A 
ATOM     10  C   UNL     1      13.671   9.295  18.636  1.00  0.00     0.007 A 
ATOM     11  C   UNL     1      14.686  10.165  18.194  1.00  0.00     0.001 A 
ATOM     12  C   UNL     1      14.451  11.045  17.125  1.00  0.00     0.008 A 
ENDROOT
BRANCH   3  13
ATOM     13  O   UNL     1      10.914  13.485  17.498  1.00  0.00    -0.392 OA
ATOM     14  H   UNL     1      11.820  13.443  17.905  1.00  0.00     0.210 HD
ENDBRANCH   3  13
BRANCH   4  15
ATOM     15  C   UNL     1      13.066  14.263  14.643  1.00  0.00    -0.022 C 
ATOM     16  C   UNL     1      13.112  13.883  13.352  1.00  0.00     0.000 C 
BRANCH  16  17
ATOM     17  C   UNL     1      13.627  14.790  12.254  1.00  0.00     0.140 C 
BRANCH  17  18
ATOM     18  O   UNL     1      14.913  15.254  12.581  1.00  0.00    -0.389 OA
ATOM     19  H   UNL     1      15.283  15.716  11.785  1.00  0.00     0.211 HD
ENDBRANCH  17  18
BRANCH  17  20
ATOM     20  C   UNL     1      13.585  14.122  10.843  1.00  0.00     0.030 C 
ATOM     21  C   UNL     1      12.550  12.984  10.810  1.00  0.00     0.012 C 
BRANCH  20  22
ATOM     22  C   UNL     1      13.243  15.147   9.735  1.00  0.00     0.095 C 
BRANCH  22  23
ATOM     23  C   UNL     1      13.893  14.818   8.460  1.00  0.00    -0.103 C 
ATOM     24  C   UNL     1      14.427  14.550   7.414  1.00  0.00    -0.107 C 
ATOM     25  C   UNL     1      15.074  14.226   6.141  1.00  0.00     0.107 C 
ENDBRANCH  22  23
ENDBRANCH  20  22
ENDBRANCH  17  20
ENDBRANCH  16  17
ENDBRANCH   4  15
BRANCH   9  26
ATOM     26  C   UNL     1      11.319   8.353  18.453  1.00  0.00     0.040 C 
BRANCH  26  27
ATOM     27  C   UNL     1       9.985   9.067  18.735  1.00  0.00     0.017 C 
BRANCH  27  28
ATOM     28  C   UNL     1      10.019   9.979  19.974  1.00  0.00     0.123 C 
BRANCH  28  29
ATOM     29  C   UNL     1       8.671  10.119  20.616  1.00  0.00     0.303 C 
ATOM     30  O   UNL     1       8.023   9.093  20.956  1.00  0.00    -0.252 OA
BRANCH  29  31
ATOM     31  O   UNL     1       8.144  11.384  20.861  1.00  0.00    -0.481 OA
ATOM     32  H   UNL     1       7.635  11.579  21.714  1.00  0.00     0.296 HD
ENDBRANCH  29  31
ENDBRANCH  28  29
ENDBRANCH  27  28
ENDBRANCH  26  27
ENDBRANCH   9  26
TORSDOF 12
ENDMDL
MODEL 8
REMARK VINA RESULT:    -7.923      4.952      9.147
REMARK INTER + INTRA:         -14.181
REMARK INTER:                 -12.595
REMARK INTRA:                  -1.586
REMARK UNBOUND:                -1.395
REMARK SMILES CC#CCC(C)[C@H](O)/C=C/[C@@H]1[C@H]2c3cccc(CCCC(=O)O)c3O[C@H]2C[C@H]1O
REMARK SMILES IDX 26 1 27 2 28 3 11 4 12 5 13 6 24 7 25 8 17 9 16 10 15 11
REMARK SMILES IDX 14 12 29 13 10 15 9 16 7 17 8 18 5 20 6 21 4 22 3 23 2 24
REMARK SMILES IDX 1 25 18 26 19 27 20 28 21 29 22 30 23 31
REMARK H PARENT 29 14 8 19 23 32
REMARK Flexibility Score: inf
ROOT
ATOM      1  C   UNL     1       9.066  12.853  19.098  1.00  0.00     0.184 C 
ATOM      2  C   UNL     1       8.347  11.621  19.641  1.00  0.00     0.078 C 
ATOM      3  C   UNL     1       8.427  10.550  18.559  1.00  0.00     0.125 C 
ATOM      4  C   UNL     1       9.663  10.887  17.706  1.00  0.00     0.052 C 
ATOM      5  C   UNL     1       9.923  12.394  17.892  1.00  0.00     0.073 C 
ATOM      6  C   UNL     1       9.362  13.208  16.772  1.00  0.00     0.002 A 
ATOM      7  C   UNL     1       8.336  13.986  17.228  1.00  0.00     0.126 A 
ATOM      8  O   UNL     1       8.127  13.796  18.577  1.00  0.00    -0.489 OA
ATOM      9  C   UNL     1       7.632  14.851  16.381  1.00  0.00    -0.006 A 
ATOM     10  C   UNL     1       8.016  14.897  15.025  1.00  0.00     0.007 A 
ATOM     11  C   UNL     1       9.078  14.098  14.558  1.00  0.00     0.001 A 
ATOM     12  C   UNL     1       9.764  13.246  15.438  1.00  0.00     0.008 A 
ENDROOT
BRANCH   3  13
ATOM     13  O   UNL     1       7.267  10.611  17.767  1.00  0.00    -0.392 OA
ATOM     14  H   UNL     1       7.026   9.673  17.543  1.00  0.00     0.210 HD
ENDBRANCH   3  13
BRANCH   4  15
ATOM     15  C   UNL     1      10.868  10.050  18.083  1.00  0.00    -0.022 C 
ATOM     16  C   UNL     1      11.352   9.062  17.308  1.00  0.00     0.000 C 
BRANCH  16  17
ATOM     17  C   UNL     1      12.540   8.215  17.713  1.00  0.00     0.140 C 
BRANCH  17  18
ATOM     18  O   UNL     1      12.195   6.852  17.665  1.00  0.00    -0.389 OA
ATOM     19  H   UNL     1      11.235   6.772  17.901  1.00  0.00     0.211 HD
ENDBRANCH  17  18
BRANCH  17  20
ATOM     20  C   UNL     1      13.823   8.525  16.878  1.00  0.00     0.030 C 
ATOM     21  C   UNL     1      13.452   8.911  15.435  1.00  0.00     0.012 C 
BRANCH  20  22
ATOM     22  C   UNL     1      14.652   9.669  17.508  1.00  0.00     0.095 C 
BRANCH  22  23
ATOM     23  C   UNL     1      14.168  10.993  17.096  1.00  0.00    -0.103 C 
ATOM     24  C   UNL     1      13.769  12.079  16.758  1.00  0.00    -0.107 C 
ATOM     25  C   UNL     1      13.288  13.398  16.344  1.00  0.00     0.107 C 
ENDBRANCH  22  23
ENDBRANCH  20  22
ENDBRANCH  17  20
ENDBRANCH  16  17
ENDBRANCH   4  15
BRANCH   9  26
ATOM     26  C   UNL     1       6.516  15.720  16.902  1.00  0.00     0.040 C 
BRANCH  26  27
ATOM     27  C   UNL     1       5.395  15.938  15.871  1.00  0.00     0.017 C 
BRANCH  27  28
ATOM     28  C   UNL     1       4.514  17.167  16.163  1.00  0.00     0.123 C 
BRANCH  28  29
ATOM     29  C   UNL     1       3.069  16.920  15.849  1.00  0.00     0.303 C 
ATOM     30  O   UNL     1       2.731  16.523  14.702  1.00  0.00    -0.252 OA
BRANCH  29  31
ATOM     31  O   UNL     1       2.101  17.105  16.832  1.00  0.00    -0.481 OA
ATOM     32  H   UNL     1       2.132  17.909  17.448  1.00  0.00     0.296 HD
ENDBRANCH  29  31
ENDBRANCH  28  29
ENDBRANCH  27  28
ENDBRANCH  26  27
ENDBRANCH   9  26
TORSDOF 12
ENDMDL
MODEL 9
REMARK VINA RESULT:    -7.889      2.178      2.960
REMARK INTER + INTRA:         -14.127
REMARK INTER:                 -11.979
REMARK INTRA:                  -2.147
REMARK UNBOUND:                -1.395
REMARK SMILES CC#CCC(C)[C@H](O)/C=C/[C@@H]1[C@H]2c3cccc(CCCC(=O)O)c3O[C@H]2C[C@H]1O
REMARK SMILES IDX 26 1 27 2 28 3 11 4 12 5 13 6 24 7 25 8 17 9 16 10 15 11
REMARK SMILES IDX 14 12 29 13 10 15 9 16 7 17 8 18 5 20 6 21 4 22 3 23 2 24
REMARK SMILES IDX 1 25 18 26 19 27 20 28 21 29 22 30 23 31
REMARK H PARENT 29 14 8 19 23 32
REMARK Flexibility Score: inf
ROOT
ATOM      1  C   UNL     1      13.939  10.250  16.272  1.00  0.00     0.184 C 
ATOM      2  C   UNL     1      13.129   9.105  15.672  1.00  0.00     0.078 C 
ATOM      3  C   UNL     1      11.681   9.576  15.602  1.00  0.00     0.125 C 
ATOM      4  C   UNL     1      11.728  11.114  15.548  1.00  0.00     0.052 C 
ATOM      5  C   UNL     1      13.073  11.531  16.173  1.00  0.00     0.073 C 
ATOM      6  C   UNL     1      12.931  11.934  17.604  1.00  0.00     0.002 A 
ATOM      7  C   UNL     1      13.572  11.035  18.409  1.00  0.00     0.126 A 
ATOM      8  O   UNL     1      14.160  10.034  17.667  1.00  0.00    -0.489 OA
ATOM      9  C   UNL     1      13.597  11.177  19.802  1.00  0.00    -0.006 A 
ATOM     10  C   UNL     1      12.931  12.288  20.360  1.00  0.00     0.007 A 
ATOM     11  C   UNL     1      12.275  13.216  19.528  1.00  0.00     0.001 A 
ATOM     12  C   UNL     1      12.275  13.044  18.135  1.00  0.00     0.008 A 
ENDROOT
BRANCH   3  13
ATOM     13  O   UNL     1      11.006   9.158  16.762  1.00  0.00    -0.392 OA
ATOM     14  H   UNL     1      10.161   9.680  16.803  1.00  0.00     0.210 HD
ENDBRANCH   3  13
BRANCH   4  15
ATOM     15  C   UNL     1      11.565  11.645  14.138  1.00  0.00    -0.022 C 
ATOM     16  C   UNL     1      12.251  12.703  13.664  1.00  0.00     0.000 C 
BRANCH  16  17
ATOM     17  C   UNL     1      12.055  13.239  12.262  1.00  0.00     0.140 C 
BRANCH  17  18
ATOM     18  O   UNL     1      11.266  12.346  11.515  1.00  0.00    -0.389 OA
ATOM     19  H   UNL     1      11.145  11.522  12.053  1.00  0.00     0.211 HD
ENDBRANCH  17  18
BRANCH  17  20
ATOM     20  C   UNL     1      11.480  14.690  12.239  1.00  0.00     0.030 C 
ATOM     21  C   UNL     1      11.998  15.462  11.012  1.00  0.00     0.012 C 
BRANCH  20  22
ATOM     22  C   UNL     1       9.933  14.691  12.218  1.00  0.00     0.095 C 
BRANCH  22  23
ATOM     23  C   UNL     1       9.363  14.527  13.561  1.00  0.00    -0.103 C 
ATOM     24  C   UNL     1       8.894  14.392  14.664  1.00  0.00    -0.107 C 
ATOM     25  C   UNL     1       8.323  14.228  16.001  1.00  0.00     0.107 C 
ENDBRANCH  22  23
ENDBRANCH  20  22
ENDBRANCH  17  20
ENDBRANCH  16  17
ENDBRANCH   4  15
BRANCH   9  26
ATOM     26  C   UNL     1      14.326  10.190  20.676  1.00  0.00     0.040 C 
BRANCH  26  27
ATOM     27  C   UNL     1      13.391   9.148  21.315  1.00  0.00     0.017 C 
BRANCH  27  28
ATOM     28  C   UNL     1      13.599   7.719  20.784  1.00  0.00     0.123 C 
BRANCH  28  29
ATOM     29  C   UNL     1      13.078   7.548  19.387  1.00  0.00     0.303 C 
ATOM     30  O   UNL     1      11.920   7.947  19.092  1.00  0.00    -0.252 OA
BRANCH  29  31
ATOM     31  O   UNL     1      13.883   6.970  18.410  1.00  0.00    -0.481 OA
ATOM     32  H   UNL     1      13.636   7.032  17.429  1.00  0.00     0.296 HD
ENDBRANCH  29  31
ENDBRANCH  28  29
ENDBRANCH  27  28
ENDBRANCH  26  27
ENDBRANCH   9  26
TORSDOF 12
ENDMDL
MODEL 10
REMARK VINA RESULT:    -7.863      3.907      6.023
REMARK INTER + INTRA:         -14.084
REMARK INTER:                 -13.044
REMARK INTRA:                  -1.039
REMARK UNBOUND:                -1.395
REMARK SMILES CC#CCC(C)[C@H](O)/C=C/[C@@H]1[C@H]2c3cccc(CCCC(=O)O)c3O[C@H]2C[C@H]1O
REMARK SMILES IDX 26 1 27 2 28 3 11 4 12 5 13 6 24 7 25 8 17 9 16 10 15 11
REMARK SMILES IDX 14 12 29 13 10 15 9 16 7 17 8 18 5 20 6 21 4 22 3 23 2 24
REMARK SMILES IDX 1 25 18 26 19 27 20 28 21 29 22 30 23 31
REMARK H PARENT 29 14 8 19 23 32
REMARK Flexibility Score: inf
ROOT
ATOM      1  C   UNL     1      12.912  12.170  19.134  1.00  0.00     0.184 C 
ATOM      2  C   UNL     1      13.457  12.065  20.555  1.00  0.00     0.078 C 
ATOM      3  C   UNL     1      14.701  11.185  20.487  1.00  0.00     0.125 C 
ATOM      4  C   UNL     1      15.233  11.299  19.048  1.00  0.00     0.052 C 
ATOM      5  C   UNL     1      14.037  11.715  18.171  1.00  0.00     0.073 C 
ATOM      6  C   UNL     1      13.412  10.550  17.476  1.00  0.00     0.002 A 
ATOM      7  C   UNL     1      12.154  10.335  17.962  1.00  0.00     0.126 A 
ATOM      8  O   UNL     1      11.833  11.253  18.939  1.00  0.00    -0.489 OA
ATOM      9  C   UNL     1      11.342   9.301  17.480  1.00  0.00    -0.006 A 
ATOM     10  C   UNL     1      11.867   8.474  16.465  1.00  0.00     0.007 A 
ATOM     11  C   UNL     1      13.163   8.701  15.962  1.00  0.00     0.001 A 
ATOM     12  C   UNL     1      13.946   9.751  16.466  1.00  0.00     0.008 A 
ENDROOT
BRANCH   3  13
ATOM     13  O   UNL     1      14.336   9.855  20.760  1.00  0.00    -0.392 OA
ATOM     14  H   UNL     1      13.662   9.889  21.490  1.00  0.00     0.210 HD
ENDBRANCH   3  13
BRANCH   4  15
ATOM     15  C   UNL     1      16.388  12.274  18.937  1.00  0.00    -0.022 C 
ATOM     16  C   UNL     1      16.672  12.956  17.812  1.00  0.00     0.000 C 
BRANCH  16  17
ATOM     17  C   UNL     1      17.848  13.905  17.710  1.00  0.00     0.140 C 
BRANCH  17  18
ATOM     18  O   UNL     1      19.038  13.176  17.535  1.00  0.00    -0.389 OA
ATOM     19  H   UNL     1      18.937  12.310  18.009  1.00  0.00     0.211 HD
ENDBRANCH  17  18
BRANCH  17  20
ATOM     20  C   UNL     1      17.659  14.992  16.604  1.00  0.00     0.030 C 
ATOM     21  C   UNL     1      16.578  16.007  17.018  1.00  0.00     0.012 C 
BRANCH  20  22
ATOM     22  C   UNL     1      18.977  15.749  16.315  1.00  0.00     0.095 C 
BRANCH  22  23
ATOM     23  C   UNL     1      19.142  16.042  14.886  1.00  0.00    -0.103 C 
ATOM     24  C   UNL     1      19.278  16.283  13.712  1.00  0.00    -0.107 C 
ATOM     25  C   UNL     1      19.446  16.573  12.288  1.00  0.00     0.107 C 
ENDBRANCH  22  23
ENDBRANCH  20  22
ENDBRANCH  17  20
ENDBRANCH  16  17
ENDBRANCH   4  15
BRANCH   9  26
ATOM     26  C   UNL     1       9.947   9.089  18.010  1.00  0.00     0.040 C 
BRANCH  26  27
ATOM     27  C   UNL     1       8.991  10.243  17.662  1.00  0.00     0.017 C 
BRANCH  27  28
ATOM     28  C   UNL     1       7.707  10.263  18.510  1.00  0.00     0.123 C 
BRANCH  28  29
ATOM     29  C   UNL     1       7.994  10.426  19.974  1.00  0.00     0.303 C 
ATOM     30  O   UNL     1       8.385  11.536  20.421  1.00  0.00    -0.252 OA
BRANCH  29  31
ATOM     31  O   UNL     1       7.803   9.356  20.843  1.00  0.00    -0.481 OA
ATOM     32  H   UNL     1       6.956   9.279  21.395  1.00  0.00     0.296 HD
ENDBRANCH  29  31
ENDBRANCH  28  29
ENDBRANCH  27  28
ENDBRANCH  26  27
ENDBRANCH   9  26
TORSDOF 12
ENDMDL
MODEL 11
REMARK VINA RESULT:    -7.810      3.154      4.225
REMARK INTER + INTRA:         -13.999
REMARK INTER:                 -11.676
REMARK INTRA:                  -2.323
REMARK UNBOUND:                -1.395
REMARK SMILES CC#CCC(C)[C@H](O)/C=C/[C@@H]1[C@H]2c3cccc(CCCC(=O)O)c3O[C@H]2C[C@H]1O
REMARK SMILES IDX 26 1 27 2 28 3 11 4 12 5 13 6 24 7 25 8 17 9 16 10 15 11
REMARK SMILES IDX 14 12 29 13 10 15 9 16 7 17 8 18 5 20 6 21 4 22 3 23 2 24
REMARK SMILES IDX 1 25 18 26 19 27 20 28 21 29 22 30 23 31
REMARK H PARENT 29 14 8 19 23 32
REMARK Flexibility Score: inf
ROOT
ATOM      1  C   UNL     1       9.542   9.840  17.942  1.00  0.00     0.184 C 
ATOM      2  C   UNL     1       8.823  10.718  18.961  1.00  0.00     0.078 C 
ATOM      3  C   UNL     1       9.372  12.131  18.794  1.00  0.00     0.125 C 
ATOM      4  C   UNL     1       9.894  12.223  17.349  1.00  0.00     0.052 C 
ATOM      5  C   UNL     1      10.199  10.781  16.902  1.00  0.00     0.073 C 
ATOM      6  C   UNL     1      11.648  10.442  17.033  1.00  0.00     0.002 A 
ATOM      7  C   UNL     1      11.820   9.493  18.000  1.00  0.00     0.126 A 
ATOM      8  O   UNL     1      10.616   9.127  18.560  1.00  0.00    -0.489 OA
ATOM      9  C   UNL     1      13.087   8.992  18.326  1.00  0.00    -0.006 A 
ATOM     10  C   UNL     1      14.196   9.503  17.619  1.00  0.00     0.007 A 
ATOM     11  C   UNL     1      14.015  10.478  16.620  1.00  0.00     0.001 A 
ATOM     12  C   UNL     1      12.729  10.953  16.317  1.00  0.00     0.008 A 
ENDROOT
BRANCH   3  13
ATOM     13  O   UNL     1      10.430  12.321  19.699  1.00  0.00    -0.392 OA
ATOM     14  H   UNL     1      11.116  12.862  19.225  1.00  0.00     0.210 HD
ENDBRANCH   3  13
BRANCH   4  15
ATOM     15  C   UNL     1       8.910  12.911  16.424  1.00  0.00    -0.022 C 
ATOM     16  C   UNL     1       8.573  14.209  16.539  1.00  0.00     0.000 C 
BRANCH  16  17
ATOM     17  C   UNL     1       7.565  14.874  15.624  1.00  0.00     0.140 C 
BRANCH  17  18
ATOM     18  O   UNL     1       6.575  15.515  16.390  1.00  0.00    -0.389 OA
ATOM     19  H   UNL     1       5.720  15.033  16.249  1.00  0.00     0.211 HD
ENDBRANCH  17  18
BRANCH  17  20
ATOM     20  C   UNL     1       8.225  15.840  14.590  1.00  0.00     0.030 C 
ATOM     21  C   UNL     1       9.579  16.353  15.113  1.00  0.00     0.012 C 
BRANCH  20  22
ATOM     22  C   UNL     1       8.442  15.151  13.222  1.00  0.00     0.095 C 
BRANCH  22  23
ATOM     23  C   UNL     1       9.618  14.272  13.227  1.00  0.00    -0.103 C 
ATOM     24  C   UNL     1      10.583  13.549  13.231  1.00  0.00    -0.107 C 
ATOM     25  C   UNL     1      11.754  12.671  13.240  1.00  0.00     0.107 C 
ENDBRANCH  22  23
ENDBRANCH  20  22
ENDBRANCH  17  20
ENDBRANCH  16  17
ENDBRANCH   4  15
BRANCH   9  26
ATOM     26  C   UNL     1      13.260   7.928  19.379  1.00  0.00     0.040 C 
BRANCH  26  27
ATOM     27  C   UNL     1      14.182   8.369  20.530  1.00  0.00     0.017 C 
BRANCH  27  28
ATOM     28  C   UNL     1      13.756   9.691  21.194  1.00  0.00     0.123 C 
BRANCH  28  29
ATOM     29  C   UNL     1      12.458   9.566  21.934  1.00  0.00     0.303 C 
ATOM     30  O   UNL     1      12.429   9.027  23.073  1.00  0.00    -0.252 OA
BRANCH  29  31
ATOM     31  O   UNL     1      11.286  10.067  21.374  1.00  0.00    -0.481 OA
ATOM     32  H   UNL     1      11.315  10.805  20.680  1.00  0.00     0.296 HD
ENDBRANCH  29  31
ENDBRANCH  28  29
ENDBRANCH  27  28
ENDBRANCH  26  27
ENDBRANCH   9  26
TORSDOF 12
ENDMDL
MODEL 12
REMARK VINA RESULT:    -7.808      4.915      6.101
REMARK INTER + INTRA:         -13.995
REMARK INTER:                 -12.180
REMARK INTRA:                  -1.816
REMARK UNBOUND:                -1.395
REMARK SMILES CC#CCC(C)[C@H](O)/C=C/[C@@H]1[C@H]2c3cccc(CCCC(=O)O)c3O[C@H]2C[C@H]1O
REMARK SMILES IDX 26 1 27 2 28 3 11 4 12 5 13 6 24 7 25 8 17 9 16 10 15 11
REMARK SMILES IDX 14 12 29 13 10 15 9 16 7 17 8 18 5 20 6 21 4 22 3 23 2 24
REMARK SMILES IDX 1 25 18 26 19 27 20 28 21 29 22 30 23 31
REMARK H PARENT 29 14 8 19 23 32
REMARK Flexibility Score: inf
ROOT
ATOM      1  C   UNL     1       8.775  10.460  18.050  1.00  0.00     0.184 C 
ATOM      2  C   UNL     1       8.701  11.315  19.312  1.00  0.00     0.078 C 
ATOM      3  C   UNL     1       9.537  12.563  19.050  1.00  0.00     0.125 C 
ATOM      4  C   UNL     1       9.564  12.753  17.523  1.00  0.00     0.052 C 
ATOM      5  C   UNL     1       9.292  11.368  16.906  1.00  0.00     0.073 C 
ATOM      6  C   UNL     1      10.550  10.676  16.492  1.00  0.00     0.002 A 
ATOM      7  C   UNL     1      10.756   9.574  17.272  1.00  0.00     0.126 A 
ATOM      8  O   UNL     1       9.748   9.424  18.199  1.00  0.00    -0.489 OA
ATOM      9  C   UNL     1      11.867   8.740  17.094  1.00  0.00    -0.006 A 
ATOM     10  C   UNL     1      12.782   9.076  16.074  1.00  0.00     0.007 A 
ATOM     11  C   UNL     1      12.564  10.209  15.267  1.00  0.00     0.001 A 
ATOM     12  C   UNL     1      11.436  11.019  15.472  1.00  0.00     0.008 A 
ENDROOT
BRANCH   3  13
ATOM     13  O   UNL     1      10.841  12.352  19.530  1.00  0.00    -0.392 OA
ATOM     14  H   UNL     1      11.401  12.124  18.741  1.00  0.00     0.210 HD
ENDBRANCH   3  13
BRANCH   4  15
ATOM     15  C   UNL     1       8.564  13.792  17.054  1.00  0.00    -0.022 C 
ATOM     16  C   UNL     1       8.336  14.062  15.755  1.00  0.00     0.000 C 
BRANCH  16  17
ATOM     17  C   UNL     1       7.355  15.124  15.304  1.00  0.00     0.140 C 
BRANCH  17  18
ATOM     18  O   UNL     1       6.450  14.576  14.377  1.00  0.00    -0.389 OA
ATOM     19  H   UNL     1       5.559  14.531  14.809  1.00  0.00     0.211 HD
ENDBRANCH  17  18
BRANCH  17  20
ATOM     20  C   UNL     1       6.623  15.822  16.494  1.00  0.00     0.030 C 
ATOM     21  C   UNL     1       7.414  17.053  16.972  1.00  0.00     0.012 C 
BRANCH  20  22
ATOM     22  C   UNL     1       5.192  16.262  16.107  1.00  0.00     0.095 C 
BRANCH  22  23
ATOM     23  C   UNL     1       4.500  16.929  17.217  1.00  0.00    -0.103 C 
ATOM     24  C   UNL     1       3.933  17.476  18.129  1.00  0.00    -0.107 C 
ATOM     25  C   UNL     1       3.241  18.137  19.237  1.00  0.00     0.107 C 
ENDBRANCH  22  23
ENDBRANCH  20  22
ENDBRANCH  17  20
ENDBRANCH  16  17
ENDBRANCH   4  15
BRANCH   9  26
ATOM     26  C   UNL     1      12.071   7.515  17.947  1.00  0.00     0.040 C 
BRANCH  26  27
ATOM     27  C   UNL     1      13.341   7.592  18.813  1.00  0.00     0.017 C 
BRANCH  27  28
ATOM     28  C   UNL     1      13.075   8.024  20.267  1.00  0.00     0.123 C 
BRANCH  28  29
ATOM     29  C   UNL     1      12.550   9.426  20.358  1.00  0.00     0.303 C 
ATOM     30  O   UNL     1      13.244  10.390  19.936  1.00  0.00    -0.252 OA
BRANCH  29  31
ATOM     31  O   UNL     1      11.284   9.663  20.885  1.00  0.00    -0.481 OA
ATOM     32  H   UNL     1      10.852   9.000  21.519  1.00  0.00     0.296 HD
ENDBRANCH  29  31
ENDBRANCH  28  29
ENDBRANCH  27  28
ENDBRANCH  26  27
ENDBRANCH   9  26
TORSDOF 12
ENDMDL
MODEL 13
REMARK VINA RESULT:    -7.780      2.026      3.174
REMARK INTER + INTRA:         -13.950
REMARK INTER:                 -12.239
REMARK INTRA:                  -1.711
REMARK UNBOUND:                -1.395
REMARK SMILES CC#CCC(C)[C@H](O)/C=C/[C@@H]1[C@H]2c3cccc(CCCC(=O)O)c3O[C@H]2C[C@H]1O
REMARK SMILES IDX 26 1 27 2 28 3 11 4 12 5 13 6 24 7 25 8 17 9 16 10 15 11
REMARK SMILES IDX 14 12 29 13 10 15 9 16 7 17 8 18 5 20 6 21 4 22 3 23 2 24
REMARK SMILES IDX 1 25 18 26 19 27 20 28 21 29 22 30 23 31
REMARK H PARENT 29 14 8 19 23 32
REMARK Flexibility Score: inf
ROOT
ATOM      1  C   UNL     1      13.989  10.192  16.352  1.00  0.00     0.184 C 
ATOM      2  C   UNL     1      13.147   9.059  15.772  1.00  0.00     0.078 C 
ATOM      3  C   UNL     1      11.718   9.581  15.664  1.00  0.00     0.125 C 
ATOM      4  C   UNL     1      11.824  11.113  15.565  1.00  0.00     0.052 C 
ATOM      5  C   UNL     1      13.173  11.500  16.199  1.00  0.00     0.073 C 
ATOM      6  C   UNL     1      13.024  11.951  17.615  1.00  0.00     0.002 A 
ATOM      7  C   UNL     1      13.619  11.055  18.457  1.00  0.00     0.126 A 
ATOM      8  O   UNL     1      14.181  10.010  17.756  1.00  0.00    -0.489 OA
ATOM      9  C   UNL     1      13.628  11.238  19.846  1.00  0.00    -0.006 A 
ATOM     10  C   UNL     1      12.995  12.389  20.359  1.00  0.00     0.007 A 
ATOM     11  C   UNL     1      12.387  13.315  19.489  1.00  0.00     0.001 A 
ATOM     12  C   UNL     1      12.402  13.100  18.102  1.00  0.00     0.008 A 
ENDROOT
BRANCH   3  13
ATOM     13  O   UNL     1      11.011   9.223  16.825  1.00  0.00    -0.392 OA
ATOM     14  H   UNL     1      11.212   9.918  17.506  1.00  0.00     0.210 HD
ENDBRANCH   3  13
BRANCH   4  15
ATOM     15  C   UNL     1      11.702  11.607  14.137  1.00  0.00    -0.022 C 
ATOM     16  C   UNL     1      12.495  12.563  13.618  1.00  0.00     0.000 C 
BRANCH  16  17
ATOM     17  C   UNL     1      12.342  13.065  12.197  1.00  0.00     0.140 C 
BRANCH  17  18
ATOM     18  O   UNL     1      11.208  12.482  11.604  1.00  0.00    -0.389 OA
ATOM     19  H   UNL     1      10.511  13.184  11.521  1.00  0.00     0.211 HD
ENDBRANCH  17  18
BRANCH  17  20
ATOM     20  C   UNL     1      12.317  14.624  12.102  1.00  0.00     0.030 C 
ATOM     21  C   UNL     1      13.735  15.201  12.263  1.00  0.00     0.012 C 
BRANCH  20  22
ATOM     22  C   UNL     1      11.727  15.105  10.755  1.00  0.00     0.095 C 
BRANCH  22  23
ATOM     23  C   UNL     1      12.681  14.950   9.649  1.00  0.00    -0.103 C 
ATOM     24  C   UNL     1      13.463  14.824   8.740  1.00  0.00    -0.107 C 
ATOM     25  C   UNL     1      14.411  14.670   7.636  1.00  0.00     0.107 C 
ENDBRANCH  22  23
ENDBRANCH  20  22
ENDBRANCH  17  20
ENDBRANCH  16  17
ENDBRANCH   4  15
BRANCH   9  26
ATOM     26  C   UNL     1      14.307  10.252  20.761  1.00  0.00     0.040 C 
BRANCH  26  27
ATOM     27  C   UNL     1      13.338   9.207  21.341  1.00  0.00     0.017 C 
BRANCH  27  28
ATOM     28  C   UNL     1      13.590   7.776  20.832  1.00  0.00     0.123 C 
BRANCH  28  29
ATOM     29  C   UNL     1      13.089   7.572  19.433  1.00  0.00     0.303 C 
ATOM     30  O   UNL     1      11.936   7.964  19.112  1.00  0.00    -0.252 OA
BRANCH  29  31
ATOM     31  O   UNL     1      13.908   6.971  18.481  1.00  0.00    -0.481 OA
ATOM     32  H   UNL     1      14.387   6.101  18.683  1.00  0.00     0.296 HD
ENDBRANCH  29  31
ENDBRANCH  28  29
ENDBRANCH  27  28
ENDBRANCH  26  27
ENDBRANCH   9  26
TORSDOF 12
ENDMDL
MODEL 14
REMARK VINA RESULT:    -7.754      5.026      6.212
REMARK INTER + INTRA:         -13.909
REMARK INTER:                 -12.232
REMARK INTRA:                  -1.677
REMARK UNBOUND:                -1.395
REMARK SMILES CC#CCC(C)[C@H](O)/C=C/[C@@H]1[C@H]2c3cccc(CCCC(=O)O)c3O[C@H]2C[C@H]1O
REMARK SMILES IDX 26 1 27 2 28 3 11 4 12 5 13 6 24 7 25 8 17 9 16 10 15 11
REMARK SMILES IDX 14 12 29 13 10 15 9 16 7 17 8 18 5 20 6 21 4 22 3 23 2 24
REMARK SMILES IDX 1 25 18 26 19 27 20 28 21 29 22 30 23 31
REMARK H PARENT 29 14 8 19 23 32
REMARK Flexibility Score: inf
ROOT
ATOM      1  C   UNL     1       9.057  10.319  17.978  1.00  0.00     0.184 C 
ATOM      2  C   UNL     1       8.557  11.237  19.090  1.00  0.00     0.078 C 
ATOM      3  C   UNL     1       9.139  12.620  18.816  1.00  0.00     0.125 C 
ATOM      4  C   UNL     1       9.420  12.680  17.304  1.00  0.00     0.052 C 
ATOM      5  C   UNL     1       9.578  11.222  16.832  1.00  0.00     0.073 C 
ATOM      6  C   UNL     1      11.011  10.813  16.728  1.00  0.00     0.002 A 
ATOM      7  C   UNL     1      11.295   9.861  17.666  1.00  0.00     0.126 A 
ATOM      8  O   UNL     1      10.182   9.558  18.420  1.00  0.00    -0.489 OA
ATOM      9  C   UNL     1      12.572   9.300  17.786  1.00  0.00    -0.006 A 
ATOM     10  C   UNL     1      13.573   9.752  16.901  1.00  0.00     0.007 A 
ATOM     11  C   UNL     1      13.277  10.730  15.932  1.00  0.00     0.001 A 
ATOM     12  C   UNL     1      11.983  11.267  15.838  1.00  0.00     0.008 A 
ENDROOT
BRANCH   3  13
ATOM     13  O   UNL     1      10.339  12.763  19.534  1.00  0.00    -0.392 OA
ATOM     14  H   UNL     1      10.676  11.844  19.710  1.00  0.00     0.210 HD
ENDBRANCH   3  13
BRANCH   4  15
ATOM     15  C   UNL     1       8.331  13.411  16.545  1.00  0.00    -0.022 C 
ATOM     16  C   UNL     1       8.162  14.745  16.599  1.00  0.00     0.000 C 
BRANCH  16  17
ATOM     17  C   UNL     1       7.050  15.456  15.857  1.00  0.00     0.140 C 
BRANCH  17  18
ATOM     18  O   UNL     1       6.440  14.572  14.949  1.00  0.00    -0.389 OA
ATOM     19  H   UNL     1       7.042  14.473  14.167  1.00  0.00     0.211 HD
ENDBRANCH  17  18
BRANCH  17  20
ATOM     20  C   UNL     1       6.011  16.126  16.811  1.00  0.00     0.030 C 
ATOM     21  C   UNL     1       6.692  16.600  18.108  1.00  0.00     0.012 C 
BRANCH  20  22
ATOM     22  C   UNL     1       5.312  17.332  16.139  1.00  0.00     0.095 C 
BRANCH  22  23
ATOM     23  C   UNL     1       3.924  17.029  15.770  1.00  0.00    -0.103 C 
ATOM     24  C   UNL     1       2.783  16.781  15.468  1.00  0.00    -0.107 C 
ATOM     25  C   UNL     1       1.400  16.476  15.103  1.00  0.00     0.107 C 
ENDBRANCH  22  23
ENDBRANCH  20  22
ENDBRANCH  17  20
ENDBRANCH  16  17
ENDBRANCH   4  15
BRANCH   9  26
ATOM     26  C   UNL     1      12.865   8.234  18.811  1.00  0.00     0.040 C 
BRANCH  26  27
ATOM     27  C   UNL     1      13.922   8.668  19.842  1.00  0.00     0.017 C 
BRANCH  27  28
ATOM     28  C   UNL     1      13.549   9.949  20.610  1.00  0.00     0.123 C 
BRANCH  28  29
ATOM     29  C   UNL     1      12.388   9.741  21.537  1.00  0.00     0.303 C 
ATOM     30  O   UNL     1      12.559   9.165  22.644  1.00  0.00    -0.252 OA
BRANCH  29  31
ATOM     31  O   UNL     1      11.124  10.206  21.186  1.00  0.00    -0.481 OA
ATOM     32  H   UNL     1      10.738  10.020  20.267  1.00  0.00     0.296 HD
ENDBRANCH  29  31
ENDBRANCH  28  29
ENDBRANCH  27  28
ENDBRANCH  26  27
ENDBRANCH   9  26
TORSDOF 12
ENDMDL
MODEL 15
REMARK VINA RESULT:    -7.734      3.049      3.948
REMARK INTER + INTRA:         -13.876
REMARK INTER:                 -12.138
REMARK INTRA:                  -1.738
REMARK UNBOUND:                -1.395
REMARK SMILES CC#CCC(C)[C@H](O)/C=C/[C@@H]1[C@H]2c3cccc(CCCC(=O)O)c3O[C@H]2C[C@H]1O
REMARK SMILES IDX 26 1 27 2 28 3 11 4 12 5 13 6 24 7 25 8 17 9 16 10 15 11
REMARK SMILES IDX 14 12 29 13 10 15 9 16 7 17 8 18 5 20 6 21 4 22 3 23 2 24
REMARK SMILES IDX 1 25 18 26 19 27 20 28 21 29 22 30 23 31
REMARK H PARENT 29 14 8 19 23 32
REMARK Flexibility Score: inf
ROOT
ATOM      1  C   UNL     1      10.544   9.424  18.101  1.00  0.00     0.184 C 
ATOM      2  C   UNL     1       9.121   9.164  18.587  1.00  0.00     0.078 C 
ATOM      3  C   UNL     1       8.755  10.313  19.520  1.00  0.00     0.125 C 
ATOM      4  C   UNL     1       9.638  11.504  19.108  1.00  0.00     0.052 C 
ATOM      5  C   UNL     1      10.870  10.909  18.400  1.00  0.00     0.073 C 
ATOM      6  C   UNL     1      12.049  10.800  19.312  1.00  0.00     0.002 A 
ATOM      7  C   UNL     1      12.347   9.486  19.537  1.00  0.00     0.126 A 
ATOM      8  O   UNL     1      11.482   8.656  18.857  1.00  0.00    -0.489 OA
ATOM      9  C   UNL     1      13.414   9.100  20.358  1.00  0.00    -0.006 A 
ATOM     10  C   UNL     1      14.182  10.120  20.956  1.00  0.00     0.007 A 
ATOM     11  C   UNL     1      13.877  11.474  20.719  1.00  0.00     0.001 A 
ATOM     12  C   UNL     1      12.802  11.823  19.886  1.00  0.00     0.008 A 
ENDROOT
BRANCH   3  13
ATOM     13  O   UNL     1       9.044   9.937  20.844  1.00  0.00    -0.392 OA
ATOM     14  H   UNL     1       8.179   9.934  21.333  1.00  0.00     0.210 HD
ENDBRANCH   3  13
BRANCH   4  15
ATOM     15  C   UNL     1       8.898  12.492  18.229  1.00  0.00    -0.022 C 
ATOM     16  C   UNL     1       9.289  13.770  18.065  1.00  0.00     0.000 C 
BRANCH  16  17
ATOM     17  C   UNL     1       8.521  14.752  17.206  1.00  0.00     0.140 C 
BRANCH  17  18
ATOM     18  O   UNL     1       9.249  15.949  17.081  1.00  0.00    -0.389 OA
ATOM     19  H   UNL     1       9.956  15.807  16.400  1.00  0.00     0.211 HD
ENDBRANCH  17  18
BRANCH  17  20
ATOM     20  C   UNL     1       8.119  14.163  15.817  1.00  0.00     0.030 C 
ATOM     21  C   UNL     1       6.855  14.856  15.276  1.00  0.00     0.012 C 
BRANCH  20  22
ATOM     22  C   UNL     1       9.258  14.313  14.781  1.00  0.00     0.095 C 
BRANCH  22  23
ATOM     23  C   UNL     1      10.174  13.165  14.797  1.00  0.00    -0.103 C 
ATOM     24  C   UNL     1      10.926  12.223  14.810  1.00  0.00    -0.107 C 
ATOM     25  C   UNL     1      11.835  11.077  14.826  1.00  0.00     0.107 C 
ENDBRANCH  22  23
ENDBRANCH  20  22
ENDBRANCH  17  20
ENDBRANCH  16  17
ENDBRANCH   4  15
BRANCH   9  26
ATOM     26  C   UNL     1      13.745   7.647  20.579  1.00  0.00     0.040 C 
BRANCH  26  27
ATOM     27  C   UNL     1      14.767   7.430  21.708  1.00  0.00     0.017 C 
BRANCH  27  28
ATOM     28  C   UNL     1      14.550   6.128  22.500  1.00  0.00     0.123 C 
BRANCH  28  29
ATOM     29  C   UNL     1      13.235   6.112  23.222  1.00  0.00     0.303 C 
ATOM     30  O   UNL     1      12.833   7.142  23.826  1.00  0.00    -0.252 OA
BRANCH  29  31
ATOM     31  O   UNL     1      12.445   4.966  23.204  1.00  0.00    -0.481 OA
ATOM     32  H   UNL     1      11.597   4.910  23.755  1.00  0.00     0.296 HD
ENDBRANCH  29  31
ENDBRANCH  28  29
ENDBRANCH  27  28
ENDBRANCH  26  27
ENDBRANCH   9  26
TORSDOF 12
ENDMDL
