MODEL 1
REMARK VINA RESULT:    -9.926      0.000      0.000
REMARK INTER + INTRA:         -12.281
REMARK INTER:                 -11.377
REMARK INTRA:                  -0.904
REMARK UNBOUND:                -0.904
REMARK SMILES CN1CCN(c2ccc3nc(-c4c(N)c5c(F)cccc5[nH]c4=O)[nH]c3c2)CC1
REMARK SMILES IDX 12 1 13 2 15 3 21 4 22 5 23 6 24 7 20 8 19 9 18 10 16 11
REMARK SMILES IDX 17 12 11 14 6 15 7 16 27 17 8 18 26 19 9 20 25 21 10 22 5 24
REMARK SMILES IDX 1 25 2 26 3 27 29 28 4 29 28 30 14 31
REMARK H PARENT 22 13 25 23 14 32 14 33
REMARK Flexibility Score: inf
ROOT
ATOM      1  C   UNL     1       9.706  76.948  -1.442  1.00  0.00     0.106 A 
ATOM      2  C   UNL     1       8.662  77.552  -0.700  1.00  0.00     0.061 A 
ATOM      3  C   UNL     1       7.519  76.782  -0.356  1.00  0.00     0.058 A 
ATOM      4  C   UNL     1       7.409  75.465  -0.873  1.00  0.00     0.053 A 
ATOM      5  N   UNL     1       8.408  74.939  -1.634  1.00  0.00    -0.321 N 
ATOM      6  C   UNL     1       9.544  75.631  -1.906  1.00  0.00     0.261 A 
ATOM      7  O   UNL     1      10.458  75.074  -2.576  1.00  0.00    -0.269 OA
ATOM      8  C   UNL     1       6.271  74.691  -0.592  1.00  0.00     0.027 A 
ATOM      9  C   UNL     1       5.256  75.196   0.218  1.00  0.00     0.005 A 
ATOM     10  C   UNL     1       5.375  76.467   0.773  1.00  0.00     0.040 A 
ATOM     11  C   UNL     1       6.497  77.258   0.505  1.00  0.00     0.134 A 
ATOM     12  F   UNL     1       6.595  78.444   1.155  1.00  0.00    -0.206 F 
ATOM     13  H   UNL     1       8.318  73.964  -2.003  1.00  0.00     0.170 HD
ENDROOT
BRANCH   1  14
ATOM     14  C   UNL     1      10.952  77.680  -1.762  1.00  0.00     0.146 A 
ATOM     15  C   UNL     1      14.494  79.840  -3.430  1.00  0.00     0.039 A 
ATOM     16  C   UNL     1      14.939  79.638  -2.095  1.00  0.00     0.028 A 
ATOM     17  C   UNL     1      13.222  79.355  -3.820  1.00  0.00     0.054 A 
ATOM     18  C   UNL     1      14.126  78.975  -1.156  1.00  0.00     0.033 A 
ATOM     19  C   UNL     1      12.451  78.707  -2.859  1.00  0.00     0.068 A 
ATOM     20  C   UNL     1      12.881  78.526  -1.581  1.00  0.00     0.089 A 
ATOM     21  N   UNL     1      11.231  78.173  -2.995  1.00  0.00    -0.338 N 
ATOM     22  N   UNL     1      11.954  77.869  -0.860  1.00  0.00    -0.228 NA
ATOM     23  H   UNL     1      10.633  78.148  -3.851  1.00  0.00     0.168 HD
BRANCH  15  24
ATOM     24  N   UNL     1      15.342  80.506  -4.386  1.00  0.00    -0.369 N 
ATOM     25  C   UNL     1      17.347  80.447  -8.017  1.00  0.00     0.105 C 
ATOM     26  N   UNL     1      16.562  80.350  -6.778  1.00  0.00    -0.303 NA
ATOM     27  C   UNL     1      17.451  80.083  -5.621  1.00  0.00     0.105 C 
ATOM     28  C   UNL     1      15.764  81.572  -6.575  1.00  0.00     0.105 C 
ATOM     29  C   UNL     1      16.804  80.447  -4.268  1.00  0.00     0.132 C 
ATOM     30  C   UNL     1      14.750  81.326  -5.451  1.00  0.00     0.132 C 
ENDBRANCH  15  24
ENDBRANCH   1  14
BRANCH   2  31
ATOM     31  N   UNL     1       8.715  78.960  -0.409  1.00  0.00    -0.397 N 
ATOM     32  H   UNL     1       8.727  79.663  -1.180  1.00  0.00     0.156 HD
ATOM     33  H   UNL     1       8.963  79.326   0.533  1.00  0.00     0.156 HD
ENDBRANCH   2  31
TORSDOF 3
ENDMDL
MODEL 2
REMARK VINA RESULT:    -9.868      1.656      2.196
REMARK INTER + INTRA:         -12.214
REMARK INTER:                 -11.206
REMARK INTRA:                  -1.007
REMARK UNBOUND:                -0.904
REMARK SMILES CN1CCN(c2ccc3nc(-c4c(N)c5c(F)cccc5[nH]c4=O)[nH]c3c2)CC1
REMARK SMILES IDX 12 1 13 2 15 3 21 4 22 5 23 6 24 7 20 8 19 9 18 10 16 11
REMARK SMILES IDX 17 12 11 14 6 15 7 16 27 17 8 18 26 19 9 20 25 21 10 22 5 24
REMARK SMILES IDX 1 25 2 26 3 27 29 28 4 29 28 30 14 31
REMARK H PARENT 22 13 25 23 14 32 14 33
REMARK Flexibility Score: inf
ROOT
ATOM      1  C   UNL     1       9.601  78.107  -1.030  1.00  0.00     0.106 A 
ATOM      2  C   UNL     1       9.196  76.752  -1.090  1.00  0.00     0.061 A 
ATOM      3  C   UNL     1       7.889  76.398  -0.659  1.00  0.00     0.058 A 
ATOM      4  C   UNL     1       7.075  77.400  -0.070  1.00  0.00     0.053 A 
ATOM      5  N   UNL     1       7.523  78.683   0.025  1.00  0.00    -0.321 N 
ATOM      6  C   UNL     1       8.738  79.057  -0.454  1.00  0.00     0.261 A 
ATOM      7  O   UNL     1       9.079  80.270  -0.383  1.00  0.00    -0.269 OA
ATOM      8  C   UNL     1       5.795  77.076   0.409  1.00  0.00     0.027 A 
ATOM      9  C   UNL     1       5.303  75.779   0.285  1.00  0.00     0.005 A 
ATOM     10  C   UNL     1       6.070  74.799  -0.337  1.00  0.00     0.040 A 
ATOM     11  C   UNL     1       7.348  75.096  -0.818  1.00  0.00     0.134 A 
ATOM     12  F   UNL     1       8.002  74.122  -1.499  1.00  0.00    -0.206 F 
ATOM     13  H   UNL     1       6.911  79.414   0.455  1.00  0.00     0.170 HD
ENDROOT
BRANCH   1  14
ATOM     14  C   UNL     1      10.921  78.544  -1.535  1.00  0.00     0.146 A 
ATOM     15  C   UNL     1      14.534  80.130  -3.639  1.00  0.00     0.039 A 
ATOM     16  C   UNL     1      15.163  79.355  -2.626  1.00  0.00     0.028 A 
ATOM     17  C   UNL     1      13.121  80.173  -3.704  1.00  0.00     0.054 A 
ATOM     18  C   UNL     1      14.398  78.644  -1.683  1.00  0.00     0.033 A 
ATOM     19  C   UNL     1      12.403  79.456  -2.750  1.00  0.00     0.068 A 
ATOM     20  C   UNL     1      13.014  78.724  -1.779  1.00  0.00     0.089 A 
ATOM     21  N   UNL     1      11.076  79.352  -2.616  1.00  0.00    -0.338 N 
ATOM     22  N   UNL     1      12.098  78.127  -0.995  1.00  0.00    -0.228 NA
ATOM     23  H   UNL     1      10.334  79.793  -3.204  1.00  0.00     0.168 HD
BRANCH  15  24
ATOM     24  N   UNL     1      15.328  80.841  -4.609  1.00  0.00    -0.369 N 
ATOM     25  C   UNL     1      17.176  80.932  -8.321  1.00  0.00     0.105 C 
ATOM     26  N   UNL     1      16.447  80.782  -7.053  1.00  0.00    -0.303 NA
ATOM     27  C   UNL     1      17.389  80.496  -5.945  1.00  0.00     0.105 C 
ATOM     28  C   UNL     1      15.637  81.982  -6.778  1.00  0.00     0.105 C 
ATOM     29  C   UNL     1      16.796  80.805  -4.554  1.00  0.00     0.132 C 
ATOM     30  C   UNL     1      14.677  81.682  -5.621  1.00  0.00     0.132 C 
ENDBRANCH  15  24
ENDBRANCH   1  14
BRANCH   2  31
ATOM     31  N   UNL     1      10.145  75.739  -1.468  1.00  0.00    -0.397 N 
ATOM     32  H   UNL     1       9.822  74.809  -1.812  1.00  0.00     0.156 HD
ATOM     33  H   UNL     1      11.153  75.797  -1.214  1.00  0.00     0.156 HD
ENDBRANCH   2  31
TORSDOF 3
ENDMDL
MODEL 3
REMARK VINA RESULT:    -9.835      1.926      2.641
REMARK INTER + INTRA:         -12.176
REMARK INTER:                 -11.812
REMARK INTRA:                  -0.364
REMARK UNBOUND:                -0.904
REMARK SMILES CN1CCN(c2ccc3nc(-c4c(N)c5c(F)cccc5[nH]c4=O)[nH]c3c2)CC1
REMARK SMILES IDX 12 1 13 2 15 3 21 4 22 5 23 6 24 7 20 8 19 9 18 10 16 11
REMARK SMILES IDX 17 12 11 14 6 15 7 16 27 17 8 18 26 19 9 20 25 21 10 22 5 24
REMARK SMILES IDX 1 25 2 26 3 27 29 28 4 29 28 30 14 31
REMARK H PARENT 22 13 25 23 14 32 14 33
REMARK Flexibility Score: inf
ROOT
ATOM      1  C   UNL     1       9.785  78.769  -1.515  1.00  0.00     0.106 A 
ATOM      2  C   UNL     1       9.257  77.527  -1.086  1.00  0.00     0.061 A 
ATOM      3  C   UNL     1       8.032  77.503  -0.368  1.00  0.00     0.058 A 
ATOM      4  C   UNL     1       7.438  78.738  -0.000  1.00  0.00     0.053 A 
ATOM      5  N   UNL     1       8.008  79.916  -0.380  1.00  0.00    -0.321 N 
ATOM      6  C   UNL     1       9.137  79.957  -1.135  1.00  0.00     0.261 A 
ATOM      7  O   UNL     1       9.592  81.077  -1.499  1.00  0.00    -0.269 OA
ATOM      8  C   UNL     1       6.251  78.754   0.750  1.00  0.00     0.027 A 
ATOM      9  C   UNL     1       5.632  77.561   1.114  1.00  0.00     0.005 A 
ATOM     10  C   UNL     1       6.175  76.343   0.715  1.00  0.00     0.040 A 
ATOM     11  C   UNL     1       7.358  76.302  -0.029  1.00  0.00     0.134 A 
ATOM     12  F   UNL     1       7.779  75.090  -0.466  1.00  0.00    -0.206 F 
ATOM     13  H   UNL     1       7.557  80.820  -0.108  1.00  0.00     0.170 HD
ENDROOT
BRANCH   1  14
ATOM     14  C   UNL     1      11.017  78.847  -2.331  1.00  0.00     0.146 A 
ATOM     15  C   UNL     1      14.667  79.814  -4.726  1.00  0.00     0.039 A 
ATOM     16  C   UNL     1      14.549  78.426  -5.013  1.00  0.00     0.028 A 
ATOM     17  C   UNL     1      13.714  80.433  -3.882  1.00  0.00     0.054 A 
ATOM     18  C   UNL     1      13.506  77.661  -4.456  1.00  0.00     0.033 A 
ATOM     19  C   UNL     1      12.702  79.638  -3.351  1.00  0.00     0.068 A 
ATOM     20  C   UNL     1      12.601  78.309  -3.624  1.00  0.00     0.089 A 
ATOM     21  N   UNL     1      11.703  80.000  -2.537  1.00  0.00    -0.338 N 
ATOM     22  N   UNL     1      11.536  77.779  -2.995  1.00  0.00    -0.228 NA
ATOM     23  H   UNL     1      11.503  80.948  -2.147  1.00  0.00     0.168 HD
BRANCH  15  24
ATOM     24  N   UNL     1      15.729  80.590  -5.315  1.00  0.00    -0.369 N 
ATOM     25  C   UNL     1      18.635  81.003  -8.245  1.00  0.00     0.105 C 
ATOM     26  N   UNL     1      17.548  80.749  -7.289  1.00  0.00    -0.303 NA
ATOM     27  C   UNL     1      18.099  80.299  -5.987  1.00  0.00     0.105 C 
ATOM     28  C   UNL     1      16.704  81.947  -7.134  1.00  0.00     0.105 C 
ATOM     29  C   UNL     1      17.107  80.481  -4.819  1.00  0.00     0.132 C 
ATOM     30  C   UNL     1      15.430  81.566  -6.371  1.00  0.00     0.132 C 
ENDBRANCH  15  24
ENDBRANCH   1  14
BRANCH   2  31
ATOM     31  N   UNL     1      10.022  76.323  -1.275  1.00  0.00    -0.397 N 
ATOM     32  H   UNL     1       9.606  75.390  -1.067  1.00  0.00     0.156 HD
ATOM     33  H   UNL     1      11.056  76.333  -1.403  1.00  0.00     0.156 HD
ENDBRANCH   2  31
TORSDOF 3
ENDMDL
MODEL 4
REMARK VINA RESULT:    -9.560      0.832      1.011
REMARK INTER + INTRA:         -11.861
REMARK INTER:                 -11.001
REMARK INTRA:                  -0.860
REMARK UNBOUND:                -0.904
REMARK SMILES CN1CCN(c2ccc3nc(-c4c(N)c5c(F)cccc5[nH]c4=O)[nH]c3c2)CC1
REMARK SMILES IDX 12 1 13 2 15 3 21 4 22 5 23 6 24 7 20 8 19 9 18 10 16 11
REMARK SMILES IDX 17 12 11 14 6 15 7 16 27 17 8 18 26 19 9 20 25 21 10 22 5 24
REMARK SMILES IDX 1 25 2 26 3 27 29 28 4 29 28 30 14 31
REMARK H PARENT 22 13 25 23 14 32 14 33
REMARK Flexibility Score: inf
ROOT
ATOM      1  C   UNL     1       9.813  76.971  -1.730  1.00  0.00     0.106 A 
ATOM      2  C   UNL     1       8.805  77.555  -0.926  1.00  0.00     0.061 A 
ATOM      3  C   UNL     1       7.679  76.776  -0.548  1.00  0.00     0.058 A 
ATOM      4  C   UNL     1       7.546  75.471  -1.089  1.00  0.00     0.053 A 
ATOM      5  N   UNL     1       8.509  74.964  -1.909  1.00  0.00    -0.321 N 
ATOM      6  C   UNL     1       9.630  75.664  -2.218  1.00  0.00     0.261 A 
ATOM      7  O   UNL     1      10.512  75.125  -2.942  1.00  0.00    -0.269 OA
ATOM      8  C   UNL     1       6.422  74.689  -0.774  1.00  0.00     0.027 A 
ATOM      9  C   UNL     1       5.447  75.173   0.093  1.00  0.00     0.005 A 
ATOM     10  C   UNL     1       5.591  76.431   0.672  1.00  0.00     0.040 A 
ATOM     11  C   UNL     1       6.698  77.229   0.371  1.00  0.00     0.134 A 
ATOM     12  F   UNL     1       6.825  78.399   1.043  1.00  0.00    -0.206 F 
ATOM     13  H   UNL     1       8.402  73.998  -2.296  1.00  0.00     0.170 HD
ENDROOT
BRANCH   1  14
ATOM     14  C   UNL     1      11.043  77.711  -2.091  1.00  0.00     0.146 A 
ATOM     15  C   UNL     1      14.771  79.515  -3.777  1.00  0.00     0.039 A 
ATOM     16  C   UNL     1      14.785  80.096  -2.479  1.00  0.00     0.028 A 
ATOM     17  C   UNL     1      13.724  78.629  -4.130  1.00  0.00     0.054 A 
ATOM     18  C   UNL     1      13.765  79.813  -1.551  1.00  0.00     0.033 A 
ATOM     19  C   UNL     1      12.735  78.379  -3.183  1.00  0.00     0.068 A 
ATOM     20  C   UNL     1      12.752  78.947  -1.946  1.00  0.00     0.089 A 
ATOM     21  N   UNL     1      11.661  77.588  -3.293  1.00  0.00    -0.338 N 
ATOM     22  N   UNL     1      11.692  78.537  -1.226  1.00  0.00    -0.228 NA
ATOM     23  H   UNL     1      11.368  77.014  -4.114  1.00  0.00     0.168 HD
BRANCH  15  24
ATOM     24  N   UNL     1      15.829  79.800  -4.712  1.00  0.00    -0.369 N 
ATOM     25  C   UNL     1      17.249  82.020  -7.915  1.00  0.00     0.105 C 
ATOM     26  N   UNL     1      16.640  81.335  -6.766  1.00  0.00    -0.303 NA
ATOM     27  C   UNL     1      16.148  79.993  -7.164  1.00  0.00     0.105 C 
ATOM     28  C   UNL     1      17.596  81.249  -5.648  1.00  0.00     0.105 C 
ATOM     29  C   UNL     1      15.953  79.043  -5.965  1.00  0.00     0.132 C 
ATOM     30  C   UNL     1      16.852  80.802  -4.385  1.00  0.00     0.132 C 
ENDBRANCH  15  24
ENDBRANCH   1  14
BRANCH   2  31
ATOM     31  N   UNL     1       8.870  78.956  -0.605  1.00  0.00    -0.397 N 
ATOM     32  H   UNL     1       8.753  79.283   0.378  1.00  0.00     0.156 HD
ATOM     33  H   UNL     1       8.810  79.698  -1.334  1.00  0.00     0.156 HD
ENDBRANCH   2  31
TORSDOF 3
ENDMDL
MODEL 5
REMARK VINA RESULT:    -9.327      3.120      9.786
REMARK INTER + INTRA:         -11.594
REMARK INTER:                 -10.659
REMARK INTRA:                  -0.935
REMARK UNBOUND:                -0.904
REMARK SMILES CN1CCN(c2ccc3nc(-c4c(N)c5c(F)cccc5[nH]c4=O)[nH]c3c2)CC1
REMARK SMILES IDX 12 1 13 2 15 3 21 4 22 5 23 6 24 7 20 8 19 9 18 10 16 11
REMARK SMILES IDX 17 12 11 14 6 15 7 16 27 17 8 18 26 19 9 20 25 21 10 22 5 24
REMARK SMILES IDX 1 25 2 26 3 27 29 28 4 29 28 30 14 31
REMARK H PARENT 22 13 25 23 14 32 14 33
REMARK Flexibility Score: inf
ROOT
ATOM      1  C   UNL     1      14.756  79.071  -5.078  1.00  0.00     0.106 A 
ATOM      2  C   UNL     1      15.775  79.949  -4.638  1.00  0.00     0.061 A 
ATOM      3  C   UNL     1      16.835  80.282  -5.523  1.00  0.00     0.058 A 
ATOM      4  C   UNL     1      16.900  79.627  -6.780  1.00  0.00     0.053 A 
ATOM      5  N   UNL     1      15.931  78.742  -7.145  1.00  0.00    -0.321 N 
ATOM      6  C   UNL     1      14.867  78.471  -6.345  1.00  0.00     0.261 A 
ATOM      7  O   UNL     1      13.974  77.680  -6.757  1.00  0.00    -0.269 OA
ATOM      8  C   UNL     1      17.959  79.897  -7.662  1.00  0.00     0.027 A 
ATOM      9  C   UNL     1      18.938  80.828  -7.324  1.00  0.00     0.005 A 
ATOM     10  C   UNL     1      18.859  81.516  -6.116  1.00  0.00     0.040 A 
ATOM     11  C   UNL     1      17.816  81.262  -5.221  1.00  0.00     0.134 A 
ATOM     12  F   UNL     1      17.746  82.035  -4.109  1.00  0.00    -0.206 F 
ATOM     13  H   UNL     1      15.986  78.271  -8.077  1.00  0.00     0.170 HD
ENDROOT
BRANCH   1  14
ATOM     14  C   UNL     1      13.589  78.750  -4.227  1.00  0.00     0.146 A 
ATOM     15  C   UNL     1      10.087  77.118  -1.976  1.00  0.00     0.039 A 
ATOM     16  C   UNL     1       9.979  78.493  -1.629  1.00  0.00     0.028 A 
ATOM     17  C   UNL     1      11.129  76.698  -2.836  1.00  0.00     0.054 A 
ATOM     18  C   UNL     1      10.903  79.434  -2.119  1.00  0.00     0.033 A 
ATOM     19  C   UNL     1      12.022  77.662  -3.296  1.00  0.00     0.068 A 
ATOM     20  C   UNL     1      11.917  78.974  -2.952  1.00  0.00     0.089 A 
ATOM     21  N   UNL     1      13.074  77.500  -4.108  1.00  0.00    -0.338 N 
ATOM     22  N   UNL     1      12.894  79.693  -3.533  1.00  0.00    -0.228 NA
ATOM     23  H   UNL     1      13.419  76.616  -4.544  1.00  0.00     0.168 HD
BRANCH  15  24
ATOM     24  N   UNL     1       9.126  76.166  -1.480  1.00  0.00    -0.369 N 
ATOM     25  C   UNL     1       5.301  75.360  -0.092  1.00  0.00     0.105 C 
ATOM     26  N   UNL     1       6.604  75.774  -0.631  1.00  0.00    -0.303 NA
ATOM     27  C   UNL     1       7.604  75.889   0.459  1.00  0.00     0.105 C 
ATOM     28  C   UNL     1       7.052  74.839  -1.678  1.00  0.00     0.105 C 
ATOM     29  C   UNL     1       9.059  75.835  -0.051  1.00  0.00     0.132 C 
ATOM     30  C   UNL     1       8.250  75.448  -2.415  1.00  0.00     0.132 C 
ENDBRANCH  15  24
ENDBRANCH   1  14
BRANCH   2  31
ATOM     31  N   UNL     1      15.792  80.395  -3.270  1.00  0.00    -0.397 N 
ATOM     32  H   UNL     1      16.522  80.053  -2.608  1.00  0.00     0.156 HD
ATOM     33  H   UNL     1      14.981  80.879  -2.832  1.00  0.00     0.156 HD
ENDBRANCH   2  31
TORSDOF 3
ENDMDL
MODEL 6
REMARK VINA RESULT:    -9.305      3.490     10.017
REMARK INTER + INTRA:         -11.569
REMARK INTER:                 -10.621
REMARK INTRA:                  -0.948
REMARK UNBOUND:                -0.904
REMARK SMILES CN1CCN(c2ccc3nc(-c4c(N)c5c(F)cccc5[nH]c4=O)[nH]c3c2)CC1
REMARK SMILES IDX 12 1 13 2 15 3 21 4 22 5 23 6 24 7 20 8 19 9 18 10 16 11
REMARK SMILES IDX 17 12 11 14 6 15 7 16 27 17 8 18 26 19 9 20 25 21 10 22 5 24
REMARK SMILES IDX 1 25 2 26 3 27 29 28 4 29 28 30 14 31
REMARK H PARENT 22 13 25 23 14 32 14 33
REMARK Flexibility Score: inf
ROOT
ATOM      1  C   UNL     1      15.414  80.573  -4.907  1.00  0.00     0.106 A 
ATOM      2  C   UNL     1      16.804  80.328  -5.018  1.00  0.00     0.061 A 
ATOM      3  C   UNL     1      17.566  81.069  -5.960  1.00  0.00     0.058 A 
ATOM      4  C   UNL     1      16.885  81.947  -6.843  1.00  0.00     0.053 A 
ATOM      5  N   UNL     1      15.536  82.111  -6.745  1.00  0.00    -0.321 N 
ATOM      6  C   UNL     1      14.802  81.472  -5.798  1.00  0.00     0.261 A 
ATOM      7  O   UNL     1      13.563  81.701  -5.724  1.00  0.00    -0.269 OA
ATOM      8  C   UNL     1      17.601  82.661  -7.818  1.00  0.00     0.027 A 
ATOM      9  C   UNL     1      18.985  82.537  -7.908  1.00  0.00     0.005 A 
ATOM     10  C   UNL     1      19.672  81.720  -7.015  1.00  0.00     0.040 A 
ATOM     11  C   UNL     1      18.981  80.996  -6.038  1.00  0.00     0.134 A 
ATOM     12  F   UNL     1      19.718  80.297  -5.140  1.00  0.00    -0.206 F 
ATOM     13  H   UNL     1      15.047  82.766  -7.397  1.00  0.00     0.170 HD
ENDROOT
BRANCH   1  14
ATOM     14  C   UNL     1      14.585  79.886  -3.891  1.00  0.00     0.146 A 
ATOM     15  C   UNL     1      11.546  77.835  -1.331  1.00  0.00     0.039 A 
ATOM     16  C   UNL     1      12.555  78.082  -0.360  1.00  0.00     0.028 A 
ATOM     17  C   UNL     1      11.747  78.261  -2.666  1.00  0.00     0.054 A 
ATOM     18  C   UNL     1      13.754  78.730  -0.714  1.00  0.00     0.033 A 
ATOM     19  C   UNL     1      12.947  78.897  -2.973  1.00  0.00     0.068 A 
ATOM     20  C   UNL     1      13.911  79.121  -2.039  1.00  0.00     0.089 A 
ATOM     21  N   UNL     1      13.353  79.379  -4.153  1.00  0.00    -0.338 N 
ATOM     22  N   UNL     1      14.963  79.754  -2.591  1.00  0.00    -0.228 NA
ATOM     23  H   UNL     1      12.841  79.363  -5.064  1.00  0.00     0.168 HD
BRANCH  15  24
ATOM     24  N   UNL     1      10.317  77.185  -0.953  1.00  0.00    -0.369 N 
ATOM     25  C   UNL     1       7.001  74.936  -2.025  1.00  0.00     0.105 C 
ATOM     26  N   UNL     1       8.235  75.694  -1.774  1.00  0.00    -0.303 NA
ATOM     27  C   UNL     1       7.938  77.142  -1.652  1.00  0.00     0.105 C 
ATOM     28  C   UNL     1       8.923  75.181  -0.577  1.00  0.00     0.105 C 
ATOM     29  C   UNL     1       9.050  77.926  -0.923  1.00  0.00     0.132 C 
ATOM     30  C   UNL     1      10.330  75.784  -0.510  1.00  0.00     0.132 C 
ENDBRANCH  15  24
ENDBRANCH   1  14
BRANCH   2  31
ATOM     31  N   UNL     1      17.402  79.256  -4.268  1.00  0.00    -0.397 N 
ATOM     32  H   UNL     1      18.069  79.457  -3.493  1.00  0.00     0.156 HD
ATOM     33  H   UNL     1      17.379  78.267  -4.595  1.00  0.00     0.156 HD
ENDBRANCH   2  31
TORSDOF 3
ENDMDL
MODEL 7
REMARK VINA RESULT:    -9.190      3.131      9.758
REMARK INTER + INTRA:         -11.437
REMARK INTER:                 -10.541
REMARK INTRA:                  -0.896
REMARK UNBOUND:                -0.904
REMARK SMILES CN1CCN(c2ccc3nc(-c4c(N)c5c(F)cccc5[nH]c4=O)[nH]c3c2)CC1
REMARK SMILES IDX 12 1 13 2 15 3 21 4 22 5 23 6 24 7 20 8 19 9 18 10 16 11
REMARK SMILES IDX 17 12 11 14 6 15 7 16 27 17 8 18 26 19 9 20 25 21 10 22 5 24
REMARK SMILES IDX 1 25 2 26 3 27 29 28 4 29 28 30 14 31
REMARK H PARENT 22 13 25 23 14 32 14 33
REMARK Flexibility Score: inf
ROOT
ATOM      1  C   UNL     1      14.097  79.236  -4.014  1.00  0.00     0.106 A 
ATOM      2  C   UNL     1      14.645  78.848  -5.260  1.00  0.00     0.061 A 
ATOM      3  C   UNL     1      15.903  79.373  -5.659  1.00  0.00     0.058 A 
ATOM      4  C   UNL     1      16.513  80.364  -4.845  1.00  0.00     0.053 A 
ATOM      5  N   UNL     1      15.924  80.755  -3.681  1.00  0.00    -0.321 N 
ATOM      6  C   UNL     1      14.761  80.207  -3.244  1.00  0.00     0.261 A 
ATOM      7  O   UNL     1      14.288  80.574  -2.133  1.00  0.00    -0.269 OA
ATOM      8  C   UNL     1      17.734  80.939  -5.232  1.00  0.00     0.027 A 
ATOM      9  C   UNL     1      18.372  80.523  -6.399  1.00  0.00     0.005 A 
ATOM     10  C   UNL     1      17.811  79.516  -7.179  1.00  0.00     0.040 A 
ATOM     11  C   UNL     1      16.594  78.931  -6.816  1.00  0.00     0.134 A 
ATOM     12  F   UNL     1      16.154  77.890  -7.566  1.00  0.00    -0.206 F 
ATOM     13  H   UNL     1      16.387  81.482  -3.087  1.00  0.00     0.170 HD
ENDROOT
BRANCH   1  14
ATOM     14  C   UNL     1      12.827  78.662  -3.514  1.00  0.00     0.146 A 
ATOM     15  C   UNL     1       8.909  77.573  -1.655  1.00  0.00     0.039 A 
ATOM     16  C   UNL     1       9.305  76.301  -2.151  1.00  0.00     0.028 A 
ATOM     17  C   UNL     1       9.759  78.689  -1.848  1.00  0.00     0.054 A 
ATOM     18  C   UNL     1      10.520  76.143  -2.843  1.00  0.00     0.033 A 
ATOM     19  C   UNL     1      10.950  78.488  -2.539  1.00  0.00     0.068 A 
ATOM     20  C   UNL     1      11.316  77.269  -3.019  1.00  0.00     0.089 A 
ATOM     21  N   UNL     1      11.898  79.385  -2.839  1.00  0.00    -0.338 N 
ATOM     22  N   UNL     1      12.509  77.345  -3.638  1.00  0.00    -0.228 NA
ATOM     23  H   UNL     1      11.913  80.404  -2.610  1.00  0.00     0.168 HD
BRANCH  15  24
ATOM     24  N   UNL     1       7.670  77.720  -0.934  1.00  0.00    -0.369 N 
ATOM     25  C   UNL     1       5.638  77.784   2.681  1.00  0.00     0.105 C 
ATOM     26  N   UNL     1       6.483  77.773   1.478  1.00  0.00    -0.303 NA
ATOM     27  C   UNL     1       6.339  76.485   0.756  1.00  0.00     0.105 C 
ATOM     28  C   UNL     1       6.159  78.918   0.609  1.00  0.00     0.105 C 
ATOM     29  C   UNL     1       6.782  76.570  -0.719  1.00  0.00     0.132 C 
ATOM     30  C   UNL     1       7.237  79.045  -0.474  1.00  0.00     0.132 C 
ENDBRANCH  15  24
ENDBRANCH   1  14
BRANCH   2  31
ATOM     31  N   UNL     1      13.873  78.029  -6.156  1.00  0.00    -0.397 N 
ATOM     32  H   UNL     1      12.837  78.128  -6.209  1.00  0.00     0.156 HD
ATOM     33  H   UNL     1      14.265  77.176  -6.609  1.00  0.00     0.156 HD
ENDBRANCH   2  31
TORSDOF 3
ENDMDL
MODEL 8
REMARK VINA RESULT:    -8.978      2.029      3.202
REMARK INTER + INTRA:         -11.194
REMARK INTER:                 -10.366
REMARK INTRA:                  -0.828
REMARK UNBOUND:                -0.904
REMARK SMILES CN1CCN(c2ccc3nc(-c4c(N)c5c(F)cccc5[nH]c4=O)[nH]c3c2)CC1
REMARK SMILES IDX 12 1 13 2 15 3 21 4 22 5 23 6 24 7 20 8 19 9 18 10 16 11
REMARK SMILES IDX 17 12 11 14 6 15 7 16 27 17 8 18 26 19 9 20 25 21 10 22 5 24
REMARK SMILES IDX 1 25 2 26 3 27 29 28 4 29 28 30 14 31
REMARK H PARENT 22 13 25 23 14 32 14 33
REMARK Flexibility Score: inf
ROOT
ATOM      1  C   UNL     1      11.256  78.659  -2.803  1.00  0.00     0.106 A 
ATOM      2  C   UNL     1      10.295  79.397  -2.071  1.00  0.00     0.061 A 
ATOM      3  C   UNL     1       9.294  78.702  -1.341  1.00  0.00     0.058 A 
ATOM      4  C   UNL     1       9.220  77.290  -1.467  1.00  0.00     0.053 A 
ATOM      5  N   UNL     1      10.128  76.620  -2.230  1.00  0.00    -0.321 N 
ATOM      6  C   UNL     1      11.140  77.259  -2.871  1.00  0.00     0.261 A 
ATOM      7  O   UNL     1      11.980  76.580  -3.523  1.00  0.00    -0.269 OA
ATOM      8  C   UNL     1       8.214  76.575  -0.797  1.00  0.00     0.027 A 
ATOM      9  C   UNL     1       7.301  77.238   0.020  1.00  0.00     0.005 A 
ATOM     10  C   UNL     1       7.394  78.616   0.194  1.00  0.00     0.040 A 
ATOM     11  C   UNL     1       8.384  79.350  -0.466  1.00  0.00     0.134 A 
ATOM     12  F   UNL     1       8.479  80.672  -0.177  1.00  0.00    -0.206 F 
ATOM     13  H   UNL     1      10.066  75.578  -2.309  1.00  0.00     0.170 HD
ENDROOT
BRANCH   1  14
ATOM     14  C   UNL     1      12.365  79.327  -3.518  1.00  0.00     0.146 A 
ATOM     15  C   UNL     1      16.155  80.886  -5.308  1.00  0.00     0.039 A 
ATOM     16  C   UNL     1      15.246  81.882  -5.759  1.00  0.00     0.028 A 
ATOM     17  C   UNL     1      15.677  79.819  -4.510  1.00  0.00     0.054 A 
ATOM     18  C   UNL     1      13.879  81.811  -5.432  1.00  0.00     0.033 A 
ATOM     19  C   UNL     1      14.318  79.786  -4.213  1.00  0.00     0.068 A 
ATOM     20  C   UNL     1      13.453  80.739  -4.656  1.00  0.00     0.089 A 
ATOM     21  N   UNL     1      13.648  78.884  -3.486  1.00  0.00    -0.338 N 
ATOM     22  N   UNL     1      12.205  80.479  -4.225  1.00  0.00    -0.228 NA
ATOM     23  H   UNL     1      14.026  78.035  -3.009  1.00  0.00     0.168 HD
BRANCH  15  24
ATOM     24  N   UNL     1      17.555  80.978  -5.636  1.00  0.00    -0.369 N 
ATOM     25  C   UNL     1      20.631  82.948  -7.601  1.00  0.00     0.105 C 
ATOM     26  N   UNL     1      19.459  82.369  -6.929  1.00  0.00    -0.303 NA
ATOM     27  C   UNL     1      18.991  81.161  -7.650  1.00  0.00     0.105 C 
ATOM     28  C   UNL     1      19.767  82.072  -5.519  1.00  0.00     0.105 C 
ATOM     29  C   UNL     1      18.114  80.240  -6.776  1.00  0.00     0.132 C 
ATOM     30  C   UNL     1      18.463  81.751  -4.779  1.00  0.00     0.132 C 
ENDBRANCH  15  24
ENDBRANCH   1  14
BRANCH   2  31
ATOM     31  N   UNL     1      10.268  80.832  -2.172  1.00  0.00    -0.397 N 
ATOM     32  H   UNL     1      10.780  81.321  -2.937  1.00  0.00     0.156 HD
ATOM     33  H   UNL     1       9.942  81.440  -1.392  1.00  0.00     0.156 HD
ENDBRANCH   2  31
TORSDOF 3
ENDMDL
MODEL 9
REMARK VINA RESULT:    -8.865      1.500      1.881
REMARK INTER + INTRA:         -11.065
REMARK INTER:                 -11.535
REMARK INTRA:                   0.470
REMARK UNBOUND:                -0.904
REMARK SMILES CN1CCN(c2ccc3nc(-c4c(N)c5c(F)cccc5[nH]c4=O)[nH]c3c2)CC1
REMARK SMILES IDX 12 1 13 2 15 3 21 4 22 5 23 6 24 7 20 8 19 9 18 10 16 11
REMARK SMILES IDX 17 12 11 14 6 15 7 16 27 17 8 18 26 19 9 20 25 21 10 22 5 24
REMARK SMILES IDX 1 25 2 26 3 27 29 28 4 29 28 30 14 31
REMARK H PARENT 22 13 25 23 14 32 14 33
REMARK Flexibility Score: inf
ROOT
ATOM      1  C   UNL     1       9.956  77.673  -1.700  1.00  0.00     0.106 A 
ATOM      2  C   UNL     1       8.978  78.654  -1.408  1.00  0.00     0.061 A 
ATOM      3  C   UNL     1       7.894  78.321  -0.552  1.00  0.00     0.058 A 
ATOM      4  C   UNL     1       7.764  76.978  -0.114  1.00  0.00     0.053 A 
ATOM      5  N   UNL     1       8.694  76.047  -0.465  1.00  0.00    -0.321 N 
ATOM      6  C   UNL     1       9.780  76.364  -1.217  1.00  0.00     0.261 A 
ATOM      7  O   UNL     1      10.634  75.470  -1.469  1.00  0.00    -0.269 OA
ATOM      8  C   UNL     1       6.679  76.602   0.695  1.00  0.00     0.027 A 
ATOM      9  C   UNL     1       5.739  77.548   1.098  1.00  0.00     0.005 A 
ATOM     10  C   UNL     1       5.883  78.880   0.718  1.00  0.00     0.040 A 
ATOM     11  C   UNL     1       6.953  79.276  -0.090  1.00  0.00     0.134 A 
ATOM     12  F   UNL     1       7.087  80.602  -0.341  1.00  0.00    -0.206 F 
ATOM     13  H   UNL     1       8.590  75.061  -0.131  1.00  0.00     0.170 HD
ENDROOT
BRANCH   1  14
ATOM     14  C   UNL     1      11.146  77.985  -2.522  1.00  0.00     0.146 A 
ATOM     15  C   UNL     1      14.611  79.631  -4.819  1.00  0.00     0.039 A 
ATOM     16  C   UNL     1      14.598  78.300  -5.319  1.00  0.00     0.028 A 
ATOM     17  C   UNL     1      13.643  80.025  -3.865  1.00  0.00     0.054 A 
ATOM     18  C   UNL     1      13.645  77.369  -4.866  1.00  0.00     0.033 A 
ATOM     19  C   UNL     1      12.720  79.071  -3.443  1.00  0.00     0.068 A 
ATOM     20  C   UNL     1      12.720  77.797  -3.921  1.00  0.00     0.089 A 
ATOM     21  N   UNL     1      11.726  79.212  -2.558  1.00  0.00    -0.338 N 
ATOM     22  N   UNL     1      11.727  77.084  -3.359  1.00  0.00    -0.228 NA
ATOM     23  H   UNL     1      11.463  80.067  -2.019  1.00  0.00     0.168 HD
BRANCH  15  24
ATOM     24  N   UNL     1      15.582  80.580  -5.302  1.00  0.00    -0.369 N 
ATOM     25  C   UNL     1      18.708  81.479  -7.876  1.00  0.00     0.105 C 
ATOM     26  N   UNL     1      17.575  81.043  -7.048  1.00  0.00    -0.303 NA
ATOM     27  C   UNL     1      18.031  80.716  -5.675  1.00  0.00     0.105 C 
ATOM     28  C   UNL     1      16.518  82.070  -7.036  1.00  0.00     0.105 C 
ATOM     29  C   UNL     1      16.886  80.728  -4.641  1.00  0.00     0.132 C 
ATOM     30  C   UNL     1      15.248  81.474  -6.418  1.00  0.00     0.132 C 
ENDBRANCH  15  24
ENDBRANCH   1  14
BRANCH   2  31
ATOM     31  N   UNL     1       9.026  79.930  -2.072  1.00  0.00    -0.397 N 
ATOM     32  H   UNL     1       8.148  80.436  -2.315  1.00  0.00     0.156 HD
ATOM     33  H   UNL     1       9.891  80.288  -2.528  1.00  0.00     0.156 HD
ENDBRANCH   2  31
TORSDOF 3
ENDMDL
MODEL 10
REMARK VINA RESULT:    -8.746      2.399      3.828
REMARK INTER + INTRA:         -10.928
REMARK INTER:                 -10.660
REMARK INTRA:                  -0.268
REMARK UNBOUND:                -0.904
REMARK SMILES CN1CCN(c2ccc3nc(-c4c(N)c5c(F)cccc5[nH]c4=O)[nH]c3c2)CC1
REMARK SMILES IDX 12 1 13 2 15 3 21 4 22 5 23 6 24 7 20 8 19 9 18 10 16 11
REMARK SMILES IDX 17 12 11 14 6 15 7 16 27 17 8 18 26 19 9 20 25 21 10 22 5 24
REMARK SMILES IDX 1 25 2 26 3 27 29 28 4 29 28 30 14 31
REMARK H PARENT 22 13 25 23 14 32 14 33
REMARK Flexibility Score: inf
ROOT
ATOM      1  C   UNL     1      11.548  78.435  -2.535  1.00  0.00     0.106 A 
ATOM      2  C   UNL     1      11.159  77.105  -2.822  1.00  0.00     0.061 A 
ATOM      3  C   UNL     1      10.087  76.522  -2.096  1.00  0.00     0.058 A 
ATOM      4  C   UNL     1       9.518  77.256  -1.022  1.00  0.00     0.053 A 
ATOM      5  N   UNL     1       9.959  78.512  -0.738  1.00  0.00    -0.321 N 
ATOM      6  C   UNL     1      10.929  79.117  -1.472  1.00  0.00     0.261 A 
ATOM      7  O   UNL     1      11.263  80.301  -1.192  1.00  0.00    -0.269 OA
ATOM      8  C   UNL     1       8.487  76.693  -0.253  1.00  0.00     0.027 A 
ATOM      9  C   UNL     1       7.994  75.425  -0.553  1.00  0.00     0.005 A 
ATOM     10  C   UNL     1       8.507  74.716  -1.635  1.00  0.00     0.040 A 
ATOM     11  C   UNL     1       9.536  75.254  -2.413  1.00  0.00     0.134 A 
ATOM     12  F   UNL     1       9.922  74.554  -3.509  1.00  0.00    -0.206 F 
ATOM     13  H   UNL     1       9.527  79.045   0.052  1.00  0.00     0.170 HD
ENDROOT
BRANCH   1  14
ATOM     14  C   UNL     1      12.607  79.118  -3.312  1.00  0.00     0.146 A 
ATOM     15  C   UNL     1      16.275  80.763  -5.268  1.00  0.00     0.039 A 
ATOM     16  C   UNL     1      15.307  81.685  -5.754  1.00  0.00     0.028 A 
ATOM     17  C   UNL     1      15.869  79.721  -4.401  1.00  0.00     0.054 A 
ATOM     18  C   UNL     1      13.952  81.562  -5.394  1.00  0.00     0.033 A 
ATOM     19  C   UNL     1      14.519  79.636  -4.073  1.00  0.00     0.068 A 
ATOM     20  C   UNL     1      13.598  80.517  -4.550  1.00  0.00     0.089 A 
ATOM     21  N   UNL     1      13.911  78.743  -3.282  1.00  0.00    -0.338 N 
ATOM     22  N   UNL     1      12.373  80.218  -4.078  1.00  0.00    -0.228 NA
ATOM     23  H   UNL     1      14.342  77.943  -2.767  1.00  0.00     0.168 HD
BRANCH  15  24
ATOM     24  N   UNL     1      17.662  80.908  -5.631  1.00  0.00    -0.369 N 
ATOM     25  C   UNL     1      20.631  83.063  -7.566  1.00  0.00     0.105 C 
ATOM     26  N   UNL     1      19.494  82.419  -6.894  1.00  0.00    -0.303 NA
ATOM     27  C   UNL     1      19.031  81.244  -7.672  1.00  0.00     0.105 C 
ATOM     28  C   UNL     1      19.852  82.046  -5.514  1.00  0.00     0.105 C 
ATOM     29  C   UNL     1      18.201  80.252  -6.829  1.00  0.00     0.132 C 
ATOM     30  C   UNL     1      18.579  81.651  -4.756  1.00  0.00     0.132 C 
ENDBRANCH  15  24
ENDBRANCH   1  14
BRANCH   2  31
ATOM     31  N   UNL     1      11.928  76.321  -3.753  1.00  0.00    -0.397 N 
ATOM     32  H   UNL     1      11.508  76.001  -4.652  1.00  0.00     0.156 HD
ATOM     33  H   UNL     1      12.823  75.862  -3.488  1.00  0.00     0.156 HD
ENDBRANCH   2  31
TORSDOF 3
ENDMDL
MODEL 11
REMARK VINA RESULT:    -8.550      3.134      9.609
REMARK INTER + INTRA:         -10.704
REMARK INTER:                 -10.469
REMARK INTRA:                  -0.234
REMARK UNBOUND:                -0.904
REMARK SMILES CN1CCN(c2ccc3nc(-c4c(N)c5c(F)cccc5[nH]c4=O)[nH]c3c2)CC1
REMARK SMILES IDX 12 1 13 2 15 3 21 4 22 5 23 6 24 7 20 8 19 9 18 10 16 11
REMARK SMILES IDX 17 12 11 14 6 15 7 16 27 17 8 18 26 19 9 20 25 21 10 22 5 24
REMARK SMILES IDX 1 25 2 26 3 27 29 28 4 29 28 30 14 31
REMARK H PARENT 22 13 25 23 14 32 14 33
REMARK Flexibility Score: inf
ROOT
ATOM      1  C   UNL     1      14.506  79.140  -4.468  1.00  0.00     0.106 A 
ATOM      2  C   UNL     1      15.614  80.013  -4.357  1.00  0.00     0.061 A 
ATOM      3  C   UNL     1      16.634  79.970  -5.344  1.00  0.00     0.058 A 
ATOM      4  C   UNL     1      16.567  78.967  -6.346  1.00  0.00     0.053 A 
ATOM      5  N   UNL     1      15.513  78.104  -6.385  1.00  0.00    -0.321 N 
ATOM      6  C   UNL     1      14.488  78.182  -5.497  1.00  0.00     0.261 A 
ATOM      7  O   UNL     1      13.514  77.387  -5.613  1.00  0.00    -0.269 OA
ATOM      8  C   UNL     1      17.582  78.865  -7.310  1.00  0.00     0.027 A 
ATOM      9  C   UNL     1      18.647  79.763  -7.311  1.00  0.00     0.005 A 
ATOM     10  C   UNL     1      18.699  80.783  -6.366  1.00  0.00     0.040 A 
ATOM     11  C   UNL     1      17.702  80.903  -5.394  1.00  0.00     0.134 A 
ATOM     12  F   UNL     1      17.763  81.975  -4.566  1.00  0.00    -0.206 F 
ATOM     13  H   UNL     1      15.471  77.374  -7.132  1.00  0.00     0.170 HD
ENDROOT
BRANCH   1  14
ATOM     14  C   UNL     1      13.378  79.193  -3.512  1.00  0.00     0.146 A 
ATOM     15  C   UNL     1       9.599  78.972  -1.131  1.00  0.00     0.039 A 
ATOM     16  C   UNL     1      10.317  79.925  -0.359  1.00  0.00     0.028 A 
ATOM     17  C   UNL     1      10.193  78.433  -2.298  1.00  0.00     0.054 A 
ATOM     18  C   UNL     1      11.614  80.326  -0.732  1.00  0.00     0.033 A 
ATOM     19  C   UNL     1      11.477  78.856  -2.629  1.00  0.00     0.068 A 
ATOM     20  C   UNL     1      12.161  79.762  -1.879  1.00  0.00     0.089 A 
ATOM     21  N   UNL     1      12.230  78.486  -3.672  1.00  0.00    -0.338 N 
ATOM     22  N   UNL     1      13.370  80.003  -2.418  1.00  0.00    -0.228 NA
ATOM     23  H   UNL     1      11.990  77.808  -4.429  1.00  0.00     0.168 HD
BRANCH  15  24
ATOM     24  N   UNL     1       8.267  78.581  -0.747  1.00  0.00    -0.369 N 
ATOM     25  C   UNL     1       5.638  77.305   2.196  1.00  0.00     0.105 C 
ATOM     26  N   UNL     1       6.662  77.792   1.262  1.00  0.00    -0.303 NA
ATOM     27  C   UNL     1       7.132  76.689   0.387  1.00  0.00     0.105 C 
ATOM     28  C   UNL     1       6.146  78.924   0.473  1.00  0.00     0.105 C 
ATOM     29  C   UNL     1       7.813  77.192  -0.903  1.00  0.00     0.132 C 
ATOM     30  C   UNL     1       7.311  79.589  -0.270  1.00  0.00     0.132 C 
ENDBRANCH  15  24
ENDBRANCH   1  14
BRANCH   2  31
ATOM     31  N   UNL     1      15.755  80.843  -3.190  1.00  0.00    -0.397 N 
ATOM     32  H   UNL     1      16.528  81.539  -3.122  1.00  0.00     0.156 HD
ATOM     33  H   UNL     1      15.254  80.642  -2.299  1.00  0.00     0.156 HD
ENDBRANCH   2  31
TORSDOF 3
ENDMDL
MODEL 12
REMARK VINA RESULT:    -7.990      3.230      9.827
REMARK INTER + INTRA:         -10.062
REMARK INTER:                  -9.924
REMARK INTRA:                  -0.138
REMARK UNBOUND:                -0.904
REMARK SMILES CN1CCN(c2ccc3nc(-c4c(N)c5c(F)cccc5[nH]c4=O)[nH]c3c2)CC1
REMARK SMILES IDX 12 1 13 2 15 3 21 4 22 5 23 6 24 7 20 8 19 9 18 10 16 11
REMARK SMILES IDX 17 12 11 14 6 15 7 16 27 17 8 18 26 19 9 20 25 21 10 22 5 24
REMARK SMILES IDX 1 25 2 26 3 27 29 28 4 29 28 30 14 31
REMARK H PARENT 22 13 25 23 14 32 14 33
REMARK Flexibility Score: inf
ROOT
ATOM      1  C   UNL     1      14.530  79.469  -4.215  1.00  0.00     0.106 A 
ATOM      2  C   UNL     1      14.910  78.988  -5.491  1.00  0.00     0.061 A 
ATOM      3  C   UNL     1      16.183  79.340  -6.015  1.00  0.00     0.058 A 
ATOM      4  C   UNL     1      16.983  80.261  -5.290  1.00  0.00     0.053 A 
ATOM      5  N   UNL     1      16.557  80.749  -4.092  1.00  0.00    -0.321 N 
ATOM      6  C   UNL     1      15.379  80.363  -3.537  1.00  0.00     0.261 A 
ATOM      7  O   UNL     1      15.058  80.810  -2.402  1.00  0.00    -0.269 OA
ATOM      8  C   UNL     1      18.227  80.668  -5.800  1.00  0.00     0.027 A 
ATOM      9  C   UNL     1      18.699  80.150  -7.004  1.00  0.00     0.005 A 
ATOM     10  C   UNL     1      17.948  79.207  -7.700  1.00  0.00     0.040 A 
ATOM     11  C   UNL     1      16.705  78.790  -7.213  1.00  0.00     0.134 A 
ATOM     12  F   UNL     1      16.072  77.798  -7.888  1.00  0.00    -0.206 F 
ATOM     13  H   UNL     1      17.159  81.422  -3.564  1.00  0.00     0.170 HD
ENDROOT
BRANCH   1  14
ATOM     14  C   UNL     1      13.250  79.073  -3.588  1.00  0.00     0.146 A 
ATOM     15  C   UNL     1       9.556  77.193  -1.910  1.00  0.00     0.039 A 
ATOM     16  C   UNL     1       9.209  78.566  -1.783  1.00  0.00     0.028 A 
ATOM     17  C   UNL     1      10.807  76.841  -2.471  1.00  0.00     0.054 A 
ATOM     18  C   UNL     1      10.099  79.576  -2.195  1.00  0.00     0.033 A 
ATOM     19  C   UNL     1      11.657  77.872  -2.863  1.00  0.00     0.068 A 
ATOM     20  C   UNL     1      11.321  79.183  -2.729  1.00  0.00     0.089 A 
ATOM     21  N   UNL     1      12.875  77.780  -3.410  1.00  0.00    -0.338 N 
ATOM     22  N   UNL     1      12.310  79.972  -3.188  1.00  0.00    -0.228 NA
ATOM     23  H   UNL     1      13.412  76.915  -3.640  1.00  0.00     0.168 HD
BRANCH  15  24
ATOM     24  N   UNL     1       8.629  76.169  -1.500  1.00  0.00    -0.369 N 
ATOM     25  C   UNL     1       4.951  75.131   0.111  1.00  0.00     0.105 C 
ATOM     26  N   UNL     1       6.200  75.634  -0.477  1.00  0.00    -0.303 NA
ATOM     27  C   UNL     1       7.309  75.542   0.504  1.00  0.00     0.105 C 
ATOM     28  C   UNL     1       6.517  74.907  -1.719  1.00  0.00     0.105 C 
ATOM     29  C   UNL     1       8.703  75.579  -0.157  1.00  0.00     0.132 C 
ATOM     30  C   UNL     1       7.646  75.639  -2.454  1.00  0.00     0.132 C 
ENDBRANCH  15  24
ENDBRANCH   1  14
BRANCH   2  31
ATOM     31  N   UNL     1      13.964  78.256  -6.289  1.00  0.00    -0.397 N 
ATOM     32  H   UNL     1      14.067  78.207  -7.326  1.00  0.00     0.156 HD
ATOM     33  H   UNL     1      13.043  77.944  -5.916  1.00  0.00     0.156 HD
ENDBRANCH   2  31
TORSDOF 3
ENDMDL
MODEL 13
REMARK VINA RESULT:    -7.933      3.702     10.087
REMARK INTER + INTRA:          -9.996
REMARK INTER:                  -9.680
REMARK INTRA:                  -0.316
REMARK UNBOUND:                -0.904
REMARK SMILES CN1CCN(c2ccc3nc(-c4c(N)c5c(F)cccc5[nH]c4=O)[nH]c3c2)CC1
REMARK SMILES IDX 12 1 13 2 15 3 21 4 22 5 23 6 24 7 20 8 19 9 18 10 16 11
REMARK SMILES IDX 17 12 11 14 6 15 7 16 27 17 8 18 26 19 9 20 25 21 10 22 5 24
REMARK SMILES IDX 1 25 2 26 3 27 29 28 4 29 28 30 14 31
REMARK H PARENT 22 13 25 23 14 32 14 33
REMARK Flexibility Score: inf
ROOT
ATOM      1  C   UNL     1      14.822  80.317  -5.608  1.00  0.00     0.106 A 
ATOM      2  C   UNL     1      15.848  79.567  -6.231  1.00  0.00     0.061 A 
ATOM      3  C   UNL     1      16.864  80.246  -6.954  1.00  0.00     0.058 A 
ATOM      4  C   UNL     1      16.749  81.650  -7.128  1.00  0.00     0.053 A 
ATOM      5  N   UNL     1      15.714  82.331  -6.563  1.00  0.00    -0.321 N 
ATOM      6  C   UNL     1      14.776  81.709  -5.801  1.00  0.00     0.261 A 
ATOM      7  O   UNL     1      13.868  82.399  -5.261  1.00  0.00    -0.269 OA
ATOM      8  C   UNL     1      17.710  82.349  -7.877  1.00  0.00     0.027 A 
ATOM      9  C   UNL     1      18.798  81.677  -8.430  1.00  0.00     0.005 A 
ATOM     10  C   UNL     1      18.951  80.309  -8.224  1.00  0.00     0.040 A 
ATOM     11  C   UNL     1      18.005  79.592  -7.485  1.00  0.00     0.134 A 
ATOM     12  F   UNL     1      18.266  78.283  -7.241  1.00  0.00    -0.206 F 
ATOM     13  H   UNL     1      15.644  83.366  -6.692  1.00  0.00     0.170 HD
ENDROOT
BRANCH   1  14
ATOM     14  C   UNL     1      13.782  79.668  -4.779  1.00  0.00     0.146 A 
ATOM     15  C   UNL     1      10.577  78.365  -1.946  1.00  0.00     0.039 A 
ATOM     16  C   UNL     1      10.972  77.101  -2.465  1.00  0.00     0.028 A 
ATOM     17  C   UNL     1      11.230  79.537  -2.399  1.00  0.00     0.054 A 
ATOM     18  C   UNL     1      11.991  77.005  -3.431  1.00  0.00     0.033 A 
ATOM     19  C   UNL     1      12.230  79.396  -3.357  1.00  0.00     0.068 A 
ATOM     20  C   UNL     1      12.595  78.183  -3.854  1.00  0.00     0.089 A 
ATOM     21  N   UNL     1      12.975  80.351  -3.927  1.00  0.00    -0.338 N 
ATOM     22  N   UNL     1      13.585  78.322  -4.756  1.00  0.00    -0.228 NA
ATOM     23  H   UNL     1      12.937  81.380  -3.758  1.00  0.00     0.168 HD
BRANCH  15  24
ATOM     24  N   UNL     1       9.544  78.450  -0.946  1.00  0.00    -0.369 N 
ATOM     25  C   UNL     1       5.620  79.348   0.055  1.00  0.00     0.105 C 
ATOM     26  N   UNL     1       6.967  79.032  -0.440  1.00  0.00    -0.303 NA
ATOM     27  C   UNL     1       7.918  80.111  -0.079  1.00  0.00     0.105 C 
ATOM     28  C   UNL     1       7.414  77.725   0.073  1.00  0.00     0.105 C 
ATOM     29  C   UNL     1       9.392  79.653  -0.118  1.00  0.00     0.132 C 
ATOM     30  C   UNL     1       8.676  77.294  -0.683  1.00  0.00     0.132 C 
ENDBRANCH  15  24
ENDBRANCH   1  14
BRANCH   2  31
ATOM     31  N   UNL     1      15.784  78.129  -6.229  1.00  0.00    -0.397 N 
ATOM     32  H   UNL     1      14.958  77.634  -5.828  1.00  0.00     0.156 HD
ATOM     33  H   UNL     1      16.619  77.534  -6.408  1.00  0.00     0.156 HD
ENDBRANCH   2  31
TORSDOF 3
ENDMDL
MODEL 14
REMARK VINA RESULT:    -7.513      2.854      9.531
REMARK INTER + INTRA:          -9.515
REMARK INTER:                  -8.861
REMARK INTRA:                  -0.654
REMARK UNBOUND:                -0.904
REMARK SMILES CN1CCN(c2ccc3nc(-c4c(N)c5c(F)cccc5[nH]c4=O)[nH]c3c2)CC1
REMARK SMILES IDX 12 1 13 2 15 3 21 4 22 5 23 6 24 7 20 8 19 9 18 10 16 11
REMARK SMILES IDX 17 12 11 14 6 15 7 16 27 17 8 18 26 19 9 20 25 21 10 22 5 24
REMARK SMILES IDX 1 25 2 26 3 27 29 28 4 29 28 30 14 31
REMARK H PARENT 22 13 25 23 14 32 14 33
REMARK Flexibility Score: inf
ROOT
ATOM      1  C   UNL     1      14.046  78.463  -4.482  1.00  0.00     0.106 A 
ATOM      2  C   UNL     1      14.746  79.684  -4.644  1.00  0.00     0.061 A 
ATOM      3  C   UNL     1      15.787  79.765  -5.606  1.00  0.00     0.058 A 
ATOM      4  C   UNL     1      16.171  78.582  -6.291  1.00  0.00     0.053 A 
ATOM      5  N   UNL     1      15.513  77.412  -6.064  1.00  0.00    -0.321 N 
ATOM      6  C   UNL     1      14.463  77.332  -5.206  1.00  0.00     0.261 A 
ATOM      7  O   UNL     1      13.860  76.232  -5.074  1.00  0.00    -0.269 OA
ATOM      8  C   UNL     1      17.228  78.615  -7.215  1.00  0.00     0.027 A 
ATOM      9  C   UNL     1      17.887  79.811  -7.491  1.00  0.00     0.005 A 
ATOM     10  C   UNL     1      17.487  80.988  -6.865  1.00  0.00     0.040 A 
ATOM     11  C   UNL     1      16.440  80.979  -5.938  1.00  0.00     0.134 A 
ATOM     12  F   UNL     1      16.038  82.175  -5.440  1.00  0.00    -0.206 F 
ATOM     13  H   UNL     1      15.801  76.549  -6.580  1.00  0.00     0.170 HD
ENDROOT
BRANCH   1  14
ATOM     14  C   UNL     1      12.904  78.343  -3.549  1.00  0.00     0.146 A 
ATOM     15  C   UNL     1       9.126  77.601  -1.275  1.00  0.00     0.039 A 
ATOM     16  C   UNL     1       9.741  78.558  -0.420  1.00  0.00     0.028 A 
ATOM     17  C   UNL     1       9.786  77.206  -2.463  1.00  0.00     0.054 A 
ATOM     18  C   UNL     1      11.000  79.102  -0.735  1.00  0.00     0.033 A 
ATOM     19  C   UNL     1      11.030  77.768  -2.735  1.00  0.00     0.068 A 
ATOM     20  C   UNL     1      11.614  78.676  -1.907  1.00  0.00     0.089 A 
ATOM     21  N   UNL     1      11.830  77.547  -3.785  1.00  0.00    -0.338 N 
ATOM     22  N   UNL     1      12.804  79.066  -2.401  1.00  0.00    -0.228 NA
ATOM     23  H   UNL     1      11.665  76.907  -4.594  1.00  0.00     0.168 HD
BRANCH  15  24
ATOM     24  N   UNL     1       7.830  77.063  -0.949  1.00  0.00    -0.369 N 
ATOM     25  C   UNL     1       5.522  74.438   1.284  1.00  0.00     0.105 C 
ATOM     26  N   UNL     1       6.449  75.342   0.588  1.00  0.00    -0.303 NA
ATOM     27  C   UNL     1       6.716  74.852  -0.786  1.00  0.00     0.105 C 
ATOM     28  C   UNL     1       5.919  76.717   0.578  1.00  0.00     0.105 C 
ATOM     29  C   UNL     1       7.259  75.953  -1.722  1.00  0.00     0.132 C 
ATOM     30  C   UNL     1       7.023  77.675   0.114  1.00  0.00     0.132 C 
ENDBRANCH  15  24
ENDBRANCH   1  14
BRANCH   2  31
ATOM     31  N   UNL     1      14.479  80.783  -3.755  1.00  0.00    -0.397 N 
ATOM     32  H   UNL     1      13.515  80.954  -3.395  1.00  0.00     0.156 HD
ATOM     33  H   UNL     1      15.155  81.563  -3.614  1.00  0.00     0.156 HD
ENDBRANCH   2  31
TORSDOF 3
ENDMDL
