MODEL 1
REMARK VINA RESULT:    -9.194      0.000      0.000
REMARK INTER + INTRA:         -11.505
REMARK INTER:                 -11.343
REMARK INTRA:                  -0.161
REMARK UNBOUND:                -0.161
REMARK SMILES CO[C@@H]1[C@H](N(C)C(=O)c2ccccc2)C[C@H]2O[C@]1(C)n1c3ccccc3c3c4c(c5c6ccccc6n2c5c31)C(=O)NC4
REMARK SMILES IDX 5 1 6 2 4 3 3 4 18 5 15 6 17 7 19 8 20 9 16 10 21 11 39 12
REMARK SMILES IDX 37 13 26 14 22 15 27 16 38 17 36 18 25 19 23 20 28 21 30 22
REMARK SMILES IDX 31 23 35 24 24 25 29 26 43 27 32 28 34 29 40 30 42 31 33 32
REMARK SMILES IDX 41 33 2 35 1 36 7 37 8 38 9 39 10 40 14 41 11 42 13 43 12 44
REMARK H PARENT 42 34
REMARK Flexibility Score: inf
ROOT
ATOM      1  N   UNL     1      26.371  14.840  33.213  1.00  0.00    -0.336 N 
ATOM      2  C   UNL     1      26.624  13.392  33.274  1.00  0.00     0.147 C 
ENDROOT
BRANCH   1   3
ATOM      3  C   UNL     1      27.446  15.828  33.444  1.00  0.00     0.123 C 
ATOM      4  C   UNL     1      28.692  15.584  32.559  1.00  0.00     0.193 C 
ATOM      5  C   UNL     1      29.675  16.834  32.595  1.00  0.00     0.173 C 
ATOM      6  C   UNL     1      26.969  17.260  33.249  1.00  0.00     0.083 C 
ATOM      7  O   UNL     1      29.382  17.710  33.683  1.00  0.00    -0.329 OA
ATOM      8  C   UNL     1      31.106  16.348  32.932  1.00  0.00     0.071 C 
ATOM      9  N   UNL     1      29.702  17.583  31.294  1.00  0.00    -0.307 N 
ATOM     10  C   UNL     1      28.060  18.214  33.753  1.00  0.00     0.224 C 
ATOM     11  C   UNL     1      30.298  17.203  30.113  1.00  0.00     0.052 A 
ATOM     12  C   UNL     1      29.271  18.857  31.035  1.00  0.00     0.077 A 
ATOM     13  N   UNL     1      27.992  19.485  33.050  1.00  0.00    -0.312 N 
ATOM     14  C   UNL     1      30.267  18.219  29.170  1.00  0.00     0.008 A 
ATOM     15  C   UNL     1      30.875  15.967  29.775  1.00  0.00     0.027 A 
ATOM     16  C   UNL     1      29.618  19.273  29.754  1.00  0.00     0.016 A 
ATOM     17  C   UNL     1      28.528  19.736  31.844  1.00  0.00     0.077 A 
ATOM     18  C   UNL     1      27.265  20.584  33.366  1.00  0.00     0.052 A 
ATOM     19  C   UNL     1      30.813  18.074  27.892  1.00  0.00     0.011 A 
ATOM     20  C   UNL     1      31.430  15.799  28.497  1.00  0.00     0.002 A 
ATOM     21  C   UNL     1      29.285  20.554  29.279  1.00  0.00    -0.005 A 
ATOM     22  C   UNL     1      28.166  21.005  31.383  1.00  0.00     0.023 A 
ATOM     23  C   UNL     1      27.354  21.546  32.373  1.00  0.00     0.008 A 
ATOM     24  C   UNL     1      26.462  20.776  34.497  1.00  0.00     0.027 A 
ATOM     25  C   UNL     1      31.404  16.848  27.561  1.00  0.00     0.001 A 
ATOM     26  C   UNL     1      28.573  21.427  30.099  1.00  0.00     0.055 A 
ATOM     27  C   UNL     1      29.591  21.181  27.949  1.00  0.00     0.153 C 
ATOM     28  C   UNL     1      26.636  22.744  32.463  1.00  0.00     0.011 A 
ATOM     29  C   UNL     1      25.755  21.983  34.611  1.00  0.00     0.002 A 
ATOM     30  C   UNL     1      28.418  22.655  29.343  1.00  0.00     0.252 C 
ATOM     31  N   UNL     1      29.010  22.515  28.061  1.00  0.00    -0.348 N 
ATOM     32  C   UNL     1      25.840  22.960  33.601  1.00  0.00     0.001 A 
ATOM     33  O   UNL     1      27.911  23.731  29.750  1.00  0.00    -0.269 OA
ATOM     34  H   UNL     1      29.065  23.262  27.334  1.00  0.00     0.164 HD
BRANCH   4  35
ATOM     35  O   UNL     1      28.292  15.320  31.219  1.00  0.00    -0.374 OA
ATOM     36  C   UNL     1      28.661  14.017  30.809  1.00  0.00     0.195 C 
ENDBRANCH   4  35
ENDBRANCH   1   3
BRANCH   1  37
ATOM     37  C   UNL     1      25.043  15.318  32.913  1.00  0.00     0.253 C 
ATOM     38  O   UNL     1      24.404  15.962  33.790  1.00  0.00    -0.269 OA
BRANCH  37  39
ATOM     39  C   UNL     1      24.411  15.078  31.597  1.00  0.00     0.040 A 
ATOM     40  C   UNL     1      25.152  15.254  30.415  1.00  0.00     0.014 A 
ATOM     41  C   UNL     1      23.081  14.631  31.510  1.00  0.00     0.014 A 
ATOM     42  C   UNL     1      24.561  15.017  29.170  1.00  0.00     0.001 A 
ATOM     43  C   UNL     1      22.495  14.393  30.264  1.00  0.00     0.001 A 
ATOM     44  C   UNL     1      23.234  14.589  29.094  1.00  0.00     0.000 A 
ENDBRANCH  37  39
ENDBRANCH   1  37
TORSDOF 4
ENDMDL
MODEL 2
REMARK VINA RESULT:    -8.365     16.674     19.670
REMARK INTER + INTRA:         -10.482
REMARK INTER:                 -10.357
REMARK INTRA:                  -0.124
REMARK UNBOUND:                -0.161
REMARK SMILES CO[C@@H]1[C@H](N(C)C(=O)c2ccccc2)C[C@H]2O[C@]1(C)n1c3ccccc3c3c4c(c5c6ccccc6n2c5c31)C(=O)NC4
REMARK SMILES IDX 5 1 6 2 4 3 3 4 18 5 15 6 17 7 19 8 20 9 16 10 21 11 39 12
REMARK SMILES IDX 37 13 26 14 22 15 27 16 38 17 36 18 25 19 23 20 28 21 30 22
REMARK SMILES IDX 31 23 35 24 24 25 29 26 43 27 32 28 34 29 40 30 42 31 33 32
REMARK SMILES IDX 41 33 2 35 1 36 7 37 8 38 9 39 10 40 14 41 11 42 13 43 12 44
REMARK H PARENT 42 34
REMARK Flexibility Score: inf
ROOT
ATOM      1  N   UNL     1      11.200  23.672  40.174  1.00  0.00    -0.336 N 
ATOM      2  C   UNL     1       9.749  23.876  40.043  1.00  0.00     0.147 C 
ENDROOT
BRANCH   1   3
ATOM      3  C   UNL     1      11.911  22.628  39.406  1.00  0.00     0.123 C 
ATOM      4  C   UNL     1      12.307  21.406  40.270  1.00  0.00     0.193 C 
ATOM      5  C   UNL     1      12.765  20.185  39.361  1.00  0.00     0.173 C 
ATOM      6  C   UNL     1      11.113  22.149  38.202  1.00  0.00     0.083 C 
ATOM      7  O   UNL     1      13.054  20.594  38.025  1.00  0.00    -0.329 OA
ATOM      8  C   UNL     1      14.138  19.666  39.857  1.00  0.00     0.071 C 
ATOM      9  N   UNL     1      11.778  19.053  39.376  1.00  0.00    -0.307 N 
ATOM     10  C   UNL     1      12.019  21.268  37.331  1.00  0.00     0.224 C 
ATOM     11  C   UNL     1      11.538  18.154  40.389  1.00  0.00     0.052 A 
ATOM     12  C   UNL     1      11.007  18.581  38.346  1.00  0.00     0.077 A 
ATOM     13  N   UNL     1      11.228  20.300  36.588  1.00  0.00    -0.312 N 
ATOM     14  C   UNL     1      10.678  17.142  39.988  1.00  0.00     0.008 A 
ATOM     15  C   UNL     1      12.022  18.164  41.708  1.00  0.00     0.027 A 
ATOM     16  C   UNL     1      10.341  17.409  38.689  1.00  0.00     0.016 A 
ATOM     17  C   UNL     1      10.786  19.125  37.066  1.00  0.00     0.077 A 
ATOM     18  C   UNL     1      10.652  20.441  35.369  1.00  0.00     0.052 A 
ATOM     19  C   UNL     1      10.287  16.107  40.841  1.00  0.00     0.011 A 
ATOM     20  C   UNL     1      11.643  17.134  42.583  1.00  0.00     0.002 A 
ATOM     21  C   UNL     1       9.502  16.744  37.777  1.00  0.00    -0.005 A 
ATOM     22  C   UNL     1       9.938  18.492  36.154  1.00  0.00     0.023 A 
ATOM     23  C   UNL     1       9.859  19.348  35.060  1.00  0.00     0.008 A 
ATOM     24  C   UNL     1      10.750  21.537  34.504  1.00  0.00     0.027 A 
ATOM     25  C   UNL     1      10.783  16.108  42.151  1.00  0.00     0.001 A 
ATOM     26  C   UNL     1       9.312  17.277  36.504  1.00  0.00     0.055 A 
ATOM     27  C   UNL     1       8.728  15.470  37.959  1.00  0.00     0.153 C 
ATOM     28  C   UNL     1       9.122  19.304  33.872  1.00  0.00     0.011 A 
ATOM     29  C   UNL     1      10.033  21.497  33.298  1.00  0.00     0.002 A 
ATOM     30  C   UNL     1       8.435  16.355  35.808  1.00  0.00     0.252 C 
ATOM     31  N   UNL     1       8.073  15.285  36.667  1.00  0.00    -0.348 N 
ATOM     32  C   UNL     1       9.224  20.389  32.984  1.00  0.00     0.001 A 
ATOM     33  O   UNL     1       8.083  16.415  34.603  1.00  0.00    -0.269 OA
ATOM     34  H   UNL     1       7.475  14.471  36.403  1.00  0.00     0.164 HD
BRANCH   4  35
ATOM     35  O   UNL     1      11.211  21.017  41.091  1.00  0.00    -0.374 OA
ATOM     36  C   UNL     1      11.479  21.238  42.462  1.00  0.00     0.195 C 
ENDBRANCH   4  35
ENDBRANCH   1   3
BRANCH   1  37
ATOM     37  C   UNL     1      11.960  24.512  41.068  1.00  0.00     0.253 C 
ATOM     38  O   UNL     1      11.513  24.749  42.224  1.00  0.00    -0.269 OA
BRANCH  37  39
ATOM     39  C   UNL     1      13.256  25.101  40.665  1.00  0.00     0.040 A 
ATOM     40  C   UNL     1      14.022  25.825  41.595  1.00  0.00     0.014 A 
ATOM     41  C   UNL     1      13.758  24.909  39.366  1.00  0.00     0.014 A 
ATOM     42  C   UNL     1      15.253  26.373  41.220  1.00  0.00     0.001 A 
ATOM     43  C   UNL     1      14.990  25.457  38.996  1.00  0.00     0.001 A 
ATOM     44  C   UNL     1      15.735  26.191  39.922  1.00  0.00     0.000 A 
ENDBRANCH  37  39
ENDBRANCH   1  37
TORSDOF 4
ENDMDL
MODEL 3
REMARK VINA RESULT:    -8.362     16.288     20.267
REMARK INTER + INTRA:         -10.479
REMARK INTER:                  -9.898
REMARK INTRA:                  -0.581
REMARK UNBOUND:                -0.161
REMARK SMILES CO[C@@H]1[C@H](N(C)C(=O)c2ccccc2)C[C@H]2O[C@]1(C)n1c3ccccc3c3c4c(c5c6ccccc6n2c5c31)C(=O)NC4
REMARK SMILES IDX 5 1 6 2 4 3 3 4 18 5 15 6 17 7 19 8 20 9 16 10 21 11 39 12
REMARK SMILES IDX 37 13 26 14 22 15 27 16 38 17 36 18 25 19 23 20 28 21 30 22
REMARK SMILES IDX 31 23 35 24 24 25 29 26 43 27 32 28 34 29 40 30 42 31 33 32
REMARK SMILES IDX 41 33 2 35 1 36 7 37 8 38 9 39 10 40 14 41 11 42 13 43 12 44
REMARK H PARENT 42 34
REMARK Flexibility Score: inf
ROOT
ATOM      1  N   UNL     1      11.227  19.615  43.196  1.00  0.00    -0.336 N 
ATOM      2  C   UNL     1      10.236  20.660  42.893  1.00  0.00     0.147 C 
ENDROOT
BRANCH   1   3
ATOM      3  C   UNL     1      11.738  18.701  42.153  1.00  0.00     0.123 C 
ATOM      4  C   UNL     1      10.891  17.414  42.009  1.00  0.00     0.193 C 
ATOM      5  C   UNL     1      11.267  16.625  40.680  1.00  0.00     0.173 C 
ATOM      6  C   UNL     1      11.849  19.379  40.794  1.00  0.00     0.083 C 
ATOM      7  O   UNL     1      12.509  17.067  40.132  1.00  0.00    -0.329 OA
ATOM      8  C   UNL     1      11.563  15.146  41.030  1.00  0.00     0.071 C 
ATOM      9  N   UNL     1      10.175  16.679  39.650  1.00  0.00    -0.307 N 
ATOM     10  C   UNL     1      12.618  18.450  39.844  1.00  0.00     0.224 C 
ATOM     11  C   UNL     1       8.974  16.008  39.656  1.00  0.00     0.052 A 
ATOM     12  C   UNL     1      10.191  17.285  38.422  1.00  0.00     0.077 A 
ATOM     13  N   UNL     1      12.222  18.688  38.465  1.00  0.00    -0.312 N 
ATOM     14  C   UNL     1       8.288  16.166  38.462  1.00  0.00     0.008 A 
ATOM     15  C   UNL     1       8.395  15.249  40.688  1.00  0.00     0.027 A 
ATOM     16  C   UNL     1       9.061  16.975  37.673  1.00  0.00     0.016 A 
ATOM     17  C   UNL     1      11.138  18.167  37.867  1.00  0.00     0.077 A 
ATOM     18  C   UNL     1      12.741  19.574  37.581  1.00  0.00     0.052 A 
ATOM     19  C   UNL     1       7.044  15.577  38.227  1.00  0.00     0.011 A 
ATOM     20  C   UNL     1       7.145  14.647  40.474  1.00  0.00     0.002 A 
ATOM     21  C   UNL     1       8.874  17.481  36.375  1.00  0.00    -0.005 A 
ATOM     22  C   UNL     1      10.960  18.700  36.588  1.00  0.00     0.023 A 
ATOM     23  C   UNL     1      12.001  19.605  36.410  1.00  0.00     0.008 A 
ATOM     24  C   UNL     1      13.839  20.421  37.772  1.00  0.00     0.027 A 
ATOM     25  C   UNL     1       6.474  14.806  39.248  1.00  0.00     0.001 A 
ATOM     26  C   UNL     1       9.832  18.332  35.825  1.00  0.00     0.055 A 
ATOM     27  C   UNL     1       7.742  17.240  35.418  1.00  0.00     0.153 C 
ATOM     28  C   UNL     1      12.323  20.491  35.377  1.00  0.00     0.011 A 
ATOM     29  C   UNL     1      14.186  21.300  36.734  1.00  0.00     0.002 A 
ATOM     30  C   UNL     1       9.370  18.647  34.487  1.00  0.00     0.252 C 
ATOM     31  N   UNL     1       8.124  18.012  34.239  1.00  0.00    -0.348 N 
ATOM     32  C   UNL     1      13.433  21.336  35.545  1.00  0.00     0.001 A 
ATOM     33  O   UNL     1       9.983  19.314  33.617  1.00  0.00    -0.269 OA
ATOM     34  H   UNL     1       7.591  18.052  33.342  1.00  0.00     0.164 HD
BRANCH   4  35
ATOM     35  O   UNL     1       9.506  17.741  42.004  1.00  0.00    -0.374 OA
ATOM     36  C   UNL     1       8.840  17.220  43.138  1.00  0.00     0.195 C 
ENDBRANCH   4  35
ENDBRANCH   1   3
BRANCH   1  37
ATOM     37  C   UNL     1      11.722  19.473  44.544  1.00  0.00     0.253 C 
ATOM     38  O   UNL     1      12.701  20.175  44.921  1.00  0.00    -0.269 OA
BRANCH  37  39
ATOM     39  C   UNL     1      11.107  18.528  45.501  1.00  0.00     0.040 A 
ATOM     40  C   UNL     1       9.980  18.913  46.249  1.00  0.00     0.014 A 
ATOM     41  C   UNL     1      11.611  17.223  45.646  1.00  0.00     0.014 A 
ATOM     42  C   UNL     1       9.389  18.018  47.145  1.00  0.00     0.001 A 
ATOM     43  C   UNL     1      11.016  16.331  46.542  1.00  0.00     0.001 A 
ATOM     44  C   UNL     1       9.908  16.729  47.294  1.00  0.00     0.000 A 
ENDBRANCH  37  39
ENDBRANCH   1  37
TORSDOF 4
ENDMDL
MODEL 4
REMARK VINA RESULT:    -8.265     18.964     23.384
REMARK INTER + INTRA:         -10.358
REMARK INTER:                  -9.808
REMARK INTRA:                  -0.550
REMARK UNBOUND:                -0.161
REMARK SMILES CO[C@@H]1[C@H](N(C)C(=O)c2ccccc2)C[C@H]2O[C@]1(C)n1c3ccccc3c3c4c(c5c6ccccc6n2c5c31)C(=O)NC4
REMARK SMILES IDX 5 1 6 2 4 3 3 4 18 5 15 6 17 7 19 8 20 9 16 10 21 11 39 12
REMARK SMILES IDX 37 13 26 14 22 15 27 16 38 17 36 18 25 19 23 20 28 21 30 22
REMARK SMILES IDX 31 23 35 24 24 25 29 26 43 27 32 28 34 29 40 30 42 31 33 32
REMARK SMILES IDX 41 33 2 35 1 36 7 37 8 38 9 39 10 40 14 41 11 42 13 43 12 44
REMARK H PARENT 42 34
REMARK Flexibility Score: inf
ROOT
ATOM      1  N   UNL     1      11.378  25.131  40.607  1.00  0.00    -0.336 N 
ATOM      2  C   UNL     1      11.482  23.674  40.785  1.00  0.00     0.147 C 
ENDROOT
BRANCH   1   3
ATOM      3  C   UNL     1      10.297  25.917  41.237  1.00  0.00     0.123 C 
ATOM      4  C   UNL     1      10.417  25.980  42.780  1.00  0.00     0.193 C 
ATOM      5  C   UNL     1       9.448  27.086  43.385  1.00  0.00     0.173 C 
ATOM      6  C   UNL     1      10.213  27.333  40.685  1.00  0.00     0.083 C 
ATOM      7  O   UNL     1       8.454  27.496  42.445  1.00  0.00    -0.329 OA
ATOM      8  C   UNL     1       8.599  26.457  44.517  1.00  0.00     0.071 C 
ATOM      9  N   UNL     1      10.194  28.270  43.929  1.00  0.00    -0.307 N 
ATOM     10  C   UNL     1       8.922  27.984  41.201  1.00  0.00     0.224 C 
ATOM     11  C   UNL     1      10.933  28.344  45.088  1.00  0.00     0.052 A 
ATOM     12  C   UNL     1      10.189  29.563  43.475  1.00  0.00     0.077 A 
ATOM     13  N   UNL     1       9.074  29.429  41.277  1.00  0.00    -0.312 N 
ATOM     14  C   UNL     1      11.339  29.642  45.359  1.00  0.00     0.008 A 
ATOM     15  C   UNL     1      11.313  27.308  45.957  1.00  0.00     0.027 A 
ATOM     16  C   UNL     1      10.865  30.420  44.337  1.00  0.00     0.016 A 
ATOM     17  C   UNL     1       9.649  30.097  42.291  1.00  0.00     0.077 A 
ATOM     18  C   UNL     1       8.835  30.352  40.315  1.00  0.00     0.052 A 
ATOM     19  C   UNL     1      12.099  29.971  46.484  1.00  0.00     0.011 A 
ATOM     20  C   UNL     1      12.077  27.615  47.094  1.00  0.00     0.002 A 
ATOM     21  C   UNL     1      10.975  31.796  44.073  1.00  0.00    -0.005 A 
ATOM     22  C   UNL     1       9.767  31.459  41.997  1.00  0.00     0.023 A 
ATOM     23  C   UNL     1       9.236  31.615  40.721  1.00  0.00     0.008 A 
ATOM     24  C   UNL     1       8.309  30.132  39.037  1.00  0.00     0.027 A 
ATOM     25  C   UNL     1      12.464  28.941  47.359  1.00  0.00     0.001 A 
ATOM     26  C   UNL     1      10.411  32.320  42.910  1.00  0.00     0.055 A 
ATOM     27  C   UNL     1      11.638  32.868  44.889  1.00  0.00     0.153 C 
ATOM     28  C   UNL     1       9.135  32.715  39.863  1.00  0.00     0.011 A 
ATOM     29  C   UNL     1       8.181  31.231  38.173  1.00  0.00     0.002 A 
ATOM     30  C   UNL     1      10.664  33.747  42.947  1.00  0.00     0.252 C 
ATOM     31  N   UNL     1      11.402  34.082  44.113  1.00  0.00    -0.348 N 
ATOM     32  C   UNL     1       8.592  32.514  38.583  1.00  0.00     0.001 A 
ATOM     33  O   UNL     1      10.247  34.607  42.131  1.00  0.00    -0.269 OA
ATOM     34  H   UNL     1      11.687  35.046  44.394  1.00  0.00     0.164 HD
BRANCH   4  35
ATOM     35  O   UNL     1      11.763  26.257  43.151  1.00  0.00    -0.374 OA
ATOM     36  C   UNL     1      12.329  25.197  43.896  1.00  0.00     0.195 C 
ENDBRANCH   4  35
ENDBRANCH   1   3
BRANCH   1  37
ATOM     37  C   UNL     1      12.357  25.820  39.800  1.00  0.00     0.253 C 
ATOM     38  O   UNL     1      12.066  26.145  38.617  1.00  0.00    -0.269 OA
BRANCH  37  39
ATOM     39  C   UNL     1      13.695  26.163  40.331  1.00  0.00     0.040 A 
ATOM     40  C   UNL     1      14.814  25.388  39.978  1.00  0.00     0.014 A 
ATOM     41  C   UNL     1      13.874  27.286  41.157  1.00  0.00     0.014 A 
ATOM     42  C   UNL     1      16.082  25.716  40.468  1.00  0.00     0.001 A 
ATOM     43  C   UNL     1      15.143  27.612  41.643  1.00  0.00     0.001 A 
ATOM     44  C   UNL     1      16.246  26.825  41.302  1.00  0.00     0.000 A 
ENDBRANCH  37  39
ENDBRANCH   1  37
TORSDOF 4
ENDMDL
MODEL 5
REMARK VINA RESULT:    -8.189     16.339     19.958
REMARK INTER + INTRA:         -10.266
REMARK INTER:                  -9.575
REMARK INTRA:                  -0.691
REMARK UNBOUND:                -0.161
REMARK SMILES CO[C@@H]1[C@H](N(C)C(=O)c2ccccc2)C[C@H]2O[C@]1(C)n1c3ccccc3c3c4c(c5c6ccccc6n2c5c31)C(=O)NC4
REMARK SMILES IDX 5 1 6 2 4 3 3 4 18 5 15 6 17 7 19 8 20 9 16 10 21 11 39 12
REMARK SMILES IDX 37 13 26 14 22 15 27 16 38 17 36 18 25 19 23 20 28 21 30 22
REMARK SMILES IDX 31 23 35 24 24 25 29 26 43 27 32 28 34 29 40 30 42 31 33 32
REMARK SMILES IDX 41 33 2 35 1 36 7 37 8 38 9 39 10 40 14 41 11 42 13 43 12 44
REMARK H PARENT 42 34
REMARK Flexibility Score: inf
ROOT
ATOM      1  N   UNL     1      11.917  20.567  35.971  1.00  0.00    -0.336 N 
ATOM      2  C   UNL     1      13.183  21.282  36.195  1.00  0.00     0.147 C 
ENDROOT
BRANCH   1   3
ATOM      3  C   UNL     1      10.780  20.685  36.908  1.00  0.00     0.123 C 
ATOM      4  C   UNL     1      10.515  19.384  37.704  1.00  0.00     0.193 C 
ATOM      5  C   UNL     1       9.518  19.646  38.915  1.00  0.00     0.173 C 
ATOM      6  C   UNL     1      10.951  21.840  37.883  1.00  0.00     0.083 C 
ATOM      7  O   UNL     1       8.828  20.887  38.778  1.00  0.00    -0.329 OA
ATOM      8  C   UNL     1       8.366  18.613  38.859  1.00  0.00     0.071 C 
ATOM      9  N   UNL     1      10.199  19.553  40.251  1.00  0.00    -0.307 N 
ATOM     10  C   UNL     1       9.630  22.046  38.637  1.00  0.00     0.224 C 
ATOM     11  C   UNL     1      10.627  18.421  40.904  1.00  0.00     0.052 A 
ATOM     12  C   UNL     1      10.412  20.547  41.169  1.00  0.00     0.077 A 
ATOM     13  N   UNL     1       9.874  22.624  39.949  1.00  0.00    -0.312 N 
ATOM     14  C   UNL     1      11.056  18.700  42.193  1.00  0.00     0.008 A 
ATOM     15  C   UNL     1      10.693  17.101  40.427  1.00  0.00     0.027 A 
ATOM     16  C   UNL     1      10.918  20.050  42.365  1.00  0.00     0.016 A 
ATOM     17  C   UNL     1      10.229  21.937  41.047  1.00  0.00     0.077 A 
ATOM     18  C   UNL     1       9.959  23.933  40.289  1.00  0.00     0.052 A 
ATOM     19  C   UNL     1      11.535  17.711  43.055  1.00  0.00     0.011 A 
ATOM     20  C   UNL     1      11.171  16.090  41.276  1.00  0.00     0.002 A 
ATOM     21  C   UNL     1      11.201  20.895  43.453  1.00  0.00    -0.005 A 
ATOM     22  C   UNL     1      10.527  22.797  42.109  1.00  0.00     0.023 A 
ATOM     23  C   UNL     1      10.347  24.083  41.611  1.00  0.00     0.008 A 
ATOM     24  C   UNL     1       9.753  25.042  39.461  1.00  0.00     0.027 A 
ATOM     25  C   UNL     1      11.585  16.392  42.585  1.00  0.00     0.001 A 
ATOM     26  C   UNL     1      10.990  22.267  43.331  1.00  0.00     0.055 A 
ATOM     27  C   UNL     1      11.724  20.541  44.816  1.00  0.00     0.153 C 
ATOM     28  C   UNL     1      10.552  25.352  42.164  1.00  0.00     0.011 A 
ATOM     29  C   UNL     1       9.934  26.322  40.009  1.00  0.00     0.002 A 
ATOM     30  C   UNL     1      11.341  22.844  44.614  1.00  0.00     0.252 C 
ATOM     31  N   UNL     1      11.789  21.829  45.500  1.00  0.00    -0.348 N 
ATOM     32  C   UNL     1      10.332  26.476  41.350  1.00  0.00     0.001 A 
ATOM     33  O   UNL     1      11.212  24.046  44.960  1.00  0.00    -0.269 OA
ATOM     34  H   UNL     1      12.071  21.973  46.494  1.00  0.00     0.164 HD
BRANCH   4  35
ATOM     35  O   UNL     1      11.743  18.855  38.191  1.00  0.00    -0.374 OA
ATOM     36  C   UNL     1      12.073  17.632  37.561  1.00  0.00     0.195 C 
ENDBRANCH   4  35
ENDBRANCH   1   3
BRANCH   1  37
ATOM     37  C   UNL     1      11.769  19.730  34.804  1.00  0.00     0.253 C 
ATOM     38  O   UNL     1      12.734  19.008  34.434  1.00  0.00    -0.269 OA
BRANCH  37  39
ATOM     39  C   UNL     1      10.508  19.694  34.031  1.00  0.00     0.040 A 
ATOM     40  C   UNL     1      10.162  20.767  33.192  1.00  0.00     0.014 A 
ATOM     41  C   UNL     1       9.662  18.572  34.091  1.00  0.00     0.014 A 
ATOM     42  C   UNL     1       8.977  20.730  32.451  1.00  0.00     0.001 A 
ATOM     43  C   UNL     1       8.479  18.539  33.348  1.00  0.00     0.001 A 
ATOM     44  C   UNL     1       8.134  19.619  32.531  1.00  0.00     0.000 A 
ENDBRANCH  37  39
ENDBRANCH   1  37
TORSDOF 4
ENDMDL
MODEL 6
REMARK VINA RESULT:    -8.172     16.420     20.515
REMARK INTER + INTRA:         -10.244
REMARK INTER:                  -9.918
REMARK INTRA:                  -0.326
REMARK UNBOUND:                -0.161
REMARK SMILES CO[C@@H]1[C@H](N(C)C(=O)c2ccccc2)C[C@H]2O[C@]1(C)n1c3ccccc3c3c4c(c5c6ccccc6n2c5c31)C(=O)NC4
REMARK SMILES IDX 5 1 6 2 4 3 3 4 18 5 15 6 17 7 19 8 20 9 16 10 21 11 39 12
REMARK SMILES IDX 37 13 26 14 22 15 27 16 38 17 36 18 25 19 23 20 28 21 30 22
REMARK SMILES IDX 31 23 35 24 24 25 29 26 43 27 32 28 34 29 40 30 42 31 33 32
REMARK SMILES IDX 41 33 2 35 1 36 7 37 8 38 9 39 10 40 14 41 11 42 13 43 12 44
REMARK H PARENT 42 34
REMARK Flexibility Score: inf
ROOT
ATOM      1  N   UNL     1      13.365  21.481  39.371  1.00  0.00    -0.336 N 
ATOM      2  C   UNL     1      14.539  20.597  39.425  1.00  0.00     0.147 C 
ENDROOT
BRANCH   1   3
ATOM      3  C   UNL     1      12.080  21.109  40.000  1.00  0.00     0.123 C 
ATOM      4  C   UNL     1      11.229  20.161  39.119  1.00  0.00     0.193 C 
ATOM      5  C   UNL     1      10.030  19.530  39.951  1.00  0.00     0.173 C 
ATOM      6  C   UNL     1      12.268  20.478  41.372  1.00  0.00     0.083 C 
ATOM      7  O   UNL     1       9.795  20.236  41.168  1.00  0.00    -0.329 OA
ATOM      8  C   UNL     1       8.704  19.745  39.178  1.00  0.00     0.071 C 
ATOM      9  N   UNL     1      10.217  18.062  40.208  1.00  0.00    -0.307 N 
ATOM     10  C   UNL     1      10.896  20.361  42.051  1.00  0.00     0.224 C 
ATOM     11  C   UNL     1      10.088  17.024  39.314  1.00  0.00     0.052 A 
ATOM     12  C   UNL     1      10.415  17.425  41.404  1.00  0.00     0.077 A 
ATOM     13  N   UNL     1      10.886  19.254  42.994  1.00  0.00    -0.312 N 
ATOM     14  C   UNL     1      10.167  15.790  39.941  1.00  0.00     0.008 A 
ATOM     15  C   UNL     1       9.918  17.079  37.920  1.00  0.00     0.027 A 
ATOM     16  C   UNL     1      10.372  16.041  41.271  1.00  0.00     0.016 A 
ATOM     17  C   UNL     1      10.681  17.965  42.677  1.00  0.00     0.077 A 
ATOM     18  C   UNL     1      11.231  19.261  44.304  1.00  0.00     0.052 A 
ATOM     19  C   UNL     1      10.060  14.585  39.243  1.00  0.00     0.011 A 
ATOM     20  C   UNL     1       9.808  15.881  37.197  1.00  0.00     0.002 A 
ATOM     21  C   UNL     1      10.539  15.188  42.375  1.00  0.00    -0.005 A 
ATOM     22  C   UNL     1      10.874  17.134  43.784  1.00  0.00     0.023 A 
ATOM     23  C   UNL     1      11.226  17.979  44.830  1.00  0.00     0.008 A 
ATOM     24  C   UNL     1      11.609  20.364  45.078  1.00  0.00     0.027 A 
ATOM     25  C   UNL     1       9.874  14.640  37.855  1.00  0.00     0.001 A 
ATOM     26  C   UNL     1      10.775  15.734  43.636  1.00  0.00     0.055 A 
ATOM     27  C   UNL     1      10.502  13.688  42.428  1.00  0.00     0.153 C 
ATOM     28  C   UNL     1      11.606  17.742  46.156  1.00  0.00     0.011 A 
ATOM     29  C   UNL     1      11.971  20.144  46.416  1.00  0.00     0.002 A 
ATOM     30  C   UNL     1      10.869  14.612  44.550  1.00  0.00     0.252 C 
ATOM     31  N   UNL     1      10.719  13.392  43.841  1.00  0.00    -0.348 N 
ATOM     32  C   UNL     1      11.970  18.841  46.951  1.00  0.00     0.001 A 
ATOM     33  O   UNL     1      10.988  14.668  45.800  1.00  0.00    -0.269 OA
ATOM     34  H   UNL     1      10.716  12.439  44.268  1.00  0.00     0.164 HD
BRANCH   4  35
ATOM     35  O   UNL     1      12.048  19.127  38.586  1.00  0.00    -0.374 OA
ATOM     36  C   UNL     1      12.203  19.251  37.185  1.00  0.00     0.195 C 
ENDBRANCH   4  35
ENDBRANCH   1   3
BRANCH   1  37
ATOM     37  C   UNL     1      13.462  22.752  38.694  1.00  0.00     0.253 C 
ATOM     38  O   UNL     1      13.560  22.778  37.437  1.00  0.00    -0.269 OA
BRANCH  37  39
ATOM     39  C   UNL     1      13.444  24.031  39.439  1.00  0.00     0.040 A 
ATOM     40  C   UNL     1      14.649  24.619  39.862  1.00  0.00     0.014 A 
ATOM     41  C   UNL     1      12.231  24.694  39.697  1.00  0.00     0.014 A 
ATOM     42  C   UNL     1      14.636  25.833  40.556  1.00  0.00     0.001 A 
ATOM     43  C   UNL     1      12.223  25.907  40.390  1.00  0.00     0.001 A 
ATOM     44  C   UNL     1      13.424  26.475  40.822  1.00  0.00     0.000 A 
ENDBRANCH  37  39
ENDBRANCH   1  37
TORSDOF 4
ENDMDL
MODEL 7
REMARK VINA RESULT:    -8.130     16.163     20.169
REMARK INTER + INTRA:         -10.192
REMARK INTER:                  -9.639
REMARK INTRA:                  -0.553
REMARK UNBOUND:                -0.161
REMARK SMILES CO[C@@H]1[C@H](N(C)C(=O)c2ccccc2)C[C@H]2O[C@]1(C)n1c3ccccc3c3c4c(c5c6ccccc6n2c5c31)C(=O)NC4
REMARK SMILES IDX 5 1 6 2 4 3 3 4 18 5 15 6 17 7 19 8 20 9 16 10 21 11 39 12
REMARK SMILES IDX 37 13 26 14 22 15 27 16 38 17 36 18 25 19 23 20 28 21 30 22
REMARK SMILES IDX 31 23 35 24 24 25 29 26 43 27 32 28 34 29 40 30 42 31 33 32
REMARK SMILES IDX 41 33 2 35 1 36 7 37 8 38 9 39 10 40 14 41 11 42 13 43 12 44
REMARK H PARENT 42 34
REMARK Flexibility Score: inf
ROOT
ATOM      1  N   UNL     1      10.306  19.960  42.893  1.00  0.00    -0.336 N 
ATOM      2  C   UNL     1      10.221  19.694  44.338  1.00  0.00     0.147 C 
ENDROOT
BRANCH   1   3
ATOM      3  C   UNL     1      11.005  19.040  41.972  1.00  0.00     0.123 C 
ATOM      4  C   UNL     1      10.253  17.702  41.769  1.00  0.00     0.193 C 
ATOM      5  C   UNL     1      10.852  16.888  40.542  1.00  0.00     0.173 C 
ATOM      6  C   UNL     1      11.273  19.672  40.614  1.00  0.00     0.083 C 
ATOM      7  O   UNL     1      12.135  17.378  40.153  1.00  0.00    -0.329 OA
ATOM      8  C   UNL     1      11.170  15.441  40.995  1.00  0.00     0.071 C 
ATOM      9  N   UNL     1       9.915  16.842  39.369  1.00  0.00    -0.307 N 
ATOM     10  C   UNL     1      12.214  18.753  39.822  1.00  0.00     0.224 C 
ATOM     11  C   UNL     1       8.760  16.106  39.238  1.00  0.00     0.052 A 
ATOM     12  C   UNL     1      10.073  17.403  38.129  1.00  0.00     0.077 A 
ATOM     13  N   UNL     1      12.005  18.918  38.392  1.00  0.00    -0.312 N 
ATOM     14  C   UNL     1       8.243  16.180  37.954  1.00  0.00     0.008 A 
ATOM     15  C   UNL     1       8.081  15.353  40.212  1.00  0.00     0.027 A 
ATOM     16  C   UNL     1       9.077  17.002  37.246  1.00  0.00     0.016 A 
ATOM     17  C   UNL     1      11.043  18.316  37.673  1.00  0.00     0.077 A 
ATOM     18  C   UNL     1      12.597  19.799  37.551  1.00  0.00     0.052 A 
ATOM     19  C   UNL     1       7.075  15.514  37.575  1.00  0.00     0.011 A 
ATOM     20  C   UNL     1       6.906  14.674  39.853  1.00  0.00     0.002 A 
ATOM     21  C   UNL     1       9.050  17.449  35.913  1.00  0.00    -0.005 A 
ATOM     22  C   UNL     1      11.020  18.791  36.359  1.00  0.00     0.023 A 
ATOM     23  C   UNL     1      12.029  19.746  36.288  1.00  0.00     0.008 A 
ATOM     24  C   UNL     1      13.613  20.713  37.854  1.00  0.00     0.027 A 
ATOM     25  C   UNL     1       6.407  14.750  38.541  1.00  0.00     0.001 A 
ATOM     26  C   UNL     1      10.031  18.332  35.464  1.00  0.00     0.055 A 
ATOM     27  C   UNL     1       8.078  17.110  34.819  1.00  0.00     0.153 C 
ATOM     28  C   UNL     1      12.448  20.610  35.271  1.00  0.00     0.011 A 
ATOM     29  C   UNL     1      14.059  21.571  36.837  1.00  0.00     0.002 A 
ATOM     30  C   UNL     1       9.747  18.571  34.062  1.00  0.00     0.252 C 
ATOM     31  N   UNL     1       8.582  17.859  33.672  1.00  0.00    -0.348 N 
ATOM     32  C   UNL     1      13.480  21.521  35.554  1.00  0.00     0.001 A 
ATOM     33  O   UNL     1      10.442  19.240  33.257  1.00  0.00    -0.269 OA
ATOM     34  H   UNL     1       8.180  17.835  32.709  1.00  0.00     0.164 HD
BRANCH   4  35
ATOM     35  O   UNL     1       8.868  17.951  41.558  1.00  0.00    -0.374 OA
ATOM     36  C   UNL     1       8.081  17.487  42.638  1.00  0.00     0.195 C 
ENDBRANCH   4  35
ENDBRANCH   1   3
BRANCH   1  37
ATOM     37  C   UNL     1       9.689  21.147  42.351  1.00  0.00     0.253 C 
ATOM     38  O   UNL     1       8.553  21.062  41.811  1.00  0.00    -0.269 OA
BRANCH  37  39
ATOM     39  C   UNL     1      10.355  22.467  42.419  1.00  0.00     0.040 A 
ATOM     40  C   UNL     1      10.684  23.153  41.237  1.00  0.00     0.014 A 
ATOM     41  C   UNL     1      10.629  23.069  43.660  1.00  0.00     0.014 A 
ATOM     42  C   UNL     1      11.303  24.406  41.298  1.00  0.00     0.001 A 
ATOM     43  C   UNL     1      11.246  24.322  43.716  1.00  0.00     0.001 A 
ATOM     44  C   UNL     1      11.586  24.989  42.536  1.00  0.00     0.000 A 
ENDBRANCH  37  39
ENDBRANCH   1  37
TORSDOF 4
ENDMDL
MODEL 8
REMARK VINA RESULT:    -8.107     17.185     20.318
REMARK INTER + INTRA:         -10.164
REMARK INTER:                  -9.903
REMARK INTRA:                  -0.262
REMARK UNBOUND:                -0.161
REMARK SMILES CO[C@@H]1[C@H](N(C)C(=O)c2ccccc2)C[C@H]2O[C@]1(C)n1c3ccccc3c3c4c(c5c6ccccc6n2c5c31)C(=O)NC4
REMARK SMILES IDX 5 1 6 2 4 3 3 4 18 5 15 6 17 7 19 8 20 9 16 10 21 11 39 12
REMARK SMILES IDX 37 13 26 14 22 15 27 16 38 17 36 18 25 19 23 20 28 21 30 22
REMARK SMILES IDX 31 23 35 24 24 25 29 26 43 27 32 28 34 29 40 30 42 31 33 32
REMARK SMILES IDX 41 33 2 35 1 36 7 37 8 38 9 39 10 40 14 41 11 42 13 43 12 44
REMARK H PARENT 42 34
REMARK Flexibility Score: inf
ROOT
ATOM      1  N   UNL     1      10.359  23.689  39.316  1.00  0.00    -0.336 N 
ATOM      2  C   UNL     1       8.971  23.524  39.776  1.00  0.00     0.147 C 
ENDROOT
BRANCH   1   3
ATOM      3  C   UNL     1      11.162  22.544  38.837  1.00  0.00     0.123 C 
ATOM      4  C   UNL     1      11.772  21.710  39.989  1.00  0.00     0.193 C 
ATOM      5  C   UNL     1      12.341  20.325  39.455  1.00  0.00     0.173 C 
ATOM      6  C   UNL     1      10.368  21.623  37.921  1.00  0.00     0.083 C 
ATOM      7  O   UNL     1      12.492  20.322  38.036  1.00  0.00    -0.329 OA
ATOM      8  C   UNL     1      13.800  20.149  39.947  1.00  0.00     0.071 C 
ATOM      9  N   UNL     1      11.522  19.152  39.912  1.00  0.00    -0.307 N 
ATOM     10  C   UNL     1      11.335  20.621  37.275  1.00  0.00     0.224 C 
ATOM     11  C   UNL     1      11.469  18.596  41.169  1.00  0.00     0.052 A 
ATOM     12  C   UNL     1      10.766  18.295  39.156  1.00  0.00     0.077 A 
ATOM     13  N   UNL     1      10.644  19.385  36.944  1.00  0.00    -0.312 N 
ATOM     14  C   UNL     1      10.736  17.419  41.183  1.00  0.00     0.008 A 
ATOM     15  C   UNL     1      12.023  19.076  42.368  1.00  0.00     0.027 A 
ATOM     16  C   UNL     1      10.290  17.223  39.904  1.00  0.00     0.016 A 
ATOM     17  C   UNL     1      10.398  18.379  37.800  1.00  0.00     0.077 A 
ATOM     18  C   UNL     1       9.984  19.069  35.804  1.00  0.00     0.052 A 
ATOM     19  C   UNL     1      10.542  16.669  42.345  1.00  0.00     0.011 A 
ATOM     20  C   UNL     1      11.842  18.338  43.548  1.00  0.00     0.002 A 
ATOM     21  C   UNL     1       9.500  16.214  39.326  1.00  0.00    -0.005 A 
ATOM     22  C   UNL     1       9.593  17.399  37.212  1.00  0.00     0.023 A 
ATOM     23  C   UNL     1       9.333  17.851  35.923  1.00  0.00     0.008 A 
ATOM     24  C   UNL     1       9.878  19.840  34.641  1.00  0.00     0.027 A 
ATOM     25  C   UNL     1      11.109  17.138  43.537  1.00  0.00     0.001 A 
ATOM     26  C   UNL     1       9.164  16.293  37.976  1.00  0.00     0.055 A 
ATOM     27  C   UNL     1       8.921  14.984  39.963  1.00  0.00     0.153 C 
ATOM     28  C   UNL     1       8.541  17.352  34.883  1.00  0.00     0.011 A 
ATOM     29  C   UNL     1       9.105  19.341  33.581  1.00  0.00     0.002 A 
ATOM     30  C   UNL     1       8.383  15.106  37.684  1.00  0.00     0.252 C 
ATOM     31  N   UNL     1       8.224  14.327  38.861  1.00  0.00    -0.348 N 
ATOM     32  C   UNL     1       8.440  18.106  33.702  1.00  0.00     0.001 A 
ATOM     33  O   UNL     1       7.957  14.743  36.560  1.00  0.00    -0.269 OA
ATOM     34  H   UNL     1       7.730  13.409  38.917  1.00  0.00     0.164 HD
BRANCH   4  35
ATOM     35  O   UNL     1      10.791  21.478  40.993  1.00  0.00    -0.374 OA
ATOM     36  C   UNL     1      11.061  22.214  42.171  1.00  0.00     0.195 C 
ENDBRANCH   4  35
ENDBRANCH   1   3
BRANCH   1  37
ATOM     37  C   UNL     1      10.959  25.002  39.322  1.00  0.00     0.253 C 
ATOM     38  O   UNL     1      10.369  25.955  38.745  1.00  0.00    -0.269 OA
BRANCH  37  39
ATOM     39  C   UNL     1      12.251  25.260  39.995  1.00  0.00     0.040 A 
ATOM     40  C   UNL     1      13.458  25.112  39.290  1.00  0.00     0.014 A 
ATOM     41  C   UNL     1      12.289  25.696  41.332  1.00  0.00     0.014 A 
ATOM     42  C   UNL     1      14.679  25.367  39.920  1.00  0.00     0.001 A 
ATOM     43  C   UNL     1      13.512  25.951  41.957  1.00  0.00     0.001 A 
ATOM     44  C   UNL     1      14.707  25.784  41.253  1.00  0.00     0.000 A 
ENDBRANCH  37  39
ENDBRANCH   1  37
TORSDOF 4
ENDMDL
MODEL 9
REMARK VINA RESULT:    -8.083     16.114     20.046
REMARK INTER + INTRA:         -10.134
REMARK INTER:                  -9.829
REMARK INTRA:                  -0.305
REMARK UNBOUND:                -0.161
REMARK SMILES CO[C@@H]1[C@H](N(C)C(=O)c2ccccc2)C[C@H]2O[C@]1(C)n1c3ccccc3c3c4c(c5c6ccccc6n2c5c31)C(=O)NC4
REMARK SMILES IDX 5 1 6 2 4 3 3 4 18 5 15 6 17 7 19 8 20 9 16 10 21 11 39 12
REMARK SMILES IDX 37 13 26 14 22 15 27 16 38 17 36 18 25 19 23 20 28 21 30 22
REMARK SMILES IDX 31 23 35 24 24 25 29 26 43 27 32 28 34 29 40 30 42 31 33 32
REMARK SMILES IDX 41 33 2 35 1 36 7 37 8 38 9 39 10 40 14 41 11 42 13 43 12 44
REMARK H PARENT 42 34
REMARK Flexibility Score: inf
ROOT
ATOM      1  N   UNL     1      12.966  20.645  37.325  1.00  0.00    -0.336 N 
ATOM      2  C   UNL     1      14.241  20.241  37.938  1.00  0.00     0.147 C 
ENDROOT
BRANCH   1   3
ATOM      3  C   UNL     1      11.704  20.667  38.095  1.00  0.00     0.123 C 
ATOM      4  C   UNL     1      11.057  19.268  38.235  1.00  0.00     0.193 C 
ATOM      5  C   UNL     1       9.902  19.278  39.327  1.00  0.00     0.173 C 
ATOM      6  C   UNL     1      11.881  21.276  39.479  1.00  0.00     0.083 C 
ATOM      7  O   UNL     1       9.486  20.604  39.651  1.00  0.00    -0.329 OA
ATOM      8  C   UNL     1       8.617  18.663  38.717  1.00  0.00     0.071 C 
ATOM      9  N   UNL     1      10.273  18.512  40.565  1.00  0.00    -0.307 N 
ATOM     10  C   UNL     1      10.494  21.492  40.100  1.00  0.00     0.224 C 
ATOM     11  C   UNL     1      10.353  17.148  40.724  1.00  0.00     0.052 A 
ATOM     12  C   UNL     1      10.473  18.989  41.834  1.00  0.00     0.077 A 
ATOM     13  N   UNL     1      10.571  21.440  41.551  1.00  0.00    -0.312 N 
ATOM     14  C   UNL     1      10.558  16.793  42.048  1.00  0.00     0.008 A 
ATOM     15  C   UNL     1      10.276  16.143  39.745  1.00  0.00     0.027 A 
ATOM     16  C   UNL     1      10.632  17.961  42.757  1.00  0.00     0.016 A 
ATOM     17  C   UNL     1      10.570  20.318  42.290  1.00  0.00     0.077 A 
ATOM     18  C   UNL     1      10.818  22.451  42.419  1.00  0.00     0.052 A 
ATOM     19  C   UNL     1      10.670  15.463  42.461  1.00  0.00     0.011 A 
ATOM     20  C   UNL     1      10.385  14.799  40.136  1.00  0.00     0.002 A 
ATOM     21  C   UNL     1      10.838  18.223  44.123  1.00  0.00    -0.005 A 
ATOM     22  C   UNL     1      10.799  20.599  43.640  1.00  0.00     0.023 A 
ATOM     23  C   UNL     1      10.954  21.979  43.714  1.00  0.00     0.008 A 
ATOM     24  C   UNL     1      10.984  23.808  42.117  1.00  0.00     0.027 A 
ATOM     25  C   UNL     1      10.577  14.460  41.488  1.00  0.00     0.001 A 
ATOM     26  C   UNL     1      10.906  19.542  44.568  1.00  0.00     0.055 A 
ATOM     27  C   UNL     1      11.007  17.253  45.258  1.00  0.00     0.153 C 
ATOM     28  C   UNL     1      11.269  22.843  44.768  1.00  0.00     0.011 A 
ATOM     29  C   UNL     1      11.278  24.690  43.169  1.00  0.00     0.002 A 
ATOM     30  C   UNL     1      11.090  19.474  46.005  1.00  0.00     0.252 C 
ATOM     31  N   UNL     1      11.163  18.119  46.423  1.00  0.00    -0.348 N 
ATOM     32  C   UNL     1      11.420  24.211  44.485  1.00  0.00     0.001 A 
ATOM     33  O   UNL     1      11.112  20.440  46.808  1.00  0.00    -0.269 OA
ATOM     34  H   UNL     1      11.262  17.794  47.411  1.00  0.00     0.164 HD
BRANCH   4  35
ATOM     35  O   UNL     1      12.048  18.308  38.584  1.00  0.00    -0.374 OA
ATOM     36  C   UNL     1      12.261  17.373  37.544  1.00  0.00     0.195 C 
ENDBRANCH   4  35
ENDBRANCH   1   3
BRANCH   1  37
ATOM     37  C   UNL     1      12.937  21.039  35.936  1.00  0.00     0.253 C 
ATOM     38  O   UNL     1      13.878  21.739  35.472  1.00  0.00    -0.269 OA
BRANCH  37  39
ATOM     39  C   UNL     1      11.832  20.635  35.039  1.00  0.00     0.040 A 
ATOM     40  C   UNL     1      10.803  21.543  34.733  1.00  0.00     0.014 A 
ATOM     41  C   UNL     1      11.817  19.359  34.448  1.00  0.00     0.014 A 
ATOM     42  C   UNL     1       9.764  21.168  33.877  1.00  0.00     0.001 A 
ATOM     43  C   UNL     1      10.777  18.989  33.591  1.00  0.00     0.001 A 
ATOM     44  C   UNL     1       9.749  19.892  33.308  1.00  0.00     0.000 A 
ENDBRANCH  37  39
ENDBRANCH   1  37
TORSDOF 4
ENDMDL
MODEL 10
REMARK VINA RESULT:    -8.069     15.994     19.889
REMARK INTER + INTRA:         -10.117
REMARK INTER:                 -10.007
REMARK INTRA:                  -0.110
REMARK UNBOUND:                -0.161
REMARK SMILES CO[C@@H]1[C@H](N(C)C(=O)c2ccccc2)C[C@H]2O[C@]1(C)n1c3ccccc3c3c4c(c5c6ccccc6n2c5c31)C(=O)NC4
REMARK SMILES IDX 5 1 6 2 4 3 3 4 18 5 15 6 17 7 19 8 20 9 16 10 21 11 39 12
REMARK SMILES IDX 37 13 26 14 22 15 27 16 38 17 36 18 25 19 23 20 28 21 30 22
REMARK SMILES IDX 31 23 35 24 24 25 29 26 43 27 32 28 34 29 40 30 42 31 33 32
REMARK SMILES IDX 41 33 2 35 1 36 7 37 8 38 9 39 10 40 14 41 11 42 13 43 12 44
REMARK H PARENT 42 34
REMARK Flexibility Score: inf
ROOT
ATOM      1  N   UNL     1      11.510  20.287  35.817  1.00  0.00    -0.336 N 
ATOM      2  C   UNL     1      11.324  19.474  34.604  1.00  0.00     0.147 C 
ENDROOT
BRANCH   1   3
ATOM      3  C   UNL     1      10.418  20.493  36.791  1.00  0.00     0.123 C 
ATOM      4  C   UNL     1      10.091  19.222  37.611  1.00  0.00     0.193 C 
ATOM      5  C   UNL     1       9.157  19.564  38.852  1.00  0.00     0.173 C 
ATOM      6  C   UNL     1      10.703  21.643  37.747  1.00  0.00     0.083 C 
ATOM      7  O   UNL     1       8.551  20.850  38.724  1.00  0.00    -0.329 OA
ATOM      8  C   UNL     1       7.934  18.614  38.848  1.00  0.00     0.071 C 
ATOM      9  N   UNL     1       9.875  19.436  40.165  1.00  0.00    -0.307 N 
ATOM     10  C   UNL     1       9.427  21.948  38.543  1.00  0.00     0.224 C 
ATOM     11  C   UNL     1      10.246  18.283  40.816  1.00  0.00     0.052 A 
ATOM     12  C   UNL     1      10.189  20.421  41.064  1.00  0.00     0.077 A 
ATOM     13  N   UNL     1       9.757  22.520  39.838  1.00  0.00    -0.312 N 
ATOM     14  C   UNL     1      10.739  18.542  42.086  1.00  0.00     0.008 A 
ATOM     15  C   UNL     1      10.203  16.957  40.352  1.00  0.00     0.027 A 
ATOM     16  C   UNL     1      10.701  19.901  42.248  1.00  0.00     0.016 A 
ATOM     17  C   UNL     1      10.101  21.820  40.932  1.00  0.00     0.077 A 
ATOM     18  C   UNL     1       9.944  23.823  40.161  1.00  0.00     0.052 A 
ATOM     19  C   UNL     1      11.177  17.530  42.943  1.00  0.00     0.011 A 
ATOM     20  C   UNL     1      10.638  15.923  41.197  1.00  0.00     0.002 A 
ATOM     21  C   UNL     1      11.080  20.733  43.316  1.00  0.00    -0.005 A 
ATOM     22  C   UNL     1      10.495  22.666  41.972  1.00  0.00     0.023 A 
ATOM     23  C   UNL     1      10.387  23.957  41.467  1.00  0.00     0.008 A 
ATOM     24  C   UNL     1       9.788  24.936  39.327  1.00  0.00     0.027 A 
ATOM     25  C   UNL     1      11.118  16.207  42.487  1.00  0.00     0.001 A 
ATOM     26  C   UNL     1      10.962  22.116  43.185  1.00  0.00     0.055 A 
ATOM     27  C   UNL     1      11.625  20.356  44.664  1.00  0.00     0.153 C 
ATOM     28  C   UNL     1      10.701  25.213  41.997  1.00  0.00     0.011 A 
ATOM     29  C   UNL     1      10.077  26.205  39.853  1.00  0.00     0.002 A 
ATOM     30  C   UNL     1      11.397  22.679  44.448  1.00  0.00     0.252 C 
ATOM     31  N   UNL     1      11.803  21.643  45.330  1.00  0.00    -0.348 N 
ATOM     32  C   UNL     1      10.531  26.342  41.178  1.00  0.00     0.001 A 
ATOM     33  O   UNL     1      11.364  23.890  44.784  1.00  0.00    -0.269 OA
ATOM     34  H   UNL     1      12.129  21.776  46.312  1.00  0.00     0.164 HD
BRANCH   4  35
ATOM     35  O   UNL     1      11.295  18.612  38.062  1.00  0.00    -0.374 OA
ATOM     36  C   UNL     1      11.500  17.349  37.459  1.00  0.00     0.195 C 
ENDBRANCH   4  35
ENDBRANCH   1   3
BRANCH   1  37
ATOM     37  C   UNL     1      12.792  20.898  36.074  1.00  0.00     0.253 C 
ATOM     38  O   UNL     1      13.258  21.730  35.249  1.00  0.00    -0.269 OA
BRANCH  37  39
ATOM     39  C   UNL     1      13.575  20.576  37.288  1.00  0.00     0.040 A 
ATOM     40  C   UNL     1      13.500  21.410  38.418  1.00  0.00     0.014 A 
ATOM     41  C   UNL     1      14.367  19.416  37.345  1.00  0.00     0.014 A 
ATOM     42  C   UNL     1      14.228  21.103  39.570  1.00  0.00     0.001 A 
ATOM     43  C   UNL     1      15.092  19.112  38.500  1.00  0.00     0.001 A 
ATOM     44  C   UNL     1      15.026  19.957  39.611  1.00  0.00     0.000 A 
ENDBRANCH  37  39
ENDBRANCH   1  37
TORSDOF 4
ENDMDL
MODEL 11
REMARK VINA RESULT:    -8.068     16.689     20.382
REMARK INTER + INTRA:         -10.116
REMARK INTER:                  -9.670
REMARK INTRA:                  -0.446
REMARK UNBOUND:                -0.161
REMARK SMILES CO[C@@H]1[C@H](N(C)C(=O)c2ccccc2)C[C@H]2O[C@]1(C)n1c3ccccc3c3c4c(c5c6ccccc6n2c5c31)C(=O)NC4
REMARK SMILES IDX 5 1 6 2 4 3 3 4 18 5 15 6 17 7 19 8 20 9 16 10 21 11 39 12
REMARK SMILES IDX 37 13 26 14 22 15 27 16 38 17 36 18 25 19 23 20 28 21 30 22
REMARK SMILES IDX 31 23 35 24 24 25 29 26 43 27 32 28 34 29 40 30 42 31 33 32
REMARK SMILES IDX 41 33 2 35 1 36 7 37 8 38 9 39 10 40 14 41 11 42 13 43 12 44
REMARK H PARENT 42 34
REMARK Flexibility Score: inf
ROOT
ATOM      1  N   UNL     1      12.619  19.461  38.989  1.00  0.00    -0.336 N 
ATOM      2  C   UNL     1      13.206  19.056  40.277  1.00  0.00     0.147 C 
ENDROOT
BRANCH   1   3
ATOM      3  C   UNL     1      11.976  20.779  38.808  1.00  0.00     0.123 C 
ATOM      4  C   UNL     1      10.487  20.789  39.233  1.00  0.00     0.193 C 
ATOM      5  C   UNL     1       9.929  22.274  39.334  1.00  0.00     0.173 C 
ATOM      6  C   UNL     1      12.711  21.889  39.545  1.00  0.00     0.083 C 
ATOM      7  O   UNL     1      10.783  23.210  38.676  1.00  0.00    -0.329 OA
ATOM      8  C   UNL     1       8.619  22.384  38.516  1.00  0.00     0.071 C 
ATOM      9  N   UNL     1       9.662  22.694  40.751  1.00  0.00    -0.307 N 
ATOM     10  C   UNL     1      12.135  23.240  39.099  1.00  0.00     0.224 C 
ATOM     11  C   UNL     1       8.630  22.296  41.569  1.00  0.00     0.052 A 
ATOM     12  C   UNL     1      10.293  23.662  41.487  1.00  0.00     0.077 A 
ATOM     13  N   UNL     1      12.288  24.233  40.150  1.00  0.00    -0.312 N 
ATOM     14  C   UNL     1       8.603  23.017  42.753  1.00  0.00     0.008 A 
ATOM     15  C   UNL     1       7.676  21.286  41.356  1.00  0.00     0.027 A 
ATOM     16  C   UNL     1       9.658  23.888  42.703  1.00  0.00     0.016 A 
ATOM     17  C   UNL     1      11.464  24.389  41.199  1.00  0.00     0.077 A 
ATOM     18  C   UNL     1      13.335  25.063  40.378  1.00  0.00     0.052 A 
ATOM     19  C   UNL     1       7.645  22.797  43.745  1.00  0.00     0.011 A 
ATOM     20  C   UNL     1       6.703  21.048  42.339  1.00  0.00     0.002 A 
ATOM     21  C   UNL     1      10.130  24.849  43.614  1.00  0.00    -0.005 A 
ATOM     22  C   UNL     1      11.964  25.332  42.101  1.00  0.00     0.023 A 
ATOM     23  C   UNL     1      13.170  25.764  41.562  1.00  0.00     0.008 A 
ATOM     24  C   UNL     1      14.490  25.208  39.601  1.00  0.00     0.027 A 
ATOM     25  C   UNL     1       6.683  21.802  43.526  1.00  0.00     0.001 A 
ATOM     26  C   UNL     1      11.275  25.583  43.306  1.00  0.00     0.055 A 
ATOM     27  C   UNL     1       9.569  25.245  44.949  1.00  0.00     0.153 C 
ATOM     28  C   UNL     1      14.158  26.639  42.026  1.00  0.00     0.011 A 
ATOM     29  C   UNL     1      15.480  26.099  40.043  1.00  0.00     0.002 A 
ATOM     30  C   UNL     1      11.477  26.497  44.414  1.00  0.00     0.252 C 
ATOM     31  N   UNL     1      10.476  26.296  45.401  1.00  0.00    -0.348 N 
ATOM     32  C   UNL     1      15.316  26.810  41.247  1.00  0.00     0.001 A 
ATOM     33  O   UNL     1      12.349  27.398  44.497  1.00  0.00    -0.269 OA
ATOM     34  H   UNL     1      10.376  26.845  46.283  1.00  0.00     0.164 HD
BRANCH   4  35
ATOM     35  O   UNL     1      10.335  20.126  40.483  1.00  0.00    -0.374 OA
ATOM     36  C   UNL     1       9.602  18.923  40.353  1.00  0.00     0.195 C 
ENDBRANCH   4  35
ENDBRANCH   1   3
BRANCH   1  37
ATOM     37  C   UNL     1      12.674  18.556  37.867  1.00  0.00     0.253 C 
ATOM     38  O   UNL     1      13.578  18.700  36.998  1.00  0.00    -0.269 OA
BRANCH  37  39
ATOM     39  C   UNL     1      11.698  17.455  37.710  1.00  0.00     0.040 A 
ATOM     40  C   UNL     1      10.457  17.694  37.094  1.00  0.00     0.014 A 
ATOM     41  C   UNL     1      12.012  16.152  38.135  1.00  0.00     0.014 A 
ATOM     42  C   UNL     1       9.537  16.653  36.934  1.00  0.00     0.001 A 
ATOM     43  C   UNL     1      11.090  15.114  37.971  1.00  0.00     0.001 A 
ATOM     44  C   UNL     1       9.852  15.365  37.375  1.00  0.00     0.000 A 
ENDBRANCH  37  39
ENDBRANCH   1  37
TORSDOF 4
ENDMDL
MODEL 12
REMARK VINA RESULT:    -8.066     16.738     20.631
REMARK INTER + INTRA:         -10.114
REMARK INTER:                  -9.660
REMARK INTRA:                  -0.454
REMARK UNBOUND:                -0.161
REMARK SMILES CO[C@@H]1[C@H](N(C)C(=O)c2ccccc2)C[C@H]2O[C@]1(C)n1c3ccccc3c3c4c(c5c6ccccc6n2c5c31)C(=O)NC4
REMARK SMILES IDX 5 1 6 2 4 3 3 4 18 5 15 6 17 7 19 8 20 9 16 10 21 11 39 12
REMARK SMILES IDX 37 13 26 14 22 15 27 16 38 17 36 18 25 19 23 20 28 21 30 22
REMARK SMILES IDX 31 23 35 24 24 25 29 26 43 27 32 28 34 29 40 30 42 31 33 32
REMARK SMILES IDX 41 33 2 35 1 36 7 37 8 38 9 39 10 40 14 41 11 42 13 43 12 44
REMARK H PARENT 42 34
REMARK Flexibility Score: inf
ROOT
ATOM      1  N   UNL     1      10.621  20.804  45.704  1.00  0.00    -0.336 N 
ATOM      2  C   UNL     1      10.180  21.577  46.876  1.00  0.00     0.147 C 
ENDROOT
BRANCH   1   3
ATOM      3  C   UNL     1       9.928  20.902  44.402  1.00  0.00     0.123 C 
ATOM      4  C   UNL     1      10.009  22.317  43.779  1.00  0.00     0.193 C 
ATOM      5  C   UNL     1       9.548  22.300  42.257  1.00  0.00     0.173 C 
ATOM      6  C   UNL     1      10.441  19.883  43.395  1.00  0.00     0.083 C 
ATOM      7  O   UNL     1       8.838  21.107  41.929  1.00  0.00    -0.329 OA
ATOM      8  C   UNL     1       8.479  23.398  42.036  1.00  0.00     0.071 C 
ATOM      9  N   UNL     1      10.690  22.526  41.308  1.00  0.00    -0.307 N 
ATOM     10  C   UNL     1       9.506  19.883  42.177  1.00  0.00     0.224 C 
ATOM     11  C   UNL     1      11.354  23.703  41.049  1.00  0.00     0.052 A 
ATOM     12  C   UNL     1      11.223  21.656  40.393  1.00  0.00     0.077 A 
ATOM     13  N   UNL     1      10.226  19.475  40.981  1.00  0.00    -0.312 N 
ATOM     14  C   UNL     1      12.240  23.574  39.990  1.00  0.00     0.008 A 
ATOM     15  C   UNL     1      11.253  24.935  41.716  1.00  0.00     0.027 A 
ATOM     16  C   UNL     1      12.156  22.274  39.569  1.00  0.00     0.016 A 
ATOM     17  C   UNL     1      10.985  20.279  40.219  1.00  0.00     0.077 A 
ATOM     18  C   UNL     1      10.413  18.223  40.497  1.00  0.00     0.052 A 
ATOM     19  C   UNL     1      13.028  24.634  39.537  1.00  0.00     0.011 A 
ATOM     20  C   UNL     1      12.036  26.015  41.278  1.00  0.00     0.002 A 
ATOM     21  C   UNL     1      12.821  21.570  38.550  1.00  0.00    -0.005 A 
ATOM     22  C   UNL     1      11.653  19.555  39.227  1.00  0.00     0.023 A 
ATOM     23  C   UNL     1      11.275  18.230  39.412  1.00  0.00     0.008 A 
ATOM     24  C   UNL     1       9.888  17.029  41.002  1.00  0.00     0.027 A 
ATOM     25  C   UNL     1      12.915  25.868  40.191  1.00  0.00     0.001 A 
ATOM     26  C   UNL     1      12.558  20.213  38.368  1.00  0.00     0.055 A 
ATOM     27  C   UNL     1      13.832  22.069  37.558  1.00  0.00     0.153 C 
ATOM     28  C   UNL     1      11.657  17.038  38.786  1.00  0.00     0.011 A 
ATOM     29  C   UNL     1      10.244  15.827  40.370  1.00  0.00     0.002 A 
ATOM     30  C   UNL     1      13.364  19.795  37.237  1.00  0.00     0.252 C 
ATOM     31  N   UNL     1      14.133  20.887  36.756  1.00  0.00    -0.348 N 
ATOM     32  C   UNL     1      11.123  15.832  39.271  1.00  0.00     0.001 A 
ATOM     33  O   UNL     1      13.358  18.666  36.685  1.00  0.00    -0.269 OA
ATOM     34  H   UNL     1      14.772  20.861  35.931  1.00  0.00     0.164 HD
BRANCH   4  35
ATOM     35  O   UNL     1      11.338  22.815  43.879  1.00  0.00    -0.374 OA
ATOM     36  C   UNL     1      11.418  23.923  44.756  1.00  0.00     0.195 C 
ENDBRANCH   4  35
ENDBRANCH   1   3
BRANCH   1  37
ATOM     37  C   UNL     1      11.763  19.929  45.817  1.00  0.00     0.253 C 
ATOM     38  O   UNL     1      12.902  20.351  45.476  1.00  0.00    -0.269 OA
BRANCH  37  39
ATOM     39  C   UNL     1      11.633  18.548  46.331  1.00  0.00     0.040 A 
ATOM     40  C   UNL     1      11.501  18.317  47.711  1.00  0.00     0.014 A 
ATOM     41  C   UNL     1      11.598  17.454  45.447  1.00  0.00     0.014 A 
ATOM     42  C   UNL     1      11.367  17.013  48.198  1.00  0.00     0.001 A 
ATOM     43  C   UNL     1      11.462  16.153  45.939  1.00  0.00     0.001 A 
ATOM     44  C   UNL     1      11.350  15.932  47.314  1.00  0.00     0.000 A 
ENDBRANCH  37  39
ENDBRANCH   1  37
TORSDOF 4
ENDMDL
MODEL 13
REMARK VINA RESULT:    -7.882     16.378     19.716
REMARK INTER + INTRA:          -9.886
REMARK INTER:                  -9.203
REMARK INTRA:                  -0.683
REMARK UNBOUND:                -0.161
REMARK SMILES CO[C@@H]1[C@H](N(C)C(=O)c2ccccc2)C[C@H]2O[C@]1(C)n1c3ccccc3c3c4c(c5c6ccccc6n2c5c31)C(=O)NC4
REMARK SMILES IDX 5 1 6 2 4 3 3 4 18 5 15 6 17 7 19 8 20 9 16 10 21 11 39 12
REMARK SMILES IDX 37 13 26 14 22 15 27 16 38 17 36 18 25 19 23 20 28 21 30 22
REMARK SMILES IDX 31 23 35 24 24 25 29 26 43 27 32 28 34 29 40 30 42 31 33 32
REMARK SMILES IDX 41 33 2 35 1 36 7 37 8 38 9 39 10 40 14 41 11 42 13 43 12 44
REMARK H PARENT 42 34
REMARK Flexibility Score: inf
ROOT
ATOM      1  N   UNL     1       7.102  19.103  36.859  1.00  0.00    -0.336 N 
ATOM      2  C   UNL     1       6.519  17.784  36.566  1.00  0.00     0.147 C 
ENDROOT
BRANCH   1   3
ATOM      3  C   UNL     1       7.587  19.457  38.209  1.00  0.00     0.123 C 
ATOM      4  C   UNL     1       8.946  18.800  38.554  1.00  0.00     0.193 C 
ATOM      5  C   UNL     1       9.584  19.453  39.856  1.00  0.00     0.173 C 
ATOM      6  C   UNL     1       7.696  20.962  38.410  1.00  0.00     0.083 C 
ATOM      7  O   UNL     1       8.626  20.208  40.597  1.00  0.00    -0.329 OA
ATOM      8  C   UNL     1       9.969  18.331  40.853  1.00  0.00     0.071 C 
ATOM      9  N   UNL     1      10.800  20.278  39.549  1.00  0.00    -0.307 N 
ATOM     10  C   UNL     1       7.955  21.241  39.897  1.00  0.00     0.224 C 
ATOM     11  C   UNL     1      12.057  19.836  39.207  1.00  0.00     0.052 A 
ATOM     12  C   UNL     1      10.967  21.632  39.680  1.00  0.00     0.077 A 
ATOM     13  N   UNL     1       8.683  22.488  40.063  1.00  0.00    -0.312 N 
ATOM     14  C   UNL     1      12.975  20.874  39.162  1.00  0.00     0.008 A 
ATOM     15  C   UNL     1      12.477  18.532  38.895  1.00  0.00     0.027 A 
ATOM     16  C   UNL     1      12.286  22.017  39.466  1.00  0.00     0.016 A 
ATOM     17  C   UNL     1      10.014  22.632  39.951  1.00  0.00     0.077 A 
ATOM     18  C   UNL     1       8.187  23.743  40.194  1.00  0.00     0.052 A 
ATOM     19  C   UNL     1      14.320  20.675  38.840  1.00  0.00     0.011 A 
ATOM     20  C   UNL     1      13.824  18.307  38.569  1.00  0.00     0.002 A 
ATOM     21  C   UNL     1      12.686  23.362  39.560  1.00  0.00    -0.005 A 
ATOM     22  C   UNL     1      10.387  23.977  40.026  1.00  0.00     0.023 A 
ATOM     23  C   UNL     1       9.201  24.686  40.186  1.00  0.00     0.008 A 
ATOM     24  C   UNL     1       6.842  24.120  40.274  1.00  0.00     0.027 A 
ATOM     25  C   UNL     1      14.742  19.372  38.546  1.00  0.00     0.001 A 
ATOM     26  C   UNL     1      11.740  24.341  39.856  1.00  0.00     0.055 A 
ATOM     27  C   UNL     1      14.054  23.957  39.387  1.00  0.00     0.153 C 
ATOM     28  C   UNL     1       8.915  26.054  40.252  1.00  0.00     0.011 A 
ATOM     29  C   UNL     1       6.541  25.488  40.363  1.00  0.00     0.002 A 
ATOM     30  C   UNL     1      12.463  25.596  39.913  1.00  0.00     0.252 C 
ATOM     31  N   UNL     1      13.836  25.381  39.625  1.00  0.00    -0.348 N 
ATOM     32  C   UNL     1       7.570  26.449  40.351  1.00  0.00     0.001 A 
ATOM     33  O   UNL     1      12.000  26.718  40.239  1.00  0.00    -0.269 OA
ATOM     34  H   UNL     1      14.579  26.115  39.631  1.00  0.00     0.164 HD
BRANCH   4  35
ATOM     35  O   UNL     1       9.841  18.931  37.456  1.00  0.00    -0.374 OA
ATOM     36  C   UNL     1      10.157  17.676  36.885  1.00  0.00     0.195 C 
ENDBRANCH   4  35
ENDBRANCH   1   3
BRANCH   1  37
ATOM     37  C   UNL     1       7.212  20.082  35.804  1.00  0.00     0.253 C 
ATOM     38  O   UNL     1       6.345  20.993  35.712  1.00  0.00    -0.269 OA
BRANCH  37  39
ATOM     39  C   UNL     1       8.324  20.049  34.829  1.00  0.00     0.040 A 
ATOM     40  C   UNL     1       9.338  21.022  34.880  1.00  0.00     0.014 A 
ATOM     41  C   UNL     1       8.406  19.025  33.869  1.00  0.00     0.014 A 
ATOM     42  C   UNL     1      10.396  20.986  33.967  1.00  0.00     0.001 A 
ATOM     43  C   UNL     1       9.467  18.992  32.960  1.00  0.00     0.001 A 
ATOM     44  C   UNL     1      10.460  19.974  33.006  1.00  0.00     0.000 A 
ENDBRANCH  37  39
ENDBRANCH   1  37
TORSDOF 4
ENDMDL
MODEL 14
REMARK VINA RESULT:    -7.838     16.776     20.619
REMARK INTER + INTRA:          -9.832
REMARK INTER:                  -9.199
REMARK INTRA:                  -0.633
REMARK UNBOUND:                -0.161
REMARK SMILES CO[C@@H]1[C@H](N(C)C(=O)c2ccccc2)C[C@H]2O[C@]1(C)n1c3ccccc3c3c4c(c5c6ccccc6n2c5c31)C(=O)NC4
REMARK SMILES IDX 5 1 6 2 4 3 3 4 18 5 15 6 17 7 19 8 20 9 16 10 21 11 39 12
REMARK SMILES IDX 37 13 26 14 22 15 27 16 38 17 36 18 25 19 23 20 28 21 30 22
REMARK SMILES IDX 31 23 35 24 24 25 29 26 43 27 32 28 34 29 40 30 42 31 33 32
REMARK SMILES IDX 41 33 2 35 1 36 7 37 8 38 9 39 10 40 14 41 11 42 13 43 12 44
REMARK H PARENT 42 34
REMARK Flexibility Score: inf
ROOT
ATOM      1  N   UNL     1      11.666  17.193  38.479  1.00  0.00    -0.336 N 
ATOM      2  C   UNL     1      11.602  15.885  37.809  1.00  0.00     0.147 C 
ENDROOT
BRANCH   1   3
ATOM      3  C   UNL     1      10.503  17.760  39.192  1.00  0.00     0.123 C 
ATOM      4  C   UNL     1      10.153  16.989  40.488  1.00  0.00     0.193 C 
ATOM      5  C   UNL     1       9.125  17.808  41.383  1.00  0.00     0.173 C 
ATOM      6  C   UNL     1      10.688  19.234  39.525  1.00  0.00     0.083 C 
ATOM      7  O   UNL     1       8.495  18.855  40.647  1.00  0.00    -0.329 OA
ATOM      8  C   UNL     1       7.931  16.894  41.755  1.00  0.00     0.071 C 
ATOM      9  N   UNL     1       9.752  18.336  42.642  1.00  0.00    -0.307 N 
ATOM     10  C   UNL     1       9.351  19.797  40.025  1.00  0.00     0.224 C 
ATOM     11  C   UNL     1      10.107  17.631  43.769  1.00  0.00     0.052 A 
ATOM     12  C   UNL     1       9.975  19.639  43.001  1.00  0.00     0.077 A 
ATOM     13  N   UNL     1       9.573  20.916  40.927  1.00  0.00    -0.312 N 
ATOM     14  C   UNL     1      10.501  18.471  44.800  1.00  0.00     0.008 A 
ATOM     15  C   UNL     1      10.133  16.240  43.966  1.00  0.00     0.027 A 
ATOM     16  C   UNL     1      10.415  19.748  44.316  1.00  0.00     0.016 A 
ATOM     17  C   UNL     1       9.857  20.815  42.236  1.00  0.00     0.077 A 
ATOM     18  C   UNL     1       9.702  22.230  40.622  1.00  0.00     0.052 A 
ATOM     19  C   UNL     1      10.904  17.990  46.048  1.00  0.00     0.011 A 
ATOM     20  C   UNL     1      10.534  15.734  45.212  1.00  0.00     0.002 A 
ATOM     21  C   UNL     1      10.695  20.997  44.898  1.00  0.00    -0.005 A 
ATOM     22  C   UNL     1      10.154  22.064  42.788  1.00  0.00     0.023 A 
ATOM     23  C   UNL     1      10.048  22.972  41.740  1.00  0.00     0.008 A 
ATOM     24  C   UNL     1       9.574  22.827  39.363  1.00  0.00     0.027 A 
ATOM     25  C   UNL     1      10.914  16.604  46.250  1.00  0.00     0.001 A 
ATOM     26  C   UNL     1      10.549  22.157  44.139  1.00  0.00     0.055 A 
ATOM     27  C   UNL     1      11.153  21.310  46.294  1.00  0.00     0.153 C 
ATOM     28  C   UNL     1      10.288  24.347  41.648  1.00  0.00     0.011 A 
ATOM     29  C   UNL     1       9.791  24.210  39.260  1.00  0.00     0.002 A 
ATOM     30  C   UNL     1      10.878  23.260  45.022  1.00  0.00     0.252 C 
ATOM     31  N   UNL     1      11.248  22.767  46.301  1.00  0.00    -0.348 N 
ATOM     32  C   UNL     1      10.146  24.965  40.394  1.00  0.00     0.001 A 
ATOM     33  O   UNL     1      10.789  24.486  44.760  1.00  0.00    -0.269 OA
ATOM     34  H   UNL     1      11.501  23.353  47.127  1.00  0.00     0.164 HD
BRANCH   4  35
ATOM     35  O   UNL     1      11.338  16.722  41.229  1.00  0.00    -0.374 OA
ATOM     36  C   UNL     1      11.591  15.334  41.331  1.00  0.00     0.195 C 
ENDBRANCH   4  35
ENDBRANCH   1   3
BRANCH   1  37
ATOM     37  C   UNL     1      12.896  17.948  38.450  1.00  0.00     0.253 C 
ATOM     38  O   UNL     1      13.829  17.642  39.241  1.00  0.00    -0.269 OA
BRANCH  37  39
ATOM     39  C   UNL     1      13.093  19.072  37.507  1.00  0.00     0.040 A 
ATOM     40  C   UNL     1      12.327  19.151  36.331  1.00  0.00     0.014 A 
ATOM     41  C   UNL     1      14.014  20.095  37.794  1.00  0.00     0.014 A 
ATOM     42  C   UNL     1      12.503  20.217  35.445  1.00  0.00     0.001 A 
ATOM     43  C   UNL     1      14.186  21.160  36.906  1.00  0.00     0.001 A 
ATOM     44  C   UNL     1      13.433  21.220  35.730  1.00  0.00     0.000 A 
ENDBRANCH  37  39
ENDBRANCH   1  37
TORSDOF 4
ENDMDL
MODEL 15
REMARK VINA RESULT:    -7.821     16.712     20.915
REMARK INTER + INTRA:          -9.812
REMARK INTER:                  -8.961
REMARK INTRA:                  -0.851
REMARK UNBOUND:                -0.161
REMARK SMILES CO[C@@H]1[C@H](N(C)C(=O)c2ccccc2)C[C@H]2O[C@]1(C)n1c3ccccc3c3c4c(c5c6ccccc6n2c5c31)C(=O)NC4
REMARK SMILES IDX 5 1 6 2 4 3 3 4 18 5 15 6 17 7 19 8 20 9 16 10 21 11 39 12
REMARK SMILES IDX 37 13 26 14 22 15 27 16 38 17 36 18 25 19 23 20 28 21 30 22
REMARK SMILES IDX 31 23 35 24 24 25 29 26 43 27 32 28 34 29 40 30 42 31 33 32
REMARK SMILES IDX 41 33 2 35 1 36 7 37 8 38 9 39 10 40 14 41 11 42 13 43 12 44
REMARK H PARENT 42 34
REMARK Flexibility Score: inf
ROOT
ATOM      1  N   UNL     1      10.485  21.914  39.341  1.00  0.00    -0.336 N 
ATOM      2  C   UNL     1      10.007  22.677  38.177  1.00  0.00     0.147 C 
ENDROOT
BRANCH   1   3
ATOM      3  C   UNL     1       9.568  21.106  40.172  1.00  0.00     0.123 C 
ATOM      4  C   UNL     1       9.008  19.869  39.427  1.00  0.00     0.193 C 
ATOM      5  C   UNL     1       8.302  18.864  40.436  1.00  0.00     0.173 C 
ATOM      6  C   UNL     1      10.214  20.653  41.474  1.00  0.00     0.083 C 
ATOM      7  O   UNL     1       8.026  19.477  41.695  1.00  0.00    -0.329 OA
ATOM      8  C   UNL     1       6.885  18.524  39.911  1.00  0.00     0.071 C 
ATOM      9  N   UNL     1       9.078  17.590  40.617  1.00  0.00    -0.307 N 
ATOM     10  C   UNL     1       9.129  20.049  42.376  1.00  0.00     0.224 C 
ATOM     11  C   UNL     1       9.206  16.545  39.732  1.00  0.00     0.052 A 
ATOM     12  C   UNL     1       9.705  17.127  41.744  1.00  0.00     0.077 A 
ATOM     13  N   UNL     1       9.703  19.063  43.277  1.00  0.00    -0.312 N 
ATOM     14  C   UNL     1       9.857  15.462  40.302  1.00  0.00     0.008 A 
ATOM     15  C   UNL     1       8.794  16.473  38.390  1.00  0.00     0.027 A 
ATOM     16  C   UNL     1      10.173  15.828  41.582  1.00  0.00     0.016 A 
ATOM     17  C   UNL     1       9.957  17.781  42.965  1.00  0.00     0.077 A 
ATOM     18  C   UNL     1      10.237  19.255  44.508  1.00  0.00     0.052 A 
ATOM     19  C   UNL     1      10.103  14.279  39.600  1.00  0.00     0.011 A 
ATOM     20  C   UNL     1       9.030  15.294  37.666  1.00  0.00     0.002 A 
ATOM     21  C   UNL     1      10.840  15.150  42.618  1.00  0.00    -0.005 A 
ATOM     22  C   UNL     1      10.639  17.133  43.999  1.00  0.00     0.023 A 
ATOM     23  C   UNL     1      10.812  18.092  44.992  1.00  0.00     0.008 A 
ATOM     24  C   UNL     1      10.290  20.451  45.233  1.00  0.00     0.027 A 
ATOM     25  C   UNL     1       9.677  14.201  38.268  1.00  0.00     0.001 A 
ATOM     26  C   UNL     1      11.059  15.797  43.833  1.00  0.00     0.055 A 
ATOM     27  C   UNL     1      11.390  13.752  42.635  1.00  0.00     0.153 C 
ATOM     28  C   UNL     1      11.474  18.073  46.224  1.00  0.00     0.011 A 
ATOM     29  C   UNL     1      10.931  20.441  46.482  1.00  0.00     0.002 A 
ATOM     30  C   UNL     1      11.729  14.835  44.687  1.00  0.00     0.252 C 
ATOM     31  N   UNL     1      11.940  13.621  43.981  1.00  0.00    -0.348 N 
ATOM     32  C   UNL     1      11.519  19.260  46.974  1.00  0.00     0.001 A 
ATOM     33  O   UNL     1      12.029  14.983  45.898  1.00  0.00    -0.269 OA
ATOM     34  H   UNL     1      12.375  12.758  44.376  1.00  0.00     0.164 HD
BRANCH   4  35
ATOM     35  O   UNL     1      10.057  19.205  38.733  1.00  0.00    -0.374 OA
ATOM     36  C   UNL     1       9.915  19.325  37.330  1.00  0.00     0.195 C 
ENDBRANCH   4  35
ENDBRANCH   1   3
BRANCH   1  37
ATOM     37  C   UNL     1      11.887  21.944  39.684  1.00  0.00     0.253 C 
ATOM     38  O   UNL     1      12.289  22.744  40.573  1.00  0.00    -0.269 OA
BRANCH  37  39
ATOM     39  C   UNL     1      12.866  21.054  39.023  1.00  0.00     0.040 A 
ATOM     40  C   UNL     1      13.332  21.352  37.730  1.00  0.00     0.014 A 
ATOM     41  C   UNL     1      13.375  19.926  39.690  1.00  0.00     0.014 A 
ATOM     42  C   UNL     1      14.266  20.520  37.107  1.00  0.00     0.001 A 
ATOM     43  C   UNL     1      14.310  19.097  39.064  1.00  0.00     0.001 A 
ATOM     44  C   UNL     1      14.753  19.392  37.772  1.00  0.00     0.000 A 
ENDBRANCH  37  39
ENDBRANCH   1  37
TORSDOF 4
ENDMDL
