MODEL 1
REMARK VINA RESULT:    -8.436      0.000      0.000
REMARK INTER + INTRA:         -13.819
REMARK INTER:                 -12.627
REMARK INTRA:                  -1.192
REMARK UNBOUND:                -1.192
REMARK SMILES CC[C@H](CO)Nc1nc(NCc2ccccc2)c2ncn(C(C)C)c2n1
REMARK SMILES IDX 7 1 8 2 9 3 18 4 19 5 20 6 21 7 25 8 26 9 6 10 3 12 2 13
REMARK SMILES IDX 1 14 4 15 5 16 10 18 11 20 12 21 13 22 17 23 14 24 16 25
REMARK SMILES IDX 15 26 22 27 23 28 24 29
REMARK H PARENT 6 11 5 17 10 19
REMARK Flexibility Score: inf
ROOT
ATOM      1  C   UNL     1      21.797  37.380  -7.793  1.00  0.00     0.227 A 
ATOM      2  N   UNL     1      22.886  36.556  -7.649  1.00  0.00    -0.193 NA
ATOM      3  C   UNL     1      23.484  35.944  -8.715  1.00  0.00     0.160 A 
ATOM      4  C   UNL     1      22.935  36.192  -9.978  1.00  0.00     0.150 A 
ATOM      5  N   UNL     1      23.304  35.734 -11.190  1.00  0.00    -0.231 NA
ATOM      6  C   UNL     1      22.404  36.316 -12.028  1.00  0.00     0.202 A 
ATOM      7  N   UNL     1      21.503  37.105 -11.385  1.00  0.00    -0.313 N 
ATOM      8  C   UNL     1      21.859  37.009 -10.098  1.00  0.00     0.167 A 
ATOM      9  N   UNL     1      21.275  37.611  -9.035  1.00  0.00    -0.193 NA
ENDROOT
BRANCH   1  10
ATOM     10  N   UNL     1      21.199  38.007  -6.650  1.00  0.00    -0.349 N 
ATOM     11  H   UNL     1      20.335  37.574  -6.251  1.00  0.00     0.164 HD
BRANCH  10  12
ATOM     12  C   UNL     1      21.648  39.296  -6.112  1.00  0.00     0.107 C 
BRANCH  12  13
ATOM     13  C   UNL     1      21.991  39.153  -4.618  1.00  0.00     0.024 C 
ATOM     14  C   UNL     1      23.457  38.780  -4.402  1.00  0.00     0.006 C 
ENDBRANCH  12  13
BRANCH  12  15
ATOM     15  C   UNL     1      20.550  40.347  -6.315  1.00  0.00     0.180 C 
BRANCH  15  16
ATOM     16  O   UNL     1      19.677  39.931  -7.329  1.00  0.00    -0.394 OA
ATOM     17  H   UNL     1      19.897  40.481  -8.125  1.00  0.00     0.210 HD
ENDBRANCH  15  16
ENDBRANCH  12  15
ENDBRANCH  10  12
ENDBRANCH   1  10
BRANCH   3  18
ATOM     18  N   UNL     1      24.621  35.093  -8.491  1.00  0.00    -0.364 N 
ATOM     19  H   UNL     1      24.515  34.083  -8.742  1.00  0.00     0.162 HD
BRANCH  18  20
ATOM     20  C   UNL     1      25.896  35.556  -7.940  1.00  0.00     0.150 C 
BRANCH  20  21
ATOM     21  C   UNL     1      25.986  35.234  -6.472  1.00  0.00    -0.029 A 
ATOM     22  C   UNL     1      26.074  33.900  -6.043  1.00  0.00     0.005 A 
ATOM     23  C   UNL     1      25.914  36.261  -5.516  1.00  0.00     0.005 A 
ATOM     24  C   UNL     1      26.119  33.600  -4.678  1.00  0.00     0.000 A 
ATOM     25  C   UNL     1      25.959  35.958  -4.152  1.00  0.00     0.000 A 
ATOM     26  C   UNL     1      26.065  34.629  -3.733  1.00  0.00     0.000 A 
ENDBRANCH  20  21
ENDBRANCH  18  20
ENDBRANCH   3  18
BRANCH   7  27
ATOM     27  C   UNL     1      20.399  37.879 -11.962  1.00  0.00     0.084 C 
ATOM     28  C   UNL     1      20.786  39.356 -12.075  1.00  0.00     0.031 C 
ATOM     29  C   UNL     1      20.002  37.305 -13.325  1.00  0.00     0.031 C 
ENDBRANCH   7  27
TORSDOF 9
ENDMDL
MODEL 2
REMARK VINA RESULT:    -8.003      1.160      1.744
REMARK INTER + INTRA:         -13.171
REMARK INTER:                 -12.364
REMARK INTRA:                  -0.807
REMARK UNBOUND:                -1.192
REMARK SMILES CC[C@H](CO)Nc1nc(NCc2ccccc2)c2ncn(C(C)C)c2n1
REMARK SMILES IDX 7 1 8 2 9 3 18 4 19 5 20 6 21 7 25 8 26 9 6 10 3 12 2 13
REMARK SMILES IDX 1 14 4 15 5 16 10 18 11 20 12 21 13 22 17 23 14 24 16 25
REMARK SMILES IDX 15 26 22 27 23 28 24 29
REMARK H PARENT 6 11 5 17 10 19
REMARK Flexibility Score: inf
ROOT
ATOM      1  C   UNL     1      21.753  37.880  -8.212  1.00  0.00     0.227 A 
ATOM      2  N   UNL     1      22.756  36.970  -7.985  1.00  0.00    -0.193 NA
ATOM      3  C   UNL     1      23.239  36.157  -8.973  1.00  0.00     0.160 A 
ATOM      4  C   UNL     1      22.663  36.289 -10.241  1.00  0.00     0.150 A 
ATOM      5  N   UNL     1      22.930  35.633 -11.387  1.00  0.00    -0.231 NA
ATOM      6  C   UNL     1      22.058  36.190 -12.271  1.00  0.00     0.202 A 
ATOM      7  N   UNL     1      21.274  37.153 -11.720  1.00  0.00    -0.313 N 
ATOM      8  C   UNL     1      21.674  37.194 -10.442  1.00  0.00     0.167 A 
ATOM      9  N   UNL     1      21.204  37.996  -9.458  1.00  0.00    -0.193 NA
ENDROOT
BRANCH   1  10
ATOM     10  N   UNL     1      21.274  38.718  -7.151  1.00  0.00    -0.349 N 
ATOM     11  H   UNL     1      20.679  39.539  -7.406  1.00  0.00     0.164 HD
BRANCH  10  12
ATOM     12  C   UNL     1      21.698  38.570  -5.754  1.00  0.00     0.107 C 
BRANCH  12  13
ATOM     13  C   UNL     1      20.637  39.171  -4.813  1.00  0.00     0.024 C 
ATOM     14  C   UNL     1      20.003  40.430  -5.401  1.00  0.00     0.006 C 
ENDBRANCH  12  13
BRANCH  12  15
ATOM     15  C   UNL     1      23.051  39.262  -5.552  1.00  0.00     0.180 C 
BRANCH  15  16
ATOM     16  O   UNL     1      23.540  38.985  -4.269  1.00  0.00    -0.394 OA
ATOM     17  H   UNL     1      24.362  38.445  -4.398  1.00  0.00     0.210 HD
ENDBRANCH  15  16
ENDBRANCH  12  15
ENDBRANCH  10  12
ENDBRANCH   1  10
BRANCH   3  18
ATOM     18  N   UNL     1      24.290  35.226  -8.665  1.00  0.00    -0.364 N 
ATOM     19  H   UNL     1      24.085  34.211  -8.814  1.00  0.00     0.162 HD
BRANCH  18  20
ATOM     20  C   UNL     1      25.609  35.614  -8.163  1.00  0.00     0.150 C 
BRANCH  20  21
ATOM     21  C   UNL     1      25.725  35.315  -6.692  1.00  0.00    -0.029 A 
ATOM     22  C   UNL     1      25.567  36.341  -5.746  1.00  0.00     0.005 A 
ATOM     23  C   UNL     1      26.060  34.022  -6.257  1.00  0.00     0.005 A 
ATOM     24  C   UNL     1      25.712  36.069  -4.382  1.00  0.00     0.000 A 
ATOM     25  C   UNL     1      26.204  33.754  -4.892  1.00  0.00     0.000 A 
ATOM     26  C   UNL     1      26.028  34.776  -3.955  1.00  0.00     0.000 A 
ENDBRANCH  20  21
ENDBRANCH  18  20
ENDBRANCH   3  18
BRANCH   7  27
ATOM     27  C   UNL     1      20.231  37.956 -12.367  1.00  0.00     0.084 C 
ATOM     28  C   UNL     1      20.703  39.403 -12.537  1.00  0.00     0.031 C 
ATOM     29  C   UNL     1      19.842  37.339 -13.713  1.00  0.00     0.031 C 
ENDBRANCH   7  27
TORSDOF 9
ENDMDL
MODEL 3
REMARK VINA RESULT:    -7.835      1.837      6.352
REMARK INTER + INTRA:         -12.920
REMARK INTER:                 -12.061
REMARK INTRA:                  -0.859
REMARK UNBOUND:                -1.192
REMARK SMILES CC[C@H](CO)Nc1nc(NCc2ccccc2)c2ncn(C(C)C)c2n1
REMARK SMILES IDX 7 1 8 2 9 3 18 4 19 5 20 6 21 7 25 8 26 9 6 10 3 12 2 13
REMARK SMILES IDX 1 14 4 15 5 16 10 18 11 20 12 21 13 22 17 23 14 24 16 25
REMARK SMILES IDX 15 26 22 27 23 28 24 29
REMARK H PARENT 6 11 5 17 10 19
REMARK Flexibility Score: inf
ROOT
ATOM      1  C   UNL     1      22.579  36.895  -8.045  1.00  0.00     0.227 A 
ATOM      2  N   UNL     1      22.544  36.587  -9.382  1.00  0.00    -0.193 NA
ATOM      3  C   UNL     1      23.444  35.734  -9.957  1.00  0.00     0.160 A 
ATOM      4  C   UNL     1      24.416  35.179  -9.118  1.00  0.00     0.150 A 
ATOM      5  N   UNL     1      25.417  34.321  -9.398  1.00  0.00    -0.231 NA
ATOM      6  C   UNL     1      26.021  34.146  -8.192  1.00  0.00     0.202 A 
ATOM      7  N   UNL     1      25.438  34.855  -7.190  1.00  0.00    -0.313 N 
ATOM      8  C   UNL     1      24.432  35.496  -7.800  1.00  0.00     0.167 A 
ATOM      9  N   UNL     1      23.535  36.342  -7.240  1.00  0.00    -0.193 NA
ENDROOT
BRANCH   1  10
ATOM     10  N   UNL     1      21.615  37.793  -7.477  1.00  0.00    -0.349 N 
ATOM     11  H   UNL     1      20.604  37.615  -7.674  1.00  0.00     0.164 HD
BRANCH  10  12
ATOM     12  C   UNL     1      21.982  39.023  -6.766  1.00  0.00     0.107 C 
BRANCH  12  13
ATOM     13  C   UNL     1      21.829  38.821  -5.247  1.00  0.00     0.024 C 
ATOM     14  C   UNL     1      23.171  38.907  -4.522  1.00  0.00     0.006 C 
ENDBRANCH  12  13
BRANCH  12  15
ATOM     15  C   UNL     1      21.096  40.178  -7.248  1.00  0.00     0.180 C 
BRANCH  15  16
ATOM     16  O   UNL     1      19.910  39.671  -7.794  1.00  0.00    -0.394 OA
ATOM     17  H   UNL     1      19.708  40.233  -8.586  1.00  0.00     0.210 HD
ENDBRANCH  15  16
ENDBRANCH  12  15
ENDBRANCH  10  12
ENDBRANCH   1  10
BRANCH   3  18
ATOM     18  N   UNL     1      23.350  35.456 -11.365  1.00  0.00    -0.364 N 
ATOM     19  H   UNL     1      23.970  34.704 -11.743  1.00  0.00     0.162 HD
BRANCH  18  20
ATOM     20  C   UNL     1      22.451  36.160 -12.281  1.00  0.00     0.150 C 
BRANCH  20  21
ATOM     21  C   UNL     1      23.237  36.946 -13.296  1.00  0.00    -0.029 A 
ATOM     22  C   UNL     1      24.544  36.558 -13.634  1.00  0.00     0.005 A 
ATOM     23  C   UNL     1      22.696  38.111 -13.863  1.00  0.00     0.005 A 
ATOM     24  C   UNL     1      25.287  37.311 -14.548  1.00  0.00     0.000 A 
ATOM     25  C   UNL     1      23.442  38.862 -14.776  1.00  0.00     0.000 A 
ATOM     26  C   UNL     1      24.736  38.460 -15.121  1.00  0.00     0.000 A 
ENDBRANCH  20  21
ENDBRANCH  18  20
ENDBRANCH   3  18
BRANCH   7  27
ATOM     27  C   UNL     1      25.819  34.911  -5.775  1.00  0.00     0.084 C 
ATOM     28  C   UNL     1      26.065  33.500  -5.235  1.00  0.00     0.031 C 
ATOM     29  C   UNL     1      27.053  35.797  -5.590  1.00  0.00     0.031 C 
ENDBRANCH   7  27
TORSDOF 9
ENDMDL
MODEL 4
REMARK VINA RESULT:    -7.814      2.106      6.455
REMARK INTER + INTRA:         -12.889
REMARK INTER:                 -11.983
REMARK INTRA:                  -0.906
REMARK UNBOUND:                -1.192
REMARK SMILES CC[C@H](CO)Nc1nc(NCc2ccccc2)c2ncn(C(C)C)c2n1
REMARK SMILES IDX 7 1 8 2 9 3 18 4 19 5 20 6 21 7 25 8 26 9 6 10 3 12 2 13
REMARK SMILES IDX 1 14 4 15 5 16 10 18 11 20 12 21 13 22 17 23 14 24 16 25
REMARK SMILES IDX 15 26 22 27 23 28 24 29
REMARK H PARENT 6 11 5 17 10 19
REMARK Flexibility Score: inf
ROOT
ATOM      1  C   UNL     1      22.684  37.050  -8.181  1.00  0.00     0.227 A 
ATOM      2  N   UNL     1      22.609  36.711  -9.509  1.00  0.00    -0.193 NA
ATOM      3  C   UNL     1      23.422  35.763 -10.066  1.00  0.00     0.160 A 
ATOM      4  C   UNL     1      24.348  35.145  -9.218  1.00  0.00     0.150 A 
ATOM      5  N   UNL     1      25.264  34.192  -9.481  1.00  0.00    -0.231 NA
ATOM      6  C   UNL     1      25.861  33.997  -8.274  1.00  0.00     0.202 A 
ATOM      7  N   UNL     1      25.353  34.783  -7.289  1.00  0.00    -0.313 N 
ATOM      8  C   UNL     1      24.404  35.496  -7.910  1.00  0.00     0.167 A 
ATOM      9  N   UNL     1      23.594  36.435  -7.368  1.00  0.00    -0.193 NA
ENDROOT
BRANCH   1  10
ATOM     10  N   UNL     1      21.811  38.048  -7.632  1.00  0.00    -0.349 N 
ATOM     11  H   UNL     1      20.796  37.997  -7.875  1.00  0.00     0.164 HD
BRANCH  10  12
ATOM     12  C   UNL     1      22.292  39.212  -6.879  1.00  0.00     0.107 C 
BRANCH  12  13
ATOM     13  C   UNL     1      21.169  39.758  -5.977  1.00  0.00     0.024 C 
ATOM     14  C   UNL     1      21.083  39.000  -4.653  1.00  0.00     0.006 C 
ENDBRANCH  12  13
BRANCH  12  15
ATOM     15  C   UNL     1      22.772  40.292  -7.855  1.00  0.00     0.180 C 
BRANCH  15  16
ATOM     16  O   UNL     1      24.170  40.377  -7.820  1.00  0.00    -0.394 OA
ATOM     17  H   UNL     1      24.408  41.208  -8.307  1.00  0.00     0.210 HD
ENDBRANCH  15  16
ENDBRANCH  12  15
ENDBRANCH  10  12
ENDBRANCH   1  10
BRANCH   3  18
ATOM     18  N   UNL     1      23.290  35.457 -11.464  1.00  0.00    -0.364 N 
ATOM     19  H   UNL     1      23.865  34.665 -11.833  1.00  0.00     0.162 HD
BRANCH  18  20
ATOM     20  C   UNL     1      22.411  36.181 -12.383  1.00  0.00     0.150 C 
BRANCH  20  21
ATOM     21  C   UNL     1      23.219  36.984 -13.367  1.00  0.00    -0.029 A 
ATOM     22  C   UNL     1      24.533  36.602 -13.683  1.00  0.00     0.005 A 
ATOM     23  C   UNL     1      22.690  38.159 -13.926  1.00  0.00     0.005 A 
ATOM     24  C   UNL     1      25.296  37.370 -14.568  1.00  0.00     0.000 A 
ATOM     25  C   UNL     1      23.456  38.925 -14.811  1.00  0.00     0.000 A 
ATOM     26  C   UNL     1      24.757  38.529 -15.134  1.00  0.00     0.000 A 
ENDBRANCH  20  21
ENDBRANCH  18  20
ENDBRANCH   3  18
BRANCH   7  27
ATOM     27  C   UNL     1      25.751  34.843  -5.879  1.00  0.00     0.084 C 
ATOM     28  C   UNL     1      26.143  33.450  -5.377  1.00  0.00     0.031 C 
ATOM     29  C   UNL     1      26.896  35.841  -5.690  1.00  0.00     0.031 C 
ENDBRANCH   7  27
TORSDOF 9
ENDMDL
MODEL 5
REMARK VINA RESULT:    -7.811      1.197      6.576
REMARK INTER + INTRA:         -12.883
REMARK INTER:                 -11.948
REMARK INTRA:                  -0.935
REMARK UNBOUND:                -1.192
REMARK SMILES CC[C@H](CO)Nc1nc(NCc2ccccc2)c2ncn(C(C)C)c2n1
REMARK SMILES IDX 7 1 8 2 9 3 18 4 19 5 20 6 21 7 25 8 26 9 6 10 3 12 2 13
REMARK SMILES IDX 1 14 4 15 5 16 10 18 11 20 12 21 13 22 17 23 14 24 16 25
REMARK SMILES IDX 15 26 22 27 23 28 24 29
REMARK H PARENT 6 11 5 17 10 19
REMARK Flexibility Score: inf
ROOT
ATOM      1  C   UNL     1      22.145  37.217  -6.783  1.00  0.00     0.227 A 
ATOM      2  N   UNL     1      21.975  37.208  -8.145  1.00  0.00    -0.193 NA
ATOM      3  C   UNL     1      22.853  36.580  -8.985  1.00  0.00     0.160 A 
ATOM      4  C   UNL     1      23.948  35.940  -8.394  1.00  0.00     0.150 A 
ATOM      5  N   UNL     1      24.960  35.253  -8.959  1.00  0.00    -0.231 NA
ATOM      6  C   UNL     1      25.709  34.871  -7.889  1.00  0.00     0.202 A 
ATOM      7  N   UNL     1      25.202  35.291  -6.700  1.00  0.00    -0.313 N 
ATOM      8  C   UNL     1      24.096  35.961  -7.046  1.00  0.00     0.167 A 
ATOM      9  N   UNL     1      23.220  36.585  -6.223  1.00  0.00    -0.193 NA
ENDROOT
BRANCH   1  10
ATOM     10  N   UNL     1      21.201  37.884  -5.934  1.00  0.00    -0.349 N 
ATOM     11  H   UNL     1      20.280  37.418  -5.765  1.00  0.00     0.164 HD
BRANCH  10  12
ATOM     12  C   UNL     1      21.401  39.243  -5.418  1.00  0.00     0.107 C 
BRANCH  12  13
ATOM     13  C   UNL     1      20.805  39.365  -4.004  1.00  0.00     0.024 C 
ATOM     14  C   UNL     1      19.394  39.949  -4.028  1.00  0.00     0.006 C 
ENDBRANCH  12  13
BRANCH  12  15
ATOM     15  C   UNL     1      20.746  40.254  -6.368  1.00  0.00     0.180 C 
BRANCH  15  16
ATOM     16  O   UNL     1      20.069  39.575  -7.389  1.00  0.00    -0.394 OA
ATOM     17  H   UNL     1      19.458  38.936  -6.939  1.00  0.00     0.210 HD
ENDBRANCH  15  16
ENDBRANCH  12  15
ENDBRANCH  10  12
ENDBRANCH   1  10
BRANCH   3  18
ATOM     18  N   UNL     1      22.615  36.611 -10.402  1.00  0.00    -0.364 N 
ATOM     19  H   UNL     1      23.395  36.952 -11.008  1.00  0.00     0.162 HD
BRANCH  18  20
ATOM     20  C   UNL     1      21.359  36.198 -11.032  1.00  0.00     0.150 C 
BRANCH  20  21
ATOM     21  C   UNL     1      20.712  37.360 -11.735  1.00  0.00    -0.029 A 
ATOM     22  C   UNL     1      20.411  38.537 -11.029  1.00  0.00     0.005 A 
ATOM     23  C   UNL     1      20.342  37.254 -13.086  1.00  0.00     0.005 A 
ATOM     24  C   UNL     1      19.775  39.602 -11.675  1.00  0.00     0.000 A 
ATOM     25  C   UNL     1      19.706  38.321 -13.728  1.00  0.00     0.000 A 
ATOM     26  C   UNL     1      19.426  39.495 -13.024  1.00  0.00     0.000 A 
ENDBRANCH  20  21
ENDBRANCH  18  20
ENDBRANCH   3  18
BRANCH   7  27
ATOM     27  C   UNL     1      25.740  35.068  -5.354  1.00  0.00     0.084 C 
ATOM     28  C   UNL     1      26.100  33.592  -5.162  1.00  0.00     0.031 C 
ATOM     29  C   UNL     1      26.953  35.969  -5.109  1.00  0.00     0.031 C 
ENDBRANCH   7  27
TORSDOF 9
ENDMDL
MODEL 6
REMARK VINA RESULT:    -7.771      1.309      6.527
REMARK INTER + INTRA:         -12.824
REMARK INTER:                 -12.009
REMARK INTRA:                  -0.816
REMARK UNBOUND:                -1.192
REMARK SMILES CC[C@H](CO)Nc1nc(NCc2ccccc2)c2ncn(C(C)C)c2n1
REMARK SMILES IDX 7 1 8 2 9 3 18 4 19 5 20 6 21 7 25 8 26 9 6 10 3 12 2 13
REMARK SMILES IDX 1 14 4 15 5 16 10 18 11 20 12 21 13 22 17 23 14 24 16 25
REMARK SMILES IDX 15 26 22 27 23 28 24 29
REMARK H PARENT 6 11 5 17 10 19
REMARK Flexibility Score: inf
ROOT
ATOM      1  C   UNL     1      22.160  37.208  -6.644  1.00  0.00     0.227 A 
ATOM      2  N   UNL     1      22.017  37.198  -8.010  1.00  0.00    -0.193 NA
ATOM      3  C   UNL     1      22.916  36.578  -8.832  1.00  0.00     0.160 A 
ATOM      4  C   UNL     1      24.004  35.946  -8.220  1.00  0.00     0.150 A 
ATOM      5  N   UNL     1      25.032  35.266  -8.764  1.00  0.00    -0.231 NA
ATOM      6  C   UNL     1      25.762  34.889  -7.681  1.00  0.00     0.202 A 
ATOM      7  N   UNL     1      25.229  35.305  -6.502  1.00  0.00    -0.313 N 
ATOM      8  C   UNL     1      24.125  35.967  -6.869  1.00  0.00     0.167 A 
ATOM      9  N   UNL     1      23.228  36.583  -6.064  1.00  0.00    -0.193 NA
ENDROOT
BRANCH   1  10
ATOM     10  N   UNL     1      21.194  37.867  -5.814  1.00  0.00    -0.349 N 
ATOM     11  H   UNL     1      20.308  37.357  -5.594  1.00  0.00     0.164 HD
BRANCH  10  12
ATOM     12  C   UNL     1      21.319  39.265  -5.386  1.00  0.00     0.107 C 
BRANCH  12  13
ATOM     13  C   UNL     1      20.477  39.508  -4.120  1.00  0.00     0.024 C 
ATOM     14  C   UNL     1      19.331  40.485  -4.376  1.00  0.00     0.006 C 
ENDBRANCH  12  13
BRANCH  12  15
ATOM     15  C   UNL     1      20.865  40.191  -6.521  1.00  0.00     0.180 C 
BRANCH  15  16
ATOM     16  O   UNL     1      21.983  40.723  -7.175  1.00  0.00    -0.394 OA
ATOM     17  H   UNL     1      22.348  39.992  -7.738  1.00  0.00     0.210 HD
ENDBRANCH  15  16
ENDBRANCH  12  15
ENDBRANCH  10  12
ENDBRANCH   1  10
BRANCH   3  18
ATOM     18  N   UNL     1      22.706  36.607 -10.254  1.00  0.00    -0.364 N 
ATOM     19  H   UNL     1      23.483  36.985 -10.841  1.00  0.00     0.162 HD
BRANCH  18  20
ATOM     20  C   UNL     1      21.482  36.146 -10.911  1.00  0.00     0.150 C 
BRANCH  20  21
ATOM     21  C   UNL     1      20.765  37.297 -11.564  1.00  0.00    -0.029 A 
ATOM     22  C   UNL     1      20.347  37.205 -12.902  1.00  0.00     0.005 A 
ATOM     23  C   UNL     1      20.568  38.499 -10.863  1.00  0.00     0.005 A 
ATOM     24  C   UNL     1      19.716  38.289 -13.519  1.00  0.00     0.000 A 
ATOM     25  C   UNL     1      19.937  39.581 -11.484  1.00  0.00     0.000 A 
ATOM     26  C   UNL     1      19.508  39.475 -12.810  1.00  0.00     0.000 A 
ENDBRANCH  20  21
ENDBRANCH  18  20
ENDBRANCH   3  18
BRANCH   7  27
ATOM     27  C   UNL     1      25.742  35.085  -5.145  1.00  0.00     0.084 C 
ATOM     28  C   UNL     1      26.230  33.642  -4.988  1.00  0.00     0.031 C 
ATOM     29  C   UNL     1      26.858  36.084  -4.829  1.00  0.00     0.031 C 
ENDBRANCH   7  27
TORSDOF 9
ENDMDL
MODEL 7
REMARK VINA RESULT:    -7.675      1.833      7.185
REMARK INTER + INTRA:         -12.681
REMARK INTER:                 -11.811
REMARK INTRA:                  -0.870
REMARK UNBOUND:                -1.192
REMARK SMILES CC[C@H](CO)Nc1nc(NCc2ccccc2)c2ncn(C(C)C)c2n1
REMARK SMILES IDX 7 1 8 2 9 3 18 4 19 5 20 6 21 7 25 8 26 9 6 10 3 12 2 13
REMARK SMILES IDX 1 14 4 15 5 16 10 18 11 20 12 21 13 22 17 23 14 24 16 25
REMARK SMILES IDX 15 26 22 27 23 28 24 29
REMARK H PARENT 6 11 5 17 10 19
REMARK Flexibility Score: inf
ROOT
ATOM      1  C   UNL     1      22.788  36.880  -8.169  1.00  0.00     0.227 A 
ATOM      2  N   UNL     1      21.818  37.428  -7.367  1.00  0.00    -0.193 NA
ATOM      3  C   UNL     1      21.949  37.492  -6.007  1.00  0.00     0.160 A 
ATOM      4  C   UNL     1      23.124  36.969  -5.457  1.00  0.00     0.150 A 
ATOM      5  N   UNL     1      23.522  36.893  -4.173  1.00  0.00    -0.231 NA
ATOM      6  C   UNL     1      24.739  36.292  -4.261  1.00  0.00     0.202 A 
ATOM      7  N   UNL     1      25.102  35.997  -5.537  1.00  0.00    -0.313 N 
ATOM      8  C   UNL     1      24.068  36.432  -6.269  1.00  0.00     0.167 A 
ATOM      9  N   UNL     1      23.930  36.375  -7.615  1.00  0.00    -0.193 NA
ENDROOT
BRANCH   1  10
ATOM     10  N   UNL     1      22.617  36.833  -9.593  1.00  0.00    -0.349 N 
ATOM     11  H   UNL     1      23.475  36.824 -10.189  1.00  0.00     0.164 HD
BRANCH  10  12
ATOM     12  C   UNL     1      21.310  36.949 -10.251  1.00  0.00     0.107 C 
BRANCH  12  13
ATOM     13  C   UNL     1      21.404  36.446 -11.703  1.00  0.00     0.024 C 
ATOM     14  C   UNL     1      20.475  37.220 -12.636  1.00  0.00     0.006 C 
ENDBRANCH  12  13
BRANCH  12  15
ATOM     15  C   UNL     1      20.846  38.410 -10.216  1.00  0.00     0.180 C 
BRANCH  15  16
ATOM     16  O   UNL     1      19.821  38.560  -9.273  1.00  0.00    -0.394 OA
ATOM     17  H   UNL     1      20.179  39.160  -8.569  1.00  0.00     0.210 HD
ENDBRANCH  15  16
ENDBRANCH  12  15
ENDBRANCH  10  12
ENDBRANCH   1  10
BRANCH   3  18
ATOM     18  N   UNL     1      20.893  38.079  -5.226  1.00  0.00    -0.364 N 
ATOM     19  H   UNL     1      19.989  37.556  -5.181  1.00  0.00     0.162 HD
BRANCH  18  20
ATOM     20  C   UNL     1      21.015  39.347  -4.505  1.00  0.00     0.150 C 
BRANCH  20  21
ATOM     21  C   UNL     1      20.185  40.414  -5.168  1.00  0.00    -0.029 A 
ATOM     22  C   UNL     1      20.374  40.716  -6.527  1.00  0.00     0.005 A 
ATOM     23  C   UNL     1      19.264  41.163  -4.418  1.00  0.00     0.005 A 
ATOM     24  C   UNL     1      19.630  41.733  -7.132  1.00  0.00     0.000 A 
ATOM     25  C   UNL     1      18.522  42.180  -5.026  1.00  0.00     0.000 A 
ATOM     26  C   UNL     1      18.702  42.463  -6.383  1.00  0.00     0.000 A 
ENDBRANCH  20  21
ENDBRANCH  18  20
ENDBRANCH   3  18
BRANCH   7  27
ATOM     27  C   UNL     1      26.333  35.351  -6.006  1.00  0.00     0.084 C 
ATOM     28  C   UNL     1      27.546  35.916  -5.263  1.00  0.00     0.031 C 
ATOM     29  C   UNL     1      26.236  33.833  -5.834  1.00  0.00     0.031 C 
ENDBRANCH   7  27
TORSDOF 9
ENDMDL
MODEL 8
REMARK VINA RESULT:    -7.652      1.040      1.605
REMARK INTER + INTRA:         -12.647
REMARK INTER:                 -11.781
REMARK INTRA:                  -0.866
REMARK UNBOUND:                -1.192
REMARK SMILES CC[C@H](CO)Nc1nc(NCc2ccccc2)c2ncn(C(C)C)c2n1
REMARK SMILES IDX 7 1 8 2 9 3 18 4 19 5 20 6 21 7 25 8 26 9 6 10 3 12 2 13
REMARK SMILES IDX 1 14 4 15 5 16 10 18 11 20 12 21 13 22 17 23 14 24 16 25
REMARK SMILES IDX 15 26 22 27 23 28 24 29
REMARK H PARENT 6 11 5 17 10 19
REMARK Flexibility Score: inf
ROOT
ATOM      1  C   UNL     1      21.836  37.490  -8.500  1.00  0.00     0.227 A 
ATOM      2  N   UNL     1      22.710  36.438  -8.612  1.00  0.00    -0.193 NA
ATOM      3  C   UNL     1      23.019  35.871  -9.817  1.00  0.00     0.160 A 
ATOM      4  C   UNL     1      22.400  36.412 -10.949  1.00  0.00     0.150 A 
ATOM      5  N   UNL     1      22.508  36.066 -12.246  1.00  0.00    -0.231 NA
ATOM      6  C   UNL     1      21.678  36.943 -12.871  1.00  0.00     0.202 A 
ATOM      7  N   UNL     1      21.069  37.808 -12.018  1.00  0.00    -0.313 N 
ATOM      8  C   UNL     1      21.540  37.452 -10.816  1.00  0.00     0.167 A 
ATOM      9  N   UNL     1      21.241  38.007  -9.617  1.00  0.00    -0.193 NA
ENDROOT
BRANCH   1  10
ATOM     10  N   UNL     1      21.538  38.060  -7.218  1.00  0.00    -0.349 N 
ATOM     11  H   UNL     1      20.846  37.565  -6.611  1.00  0.00     0.164 HD
BRANCH  10  12
ATOM     12  C   UNL     1      22.039  39.369  -6.783  1.00  0.00     0.107 C 
BRANCH  12  13
ATOM     13  C   UNL     1      23.160  39.187  -5.743  1.00  0.00     0.024 C 
ATOM     14  C   UNL     1      22.609  38.785  -4.376  1.00  0.00     0.006 C 
ENDBRANCH  12  13
BRANCH  12  15
ATOM     15  C   UNL     1      20.885  40.190  -6.195  1.00  0.00     0.180 C 
BRANCH  15  16
ATOM     16  O   UNL     1      19.728  39.998  -6.960  1.00  0.00    -0.394 OA
ATOM     17  H   UNL     1      19.775  39.069  -7.303  1.00  0.00     0.210 HD
ENDBRANCH  15  16
ENDBRANCH  12  15
ENDBRANCH  10  12
ENDBRANCH   1  10
BRANCH   3  18
ATOM     18  N   UNL     1      23.943  34.770  -9.861  1.00  0.00    -0.364 N 
ATOM     19  H   UNL     1      23.549  33.828 -10.086  1.00  0.00     0.162 HD
BRANCH  18  20
ATOM     20  C   UNL     1      25.380  34.895  -9.610  1.00  0.00     0.150 C 
BRANCH  20  21
ATOM     21  C   UNL     1      25.682  34.690  -8.150  1.00  0.00    -0.029 A 
ATOM     22  C   UNL     1      25.721  35.787  -7.274  1.00  0.00     0.005 A 
ATOM     23  C   UNL     1      25.994  33.410  -7.664  1.00  0.00     0.005 A 
ATOM     24  C   UNL     1      26.040  35.600  -5.925  1.00  0.00     0.000 A 
ATOM     25  C   UNL     1      26.312  33.227  -6.315  1.00  0.00     0.000 A 
ATOM     26  C   UNL     1      26.332  34.321  -5.445  1.00  0.00     0.000 A 
ENDBRANCH  20  21
ENDBRANCH  18  20
ENDBRANCH   3  18
BRANCH   7  27
ATOM     27  C   UNL     1      20.117  38.878 -12.335  1.00  0.00     0.084 C 
ATOM     28  C   UNL     1      20.838  40.228 -12.407  1.00  0.00     0.031 C 
ATOM     29  C   UNL     1      19.387  38.571 -13.645  1.00  0.00     0.031 C 
ENDBRANCH   7  27
TORSDOF 9
ENDMDL
MODEL 9
REMARK VINA RESULT:    -7.570      2.414      7.492
REMARK INTER + INTRA:         -12.523
REMARK INTER:                 -11.813
REMARK INTRA:                  -0.710
REMARK UNBOUND:                -1.192
REMARK SMILES CC[C@H](CO)Nc1nc(NCc2ccccc2)c2ncn(C(C)C)c2n1
REMARK SMILES IDX 7 1 8 2 9 3 18 4 19 5 20 6 21 7 25 8 26 9 6 10 3 12 2 13
REMARK SMILES IDX 1 14 4 15 5 16 10 18 11 20 12 21 13 22 17 23 14 24 16 25
REMARK SMILES IDX 15 26 22 27 23 28 24 29
REMARK H PARENT 6 11 5 17 10 19
REMARK Flexibility Score: inf
ROOT
ATOM      1  C   UNL     1      23.032  36.908  -8.133  1.00  0.00     0.227 A 
ATOM      2  N   UNL     1      21.972  37.443  -7.444  1.00  0.00    -0.193 NA
ATOM      3  C   UNL     1      21.983  37.582  -6.084  1.00  0.00     0.160 A 
ATOM      4  C   UNL     1      23.132  37.150  -5.412  1.00  0.00     0.150 A 
ATOM      5  N   UNL     1      23.423  37.160  -4.096  1.00  0.00    -0.231 NA
ATOM      6  C   UNL     1      24.671  36.621  -4.052  1.00  0.00     0.202 A 
ATOM      7  N   UNL     1      25.155  36.282  -5.276  1.00  0.00    -0.313 N 
ATOM      8  C   UNL     1      24.167  36.625  -6.113  1.00  0.00     0.167 A 
ATOM      9  N   UNL     1      24.146  36.493  -7.460  1.00  0.00    -0.193 NA
ENDROOT
BRANCH   1  10
ATOM     10  N   UNL     1      22.984  36.781  -9.561  1.00  0.00    -0.349 N 
ATOM     11  H   UNL     1      22.696  37.618 -10.118  1.00  0.00     0.164 HD
BRANCH  10  12
ATOM     12  C   UNL     1      23.171  35.506 -10.263  1.00  0.00     0.107 C 
BRANCH  12  13
ATOM     13  C   UNL     1      24.588  35.435 -10.862  1.00  0.00     0.024 C 
ATOM     14  C   UNL     1      25.528  34.590 -10.004  1.00  0.00     0.006 C 
ENDBRANCH  12  13
BRANCH  12  15
ATOM     15  C   UNL     1      22.113  35.366 -11.364  1.00  0.00     0.180 C 
BRANCH  15  16
ATOM     16  O   UNL     1      22.731  35.373 -12.621  1.00  0.00    -0.394 OA
ATOM     17  H   UNL     1      23.517  35.972 -12.538  1.00  0.00     0.210 HD
ENDBRANCH  15  16
ENDBRANCH  12  15
ENDBRANCH  10  12
ENDBRANCH   1  10
BRANCH   3  18
ATOM     18  N   UNL     1      20.838  38.150  -5.425  1.00  0.00    -0.364 N 
ATOM     19  H   UNL     1      19.924  37.659  -5.554  1.00  0.00     0.162 HD
BRANCH  18  20
ATOM     20  C   UNL     1      20.883  39.359  -4.600  1.00  0.00     0.150 C 
BRANCH  20  21
ATOM     21  C   UNL     1      20.037  40.446  -5.208  1.00  0.00    -0.029 A 
ATOM     22  C   UNL     1      20.065  40.673  -6.594  1.00  0.00     0.005 A 
ATOM     23  C   UNL     1      19.266  41.286  -4.388  1.00  0.00     0.005 A 
ATOM     24  C   UNL     1      19.308  41.708  -7.153  1.00  0.00     0.000 A 
ATOM     25  C   UNL     1      18.511  42.319  -4.950  1.00  0.00     0.000 A 
ATOM     26  C   UNL     1      18.530  42.529  -6.332  1.00  0.00     0.000 A 
ENDBRANCH  20  21
ENDBRANCH  18  20
ENDBRANCH   3  18
BRANCH   7  27
ATOM     27  C   UNL     1      26.451  35.680  -5.606  1.00  0.00     0.084 C 
ATOM     28  C   UNL     1      27.559  36.298  -4.748  1.00  0.00     0.031 C 
ATOM     29  C   UNL     1      26.394  34.161  -5.426  1.00  0.00     0.031 C 
ENDBRANCH   7  27
TORSDOF 9
ENDMDL
MODEL 10
REMARK VINA RESULT:    -7.477      1.862      5.137
REMARK INTER + INTRA:         -12.384
REMARK INTER:                 -11.388
REMARK INTRA:                  -0.996
REMARK UNBOUND:                -1.192
REMARK SMILES CC[C@H](CO)Nc1nc(NCc2ccccc2)c2ncn(C(C)C)c2n1
REMARK SMILES IDX 7 1 8 2 9 3 18 4 19 5 20 6 21 7 25 8 26 9 6 10 3 12 2 13
REMARK SMILES IDX 1 14 4 15 5 16 10 18 11 20 12 21 13 22 17 23 14 24 16 25
REMARK SMILES IDX 15 26 22 27 23 28 24 29
REMARK H PARENT 6 11 5 17 10 19
REMARK Flexibility Score: inf
ROOT
ATOM      1  C   UNL     1      21.803  37.402  -8.958  1.00  0.00     0.227 A 
ATOM      2  N   UNL     1      23.116  37.022  -8.829  1.00  0.00    -0.193 NA
ATOM      3  C   UNL     1      23.861  37.342  -7.729  1.00  0.00     0.160 A 
ATOM      4  C   UNL     1      23.227  38.083  -6.727  1.00  0.00     0.150 A 
ATOM      5  N   UNL     1      23.702  38.537  -5.550  1.00  0.00    -0.231 NA
ATOM      6  C   UNL     1      22.632  39.182  -5.013  1.00  0.00     0.202 A 
ATOM      7  N   UNL     1      21.527  39.144  -5.804  1.00  0.00    -0.313 N 
ATOM      8  C   UNL     1      21.929  38.448  -6.875  1.00  0.00     0.167 A 
ATOM      9  N   UNL     1      21.199  38.125  -7.968  1.00  0.00    -0.193 NA
ENDROOT
BRANCH   1  10
ATOM     10  N   UNL     1      21.051  37.045 -10.127  1.00  0.00    -0.349 N 
ATOM     11  H   UNL     1      20.170  36.498  -9.994  1.00  0.00     0.164 HD
BRANCH  10  12
ATOM     12  C   UNL     1      21.531  37.274 -11.495  1.00  0.00     0.107 C 
BRANCH  12  13
ATOM     13  C   UNL     1      20.402  37.868 -12.358  1.00  0.00     0.024 C 
ATOM     14  C   UNL     1      20.441  37.337 -13.790  1.00  0.00     0.006 C 
ENDBRANCH  12  13
BRANCH  12  15
ATOM     15  C   UNL     1      22.029  35.953 -12.092  1.00  0.00     0.180 C 
BRANCH  15  16
ATOM     16  O   UNL     1      23.344  35.709 -11.676  1.00  0.00    -0.394 OA
ATOM     17  H   UNL     1      23.709  35.029 -12.299  1.00  0.00     0.210 HD
ENDBRANCH  15  16
ENDBRANCH  12  15
ENDBRANCH  10  12
ENDBRANCH   1  10
BRANCH   3  18
ATOM     18  N   UNL     1      25.232  36.912  -7.659  1.00  0.00    -0.364 N 
ATOM     19  H   UNL     1      25.963  37.659  -7.622  1.00  0.00     0.162 HD
BRANCH  18  20
ATOM     20  C   UNL     1      25.652  35.510  -7.638  1.00  0.00     0.150 C 
BRANCH  20  21
ATOM     21  C   UNL     1      25.785  35.018  -6.221  1.00  0.00    -0.029 A 
ATOM     22  C   UNL     1      25.846  35.933  -5.157  1.00  0.00     0.005 A 
ATOM     23  C   UNL     1      25.917  33.645  -5.958  1.00  0.00     0.005 A 
ATOM     24  C   UNL     1      26.008  35.477  -3.845  1.00  0.00     0.000 A 
ATOM     25  C   UNL     1      26.079  33.193  -4.645  1.00  0.00     0.000 A 
ATOM     26  C   UNL     1      26.121  34.107  -3.589  1.00  0.00     0.000 A 
ENDBRANCH  20  21
ENDBRANCH  18  20
ENDBRANCH   3  18
BRANCH   7  27
ATOM     27  C   UNL     1      20.207  39.729  -5.549  1.00  0.00     0.084 C 
ATOM     28  C   UNL     1      19.927  39.778  -4.045  1.00  0.00     0.031 C 
ATOM     29  C   UNL     1      20.112  41.122  -6.176  1.00  0.00     0.031 C 
ENDBRANCH   7  27
TORSDOF 9
ENDMDL
MODEL 11
REMARK VINA RESULT:    -7.373      2.376      7.366
REMARK INTER + INTRA:         -12.228
REMARK INTER:                 -11.448
REMARK INTRA:                  -0.781
REMARK UNBOUND:                -1.192
REMARK SMILES CC[C@H](CO)Nc1nc(NCc2ccccc2)c2ncn(C(C)C)c2n1
REMARK SMILES IDX 7 1 8 2 9 3 18 4 19 5 20 6 21 7 25 8 26 9 6 10 3 12 2 13
REMARK SMILES IDX 1 14 4 15 5 16 10 18 11 20 12 21 13 22 17 23 14 24 16 25
REMARK SMILES IDX 15 26 22 27 23 28 24 29
REMARK H PARENT 6 11 5 17 10 19
REMARK Flexibility Score: inf
ROOT
ATOM      1  C   UNL     1      23.522  36.082  -8.872  1.00  0.00     0.227 A 
ATOM      2  N   UNL     1      22.473  36.914  -8.568  1.00  0.00    -0.193 NA
ATOM      3  C   UNL     1      22.341  37.500  -7.340  1.00  0.00     0.160 A 
ATOM      4  C   UNL     1      23.329  37.216  -6.392  1.00  0.00     0.150 A 
ATOM      5  N   UNL     1      23.459  37.641  -5.120  1.00  0.00    -0.231 NA
ATOM      6  C   UNL     1      24.605  37.035  -4.707  1.00  0.00     0.202 A 
ATOM      7  N   UNL     1      25.179  36.260  -5.665  1.00  0.00    -0.313 N 
ATOM      8  C   UNL     1      24.356  36.392  -6.714  1.00  0.00     0.167 A 
ATOM      9  N   UNL     1      24.479  35.816  -7.933  1.00  0.00    -0.193 NA
ENDROOT
BRANCH   1  10
ATOM     10  N   UNL     1      23.628  35.486 -10.173  1.00  0.00    -0.349 N 
ATOM     11  H   UNL     1      24.031  34.524 -10.240  1.00  0.00     0.164 HD
BRANCH  10  12
ATOM     12  C   UNL     1      23.344  36.212 -11.417  1.00  0.00     0.107 C 
BRANCH  12  13
ATOM     13  C   UNL     1      21.945  35.836 -11.939  1.00  0.00     0.024 C 
ATOM     14  C   UNL     1      20.919  36.933 -11.663  1.00  0.00     0.006 C 
ENDBRANCH  12  13
BRANCH  12  15
ATOM     15  C   UNL     1      24.417  35.881 -12.461  1.00  0.00     0.180 C 
BRANCH  15  16
ATOM     16  O   UNL     1      23.840  35.834 -13.736  1.00  0.00    -0.394 OA
ATOM     17  H   UNL     1      23.429  34.935 -13.821  1.00  0.00     0.210 HD
ENDBRANCH  15  16
ENDBRANCH  12  15
ENDBRANCH  10  12
ENDBRANCH   1  10
BRANCH   3  18
ATOM     18  N   UNL     1      21.216  38.361  -7.090  1.00  0.00    -0.364 N 
ATOM     19  H   UNL     1      20.376  37.927  -6.644  1.00  0.00     0.162 HD
BRANCH  18  20
ATOM     20  C   UNL     1      21.185  39.787  -7.420  1.00  0.00     0.150 C 
BRANCH  20  21
ATOM     21  C   UNL     1      20.428  40.557  -6.372  1.00  0.00    -0.029 A 
ATOM     22  C   UNL     1      20.120  39.959  -5.138  1.00  0.00     0.005 A 
ATOM     23  C   UNL     1      19.964  41.855  -6.643  1.00  0.00     0.005 A 
ATOM     24  C   UNL     1      19.384  40.662  -4.180  1.00  0.00     0.000 A 
ATOM     25  C   UNL     1      19.228  42.554  -5.682  1.00  0.00     0.000 A 
ATOM     26  C   UNL     1      18.941  41.960  -4.450  1.00  0.00     0.000 A 
ENDBRANCH  20  21
ENDBRANCH  18  20
ENDBRANCH   3  18
BRANCH   7  27
ATOM     27  C   UNL     1      26.408  35.465  -5.575  1.00  0.00     0.084 C 
ATOM     28  C   UNL     1      27.465  36.210  -4.755  1.00  0.00     0.031 C 
ATOM     29  C   UNL     1      26.109  34.090  -4.972  1.00  0.00     0.031 C 
ENDBRANCH   7  27
TORSDOF 9
ENDMDL
MODEL 12
REMARK VINA RESULT:    -7.356      2.356      5.019
REMARK INTER + INTRA:         -12.203
REMARK INTER:                 -11.140
REMARK INTRA:                  -1.062
REMARK UNBOUND:                -1.192
REMARK SMILES CC[C@H](CO)Nc1nc(NCc2ccccc2)c2ncn(C(C)C)c2n1
REMARK SMILES IDX 7 1 8 2 9 3 18 4 19 5 20 6 21 7 25 8 26 9 6 10 3 12 2 13
REMARK SMILES IDX 1 14 4 15 5 16 10 18 11 20 12 21 13 22 17 23 14 24 16 25
REMARK SMILES IDX 15 26 22 27 23 28 24 29
REMARK H PARENT 6 11 5 17 10 19
REMARK Flexibility Score: inf
ROOT
ATOM      1  C   UNL     1      22.371  36.504 -10.160  1.00  0.00     0.227 A 
ATOM      2  N   UNL     1      21.755  37.286  -9.214  1.00  0.00    -0.193 NA
ATOM      3  C   UNL     1      20.841  38.247  -9.546  1.00  0.00     0.160 A 
ATOM      4  C   UNL     1      20.555  38.407 -10.906  1.00  0.00     0.150 A 
ATOM      5  N   UNL     1      19.712  39.259 -11.521  1.00  0.00    -0.231 NA
ATOM      6  C   UNL     1      19.861  38.946 -12.837  1.00  0.00     0.202 A 
ATOM      7  N   UNL     1      20.753  37.943 -13.053  1.00  0.00    -0.313 N 
ATOM      8  C   UNL     1      21.174  37.623 -11.823  1.00  0.00     0.167 A 
ATOM      9  N   UNL     1      22.077  36.673 -11.484  1.00  0.00    -0.193 NA
ENDROOT
BRANCH   1  10
ATOM     10  N   UNL     1      23.323  35.503  -9.773  1.00  0.00    -0.349 N 
ATOM     11  H   UNL     1      22.967  34.542  -9.570  1.00  0.00     0.164 HD
BRANCH  10  12
ATOM     12  C   UNL     1      24.735  35.797  -9.503  1.00  0.00     0.107 C 
BRANCH  12  13
ATOM     13  C   UNL     1      25.620  34.642 -10.006  1.00  0.00     0.024 C 
ATOM     14  C   UNL     1      25.822  33.570  -8.936  1.00  0.00     0.006 C 
ENDBRANCH  12  13
BRANCH  12  15
ATOM     15  C   UNL     1      24.936  36.013  -7.999  1.00  0.00     0.180 C 
BRANCH  15  16
ATOM     16  O   UNL     1      23.725  35.811  -7.324  1.00  0.00    -0.394 OA
ATOM     17  H   UNL     1      23.949  35.779  -6.358  1.00  0.00     0.210 HD
ENDBRANCH  15  16
ENDBRANCH  12  15
ENDBRANCH  10  12
ENDBRANCH   1  10
BRANCH   3  18
ATOM     18  N   UNL     1      20.235  39.031  -8.504  1.00  0.00    -0.364 N 
ATOM     19  H   UNL     1      19.257  38.781  -8.230  1.00  0.00     0.162 HD
BRANCH  18  20
ATOM     20  C   UNL     1      20.900  40.141  -7.820  1.00  0.00     0.150 C 
BRANCH  20  21
ATOM     21  C   UNL     1      21.625  39.650  -6.596  1.00  0.00    -0.029 A 
ATOM     22  C   UNL     1      20.927  39.443  -5.394  1.00  0.00     0.005 A 
ATOM     23  C   UNL     1      23.016  39.459  -6.625  1.00  0.00     0.005 A 
ATOM     24  C   UNL     1      21.608  39.024  -4.248  1.00  0.00     0.000 A 
ATOM     25  C   UNL     1      23.694  39.040  -5.476  1.00  0.00     0.000 A 
ATOM     26  C   UNL     1      22.990  38.819  -4.289  1.00  0.00     0.000 A 
ENDBRANCH  20  21
ENDBRANCH  18  20
ENDBRANCH   3  18
BRANCH   7  27
ATOM     27  C   UNL     1      21.161  37.352 -14.332  1.00  0.00     0.084 C 
ATOM     28  C   UNL     1      19.990  37.353 -15.318  1.00  0.00     0.031 C 
ATOM     29  C   UNL     1      22.367  38.102 -14.904  1.00  0.00     0.031 C 
ENDBRANCH   7  27
TORSDOF 9
ENDMDL
MODEL 13
REMARK VINA RESULT:    -7.307      2.403      6.501
REMARK INTER + INTRA:         -12.130
REMARK INTER:                 -11.428
REMARK INTRA:                  -0.702
REMARK UNBOUND:                -1.192
REMARK SMILES CC[C@H](CO)Nc1nc(NCc2ccccc2)c2ncn(C(C)C)c2n1
REMARK SMILES IDX 7 1 8 2 9 3 18 4 19 5 20 6 21 7 25 8 26 9 6 10 3 12 2 13
REMARK SMILES IDX 1 14 4 15 5 16 10 18 11 20 12 21 13 22 17 23 14 24 16 25
REMARK SMILES IDX 15 26 22 27 23 28 24 29
REMARK H PARENT 6 11 5 17 10 19
REMARK Flexibility Score: inf
ROOT
ATOM      1  C   UNL     1      23.783  36.474  -6.319  1.00  0.00     0.227 A 
ATOM      2  N   UNL     1      23.230  37.598  -5.759  1.00  0.00    -0.193 NA
ATOM      3  C   UNL     1      22.407  38.433  -6.464  1.00  0.00     0.160 A 
ATOM      4  C   UNL     1      22.147  38.092  -7.795  1.00  0.00     0.150 A 
ATOM      5  N   UNL     1      21.388  38.714  -8.719  1.00  0.00    -0.231 NA
ATOM      6  C   UNL     1      21.521  37.920  -9.814  1.00  0.00     0.202 A 
ATOM      7  N   UNL     1      22.324  36.843  -9.605  1.00  0.00    -0.313 N 
ATOM      8  C   UNL     1      22.704  36.976  -8.327  1.00  0.00     0.167 A 
ATOM      9  N   UNL     1      23.518  36.156  -7.621  1.00  0.00    -0.193 NA
ENDROOT
BRANCH   1  10
ATOM     10  N   UNL     1      24.640  35.620  -5.547  1.00  0.00    -0.349 N 
ATOM     11  H   UNL     1      24.192  34.902  -4.934  1.00  0.00     0.164 HD
BRANCH  10  12
ATOM     12  C   UNL     1      26.094  35.804  -5.461  1.00  0.00     0.107 C 
BRANCH  12  13
ATOM     13  C   UNL     1      26.816  34.575  -6.044  1.00  0.00     0.024 C 
ATOM     14  C   UNL     1      26.026  33.288  -5.817  1.00  0.00     0.006 C 
ENDBRANCH  12  13
BRANCH  12  15
ATOM     15  C   UNL     1      26.497  36.024  -3.999  1.00  0.00     0.180 C 
BRANCH  15  16
ATOM     16  O   UNL     1      25.512  35.501  -3.151  1.00  0.00    -0.394 OA
ATOM     17  H   UNL     1      25.417  36.149  -2.406  1.00  0.00     0.210 HD
ENDBRANCH  15  16
ENDBRANCH  12  15
ENDBRANCH  10  12
ENDBRANCH   1  10
BRANCH   3  18
ATOM     18  N   UNL     1      21.862  39.595  -5.815  1.00  0.00    -0.364 N 
ATOM     19  H   UNL     1      22.430  40.471  -5.855  1.00  0.00     0.162 HD
BRANCH  18  20
ATOM     20  C   UNL     1      20.577  39.616  -5.113  1.00  0.00     0.150 C 
BRANCH  20  21
ATOM     21  C   UNL     1      19.745  40.785  -5.566  1.00  0.00    -0.029 A 
ATOM     22  C   UNL     1      19.731  41.163  -6.919  1.00  0.00     0.005 A 
ATOM     23  C   UNL     1      19.029  41.550  -4.630  1.00  0.00     0.005 A 
ATOM     24  C   UNL     1      18.988  42.273  -7.332  1.00  0.00     0.000 A 
ATOM     25  C   UNL     1      18.287  42.659  -5.047  1.00  0.00     0.000 A 
ATOM     26  C   UNL     1      18.264  43.019  -6.397  1.00  0.00     0.000 A 
ENDBRANCH  20  21
ENDBRANCH  18  20
ENDBRANCH   3  18
BRANCH   7  27
ATOM     27  C   UNL     1      22.690  35.786 -10.552  1.00  0.00     0.084 C 
ATOM     28  C   UNL     1      21.936  35.968 -11.872  1.00  0.00     0.031 C 
ATOM     29  C   UNL     1      24.205  35.774 -10.777  1.00  0.00     0.031 C 
ENDBRANCH   7  27
TORSDOF 9
ENDMDL
MODEL 14
REMARK VINA RESULT:    -7.297      1.587      2.116
REMARK INTER + INTRA:         -12.115
REMARK INTER:                 -11.337
REMARK INTRA:                  -0.778
REMARK UNBOUND:                -1.192
REMARK SMILES CC[C@H](CO)Nc1nc(NCc2ccccc2)c2ncn(C(C)C)c2n1
REMARK SMILES IDX 7 1 8 2 9 3 18 4 19 5 20 6 21 7 25 8 26 9 6 10 3 12 2 13
REMARK SMILES IDX 1 14 4 15 5 16 10 18 11 20 12 21 13 22 17 23 14 24 16 25
REMARK SMILES IDX 15 26 22 27 23 28 24 29
REMARK H PARENT 6 11 5 17 10 19
REMARK Flexibility Score: inf
ROOT
ATOM      1  C   UNL     1      22.499  39.005  -7.169  1.00  0.00     0.227 A 
ATOM      2  N   UNL     1      23.126  37.811  -7.426  1.00  0.00    -0.193 NA
ATOM      3  C   UNL     1      22.892  37.096  -8.568  1.00  0.00     0.160 A 
ATOM      4  C   UNL     1      21.976  37.635  -9.476  1.00  0.00     0.150 A 
ATOM      5  N   UNL     1      21.551  37.163 -10.665  1.00  0.00    -0.231 NA
ATOM      6  C   UNL     1      20.671  38.113 -11.079  1.00  0.00     0.202 A 
ATOM      7  N   UNL     1      20.538  39.142 -10.202  1.00  0.00    -0.313 N 
ATOM      8  C   UNL     1      21.368  38.816  -9.203  1.00  0.00     0.167 A 
ATOM      9  N   UNL     1      21.608  39.517  -8.069  1.00  0.00    -0.193 NA
ENDROOT
BRANCH   1  10
ATOM     10  N   UNL     1      22.773  39.728  -5.961  1.00  0.00    -0.349 N 
ATOM     11  H   UNL     1      23.409  40.556  -6.019  1.00  0.00     0.164 HD
BRANCH  10  12
ATOM     12  C   UNL     1      22.331  39.279  -4.636  1.00  0.00     0.107 C 
BRANCH  12  13
ATOM     13  C   UNL     1      23.157  38.058  -4.190  1.00  0.00     0.024 C 
ATOM     14  C   UNL     1      24.509  38.466  -3.607  1.00  0.00     0.006 C 
ENDBRANCH  12  13
BRANCH  12  15
ATOM     15  C   UNL     1      20.839  38.932  -4.683  1.00  0.00     0.180 C 
BRANCH  15  16
ATOM     16  O   UNL     1      20.118  40.006  -5.221  1.00  0.00    -0.394 OA
ATOM     17  H   UNL     1      20.290  40.780  -4.624  1.00  0.00     0.210 HD
ENDBRANCH  15  16
ENDBRANCH  12  15
ENDBRANCH  10  12
ENDBRANCH   1  10
BRANCH   3  18
ATOM     18  N   UNL     1      23.583  35.852  -8.772  1.00  0.00    -0.364 N 
ATOM     19  H   UNL     1      22.995  35.002  -8.927  1.00  0.00     0.162 HD
BRANCH  18  20
ATOM     20  C   UNL     1      25.041  35.714  -8.775  1.00  0.00     0.150 C 
BRANCH  20  21
ATOM     21  C   UNL     1      25.515  35.082  -7.493  1.00  0.00    -0.029 A 
ATOM     22  C   UNL     1      25.961  33.750  -7.483  1.00  0.00     0.005 A 
ATOM     23  C   UNL     1      25.451  35.797  -6.285  1.00  0.00     0.005 A 
ATOM     24  C   UNL     1      26.365  33.153  -6.285  1.00  0.00     0.000 A 
ATOM     25  C   UNL     1      25.856  35.196  -5.090  1.00  0.00     0.000 A 
ATOM     26  C   UNL     1      26.316  33.876  -5.090  1.00  0.00     0.000 A 
ENDBRANCH  20  21
ENDBRANCH  18  20
ENDBRANCH   3  18
BRANCH   7  27
ATOM     27  C   UNL     1      19.685  40.330 -10.317  1.00  0.00     0.084 C 
ATOM     28  C   UNL     1      19.045  40.393 -11.707  1.00  0.00     0.031 C 
ATOM     29  C   UNL     1      18.619  40.328  -9.217  1.00  0.00     0.031 C 
ENDBRANCH   7  27
TORSDOF 9
ENDMDL
MODEL 15
REMARK VINA RESULT:    -7.276      2.154      4.998
REMARK INTER + INTRA:         -12.084
REMARK INTER:                 -11.368
REMARK INTRA:                  -0.715
REMARK UNBOUND:                -1.192
REMARK SMILES CC[C@H](CO)Nc1nc(NCc2ccccc2)c2ncn(C(C)C)c2n1
REMARK SMILES IDX 7 1 8 2 9 3 18 4 19 5 20 6 21 7 25 8 26 9 6 10 3 12 2 13
REMARK SMILES IDX 1 14 4 15 5 16 10 18 11 20 12 21 13 22 17 23 14 24 16 25
REMARK SMILES IDX 15 26 22 27 23 28 24 29
REMARK H PARENT 6 11 5 17 10 19
REMARK Flexibility Score: inf
ROOT
ATOM      1  C   UNL     1      21.115  37.523  -9.909  1.00  0.00     0.227 A 
ATOM      2  N   UNL     1      21.993  36.973  -9.008  1.00  0.00    -0.193 NA
ATOM      3  C   UNL     1      22.270  37.564  -7.807  1.00  0.00     0.160 A 
ATOM      4  C   UNL     1      21.616  38.769  -7.528  1.00  0.00     0.150 A 
ATOM      5  N   UNL     1      21.690  39.565  -6.444  1.00  0.00    -0.231 NA
ATOM      6  C   UNL     1      20.836  40.580  -6.746  1.00  0.00     0.202 A 
ATOM      7  N   UNL     1      20.244  40.440  -7.962  1.00  0.00    -0.313 N 
ATOM      8  C   UNL     1      20.753  39.294  -8.432  1.00  0.00     0.167 A 
ATOM      9  N   UNL     1      20.485  38.700  -9.619  1.00  0.00    -0.193 NA
ENDROOT
BRANCH   1  10
ATOM     10  N   UNL     1      20.848  36.871 -11.159  1.00  0.00    -0.349 N 
ATOM     11  H   UNL     1      20.459  35.901 -11.132  1.00  0.00     0.164 HD
BRANCH  10  12
ATOM     12  C   UNL     1      21.231  37.434 -12.459  1.00  0.00     0.107 C 
BRANCH  12  13
ATOM     13  C   UNL     1      20.020  37.441 -13.410  1.00  0.00     0.024 C 
ATOM     14  C   UNL     1      20.445  37.357 -14.875  1.00  0.00     0.006 C 
ENDBRANCH  12  13
BRANCH  12  15
ATOM     15  C   UNL     1      22.380  36.613 -13.055  1.00  0.00     0.180 C 
BRANCH  15  16
ATOM     16  O   UNL     1      22.484  35.386 -12.387  1.00  0.00    -0.394 OA
ATOM     17  H   UNL     1      23.034  35.557 -11.579  1.00  0.00     0.210 HD
ENDBRANCH  15  16
ENDBRANCH  12  15
ENDBRANCH  10  12
ENDBRANCH   1  10
BRANCH   3  18
ATOM     18  N   UNL     1      23.200  36.933  -6.911  1.00  0.00    -0.364 N 
ATOM     19  H   UNL     1      22.817  36.564  -6.011  1.00  0.00     0.162 HD
BRANCH  18  20
ATOM     20  C   UNL     1      24.631  36.783  -7.185  1.00  0.00     0.150 C 
BRANCH  20  21
ATOM     21  C   UNL     1      25.249  35.785  -6.243  1.00  0.00    -0.029 A 
ATOM     22  C   UNL     1      25.518  34.476  -6.675  1.00  0.00     0.005 A 
ATOM     23  C   UNL     1      25.499  36.133  -4.906  1.00  0.00     0.005 A 
ATOM     24  C   UNL     1      26.056  33.538  -5.789  1.00  0.00     0.000 A 
ATOM     25  C   UNL     1      26.038  35.193  -4.022  1.00  0.00     0.000 A 
ATOM     26  C   UNL     1      26.319  33.897  -4.464  1.00  0.00     0.000 A 
ENDBRANCH  20  21
ENDBRANCH  18  20
ENDBRANCH   3  18
BRANCH   7  27
ATOM     27  C   UNL     1      19.279  41.334  -8.610  1.00  0.00     0.084 C 
ATOM     28  C   UNL     1      18.645  42.271  -7.579  1.00  0.00     0.031 C 
ATOM     29  C   UNL     1      19.955  42.124  -9.734  1.00  0.00     0.031 C 
ENDBRANCH   7  27
TORSDOF 9
ENDMDL
