MODEL 1
REMARK VINA RESULT:    -6.947      0.000      0.000
REMARK INTER + INTRA:         -12.371
REMARK INTER:                 -11.009
REMARK INTRA:                  -1.362
REMARK UNBOUND:                -1.362
REMARK SMILES COc1cc(Nc2c(C#N)cnc3cc(OCCCN4CCN(C)CC4)c(OC)cc23)c(Cl)cc1Cl
REMARK SMILES IDX 16 1 15 2 7 3 8 4 31 5 11 6 13 7 30 8 12 9 14 10 27 11 6 12
REMARK SMILES IDX 5 14 3 15 4 16 35 17 34 18 36 19 32 20 33 21 2 22 1 23 9 24
REMARK SMILES IDX 10 25 28 26 29 27 17 28 18 29 19 30 20 31 21 32 26 33 22 34
REMARK SMILES IDX 25 35 23 36 24 37
REMARK H PARENT 6 13
REMARK Flexibility Score: inf
ROOT
ATOM      1  O   UNL     1      29.833  22.252   9.126  1.00  0.00    -0.490 OA
ENDROOT
BRANCH   1   2
ATOM      2  C   UNL     1      28.507  22.297   9.581  1.00  0.00     0.163 A 
ATOM      3  C   UNL     1      24.474  22.394  10.895  1.00  0.00     0.068 A 
ATOM      4  C   UNL     1      23.913  23.649  11.203  1.00  0.00     0.094 A 
ATOM      5  C   UNL     1      25.817  22.332  10.444  1.00  0.00     0.029 A 
ATOM      6  C   UNL     1      24.676  24.808  11.038  1.00  0.00     0.133 A 
ATOM      7  C   UNL     1      26.543  23.537  10.305  1.00  0.00     0.076 A 
ATOM      8  C   UNL     1      26.462  21.115  10.151  1.00  0.00     0.063 A 
ATOM      9  N   UNL     1      25.957  24.725  10.601  1.00  0.00    -0.255 NA
ATOM     10  C   UNL     1      27.876  23.514   9.883  1.00  0.00     0.079 A 
ATOM     11  C   UNL     1      27.795  21.095   9.698  1.00  0.00     0.161 A 
BRANCH   3  12
ATOM     12  N   UNL     1      23.685  21.203  11.075  1.00  0.00    -0.353 N 
ATOM     13  H   UNL     1      23.420  20.676  10.213  1.00  0.00     0.167 HD
BRANCH  12  14
ATOM     14  C   UNL     1      23.386  20.624  12.361  1.00  0.00     0.061 A 
ATOM     15  C   UNL     1      24.112  19.890  14.583  1.00  0.00     0.139 A 
ATOM     16  C   UNL     1      24.405  20.426  13.314  1.00  0.00     0.075 A 
ATOM     17  C   UNL     1      22.791  19.539  14.888  1.00  0.00     0.084 A 
ATOM     18  C   UNL     1      21.777  19.719  13.942  1.00  0.00     0.047 A 
ATOM     19  Cl  UNL     1      22.380  18.872  16.462  1.00  0.00    -0.080 Cl
ATOM     20  C   UNL     1      22.064  20.257  12.687  1.00  0.00     0.066 A 
ATOM     21  Cl  UNL     1      20.735  20.499  11.557  1.00  0.00    -0.082 Cl
BRANCH  15  22
ATOM     22  O   UNL     1      25.102  19.699  15.562  1.00  0.00    -0.495 OA
ATOM     23  C   UNL     1      25.877  20.745  16.141  1.00  0.00     0.278 C 
ENDBRANCH  15  22
ENDBRANCH  12  14
ENDBRANCH   3  12
BRANCH   4  24
ATOM     24  C   UNL     1      22.556  23.762  11.676  1.00  0.00     0.103 C 
ATOM     25  N   UNL     1      21.467  23.854  12.057  1.00  0.00    -0.192 NA
ENDBRANCH   4  24
BRANCH  11  26
ATOM     26  O   UNL     1      28.452  19.899   9.368  1.00  0.00    -0.493 OA
ATOM     27  C   UNL     1      28.037  18.602   9.789  1.00  0.00     0.278 C 
ENDBRANCH  11  26
ENDBRANCH   1   2
BRANCH   1  28
ATOM     28  C   UNL     1      30.639  23.409   8.906  1.00  0.00     0.231 C 
BRANCH  28  29
ATOM     29  C   UNL     1      30.490  23.859   7.454  1.00  0.00     0.057 C 
BRANCH  29  30
ATOM     30  C   UNL     1      30.541  22.661   6.492  1.00  0.00     0.088 C 
BRANCH  30  31
ATOM     31  N   UNL     1      31.415  22.963   5.334  1.00  0.00    -0.301 NA
ATOM     32  C   UNL     1      31.324  21.889   4.325  1.00  0.00     0.100 C 
ATOM     33  C   UNL     1      32.822  23.128   5.766  1.00  0.00     0.100 C 
ATOM     34  C   UNL     1      32.223  22.207   3.125  1.00  0.00     0.099 C 
ATOM     35  C   UNL     1      33.712  23.455   4.564  1.00  0.00     0.099 C 
ATOM     36  N   UNL     1      33.621  22.371   3.568  1.00  0.00    -0.304 NA
ATOM     37  C   UNL     1      34.487  22.669   2.418  1.00  0.00     0.105 C 
ENDBRANCH  30  31
ENDBRANCH  29  30
ENDBRANCH  28  29
ENDBRANCH   1  28
TORSDOF 10
ENDMDL
MODEL 2
REMARK VINA RESULT:    -6.932      3.720      9.608
REMARK INTER + INTRA:         -12.346
REMARK INTER:                 -10.572
REMARK INTRA:                  -1.774
REMARK UNBOUND:                -1.362
REMARK SMILES COc1cc(Nc2c(C#N)cnc3cc(OCCCN4CCN(C)CC4)c(OC)cc23)c(Cl)cc1Cl
REMARK SMILES IDX 16 1 15 2 7 3 8 4 31 5 11 6 13 7 30 8 12 9 14 10 27 11 6 12
REMARK SMILES IDX 5 14 3 15 4 16 35 17 34 18 36 19 32 20 33 21 2 22 1 23 9 24
REMARK SMILES IDX 10 25 28 26 29 27 17 28 18 29 19 30 20 31 21 32 26 33 22 34
REMARK SMILES IDX 25 35 23 36 24 37
REMARK H PARENT 6 13
REMARK Flexibility Score: inf
ROOT
ATOM      1  O   UNL     1      22.903  19.987  11.275  1.00  0.00    -0.490 OA
ENDROOT
BRANCH   1   2
ATOM      2  C   UNL     1      23.907  20.958  11.156  1.00  0.00     0.163 A 
ATOM      3  C   UNL     1      26.985  23.862  10.850  1.00  0.00     0.068 A 
ATOM      4  C   UNL     1      26.622  25.220  10.956  1.00  0.00     0.094 A 
ATOM      5  C   UNL     1      25.979  22.869  10.958  1.00  0.00     0.029 A 
ATOM      6  C   UNL     1      25.287  25.563  11.188  1.00  0.00     0.133 A 
ATOM      7  C   UNL     1      24.645  23.277  11.184  1.00  0.00     0.076 A 
ATOM      8  C   UNL     1      26.254  21.495  10.827  1.00  0.00     0.063 A 
ATOM      9  N   UNL     1      24.343  24.595  11.293  1.00  0.00    -0.255 NA
ATOM     10  C   UNL     1      23.622  22.327  11.276  1.00  0.00     0.079 A 
ATOM     11  C   UNL     1      25.228  20.538  10.948  1.00  0.00     0.161 A 
BRANCH   3  12
ATOM     12  N   UNL     1      28.361  23.516  10.602  1.00  0.00    -0.353 N 
ATOM     13  H   UNL     1      28.952  23.303  11.436  1.00  0.00     0.167 HD
BRANCH  12  14
ATOM     14  C   UNL     1      28.909  23.294   9.287  1.00  0.00     0.061 A 
ATOM     15  C   UNL     1      29.375  24.087   7.016  1.00  0.00     0.139 A 
ATOM     16  C   UNL     1      28.813  24.287   8.292  1.00  0.00     0.075 A 
ATOM     17  C   UNL     1      30.024  22.877   6.737  1.00  0.00     0.084 A 
ATOM     18  C   UNL     1      30.111  21.883   7.715  1.00  0.00     0.047 A 
ATOM     19  Cl  UNL     1      30.744  22.588   5.160  1.00  0.00    -0.080 Cl
ATOM     20  C   UNL     1      29.561  22.082   8.983  1.00  0.00     0.066 A 
ATOM     21  Cl  UNL     1      29.743  20.806  10.183  1.00  0.00    -0.082 Cl
BRANCH  15  22
ATOM     22  O   UNL     1      29.313  25.065   6.009  1.00  0.00    -0.495 OA
ATOM     23  C   UNL     1      29.958  26.334   6.075  1.00  0.00     0.278 C 
ENDBRANCH  15  22
ENDBRANCH  12  14
ENDBRANCH   3  12
BRANCH   4  24
ATOM     24  C   UNL     1      27.607  26.266  10.840  1.00  0.00     0.103 C 
ATOM     25  N   UNL     1      28.397  27.106  10.748  1.00  0.00    -0.192 NA
ENDBRANCH   4  24
BRANCH  11  26
ATOM     26  O   UNL     1      25.480  19.160  10.854  1.00  0.00    -0.493 OA
ATOM     27  C   UNL     1      26.416  18.565   9.959  1.00  0.00     0.278 C 
ENDBRANCH  11  26
ENDBRANCH   1   2
BRANCH   1  28
ATOM     28  C   UNL     1      21.600  20.248  11.795  1.00  0.00     0.231 C 
BRANCH  28  29
ATOM     29  C   UNL     1      21.484  19.648  13.194  1.00  0.00     0.057 C 
BRANCH  29  30
ATOM     30  C   UNL     1      21.558  20.737  14.276  1.00  0.00     0.088 C 
BRANCH  30  31
ATOM     31  N   UNL     1      22.604  20.408  15.272  1.00  0.00    -0.301 NA
ATOM     32  C   UNL     1      23.826  21.198  15.017  1.00  0.00     0.100 C 
ATOM     33  C   UNL     1      22.924  18.963  15.241  1.00  0.00     0.100 C 
ATOM     34  C   UNL     1      24.905  20.861  16.052  1.00  0.00     0.099 C 
ATOM     35  C   UNL     1      23.995  18.633  16.284  1.00  0.00     0.099 C 
ATOM     36  N   UNL     1      25.213  19.419  16.013  1.00  0.00    -0.304 NA
ATOM     37  C   UNL     1      26.253  19.094  17.001  1.00  0.00     0.105 C 
ENDBRANCH  30  31
ENDBRANCH  29  30
ENDBRANCH  28  29
ENDBRANCH   1  28
TORSDOF 10
ENDMDL
MODEL 3
REMARK VINA RESULT:    -6.901      3.824     10.484
REMARK INTER + INTRA:         -12.298
REMARK INTER:                 -10.985
REMARK INTRA:                  -1.312
REMARK UNBOUND:                -1.362
REMARK SMILES COc1cc(Nc2c(C#N)cnc3cc(OCCCN4CCN(C)CC4)c(OC)cc23)c(Cl)cc1Cl
REMARK SMILES IDX 16 1 15 2 7 3 8 4 31 5 11 6 13 7 30 8 12 9 14 10 27 11 6 12
REMARK SMILES IDX 5 14 3 15 4 16 35 17 34 18 36 19 32 20 33 21 2 22 1 23 9 24
REMARK SMILES IDX 10 25 28 26 29 27 17 28 18 29 19 30 20 31 21 32 26 33 22 34
REMARK SMILES IDX 25 35 23 36 24 37
REMARK H PARENT 6 13
REMARK Flexibility Score: inf
ROOT
ATOM      1  O   UNL     1      22.735  19.992  11.455  1.00  0.00    -0.490 OA
ENDROOT
BRANCH   1   2
ATOM      2  C   UNL     1      23.748  20.952  11.317  1.00  0.00     0.163 A 
ATOM      3  C   UNL     1      26.851  23.821  10.954  1.00  0.00     0.068 A 
ATOM      4  C   UNL     1      26.510  25.181  11.095  1.00  0.00     0.094 A 
ATOM      5  C   UNL     1      25.836  22.840  11.080  1.00  0.00     0.029 A 
ATOM      6  C   UNL     1      25.189  25.538  11.379  1.00  0.00     0.133 A 
ATOM      7  C   UNL     1      24.516  23.260  11.359  1.00  0.00     0.076 A 
ATOM      8  C   UNL     1      26.089  21.464  10.916  1.00  0.00     0.063 A 
ATOM      9  N   UNL     1      24.236  24.581  11.501  1.00  0.00    -0.255 NA
ATOM     10  C   UNL     1      23.484  22.323  11.470  1.00  0.00     0.079 A 
ATOM     11  C   UNL     1      25.055  20.519  11.057  1.00  0.00     0.161 A 
BRANCH   3  12
ATOM     12  N   UNL     1      28.213  23.462  10.652  1.00  0.00    -0.353 N 
ATOM     13  H   UNL     1      28.829  23.222  11.461  1.00  0.00     0.167 HD
BRANCH  12  14
ATOM     14  C   UNL     1      28.714  23.262   9.315  1.00  0.00     0.061 A 
ATOM     15  C   UNL     1      29.136  24.106   7.054  1.00  0.00     0.139 A 
ATOM     16  C   UNL     1      28.619  24.286   8.352  1.00  0.00     0.075 A 
ATOM     17  C   UNL     1      29.738  22.886   6.721  1.00  0.00     0.084 A 
ATOM     18  C   UNL     1      29.822  21.861   7.668  1.00  0.00     0.047 A 
ATOM     19  Cl  UNL     1      30.401  22.621   5.115  1.00  0.00    -0.080 Cl
ATOM     20  C   UNL     1      29.317  22.039   8.957  1.00  0.00     0.066 A 
ATOM     21  Cl  UNL     1      29.495  20.724  10.114  1.00  0.00    -0.082 Cl
BRANCH  15  22
ATOM     22  O   UNL     1      29.075  25.115   6.078  1.00  0.00    -0.495 OA
ATOM     23  C   UNL     1      30.017  26.177   5.954  1.00  0.00     0.278 C 
ENDBRANCH  15  22
ENDBRANCH  12  14
ENDBRANCH   3  12
BRANCH   4  24
ATOM     24  C   UNL     1      27.504  26.217  10.963  1.00  0.00     0.103 C 
ATOM     25  N   UNL     1      28.303  27.047  10.858  1.00  0.00    -0.192 NA
ENDBRANCH   4  24
BRANCH  11  26
ATOM     26  O   UNL     1      25.284  19.140  10.931  1.00  0.00    -0.493 OA
ATOM     27  C   UNL     1      26.369  18.560  10.210  1.00  0.00     0.278 C 
ENDBRANCH  11  26
ENDBRANCH   1   2
BRANCH   1  28
ATOM     28  C   UNL     1      21.372  20.306  11.740  1.00  0.00     0.231 C 
BRANCH  28  29
ATOM     29  C   UNL     1      21.022  19.808  13.141  1.00  0.00     0.057 C 
BRANCH  29  30
ATOM     30  C   UNL     1      22.266  19.274  13.869  1.00  0.00     0.088 C 
BRANCH  30  31
ATOM     31  N   UNL     1      21.908  18.118  14.725  1.00  0.00    -0.301 NA
ATOM     32  C   UNL     1      20.494  17.743  14.522  1.00  0.00     0.100 C 
ATOM     33  C   UNL     1      22.145  18.428  16.154  1.00  0.00     0.100 C 
ATOM     34  C   UNL     1      20.128  16.544  15.402  1.00  0.00     0.099 C 
ATOM     35  C   UNL     1      21.786  17.223  17.026  1.00  0.00     0.099 C 
ATOM     36  N   UNL     1      20.370  16.864  16.822  1.00  0.00    -0.304 NA
ATOM     37  C   UNL     1      20.013  15.718  17.671  1.00  0.00     0.105 C 
ENDBRANCH  30  31
ENDBRANCH  29  30
ENDBRANCH  28  29
ENDBRANCH   1  28
TORSDOF 10
ENDMDL
MODEL 4
REMARK VINA RESULT:    -6.887      3.831      6.141
REMARK INTER + INTRA:         -12.276
REMARK INTER:                 -10.782
REMARK INTRA:                  -1.494
REMARK UNBOUND:                -1.362
REMARK SMILES COc1cc(Nc2c(C#N)cnc3cc(OCCCN4CCN(C)CC4)c(OC)cc23)c(Cl)cc1Cl
REMARK SMILES IDX 16 1 15 2 7 3 8 4 31 5 11 6 13 7 30 8 12 9 14 10 27 11 6 12
REMARK SMILES IDX 5 14 3 15 4 16 35 17 34 18 36 19 32 20 33 21 2 22 1 23 9 24
REMARK SMILES IDX 10 25 28 26 29 27 17 28 18 29 19 30 20 31 21 32 26 33 22 34
REMARK SMILES IDX 25 35 23 36 24 37
REMARK H PARENT 6 13
REMARK Flexibility Score: inf
ROOT
ATOM      1  O   UNL     1      25.839  19.888  11.232  1.00  0.00    -0.490 OA
ENDROOT
BRANCH   1   2
ATOM      2  C   UNL     1      24.736  20.626  11.681  1.00  0.00     0.163 A 
ATOM      3  C   UNL     1      21.439  22.923  13.046  1.00  0.00     0.068 A 
ATOM      4  C   UNL     1      20.748  22.468  14.186  1.00  0.00     0.094 A 
ATOM      5  C   UNL     1      22.551  22.180  12.573  1.00  0.00     0.029 A 
ATOM      6  C   UNL     1      21.180  21.313  14.843  1.00  0.00     0.133 A 
ATOM      7  C   UNL     1      22.937  21.015  13.274  1.00  0.00     0.076 A 
ATOM      8  C   UNL     1      23.271  22.547  11.420  1.00  0.00     0.063 A 
ATOM      9  N   UNL     1      22.250  20.623  14.376  1.00  0.00    -0.255 NA
ATOM     10  C   UNL     1      24.016  20.246  12.825  1.00  0.00     0.079 A 
ATOM     11  C   UNL     1      24.375  21.788  10.986  1.00  0.00     0.161 A 
BRANCH   3  12
ATOM     12  N   UNL     1      20.983  24.109  12.368  1.00  0.00    -0.353 N 
ATOM     13  H   UNL     1      20.017  24.085  11.972  1.00  0.00     0.167 HD
BRANCH  12  14
ATOM     14  C   UNL     1      21.710  25.354  12.351  1.00  0.00     0.061 A 
ATOM     15  C   UNL     1      23.120  27.010  13.481  1.00  0.00     0.139 A 
ATOM     16  C   UNL     1      22.382  25.809  13.502  1.00  0.00     0.075 A 
ATOM     17  C   UNL     1      23.167  27.760  12.300  1.00  0.00     0.084 A 
ATOM     18  C   UNL     1      22.491  27.322  11.158  1.00  0.00     0.047 A 
ATOM     19  Cl  UNL     1      24.080  29.261  12.227  1.00  0.00    -0.080 Cl
ATOM     20  C   UNL     1      21.766  26.129  11.175  1.00  0.00     0.066 A 
ATOM     21  Cl  UNL     1      20.973  25.611   9.690  1.00  0.00    -0.082 Cl
BRANCH  15  22
ATOM     22  O   UNL     1      23.817  27.480  14.606  1.00  0.00    -0.495 OA
ATOM     23  C   UNL     1      25.116  27.040  14.994  1.00  0.00     0.278 C 
ENDBRANCH  15  22
ENDBRANCH  12  14
ENDBRANCH   3  12
BRANCH   4  24
ATOM     24  C   UNL     1      19.605  23.182  14.698  1.00  0.00     0.103 C 
ATOM     25  N   UNL     1      18.688  23.755  15.108  1.00  0.00    -0.192 NA
ENDBRANCH   4  24
BRANCH  11  26
ATOM     26  O   UNL     1      25.130  22.149   9.859  1.00  0.00    -0.493 OA
ATOM     27  C   UNL     1      25.725  23.428   9.656  1.00  0.00     0.278 C 
ENDBRANCH  11  26
ENDBRANCH   1   2
BRANCH   1  28
ATOM     28  C   UNL     1      25.748  18.791  10.323  1.00  0.00     0.231 C 
BRANCH  28  29
ATOM     29  C   UNL     1      27.155  18.339   9.935  1.00  0.00     0.057 C 
BRANCH  29  30
ATOM     30  C   UNL     1      27.533  18.841   8.532  1.00  0.00     0.088 C 
BRANCH  30  31
ATOM     31  N   UNL     1      28.564  19.902   8.622  1.00  0.00    -0.301 NA
ATOM     32  C   UNL     1      29.061  20.021  10.008  1.00  0.00     0.100 C 
ATOM     33  C   UNL     1      28.021  21.203   8.170  1.00  0.00     0.100 C 
ATOM     34  C   UNL     1      30.132  21.114  10.099  1.00  0.00     0.099 C 
ATOM     35  C   UNL     1      29.098  22.287   8.254  1.00  0.00     0.099 C 
ATOM     36  N   UNL     1      29.580  22.404   9.643  1.00  0.00    -0.304 NA
ATOM     37  C   UNL     1      30.602  23.457   9.735  1.00  0.00     0.105 C 
ENDBRANCH  30  31
ENDBRANCH  29  30
ENDBRANCH  28  29
ENDBRANCH   1  28
TORSDOF 10
ENDMDL
MODEL 5
REMARK VINA RESULT:    -6.873      7.687     12.108
REMARK INTER + INTRA:         -12.253
REMARK INTER:                 -10.466
REMARK INTRA:                  -1.788
REMARK UNBOUND:                -1.362
REMARK SMILES COc1cc(Nc2c(C#N)cnc3cc(OCCCN4CCN(C)CC4)c(OC)cc23)c(Cl)cc1Cl
REMARK SMILES IDX 16 1 15 2 7 3 8 4 31 5 11 6 13 7 30 8 12 9 14 10 27 11 6 12
REMARK SMILES IDX 5 14 3 15 4 16 35 17 34 18 36 19 32 20 33 21 2 22 1 23 9 24
REMARK SMILES IDX 10 25 28 26 29 27 17 28 18 29 19 30 20 31 21 32 26 33 22 34
REMARK SMILES IDX 25 35 23 36 24 37
REMARK H PARENT 6 13
REMARK Flexibility Score: inf
ROOT
ATOM      1  O   UNL     1      29.972  25.614   7.079  1.00  0.00    -0.490 OA
ENDROOT
BRANCH   1   2
ATOM      2  C   UNL     1      30.748  26.764   6.875  1.00  0.00     0.163 A 
ATOM      3  C   UNL     1      33.034  30.281   6.238  1.00  0.00     0.068 A 
ATOM      4  C   UNL     1      34.131  30.203   5.357  1.00  0.00     0.094 A 
ATOM      5  C   UNL     1      32.246  29.124   6.463  1.00  0.00     0.029 A 
ATOM      6  C   UNL     1      34.409  28.999   4.704  1.00  0.00     0.133 A 
ATOM      7  C   UNL     1      32.581  27.932   5.781  1.00  0.00     0.076 A 
ATOM      8  C   UNL     1      31.157  29.110   7.355  1.00  0.00     0.063 A 
ATOM      9  N   UNL     1      33.639  27.906   4.931  1.00  0.00    -0.255 NA
ATOM     10  C   UNL     1      31.840  26.765   5.993  1.00  0.00     0.079 A 
ATOM     11  C   UNL     1      30.394  27.943   7.545  1.00  0.00     0.161 A 
BRANCH   3  12
ATOM     12  N   UNL     1      32.758  31.522   6.914  1.00  0.00    -0.353 N 
ATOM     13  H   UNL     1      33.399  31.788   7.695  1.00  0.00     0.167 HD
BRANCH  12  14
ATOM     14  C   UNL     1      31.766  32.473   6.476  1.00  0.00     0.061 A 
ATOM     15  C   UNL     1      30.822  33.908   4.729  1.00  0.00     0.139 A 
ATOM     16  C   UNL     1      31.807  33.003   5.172  1.00  0.00     0.075 A 
ATOM     17  C   UNL     1      29.801  34.290   5.608  1.00  0.00     0.084 A 
ATOM     18  C   UNL     1      29.763  33.780   6.909  1.00  0.00     0.047 A 
ATOM     19  Cl  UNL     1      28.549  35.413   5.096  1.00  0.00    -0.080 Cl
ATOM     20  C   UNL     1      30.734  32.877   7.347  1.00  0.00     0.066 A 
ATOM     21  Cl  UNL     1      30.604  32.238   8.983  1.00  0.00    -0.082 Cl
BRANCH  15  22
ATOM     22  O   UNL     1      30.823  34.438   3.428  1.00  0.00    -0.495 OA
ATOM     23  C   UNL     1      31.941  35.078   2.817  1.00  0.00     0.278 C 
ENDBRANCH  15  22
ENDBRANCH  12  14
ENDBRANCH   3  12
BRANCH   4  24
ATOM     24  C   UNL     1      34.968  31.348   5.106  1.00  0.00     0.103 C 
ATOM     25  N   UNL     1      35.640  32.268   4.905  1.00  0.00    -0.192 NA
ENDBRANCH   4  24
BRANCH  11  26
ATOM     26  O   UNL     1      29.284  27.910   8.404  1.00  0.00    -0.493 OA
ATOM     27  C   UNL     1      28.531  29.053   8.802  1.00  0.00     0.278 C 
ENDBRANCH  11  26
ENDBRANCH   1   2
BRANCH   1  28
ATOM     28  C   UNL     1      29.339  24.883   6.029  1.00  0.00     0.231 C 
BRANCH  28  29
ATOM     29  C   UNL     1      29.228  23.414   6.432  1.00  0.00     0.057 C 
BRANCH  29  30
ATOM     30  C   UNL     1      30.616  22.774   6.590  1.00  0.00     0.088 C 
BRANCH  30  31
ATOM     31  N   UNL     1      31.444  23.031   5.389  1.00  0.00    -0.301 NA
ATOM     32  C   UNL     1      31.331  21.910   4.434  1.00  0.00     0.100 C 
ATOM     33  C   UNL     1      32.864  23.232   5.761  1.00  0.00     0.100 C 
ATOM     34  C   UNL     1      32.183  22.181   3.189  1.00  0.00     0.099 C 
ATOM     35  C   UNL     1      33.706  23.512   4.514  1.00  0.00     0.099 C 
ATOM     36  N   UNL     1      33.594  22.382   3.573  1.00  0.00    -0.304 NA
ATOM     37  C   UNL     1      34.415  22.635   2.380  1.00  0.00     0.105 C 
ENDBRANCH  30  31
ENDBRANCH  29  30
ENDBRANCH  28  29
ENDBRANCH   1  28
TORSDOF 10
ENDMDL
MODEL 6
REMARK VINA RESULT:    -6.872      1.005      1.124
REMARK INTER + INTRA:         -12.252
REMARK INTER:                 -10.944
REMARK INTRA:                  -1.309
REMARK UNBOUND:                -1.362
REMARK SMILES COc1cc(Nc2c(C#N)cnc3cc(OCCCN4CCN(C)CC4)c(OC)cc23)c(Cl)cc1Cl
REMARK SMILES IDX 16 1 15 2 7 3 8 4 31 5 11 6 13 7 30 8 12 9 14 10 27 11 6 12
REMARK SMILES IDX 5 14 3 15 4 16 35 17 34 18 36 19 32 20 33 21 2 22 1 23 9 24
REMARK SMILES IDX 10 25 28 26 29 27 17 28 18 29 19 30 20 31 21 32 26 33 22 34
REMARK SMILES IDX 25 35 23 36 24 37
REMARK H PARENT 6 13
REMARK Flexibility Score: inf
ROOT
ATOM      1  O   UNL     1      29.237  21.246   8.598  1.00  0.00    -0.490 OA
ENDROOT
BRANCH   1   2
ATOM      2  C   UNL     1      27.990  21.455   9.204  1.00  0.00     0.163 A 
ATOM      3  C   UNL     1      24.184  22.043  10.984  1.00  0.00     0.068 A 
ATOM      4  C   UNL     1      23.751  23.368  11.188  1.00  0.00     0.094 A 
ATOM      5  C   UNL     1      25.447  21.816  10.382  1.00  0.00     0.029 A 
ATOM      6  C   UNL     1      24.558  24.432  10.776  1.00  0.00     0.133 A 
ATOM      7  C   UNL     1      26.224  22.931   9.993  1.00  0.00     0.076 A 
ATOM      8  C   UNL     1      25.967  20.524  10.177  1.00  0.00     0.063 A 
ATOM      9  N   UNL     1      25.761  24.190  10.198  1.00  0.00    -0.255 NA
ATOM     10  C   UNL     1      27.484  22.747   9.416  1.00  0.00     0.079 A 
ATOM     11  C   UNL     1      27.224  20.339   9.568  1.00  0.00     0.161 A 
BRANCH   3  12
ATOM     12  N   UNL     1      23.350  20.952  11.419  1.00  0.00    -0.353 N 
ATOM     13  H   UNL     1      22.894  20.379  10.674  1.00  0.00     0.167 HD
BRANCH  12  14
ATOM     14  C   UNL     1      23.246  20.518  12.790  1.00  0.00     0.061 A 
ATOM     15  C   UNL     1      24.300  19.953  14.928  1.00  0.00     0.139 A 
ATOM     16  C   UNL     1      24.400  20.346  13.579  1.00  0.00     0.075 A 
ATOM     17  C   UNL     1      23.034  19.719  15.479  1.00  0.00     0.084 A 
ATOM     18  C   UNL     1      21.885  19.873  14.698  1.00  0.00     0.047 A 
ATOM     19  Cl  UNL     1      22.863  19.232  17.160  1.00  0.00    -0.080 Cl
ATOM     20  C   UNL     1      21.982  20.270  13.363  1.00  0.00     0.066 A 
ATOM     21  Cl  UNL     1      20.494  20.489  12.446  1.00  0.00    -0.082 Cl
BRANCH  15  22
ATOM     22  O   UNL     1      25.431  19.793  15.747  1.00  0.00    -0.495 OA
ATOM     23  C   UNL     1      26.054  20.845  16.479  1.00  0.00     0.278 C 
ENDBRANCH  15  22
ENDBRANCH  12  14
ENDBRANCH   3  12
BRANCH   4  24
ATOM     24  C   UNL     1      22.480  23.650  11.807  1.00  0.00     0.103 C 
ATOM     25  N   UNL     1      21.460  23.876  12.304  1.00  0.00    -0.192 NA
ENDBRANCH   4  24
BRANCH  11  26
ATOM     26  O   UNL     1      27.751  19.062   9.323  1.00  0.00    -0.493 OA
ATOM     27  C   UNL     1      27.403  18.238   8.213  1.00  0.00     0.278 C 
ENDBRANCH  11  26
ENDBRANCH   1   2
BRANCH   1  28
ATOM     28  C   UNL     1      30.292  22.207   8.594  1.00  0.00     0.231 C 
BRANCH  28  29
ATOM     29  C   UNL     1      30.282  22.961   7.265  1.00  0.00     0.057 C 
BRANCH  29  30
ATOM     30  C   UNL     1      31.005  22.164   6.167  1.00  0.00     0.088 C 
BRANCH  30  31
ATOM     31  N   UNL     1      31.914  23.047   5.400  1.00  0.00    -0.301 NA
ATOM     32  C   UNL     1      32.953  22.250   4.717  1.00  0.00     0.100 C 
ATOM     33  C   UNL     1      32.551  24.047   6.288  1.00  0.00     0.100 C 
ATOM     34  C   UNL     1      33.889  23.165   3.918  1.00  0.00     0.099 C 
ATOM     35  C   UNL     1      33.475  24.963   5.482  1.00  0.00     0.099 C 
ATOM     36  N   UNL     1      34.514  24.157   4.813  1.00  0.00    -0.304 NA
ATOM     37  C   UNL     1      35.418  25.032   4.051  1.00  0.00     0.105 C 
ENDBRANCH  30  31
ENDBRANCH  29  30
ENDBRANCH  28  29
ENDBRANCH   1  28
TORSDOF 10
ENDMDL
MODEL 7
REMARK VINA RESULT:    -6.838      2.621      4.082
REMARK INTER + INTRA:         -12.197
REMARK INTER:                 -10.578
REMARK INTRA:                  -1.619
REMARK UNBOUND:                -1.362
REMARK SMILES COc1cc(Nc2c(C#N)cnc3cc(OCCCN4CCN(C)CC4)c(OC)cc23)c(Cl)cc1Cl
REMARK SMILES IDX 16 1 15 2 7 3 8 4 31 5 11 6 13 7 30 8 12 9 14 10 27 11 6 12
REMARK SMILES IDX 5 14 3 15 4 16 35 17 34 18 36 19 32 20 33 21 2 22 1 23 9 24
REMARK SMILES IDX 10 25 28 26 29 27 17 28 18 29 19 30 20 31 21 32 26 33 22 34
REMARK SMILES IDX 25 35 23 36 24 37
REMARK H PARENT 6 13
REMARK Flexibility Score: inf
ROOT
ATOM      1  O   UNL     1      29.186  25.670   6.409  1.00  0.00    -0.490 OA
ENDROOT
BRANCH   1   2
ATOM      2  C   UNL     1      28.475  24.701   7.131  1.00  0.00     0.163 A 
ATOM      3  C   UNL     1      26.325  21.815   9.378  1.00  0.00     0.068 A 
ATOM      4  C   UNL     1      26.859  20.514   9.460  1.00  0.00     0.094 A 
ATOM      5  C   UNL     1      27.027  22.803   8.642  1.00  0.00     0.029 A 
ATOM      6  C   UNL     1      28.075  20.224   8.837  1.00  0.00     0.133 A 
ATOM      7  C   UNL     1      28.249  22.450   8.026  1.00  0.00     0.076 A 
ATOM      8  C   UNL     1      26.543  24.116   8.483  1.00  0.00     0.063 A 
ATOM      9  N   UNL     1      28.732  21.187   8.142  1.00  0.00    -0.255 NA
ATOM     10  C   UNL     1      28.959  23.391   7.274  1.00  0.00     0.079 A 
ATOM     11  C   UNL     1      27.273  25.071   7.751  1.00  0.00     0.161 A 
BRANCH   3  12
ATOM     12  N   UNL     1      25.066  22.104  10.016  1.00  0.00    -0.353 N 
ATOM     13  H   UNL     1      24.206  21.993   9.435  1.00  0.00     0.167 HD
BRANCH  12  14
ATOM     14  C   UNL     1      24.922  22.375  11.424  1.00  0.00     0.061 A 
ATOM     15  C   UNL     1      25.627  23.572  13.443  1.00  0.00     0.139 A 
ATOM     16  C   UNL     1      25.784  23.281  12.073  1.00  0.00     0.075 A 
ATOM     17  C   UNL     1      24.607  22.938  14.163  1.00  0.00     0.084 A 
ATOM     18  C   UNL     1      23.758  22.028  13.529  1.00  0.00     0.047 A 
ATOM     19  Cl  UNL     1      24.372  23.277  15.872  1.00  0.00    -0.080 Cl
ATOM     20  C   UNL     1      23.907  21.743  12.170  1.00  0.00     0.066 A 
ATOM     21  Cl  UNL     1      22.776  20.620  11.422  1.00  0.00    -0.082 Cl
BRANCH  15  22
ATOM     22  O   UNL     1      26.458  24.486  14.113  1.00  0.00    -0.495 OA
ATOM     23  C   UNL     1      26.322  25.903  14.045  1.00  0.00     0.278 C 
ENDBRANCH  15  22
ENDBRANCH  12  14
ENDBRANCH   3  12
BRANCH   4  24
ATOM     24  C   UNL     1      26.176  19.473  10.186  1.00  0.00     0.103 C 
ATOM     25  N   UNL     1      25.628  18.637  10.769  1.00  0.00    -0.192 NA
ENDBRANCH   4  24
BRANCH  11  26
ATOM     26  O   UNL     1      26.830  26.394   7.603  1.00  0.00    -0.493 OA
ATOM     27  C   UNL     1      25.937  27.056   8.495  1.00  0.00     0.278 C 
ENDBRANCH  11  26
ENDBRANCH   1   2
BRANCH   1  28
ATOM     28  C   UNL     1      30.269  26.429   6.945  1.00  0.00     0.231 C 
BRANCH  28  29
ATOM     29  C   UNL     1      31.570  25.996   6.272  1.00  0.00     0.057 C 
BRANCH  29  30
ATOM     30  C   UNL     1      32.225  24.827   7.026  1.00  0.00     0.088 C 
BRANCH  30  31
ATOM     31  N   UNL     1      33.000  23.978   6.092  1.00  0.00    -0.301 NA
ATOM     32  C   UNL     1      33.909  24.806   5.274  1.00  0.00     0.100 C 
ATOM     33  C   UNL     1      32.095  23.205   5.210  1.00  0.00     0.100 C 
ATOM     34  C   UNL     1      34.715  23.924   4.313  1.00  0.00     0.099 C 
ATOM     35  C   UNL     1      32.906  22.320   4.260  1.00  0.00     0.099 C 
ATOM     36  N   UNL     1      33.803  23.158   3.443  1.00  0.00    -0.304 NA
ATOM     37  C   UNL     1      34.572  22.317   2.514  1.00  0.00     0.105 C 
ENDBRANCH  30  31
ENDBRANCH  29  30
ENDBRANCH  28  29
ENDBRANCH   1  28
TORSDOF 10
ENDMDL
MODEL 8
REMARK VINA RESULT:    -6.765      2.266      3.912
REMARK INTER + INTRA:         -12.082
REMARK INTER:                 -10.788
REMARK INTRA:                  -1.294
REMARK UNBOUND:                -1.362
REMARK SMILES COc1cc(Nc2c(C#N)cnc3cc(OCCCN4CCN(C)CC4)c(OC)cc23)c(Cl)cc1Cl
REMARK SMILES IDX 16 1 15 2 7 3 8 4 31 5 11 6 13 7 30 8 12 9 14 10 27 11 6 12
REMARK SMILES IDX 5 14 3 15 4 16 35 17 34 18 36 19 32 20 33 21 2 22 1 23 9 24
REMARK SMILES IDX 10 25 28 26 29 27 17 28 18 29 19 30 20 31 21 32 26 33 22 34
REMARK SMILES IDX 25 35 23 36 24 37
REMARK H PARENT 6 13
REMARK Flexibility Score: inf
ROOT
ATOM      1  O   UNL     1      30.924  25.404   9.938  1.00  0.00    -0.490 OA
ENDROOT
BRANCH   1   2
ATOM      2  C   UNL     1      29.971  24.375   9.950  1.00  0.00     0.163 A 
ATOM      3  C   UNL     1      27.060  21.291  10.053  1.00  0.00     0.068 A 
ATOM      4  C   UNL     1      27.511  19.958   9.978  1.00  0.00     0.094 A 
ATOM      5  C   UNL     1      28.011  22.342  10.031  1.00  0.00     0.029 A 
ATOM      6  C   UNL     1      28.881  19.694   9.907  1.00  0.00     0.133 A 
ATOM      7  C   UNL     1      29.383  22.014   9.949  1.00  0.00     0.076 A 
ATOM      8  C   UNL     1      27.640  23.700  10.065  1.00  0.00     0.063 A 
ATOM      9  N   UNL     1      29.773  20.715   9.892  1.00  0.00    -0.255 NA
ATOM     10  C   UNL     1      30.350  23.024   9.903  1.00  0.00     0.079 A 
ATOM     11  C   UNL     1      28.616  24.716  10.049  1.00  0.00     0.161 A 
BRANCH   3  12
ATOM     12  N   UNL     1      25.646  21.557  10.118  1.00  0.00    -0.353 N 
ATOM     13  H   UNL     1      25.112  21.499   9.222  1.00  0.00     0.167 HD
BRANCH  12  14
ATOM     14  C   UNL     1      24.917  21.734  11.350  1.00  0.00     0.061 A 
ATOM     15  C   UNL     1      24.155  20.870  13.513  1.00  0.00     0.139 A 
ATOM     16  C   UNL     1      24.839  20.691  12.294  1.00  0.00     0.075 A 
ATOM     17  C   UNL     1      23.536  22.099  13.774  1.00  0.00     0.084 A 
ATOM     18  C   UNL     1      23.597  23.133  12.835  1.00  0.00     0.047 A 
ATOM     19  Cl  UNL     1      22.676  22.368  15.284  1.00  0.00    -0.080 Cl
ATOM     20  C   UNL     1      24.281  22.960  11.630  1.00  0.00     0.066 A 
ATOM     21  Cl  UNL     1      24.358  24.317  10.510  1.00  0.00    -0.082 Cl
BRANCH  15  22
ATOM     22  O   UNL     1      24.076  19.857  14.483  1.00  0.00    -0.495 OA
ATOM     23  C   UNL     1      23.018  18.906  14.574  1.00  0.00     0.278 C 
ENDBRANCH  15  22
ENDBRANCH  12  14
ENDBRANCH   3  12
BRANCH   4  24
ATOM     24  C   UNL     1      26.582  18.856   9.985  1.00  0.00     0.103 C 
ATOM     25  N   UNL     1      25.836  17.972   9.990  1.00  0.00    -0.192 NA
ENDBRANCH   4  24
BRANCH  11  26
ATOM     26  O   UNL     1      28.275  26.076  10.115  1.00  0.00    -0.493 OA
ATOM     27  C   UNL     1      27.744  26.833   9.031  1.00  0.00     0.278 C 
ENDBRANCH  11  26
ENDBRANCH   1   2
BRANCH   1  28
ATOM     28  C   UNL     1      31.433  26.005   8.747  1.00  0.00     0.231 C 
BRANCH  28  29
ATOM     29  C   UNL     1      31.165  25.080   7.561  1.00  0.00     0.057 C 
BRANCH  29  30
ATOM     30  C   UNL     1      32.478  24.582   6.936  1.00  0.00     0.088 C 
BRANCH  30  31
ATOM     31  N   UNL     1      32.226  23.402   6.075  1.00  0.00    -0.301 NA
ATOM     32  C   UNL     1      33.230  23.328   4.994  1.00  0.00     0.100 C 
ATOM     33  C   UNL     1      30.865  23.456   5.493  1.00  0.00     0.100 C 
ATOM     34  C   UNL     1      32.972  22.104   4.109  1.00  0.00     0.099 C 
ATOM     35  C   UNL     1      30.611  22.226   4.619  1.00  0.00     0.099 C 
ATOM     36  N   UNL     1      31.613  22.168   3.538  1.00  0.00    -0.304 NA
ATOM     37  C   UNL     1      31.365  20.999   2.682  1.00  0.00     0.105 C 
ENDBRANCH  30  31
ENDBRANCH  29  30
ENDBRANCH  28  29
ENDBRANCH   1  28
TORSDOF 10
ENDMDL
MODEL 9
REMARK VINA RESULT:    -6.735      2.030      2.904
REMARK INTER + INTRA:         -12.034
REMARK INTER:                 -10.508
REMARK INTRA:                  -1.526
REMARK UNBOUND:                -1.362
REMARK SMILES COc1cc(Nc2c(C#N)cnc3cc(OCCCN4CCN(C)CC4)c(OC)cc23)c(Cl)cc1Cl
REMARK SMILES IDX 16 1 15 2 7 3 8 4 31 5 11 6 13 7 30 8 12 9 14 10 27 11 6 12
REMARK SMILES IDX 5 14 3 15 4 16 35 17 34 18 36 19 32 20 33 21 2 22 1 23 9 24
REMARK SMILES IDX 10 25 28 26 29 27 17 28 18 29 19 30 20 31 21 32 26 33 22 34
REMARK SMILES IDX 25 35 23 36 24 37
REMARK H PARENT 6 13
REMARK Flexibility Score: inf
ROOT
ATOM      1  O   UNL     1      28.517  22.692   6.598  1.00  0.00    -0.490 OA
ENDROOT
BRANCH   1   2
ATOM      2  C   UNL     1      27.881  23.062   7.792  1.00  0.00     0.163 A 
ATOM      3  C   UNL     1      25.929  24.110  11.410  1.00  0.00     0.068 A 
ATOM      4  C   UNL     1      25.046  25.207  11.387  1.00  0.00     0.094 A 
ATOM      5  C   UNL     1      26.588  23.731  10.213  1.00  0.00     0.029 A 
ATOM      6  C   UNL     1      24.817  25.886  10.188  1.00  0.00     0.133 A 
ATOM      7  C   UNL     1      26.323  24.460   9.032  1.00  0.00     0.076 A 
ATOM      8  C   UNL     1      27.512  22.669  10.161  1.00  0.00     0.063 A 
ATOM      9  N   UNL     1      25.454  25.503   9.054  1.00  0.00    -0.255 NA
ATOM     10  C   UNL     1      26.970  24.129   7.837  1.00  0.00     0.079 A 
ATOM     11  C   UNL     1      28.140  22.318   8.951  1.00  0.00     0.161 A 
BRANCH   3  12
ATOM     12  N   UNL     1      26.167  23.419  12.652  1.00  0.00    -0.353 N 
ATOM     13  H   UNL     1      26.896  23.821  13.283  1.00  0.00     0.167 HD
BRANCH  12  14
ATOM     14  C   UNL     1      25.360  22.325  13.130  1.00  0.00     0.061 A 
ATOM     15  C   UNL     1      23.700  20.569  12.722  1.00  0.00     0.139 A 
ATOM     16  C   UNL     1      24.468  21.660  12.267  1.00  0.00     0.075 A 
ATOM     17  C   UNL     1      23.821  20.159  14.056  1.00  0.00     0.084 A 
ATOM     18  C   UNL     1      24.694  20.824  14.922  1.00  0.00     0.047 A 
ATOM     19  Cl  UNL     1      22.886  18.800  14.665  1.00  0.00    -0.080 Cl
ATOM     20  C   UNL     1      25.461  21.899  14.470  1.00  0.00     0.066 A 
ATOM     21  Cl  UNL     1      26.573  22.666  15.601  1.00  0.00    -0.082 Cl
BRANCH  15  22
ATOM     22  O   UNL     1      22.817  19.873  11.881  1.00  0.00    -0.495 OA
ATOM     23  C   UNL     1      21.468  20.257  11.628  1.00  0.00     0.278 C 
ENDBRANCH  15  22
ENDBRANCH  12  14
ENDBRANCH   3  12
BRANCH   4  24
ATOM     24  C   UNL     1      24.362  25.638  12.581  1.00  0.00     0.103 C 
ATOM     25  N   UNL     1      23.813  25.983  13.539  1.00  0.00    -0.192 NA
ENDBRANCH   4  24
BRANCH  11  26
ATOM     26  O   UNL     1      29.041  21.245   8.863  1.00  0.00    -0.493 OA
ATOM     27  C   UNL     1      29.961  20.871   9.886  1.00  0.00     0.278 C 
ENDBRANCH  11  26
ENDBRANCH   1   2
BRANCH   1  28
ATOM     28  C   UNL     1      29.451  23.518   5.903  1.00  0.00     0.231 C 
BRANCH  28  29
ATOM     29  C   UNL     1      30.786  23.503   6.645  1.00  0.00     0.057 C 
BRANCH  29  30
ATOM     30  C   UNL     1      31.615  22.263   6.273  1.00  0.00     0.088 C 
BRANCH  30  31
ATOM     31  N   UNL     1      32.880  22.664   5.614  1.00  0.00    -0.301 NA
ATOM     32  C   UNL     1      33.134  24.105   5.818  1.00  0.00     0.100 C 
ATOM     33  C   UNL     1      32.838  22.362   4.165  1.00  0.00     0.100 C 
ATOM     34  C   UNL     1      34.446  24.517   5.142  1.00  0.00     0.099 C 
ATOM     35  C   UNL     1      34.155  22.767   3.499  1.00  0.00     0.099 C 
ATOM     36  N   UNL     1      34.393  24.208   3.700  1.00  0.00    -0.304 NA
ATOM     37  C   UNL     1      35.648  24.609   3.047  1.00  0.00     0.105 C 
ENDBRANCH  30  31
ENDBRANCH  29  30
ENDBRANCH  28  29
ENDBRANCH   1  28
TORSDOF 10
ENDMDL
MODEL 10
REMARK VINA RESULT:    -6.725      1.505      2.108
REMARK INTER + INTRA:         -12.020
REMARK INTER:                 -10.811
REMARK INTRA:                  -1.209
REMARK UNBOUND:                -1.362
REMARK SMILES COc1cc(Nc2c(C#N)cnc3cc(OCCCN4CCN(C)CC4)c(OC)cc23)c(Cl)cc1Cl
REMARK SMILES IDX 16 1 15 2 7 3 8 4 31 5 11 6 13 7 30 8 12 9 14 10 27 11 6 12
REMARK SMILES IDX 5 14 3 15 4 16 35 17 34 18 36 19 32 20 33 21 2 22 1 23 9 24
REMARK SMILES IDX 10 25 28 26 29 27 17 28 18 29 19 30 20 31 21 32 26 33 22 34
REMARK SMILES IDX 25 35 23 36 24 37
REMARK H PARENT 6 13
REMARK Flexibility Score: inf
ROOT
ATOM      1  O   UNL     1      27.711  21.518   8.800  1.00  0.00    -0.490 OA
ENDROOT
BRANCH   1   2
ATOM      2  C   UNL     1      26.586  21.474   9.634  1.00  0.00     0.163 A 
ATOM      3  C   UNL     1      23.146  21.290  12.112  1.00  0.00     0.068 A 
ATOM      4  C   UNL     1      22.497  22.500  12.428  1.00  0.00     0.094 A 
ATOM      5  C   UNL     1      24.293  21.320  11.278  1.00  0.00     0.029 A 
ATOM      6  C   UNL     1      22.977  23.701  11.898  1.00  0.00     0.133 A 
ATOM      7  C   UNL     1      24.736  22.566  10.779  1.00  0.00     0.076 A 
ATOM      8  C   UNL     1      25.018  20.160  10.946  1.00  0.00     0.063 A 
ATOM      9  N   UNL     1      24.072  23.705  11.098  1.00  0.00    -0.255 NA
ATOM     10  C   UNL     1      25.875  22.638   9.970  1.00  0.00     0.079 A 
ATOM     11  C   UNL     1      26.147  20.230  10.108  1.00  0.00     0.161 A 
BRANCH   3  12
ATOM     12  N   UNL     1      22.652  20.057  12.668  1.00  0.00    -0.353 N 
ATOM     13  H   UNL     1      22.077  19.452  12.040  1.00  0.00     0.167 HD
BRANCH  12  14
ATOM     14  C   UNL     1      23.036  19.548  13.961  1.00  0.00     0.061 A 
ATOM     15  C   UNL     1      24.638  19.434  15.812  1.00  0.00     0.139 A 
ATOM     16  C   UNL     1      24.272  19.904  14.535  1.00  0.00     0.075 A 
ATOM     17  C   UNL     1      23.761  18.591  16.506  1.00  0.00     0.084 A 
ATOM     18  C   UNL     1      22.539  18.221  15.936  1.00  0.00     0.047 A 
ATOM     19  Cl  UNL     1      24.175  17.985  18.104  1.00  0.00    -0.080 Cl
ATOM     20  C   UNL     1      22.172  18.692  14.674  1.00  0.00     0.066 A 
ATOM     21  Cl  UNL     1      20.600  18.224  14.032  1.00  0.00    -0.082 Cl
BRANCH  15  22
ATOM     22  O   UNL     1      25.854  19.788  16.419  1.00  0.00    -0.495 OA
ATOM     23  C   UNL     1      26.251  21.124  16.716  1.00  0.00     0.278 C 
ENDBRANCH  15  22
ENDBRANCH  12  14
ENDBRANCH   3  12
BRANCH   4  24
ATOM     24  C   UNL     1      21.336  22.522  13.281  1.00  0.00     0.103 C 
ATOM     25  N   UNL     1      20.405  22.539  13.967  1.00  0.00    -0.192 NA
ENDBRANCH   4  24
BRANCH  11  26
ATOM     26  O   UNL     1      26.870  19.086   9.735  1.00  0.00    -0.493 OA
ATOM     27  C   UNL     1      26.503  18.202   8.679  1.00  0.00     0.278 C 
ENDBRANCH  11  26
ENDBRANCH   1   2
BRANCH   1  28
ATOM     28  C   UNL     1      28.446  22.709   8.515  1.00  0.00     0.231 C 
BRANCH  28  29
ATOM     29  C   UNL     1      29.924  22.362   8.350  1.00  0.00     0.057 C 
BRANCH  29  30
ATOM     30  C   UNL     1      30.675  23.469   7.592  1.00  0.00     0.088 C 
BRANCH  30  31
ATOM     31  N   UNL     1      31.505  22.886   6.513  1.00  0.00    -0.301 NA
ATOM     32  C   UNL     1      32.598  23.809   6.146  1.00  0.00     0.100 C 
ATOM     33  C   UNL     1      30.682  22.583   5.320  1.00  0.00     0.100 C 
ATOM     34  C   UNL     1      33.461  23.202   5.035  1.00  0.00     0.099 C 
ATOM     35  C   UNL     1      31.548  21.968   4.218  1.00  0.00     0.099 C 
ATOM     36  N   UNL     1      32.629  22.903   3.853  1.00  0.00    -0.304 NA
ATOM     37  C   UNL     1      33.455  22.326   2.782  1.00  0.00     0.105 C 
ENDBRANCH  30  31
ENDBRANCH  29  30
ENDBRANCH  28  29
ENDBRANCH   1  28
TORSDOF 10
ENDMDL
MODEL 11
REMARK VINA RESULT:    -6.650      2.790      4.510
REMARK INTER + INTRA:         -11.900
REMARK INTER:                 -10.306
REMARK INTRA:                  -1.595
REMARK UNBOUND:                -1.362
REMARK SMILES COc1cc(Nc2c(C#N)cnc3cc(OCCCN4CCN(C)CC4)c(OC)cc23)c(Cl)cc1Cl
REMARK SMILES IDX 16 1 15 2 7 3 8 4 31 5 11 6 13 7 30 8 12 9 14 10 27 11 6 12
REMARK SMILES IDX 5 14 3 15 4 16 35 17 34 18 36 19 32 20 33 21 2 22 1 23 9 24
REMARK SMILES IDX 10 25 28 26 29 27 17 28 18 29 19 30 20 31 21 32 26 33 22 34
REMARK SMILES IDX 25 35 23 36 24 37
REMARK H PARENT 6 13
REMARK Flexibility Score: inf
ROOT
ATOM      1  O   UNL     1      29.987  27.054   8.968  1.00  0.00    -0.490 OA
ENDROOT
BRANCH   1   2
ATOM      2  C   UNL     1      29.615  25.714   9.151  1.00  0.00     0.163 A 
ATOM      3  C   UNL     1      28.438  21.683   9.755  1.00  0.00     0.068 A 
ATOM      4  C   UNL     1      29.428  20.760  10.148  1.00  0.00     0.094 A 
ATOM      5  C   UNL     1      28.801  23.039   9.555  1.00  0.00     0.029 A 
ATOM      6  C   UNL     1      30.738  21.198  10.357  1.00  0.00     0.133 A 
ATOM      7  C   UNL     1      30.144  23.422   9.773  1.00  0.00     0.076 A 
ATOM      8  C   UNL     1      27.880  24.014   9.127  1.00  0.00     0.063 A 
ATOM      9  N   UNL     1      31.061  22.501  10.165  1.00  0.00    -0.255 NA
ATOM     10  C   UNL     1      30.544  24.746   9.567  1.00  0.00     0.079 A 
ATOM     11  C   UNL     1      28.277  25.353   8.948  1.00  0.00     0.161 A 
BRANCH   3  12
ATOM     12  N   UNL     1      27.091  21.224   9.533  1.00  0.00    -0.353 N 
ATOM     13  H   UNL     1      26.856  20.898   8.569  1.00  0.00     0.167 HD
BRANCH  12  14
ATOM     14  C   UNL     1      26.121  21.041  10.584  1.00  0.00     0.061 A 
ATOM     15  C   UNL     1      24.889  21.910  12.515  1.00  0.00     0.139 A 
ATOM     16  C   UNL     1      25.859  22.073  11.506  1.00  0.00     0.075 A 
ATOM     17  C   UNL     1      24.193  20.698  12.604  1.00  0.00     0.084 A 
ATOM     18  C   UNL     1      24.459  19.665  11.701  1.00  0.00     0.047 A 
ATOM     19  Cl  UNL     1      22.971  20.454  13.844  1.00  0.00    -0.080 Cl
ATOM     20  C   UNL     1      25.414  19.827  10.695  1.00  0.00     0.066 A 
ATOM     21  Cl  UNL     1      25.669  18.502   9.563  1.00  0.00    -0.082 Cl
BRANCH  15  22
ATOM     22  O   UNL     1      24.590  22.927  13.437  1.00  0.00    -0.495 OA
ATOM     23  C   UNL     1      25.500  23.424  14.416  1.00  0.00     0.278 C 
ENDBRANCH  15  22
ENDBRANCH  12  14
ENDBRANCH   3  12
BRANCH   4  24
ATOM     24  C   UNL     1      29.111  19.369  10.352  1.00  0.00     0.103 C 
ATOM     25  N   UNL     1      28.856  18.253  10.516  1.00  0.00    -0.192 NA
ENDBRANCH   4  24
BRANCH  11  26
ATOM     26  O   UNL     1      27.372  26.351   8.553  1.00  0.00    -0.493 OA
ATOM     27  C   UNL     1      26.027  26.114   8.148  1.00  0.00     0.278 C 
ENDBRANCH  11  26
ENDBRANCH   1   2
BRANCH   1  28
ATOM     28  C   UNL     1      30.422  27.597   7.722  1.00  0.00     0.231 C 
BRANCH  28  29
ATOM     29  C   UNL     1      30.593  26.466   6.711  1.00  0.00     0.057 C 
BRANCH  29  30
ATOM     30  C   UNL     1      32.067  26.049   6.584  1.00  0.00     0.088 C 
BRANCH  30  31
ATOM     31  N   UNL     1      32.174  24.594   6.326  1.00  0.00    -0.301 NA
ATOM     32  C   UNL     1      33.243  24.322   5.344  1.00  0.00     0.100 C 
ATOM     33  C   UNL     1      30.888  24.052   5.831  1.00  0.00     0.100 C 
ATOM     34  C   UNL     1      33.357  22.816   5.083  1.00  0.00     0.099 C 
ATOM     35  C   UNL     1      31.006  22.546   5.582  1.00  0.00     0.099 C 
ATOM     36  N   UNL     1      32.069  22.287   4.593  1.00  0.00    -0.304 NA
ATOM     37  C   UNL     1      32.176  20.844   4.335  1.00  0.00     0.105 C 
ENDBRANCH  30  31
ENDBRANCH  29  30
ENDBRANCH  28  29
ENDBRANCH   1  28
TORSDOF 10
ENDMDL
MODEL 12
REMARK VINA RESULT:    -6.638      4.225     11.442
REMARK INTER + INTRA:         -11.881
REMARK INTER:                 -10.735
REMARK INTRA:                  -1.146
REMARK UNBOUND:                -1.362
REMARK SMILES COc1cc(Nc2c(C#N)cnc3cc(OCCCN4CCN(C)CC4)c(OC)cc23)c(Cl)cc1Cl
REMARK SMILES IDX 16 1 15 2 7 3 8 4 31 5 11 6 13 7 30 8 12 9 14 10 27 11 6 12
REMARK SMILES IDX 5 14 3 15 4 16 35 17 34 18 36 19 32 20 33 21 2 22 1 23 9 24
REMARK SMILES IDX 10 25 28 26 29 27 17 28 18 29 19 30 20 31 21 32 26 33 22 34
REMARK SMILES IDX 25 35 23 36 24 37
REMARK H PARENT 6 13
REMARK Flexibility Score: inf
ROOT
ATOM      1  O   UNL     1      21.836  20.748  13.494  1.00  0.00    -0.490 OA
ENDROOT
BRANCH   1   2
ATOM      2  C   UNL     1      23.045  20.973  12.822  1.00  0.00     0.163 A 
ATOM      3  C   UNL     1      26.682  21.724  10.769  1.00  0.00     0.068 A 
ATOM      4  C   UNL     1      27.089  20.794   9.791  1.00  0.00     0.094 A 
ATOM      5  C   UNL     1      25.466  21.503  11.464  1.00  0.00     0.029 A 
ATOM      6  C   UNL     1      26.282  19.689   9.507  1.00  0.00     0.133 A 
ATOM      7  C   UNL     1      24.695  20.364  11.140  1.00  0.00     0.076 A 
ATOM      8  C   UNL     1      25.007  22.365  12.479  1.00  0.00     0.063 A 
ATOM      9  N   UNL     1      25.121  19.502  10.182  1.00  0.00    -0.255 NA
ATOM     10  C   UNL     1      23.501  20.102  11.819  1.00  0.00     0.079 A 
ATOM     11  C   UNL     1      23.790  22.116  13.142  1.00  0.00     0.161 A 
BRANCH   3  12
ATOM     12  N   UNL     1      27.522  22.855  11.062  1.00  0.00    -0.353 N 
ATOM     13  H   UNL     1      28.364  22.678  11.654  1.00  0.00     0.167 HD
BRANCH  12  14
ATOM     14  C   UNL     1      27.357  24.156  10.462  1.00  0.00     0.061 A 
ATOM     15  C   UNL     1      27.334  25.596   8.479  1.00  0.00     0.139 A 
ATOM     16  C   UNL     1      27.525  24.333   9.075  1.00  0.00     0.075 A 
ATOM     17  C   UNL     1      26.986  26.686   9.287  1.00  0.00     0.084 A 
ATOM     18  C   UNL     1      26.833  26.520  10.667  1.00  0.00     0.047 A 
ATOM     19  Cl  UNL     1      26.733  28.278   8.586  1.00  0.00    -0.080 Cl
ATOM     20  C   UNL     1      27.015  25.268  11.257  1.00  0.00     0.066 A 
ATOM     21  Cl  UNL     1      26.763  25.118  12.994  1.00  0.00    -0.082 Cl
BRANCH  15  22
ATOM     22  O   UNL     1      27.474  25.800   7.096  1.00  0.00    -0.495 OA
ATOM     23  C   UNL     1      28.613  25.412   6.333  1.00  0.00     0.278 C 
ENDBRANCH  15  22
ENDBRANCH  12  14
ENDBRANCH   3  12
BRANCH   4  24
ATOM     24  C   UNL     1      28.323  20.968   9.066  1.00  0.00     0.103 C 
ATOM     25  N   UNL     1      29.314  21.107   8.486  1.00  0.00    -0.192 NA
ENDBRANCH   4  24
BRANCH  11  26
ATOM     26  O   UNL     1      23.294  22.975  14.135  1.00  0.00    -0.493 OA
ATOM     27  C   UNL     1      22.626  24.209  13.883  1.00  0.00     0.278 C 
ENDBRANCH  11  26
ENDBRANCH   1   2
BRANCH   1  28
ATOM     28  C   UNL     1      21.032  19.581  13.319  1.00  0.00     0.231 C 
BRANCH  28  29
ATOM     29  C   UNL     1      21.341  18.584  14.433  1.00  0.00     0.057 C 
BRANCH  29  30
ATOM     30  C   UNL     1      20.229  17.530  14.562  1.00  0.00     0.088 C 
BRANCH  30  31
ATOM     31  N   UNL     1      20.194  16.979  15.936  1.00  0.00    -0.301 NA
ATOM     32  C   UNL     1      20.806  15.635  15.969  1.00  0.00     0.100 C 
ATOM     33  C   UNL     1      18.804  16.909  16.441  1.00  0.00     0.100 C 
ATOM     34  C   UNL     1      20.776  15.069  17.393  1.00  0.00     0.099 C 
ATOM     35  C   UNL     1      18.782  16.353  17.867  1.00  0.00     0.099 C 
ATOM     36  N   UNL     1      19.387  15.007  17.885  1.00  0.00    -0.304 NA
ATOM     37  C   UNL     1      19.353  14.458  19.249  1.00  0.00     0.105 C 
ENDBRANCH  30  31
ENDBRANCH  29  30
ENDBRANCH  28  29
ENDBRANCH   1  28
TORSDOF 10
ENDMDL
MODEL 13
REMARK VINA RESULT:    -6.636      5.135     10.669
REMARK INTER + INTRA:         -11.877
REMARK INTER:                 -10.544
REMARK INTRA:                  -1.334
REMARK UNBOUND:                -1.362
REMARK SMILES COc1cc(Nc2c(C#N)cnc3cc(OCCCN4CCN(C)CC4)c(OC)cc23)c(Cl)cc1Cl
REMARK SMILES IDX 16 1 15 2 7 3 8 4 31 5 11 6 13 7 30 8 12 9 14 10 27 11 6 12
REMARK SMILES IDX 5 14 3 15 4 16 35 17 34 18 36 19 32 20 33 21 2 22 1 23 9 24
REMARK SMILES IDX 10 25 28 26 29 27 17 28 18 29 19 30 20 31 21 32 26 33 22 34
REMARK SMILES IDX 25 35 23 36 24 37
REMARK H PARENT 6 13
REMARK Flexibility Score: inf
ROOT
ATOM      1  O   UNL     1      26.675  25.363   9.431  1.00  0.00    -0.490 OA
ENDROOT
BRANCH   1   2
ATOM      2  C   UNL     1      27.762  25.008   8.620  1.00  0.00     0.163 A 
ATOM      3  C   UNL     1      31.067  24.008   6.155  1.00  0.00     0.068 A 
ATOM      4  C   UNL     1      30.841  23.132   5.075  1.00  0.00     0.094 A 
ATOM      5  C   UNL     1      29.979  24.367   6.990  1.00  0.00     0.029 A 
ATOM      6  C   UNL     1      29.551  22.652   4.831  1.00  0.00     0.133 A 
ATOM      7  C   UNL     1      28.699  23.845   6.699  1.00  0.00     0.076 A 
ATOM      8  C   UNL     1      30.129  25.208   8.110  1.00  0.00     0.063 A 
ATOM      9  N   UNL     1      28.525  23.014   5.640  1.00  0.00    -0.255 NA
ATOM     10  C   UNL     1      27.605  24.160   7.513  1.00  0.00     0.079 A 
ATOM     11  C   UNL     1      29.022  25.549   8.911  1.00  0.00     0.161 A 
BRANCH   3  12
ATOM     12  N   UNL     1      32.400  24.492   6.406  1.00  0.00    -0.353 N 
ATOM     13  H   UNL     1      33.055  23.841   6.893  1.00  0.00     0.167 HD
BRANCH  12  14
ATOM     14  C   UNL     1      32.915  25.735   5.887  1.00  0.00     0.061 A 
ATOM     15  C   UNL     1      32.728  28.162   5.607  1.00  0.00     0.139 A 
ATOM     16  C   UNL     1      32.213  26.940   6.085  1.00  0.00     0.075 A 
ATOM     17  C   UNL     1      33.947  28.166   4.916  1.00  0.00     0.084 A 
ATOM     18  C   UNL     1      34.640  26.971   4.704  1.00  0.00     0.047 A 
ATOM     19  Cl  UNL     1      34.628  29.668   4.308  1.00  0.00    -0.080 Cl
ATOM     20  C   UNL     1      34.136  25.761   5.183  1.00  0.00     0.066 A 
ATOM     21  Cl  UNL     1      35.081  24.298   4.920  1.00  0.00    -0.082 Cl
BRANCH  15  22
ATOM     22  O   UNL     1      32.063  29.383   5.806  1.00  0.00    -0.495 OA
ATOM     23  C   UNL     1      32.111  30.143   7.010  1.00  0.00     0.278 C 
ENDBRANCH  15  22
ENDBRANCH  12  14
ENDBRANCH   3  12
BRANCH   4  24
ATOM     24  C   UNL     1      31.917  22.727   4.206  1.00  0.00     0.103 C 
ATOM     25  N   UNL     1      32.780  22.404   3.507  1.00  0.00    -0.192 NA
ENDBRANCH   4  24
BRANCH  11  26
ATOM     26  O   UNL     1      29.138  26.409  10.014  1.00  0.00    -0.493 OA
ATOM     27  C   UNL     1      29.627  26.025  11.296  1.00  0.00     0.278 C 
ENDBRANCH  11  26
ENDBRANCH   1   2
BRANCH   1  28
ATOM     28  C   UNL     1      26.226  24.593  10.545  1.00  0.00     0.231 C 
BRANCH  28  29
ATOM     29  C   UNL     1      25.144  23.619  10.082  1.00  0.00     0.057 C 
BRANCH  29  30
ATOM     30  C   UNL     1      25.210  22.299  10.867  1.00  0.00     0.088 C 
BRANCH  30  31
ATOM     31  N   UNL     1      25.614  21.187   9.976  1.00  0.00    -0.301 NA
ATOM     32  C   UNL     1      25.560  19.900  10.700  1.00  0.00     0.100 C 
ATOM     33  C   UNL     1      26.979  21.407   9.445  1.00  0.00     0.100 C 
ATOM     34  C   UNL     1      25.972  18.749   9.775  1.00  0.00     0.099 C 
ATOM     35  C   UNL     1      27.379  20.259   8.515  1.00  0.00     0.099 C 
ATOM     36  N   UNL     1      27.331  18.982   9.251  1.00  0.00    -0.304 NA
ATOM     37  C   UNL     1      27.732  17.876   8.369  1.00  0.00     0.105 C 
ENDBRANCH  30  31
ENDBRANCH  29  30
ENDBRANCH  28  29
ENDBRANCH   1  28
TORSDOF 10
ENDMDL
MODEL 14
REMARK VINA RESULT:    -6.599      4.469      9.798
REMARK INTER + INTRA:         -11.819
REMARK INTER:                  -9.572
REMARK INTRA:                  -2.247
REMARK UNBOUND:                -1.362
REMARK SMILES COc1cc(Nc2c(C#N)cnc3cc(OCCCN4CCN(C)CC4)c(OC)cc23)c(Cl)cc1Cl
REMARK SMILES IDX 16 1 15 2 7 3 8 4 31 5 11 6 13 7 30 8 12 9 14 10 27 11 6 12
REMARK SMILES IDX 5 14 3 15 4 16 35 17 34 18 36 19 32 20 33 21 2 22 1 23 9 24
REMARK SMILES IDX 10 25 28 26 29 27 17 28 18 29 19 30 20 31 21 32 26 33 22 34
REMARK SMILES IDX 25 35 23 36 24 37
REMARK H PARENT 6 13
REMARK Flexibility Score: inf
ROOT
ATOM      1  O   UNL     1      22.663  20.018  13.735  1.00  0.00    -0.490 OA
ENDROOT
BRANCH   1   2
ATOM      2  C   UNL     1      23.744  20.410  12.933  1.00  0.00     0.163 A 
ATOM      3  C   UNL     1      26.983  21.663  10.496  1.00  0.00     0.068 A 
ATOM      4  C   UNL     1      27.300  20.879   9.368  1.00  0.00     0.094 A 
ATOM      5  C   UNL     1      25.899  21.273  11.323  1.00  0.00     0.029 A 
ATOM      6  C   UNL     1      26.532  19.750   9.072  1.00  0.00     0.133 A 
ATOM      7  C   UNL     1      25.163  20.117  10.978  1.00  0.00     0.076 A 
ATOM      8  C   UNL     1      25.542  21.982  12.486  1.00  0.00     0.063 A 
ATOM      9  N   UNL     1      25.496  19.400   9.875  1.00  0.00    -0.255 NA
ATOM     10  C   UNL     1      24.101  19.690  11.781  1.00  0.00     0.079 A 
ATOM     11  C   UNL     1      24.454  21.568  13.278  1.00  0.00     0.161 A 
BRANCH   3  12
ATOM     12  N   UNL     1      27.785  22.820  10.800  1.00  0.00    -0.353 N 
ATOM     13  H   UNL     1      28.626  22.667  11.400  1.00  0.00     0.167 HD
BRANCH  12  14
ATOM     14  C   UNL     1      27.584  24.116  10.202  1.00  0.00     0.061 A 
ATOM     15  C   UNL     1      26.085  25.892   9.427  1.00  0.00     0.139 A 
ATOM     16  C   UNL     1      26.285  24.613   9.982  1.00  0.00     0.075 A 
ATOM     17  C   UNL     1      27.198  26.667   9.078  1.00  0.00     0.084 A 
ATOM     18  C   UNL     1      28.490  26.174   9.280  1.00  0.00     0.047 A 
ATOM     19  Cl  UNL     1      26.994  28.270   8.388  1.00  0.00    -0.080 Cl
ATOM     20  C   UNL     1      28.691  24.910   9.837  1.00  0.00     0.066 A 
ATOM     21  Cl  UNL     1      30.345  24.367  10.105  1.00  0.00    -0.082 Cl
BRANCH  15  22
ATOM     22  O   UNL     1      24.801  26.423   9.215  1.00  0.00    -0.495 OA
ATOM     23  C   UNL     1      23.896  26.787  10.253  1.00  0.00     0.278 C 
ENDBRANCH  15  22
ENDBRANCH  12  14
ENDBRANCH   3  12
BRANCH   4  24
ATOM     24  C   UNL     1      28.400  21.227   8.504  1.00  0.00     0.103 C 
ATOM     25  N   UNL     1      29.283  21.507   7.812  1.00  0.00    -0.192 NA
ENDBRANCH   4  24
BRANCH  11  26
ATOM     26  O   UNL     1      24.056  22.273  14.425  1.00  0.00    -0.493 OA
ATOM     27  C   UNL     1      24.649  23.488  14.877  1.00  0.00     0.278 C 
ENDBRANCH  11  26
ENDBRANCH   1   2
BRANCH   1  28
ATOM     28  C   UNL     1      21.356  19.743  13.232  1.00  0.00     0.231 C 
BRANCH  28  29
ATOM     29  C   UNL     1      20.621  21.060  12.989  1.00  0.00     0.057 C 
BRANCH  29  30
ATOM     30  C   UNL     1      20.592  21.925  14.260  1.00  0.00     0.088 C 
BRANCH  30  31
ATOM     31  N   UNL     1      20.560  23.363  13.907  1.00  0.00    -0.301 NA
ATOM     32  C   UNL     1      21.448  23.632  12.757  1.00  0.00     0.100 C 
ATOM     33  C   UNL     1      20.967  24.197  15.060  1.00  0.00     0.100 C 
ATOM     34  C   UNL     1      21.409  25.119  12.388  1.00  0.00     0.099 C 
ATOM     35  C   UNL     1      20.916  25.681  14.688  1.00  0.00     0.099 C 
ATOM     36  N   UNL     1      21.813  25.939  13.547  1.00  0.00    -0.304 NA
ATOM     37  C   UNL     1      21.784  27.367  13.195  1.00  0.00     0.105 C 
ENDBRANCH  30  31
ENDBRANCH  29  30
ENDBRANCH  28  29
ENDBRANCH   1  28
TORSDOF 10
ENDMDL
MODEL 15
REMARK VINA RESULT:    -6.524      2.266      3.326
REMARK INTER + INTRA:         -11.701
REMARK INTER:                 -10.360
REMARK INTRA:                  -1.340
REMARK UNBOUND:                -1.362
REMARK SMILES COc1cc(Nc2c(C#N)cnc3cc(OCCCN4CCN(C)CC4)c(OC)cc23)c(Cl)cc1Cl
REMARK SMILES IDX 16 1 15 2 7 3 8 4 31 5 11 6 13 7 30 8 12 9 14 10 27 11 6 12
REMARK SMILES IDX 5 14 3 15 4 16 35 17 34 18 36 19 32 20 33 21 2 22 1 23 9 24
REMARK SMILES IDX 10 25 28 26 29 27 17 28 18 29 19 30 20 31 21 32 26 33 22 34
REMARK SMILES IDX 25 35 23 36 24 37
REMARK H PARENT 6 13
REMARK Flexibility Score: inf
ROOT
ATOM      1  O   UNL     1      29.035  24.700   6.887  1.00  0.00    -0.490 OA
ENDROOT
BRANCH   1   2
ATOM      2  C   UNL     1      28.022  24.973   7.816  1.00  0.00     0.163 A 
ATOM      3  C   UNL     1      24.934  25.725  10.627  1.00  0.00     0.068 A 
ATOM      4  C   UNL     1      23.999  26.734  10.323  1.00  0.00     0.094 A 
ATOM      5  C   UNL     1      25.971  25.445   9.701  1.00  0.00     0.029 A 
ATOM      6  C   UNL     1      24.094  27.423   9.111  1.00  0.00     0.133 A 
ATOM      7  C   UNL     1      26.021  26.181   8.496  1.00  0.00     0.076 A 
ATOM      8  C   UNL     1      26.965  24.478   9.947  1.00  0.00     0.063 A 
ATOM      9  N   UNL     1      25.091  27.135   8.239  1.00  0.00    -0.255 NA
ATOM     10  C   UNL     1      27.042  25.948   7.568  1.00  0.00     0.079 A 
ATOM     11  C   UNL     1      27.974  24.224   8.999  1.00  0.00     0.161 A 
BRANCH   3  12
ATOM     12  N   UNL     1      24.835  25.024  11.882  1.00  0.00    -0.353 N 
ATOM     13  H   UNL     1      25.193  25.519  12.729  1.00  0.00     0.167 HD
BRANCH  12  14
ATOM     14  C   UNL     1      24.138  23.773  12.051  1.00  0.00     0.061 A 
ATOM     15  C   UNL     1      23.776  21.437  11.409  1.00  0.00     0.139 A 
ATOM     16  C   UNL     1      24.432  22.670  11.227  1.00  0.00     0.075 A 
ATOM     17  C   UNL     1      22.809  21.320  12.416  1.00  0.00     0.084 A 
ATOM     18  C   UNL     1      22.501  22.416  13.227  1.00  0.00     0.047 A 
ATOM     19  Cl  UNL     1      21.969  19.799  12.682  1.00  0.00    -0.080 Cl
ATOM     20  C   UNL     1      23.156  23.636  13.053  1.00  0.00     0.066 A 
ATOM     21  Cl  UNL     1      22.753  24.964  14.138  1.00  0.00    -0.082 Cl
BRANCH  15  22
ATOM     22  O   UNL     1      24.062  20.312  10.617  1.00  0.00    -0.495 OA
ATOM     23  C   UNL     1      25.338  19.682  10.540  1.00  0.00     0.278 C 
ENDBRANCH  15  22
ENDBRANCH  12  14
ENDBRANCH   3  12
BRANCH   4  24
ATOM     24  C   UNL     1      22.934  27.063  11.237  1.00  0.00     0.103 C 
ATOM     25  N   UNL     1      22.080  27.328  11.971  1.00  0.00    -0.192 NA
ENDBRANCH   4  24
BRANCH  11  26
ATOM     26  O   UNL     1      28.958  23.243   9.204  1.00  0.00    -0.493 OA
ATOM     27  C   UNL     1      28.759  21.843   9.027  1.00  0.00     0.278 C 
ENDBRANCH  11  26
ENDBRANCH   1   2
BRANCH   1  28
ATOM     28  C   UNL     1      29.926  25.687   6.367  1.00  0.00     0.231 C 
BRANCH  28  29
ATOM     29  C   UNL     1      31.360  25.318   6.741  1.00  0.00     0.057 C 
BRANCH  29  30
ATOM     30  C   UNL     1      31.500  23.809   6.994  1.00  0.00     0.088 C 
BRANCH  30  31
ATOM     31  N   UNL     1      32.417  23.201   6.002  1.00  0.00    -0.301 NA
ATOM     32  C   UNL     1      33.422  24.187   5.555  1.00  0.00     0.100 C 
ATOM     33  C   UNL     1      31.665  22.686   4.835  1.00  0.00     0.100 C 
ATOM     34  C   UNL     1      34.374  23.555   4.535  1.00  0.00     0.099 C 
ATOM     35  C   UNL     1      32.621  22.047   3.825  1.00  0.00     0.099 C 
ATOM     36  N   UNL     1      33.613  23.044   3.379  1.00  0.00    -0.304 NA
ATOM     37  C   UNL     1      34.524  22.443   2.394  1.00  0.00     0.105 C 
ENDBRANCH  30  31
ENDBRANCH  29  30
ENDBRANCH  28  29
ENDBRANCH   1  28
TORSDOF 10
ENDMDL
