MODEL 1
REMARK VINA RESULT:    -6.707      0.000      0.000
REMARK INTER + INTRA:          -8.697
REMARK INTER:                  -8.080
REMARK INTRA:                  -0.618
REMARK UNBOUND:                -0.618
REMARK SMILES CCC(=O)C1(c2cccc(O)c2)CCN(C)CC1
REMARK SMILES IDX 5 1 13 2 14 3 15 4 16 5 17 6 18 7 3 8 4 9 2 10 1 11 6 12
REMARK SMILES IDX 12 13 7 14 10 15 8 16 9 17 11 18
REMARK H PARENT 11 19
REMARK Flexibility Score: inf
ROOT
ATOM      1  C   UNL     1     -76.830 -18.611  85.427  1.00  0.00     0.056 C 
ATOM      2  C   UNL     1     -75.849 -19.778  85.797  1.00  0.00     0.035 C 
ATOM      3  C   UNL     1     -74.542 -19.739  84.988  1.00  0.00     0.085 C 
ATOM      4  N   UNL     1     -74.801 -19.900  83.537  1.00  0.00    -0.306 NA
ATOM      5  C   UNL     1     -73.621 -19.492  82.760  1.00  0.00     0.105 C 
ATOM      6  C   UNL     1     -76.030 -19.215  83.058  1.00  0.00     0.085 C 
ATOM      7  C   UNL     1     -76.488 -18.082  83.996  1.00  0.00     0.035 C 
ENDROOT
BRANCH   1   8
ATOM      8  C   UNL     1     -76.723 -17.396  86.365  1.00  0.00     0.143 C 
ATOM      9  O   UNL     1     -76.883 -16.280  85.887  1.00  0.00    -0.299 OA
BRANCH   8  10
ATOM     10  C   UNL     1     -76.366 -17.473  87.834  1.00  0.00     0.073 C 
ATOM     11  C   UNL     1     -75.579 -16.241  88.266  1.00  0.00     0.012 C 
ENDBRANCH   8  10
ENDBRANCH   1   8
BRANCH   1  12
ATOM     12  C   UNL     1     -78.268 -19.167  85.561  1.00  0.00    -0.031 A 
ATOM     13  C   UNL     1     -79.333 -18.820  84.693  1.00  0.00     0.051 A 
ATOM     14  C   UNL     1     -78.535 -20.101  86.588  1.00  0.00     0.005 A 
ATOM     15  C   UNL     1     -80.610 -19.373  84.865  1.00  0.00     0.115 A 
ATOM     16  C   UNL     1     -79.808 -20.648  86.753  1.00  0.00     0.004 A 
ATOM     17  C   UNL     1     -80.844 -20.284  85.895  1.00  0.00     0.046 A 
BRANCH  15  18
ATOM     18  O   UNL     1     -81.654 -19.025  84.010  1.00  0.00    -0.508 OA
ATOM     19  H   UNL     1     -82.226 -19.728  83.558  1.00  0.00     0.293 HD
ENDBRANCH  15  18
ENDBRANCH   1  12
TORSDOF 4
ENDMDL
MODEL 2
REMARK VINA RESULT:    -6.633      1.872      3.039
REMARK INTER + INTRA:          -8.608
REMARK INTER:                  -8.452
REMARK INTRA:                  -0.155
REMARK UNBOUND:                -0.618
REMARK SMILES CCC(=O)C1(c2cccc(O)c2)CCN(C)CC1
REMARK SMILES IDX 5 1 13 2 14 3 15 4 16 5 17 6 18 7 3 8 4 9 2 10 1 11 6 12
REMARK SMILES IDX 12 13 7 14 10 15 8 16 9 17 11 18
REMARK H PARENT 11 19
REMARK Flexibility Score: inf
ROOT
ATOM      1  C   UNL     1     -77.132 -18.429  85.448  1.00  0.00     0.056 C 
ATOM      2  C   UNL     1     -75.897 -19.121  84.771  1.00  0.00     0.035 C 
ATOM      3  C   UNL     1     -74.560 -18.468  85.161  1.00  0.00     0.085 C 
ATOM      4  N   UNL     1     -74.500 -17.056  84.718  1.00  0.00    -0.306 NA
ATOM      5  C   UNL     1     -73.409 -16.351  85.407  1.00  0.00     0.105 C 
ATOM      6  C   UNL     1     -75.787 -16.322  84.845  1.00  0.00     0.085 C 
ATOM      7  C   UNL     1     -76.748 -16.971  85.859  1.00  0.00     0.035 C 
ENDROOT
BRANCH   1   8
ATOM      8  C   UNL     1     -77.596 -19.126  86.739  1.00  0.00     0.143 C 
ATOM      9  O   UNL     1     -77.521 -18.504  87.792  1.00  0.00    -0.299 OA
BRANCH   8  10
ATOM     10  C   UNL     1     -78.082 -20.557  86.816  1.00  0.00     0.073 C 
ATOM     11  C   UNL     1     -78.967 -20.764  88.041  1.00  0.00     0.012 C 
ENDBRANCH   8  10
ENDBRANCH   1   8
BRANCH   1  12
ATOM     12  C   UNL     1     -78.304 -18.506  84.440  1.00  0.00    -0.031 A 
ATOM     13  C   UNL     1     -79.635 -18.832  84.800  1.00  0.00     0.051 A 
ATOM     14  C   UNL     1     -78.046 -18.205  83.084  1.00  0.00     0.005 A 
ATOM     15  C   UNL     1     -80.653 -18.870  83.837  1.00  0.00     0.115 A 
ATOM     16  C   UNL     1     -79.063 -18.244  82.129  1.00  0.00     0.004 A 
ATOM     17  C   UNL     1     -80.363 -18.578  82.503  1.00  0.00     0.046 A 
BRANCH  15  18
ATOM     18  O   UNL     1     -81.960 -19.194  84.197  1.00  0.00    -0.508 OA
ATOM     19  H   UNL     1     -82.325 -20.131  84.079  1.00  0.00     0.293 HD
ENDBRANCH  15  18
ENDBRANCH   1  12
TORSDOF 4
ENDMDL
MODEL 3
REMARK VINA RESULT:    -6.595      1.357      2.139
REMARK INTER + INTRA:          -8.562
REMARK INTER:                  -7.944
REMARK INTRA:                  -0.618
REMARK UNBOUND:                -0.618
REMARK SMILES CCC(=O)C1(c2cccc(O)c2)CCN(C)CC1
REMARK SMILES IDX 5 1 13 2 14 3 15 4 16 5 17 6 18 7 3 8 4 9 2 10 1 11 6 12
REMARK SMILES IDX 12 13 7 14 10 15 8 16 9 17 11 18
REMARK H PARENT 11 19
REMARK Flexibility Score: inf
ROOT
ATOM      1  C   UNL     1     -76.310 -18.211  84.496  1.00  0.00     0.056 C 
ATOM      2  C   UNL     1     -75.986 -19.500  85.331  1.00  0.00     0.035 C 
ATOM      3  C   UNL     1     -74.504 -19.905  85.253  1.00  0.00     0.085 C 
ATOM      4  N   UNL     1     -74.108 -20.237  83.864  1.00  0.00    -0.306 NA
ATOM      5  C   UNL     1     -72.643 -20.254  83.741  1.00  0.00     0.105 C 
ATOM      6  C   UNL     1     -74.731 -19.370  82.829  1.00  0.00     0.085 C 
ATOM      7  C   UNL     1     -75.218 -18.022  83.393  1.00  0.00     0.035 C 
ENDROOT
BRANCH   1   8
ATOM      8  C   UNL     1     -76.298 -16.918  85.331  1.00  0.00     0.143 C 
ATOM      9  O   UNL     1     -76.069 -15.861  84.757  1.00  0.00    -0.299 OA
BRANCH   8  10
ATOM     10  C   UNL     1     -76.484 -16.862  86.832  1.00  0.00     0.073 C 
ATOM     11  C   UNL     1     -75.165 -16.550  87.531  1.00  0.00     0.012 C 
ENDBRANCH   8  10
ENDBRANCH   1   8
BRANCH   1  12
ATOM     12  C   UNL     1     -77.742 -18.381  83.937  1.00  0.00    -0.031 A 
ATOM     13  C   UNL     1     -78.843 -18.829  84.708  1.00  0.00     0.051 A 
ATOM     14  C   UNL     1     -77.981 -18.042  82.586  1.00  0.00     0.005 A 
ATOM     15  C   UNL     1     -80.119 -18.946  84.140  1.00  0.00     0.115 A 
ATOM     16  C   UNL     1     -79.254 -18.161  82.026  1.00  0.00     0.004 A 
ATOM     17  C   UNL     1     -80.321 -18.614  82.800  1.00  0.00     0.046 A 
BRANCH  15  18
ATOM     18  O   UNL     1     -81.198 -19.391  84.903  1.00  0.00    -0.508 OA
ATOM     19  H   UNL     1     -82.124 -18.996  84.791  1.00  0.00     0.293 HD
ENDBRANCH  15  18
ENDBRANCH   1  12
TORSDOF 4
ENDMDL
MODEL 4
REMARK VINA RESULT:    -6.511      4.344      6.814
REMARK INTER + INTRA:          -8.461
REMARK INTER:                  -7.989
REMARK INTRA:                  -0.472
REMARK UNBOUND:                -0.618
REMARK SMILES CCC(=O)C1(c2cccc(O)c2)CCN(C)CC1
REMARK SMILES IDX 5 1 13 2 14 3 15 4 16 5 17 6 18 7 3 8 4 9 2 10 1 11 6 12
REMARK SMILES IDX 12 13 7 14 10 15 8 16 9 17 11 18
REMARK H PARENT 11 19
REMARK Flexibility Score: inf
ROOT
ATOM      1  C   UNL     1     -81.742 -21.382  86.709  1.00  0.00     0.056 C 
ATOM      2  C   UNL     1     -82.403 -20.034  86.252  1.00  0.00     0.035 C 
ATOM      3  C   UNL     1     -81.797 -19.485  84.950  1.00  0.00     0.085 C 
ATOM      4  N   UNL     1     -80.358 -19.171  85.115  1.00  0.00    -0.306 NA
ATOM      5  C   UNL     1     -79.717 -19.010  83.801  1.00  0.00     0.105 C 
ATOM      6  C   UNL     1     -79.617 -20.139  85.966  1.00  0.00     0.085 C 
ATOM      7  C   UNL     1     -80.321 -21.505  86.069  1.00  0.00     0.035 C 
ENDROOT
BRANCH   1   8
ATOM      8  C   UNL     1     -82.519 -22.632  86.259  1.00  0.00     0.143 C 
ATOM      9  O   UNL     1     -81.910 -23.690  86.163  1.00  0.00    -0.299 OA
BRANCH   8  10
ATOM     10  C   UNL     1     -83.979 -22.638  85.858  1.00  0.00     0.073 C 
ATOM     11  C   UNL     1     -84.859 -23.075  87.024  1.00  0.00     0.012 C 
ENDBRANCH   8  10
ENDBRANCH   1   8
BRANCH   1  12
ATOM     12  C   UNL     1     -81.734 -21.382  88.257  1.00  0.00    -0.031 A 
ATOM     13  C   UNL     1     -82.890 -21.189  89.052  1.00  0.00     0.051 A 
ATOM     14  C   UNL     1     -80.510 -21.620  88.922  1.00  0.00     0.005 A 
ATOM     15  C   UNL     1     -82.813 -21.215  90.452  1.00  0.00     0.115 A 
ATOM     16  C   UNL     1     -80.439 -21.645  90.316  1.00  0.00     0.004 A 
ATOM     17  C   UNL     1     -81.587 -21.441  91.080  1.00  0.00     0.046 A 
BRANCH  15  18
ATOM     18  O   UNL     1     -83.953 -21.021  91.230  1.00  0.00    -0.508 OA
ATOM     19  H   UNL     1     -83.930 -21.119  92.237  1.00  0.00     0.293 HD
ENDBRANCH  15  18
ENDBRANCH   1  12
TORSDOF 4
ENDMDL
MODEL 5
REMARK VINA RESULT:    -6.457      1.954      3.934
REMARK INTER + INTRA:          -8.396
REMARK INTER:                  -8.256
REMARK INTRA:                  -0.139
REMARK UNBOUND:                -0.618
REMARK SMILES CCC(=O)C1(c2cccc(O)c2)CCN(C)CC1
REMARK SMILES IDX 5 1 13 2 14 3 15 4 16 5 17 6 18 7 3 8 4 9 2 10 1 11 6 12
REMARK SMILES IDX 12 13 7 14 10 15 8 16 9 17 11 18
REMARK H PARENT 11 19
REMARK Flexibility Score: inf
ROOT
ATOM      1  C   UNL     1     -76.778 -18.351  85.017  1.00  0.00     0.056 C 
ATOM      2  C   UNL     1     -76.845 -17.005  85.822  1.00  0.00     0.035 C 
ATOM      3  C   UNL     1     -76.200 -17.110  87.214  1.00  0.00     0.085 C 
ATOM      4  N   UNL     1     -76.905 -18.100  88.062  1.00  0.00    -0.306 NA
ATOM      5  C   UNL     1     -76.076 -18.460  89.222  1.00  0.00     0.105 C 
ATOM      6  C   UNL     1     -77.369 -19.308  87.330  1.00  0.00     0.085 C 
ATOM      7  C   UNL     1     -76.602 -19.541  86.015  1.00  0.00     0.035 C 
ENDROOT
BRANCH   1   8
ATOM      8  C   UNL     1     -75.584 -18.429  84.048  1.00  0.00     0.143 C 
ATOM      9  O   UNL     1     -74.916 -17.418  83.869  1.00  0.00    -0.299 OA
BRANCH   8  10
ATOM     10  C   UNL     1     -75.211 -19.655  83.243  1.00  0.00     0.073 C 
ATOM     11  C   UNL     1     -73.784 -20.095  83.556  1.00  0.00     0.012 C 
ENDBRANCH   8  10
ENDBRANCH   1   8
BRANCH   1  12
ATOM     12  C   UNL     1     -78.066 -18.434  84.163  1.00  0.00    -0.031 A 
ATOM     13  C   UNL     1     -79.326 -18.834  84.673  1.00  0.00     0.051 A 
ATOM     14  C   UNL     1     -77.996 -18.061  82.802  1.00  0.00     0.005 A 
ATOM     15  C   UNL     1     -80.457 -18.873  83.845  1.00  0.00     0.115 A 
ATOM     16  C   UNL     1     -79.126 -18.102  81.983  1.00  0.00     0.004 A 
ATOM     17  C   UNL     1     -80.353 -18.510  82.502  1.00  0.00     0.046 A 
BRANCH  15  18
ATOM     18  O   UNL     1     -81.693 -19.271  84.351  1.00  0.00    -0.508 OA
ATOM     19  H   UNL     1     -81.880 -20.236  84.597  1.00  0.00     0.293 HD
ENDBRANCH  15  18
ENDBRANCH   1  12
TORSDOF 4
ENDMDL
MODEL 6
REMARK VINA RESULT:    -6.346      2.313      4.816
REMARK INTER + INTRA:          -8.262
REMARK INTER:                  -7.891
REMARK INTRA:                  -0.371
REMARK UNBOUND:                -0.618
REMARK SMILES CCC(=O)C1(c2cccc(O)c2)CCN(C)CC1
REMARK SMILES IDX 5 1 13 2 14 3 15 4 16 5 17 6 18 7 3 8 4 9 2 10 1 11 6 12
REMARK SMILES IDX 12 13 7 14 10 15 8 16 9 17 11 18
REMARK H PARENT 11 19
REMARK Flexibility Score: inf
ROOT
ATOM      1  C   UNL     1     -76.738 -19.057  86.894  1.00  0.00     0.056 C 
ATOM      2  C   UNL     1     -77.542 -18.101  85.944  1.00  0.00     0.035 C 
ATOM      3  C   UNL     1     -77.268 -18.372  84.455  1.00  0.00     0.085 C 
ATOM      4  N   UNL     1     -75.844 -18.138  84.118  1.00  0.00    -0.306 NA
ATOM      5  C   UNL     1     -75.521 -18.746  82.819  1.00  0.00     0.105 C 
ATOM      6  C   UNL     1     -74.890 -18.571  85.172  1.00  0.00     0.085 C 
ATOM      7  C   UNL     1     -75.492 -19.614  86.132  1.00  0.00     0.035 C 
ENDROOT
BRANCH   1   8
ATOM      8  C   UNL     1     -77.540 -20.287  87.353  1.00  0.00     0.143 C 
ATOM      9  O   UNL     1     -76.924 -21.306  87.639  1.00  0.00    -0.299 OA
BRANCH   8  10
ATOM     10  C   UNL     1     -79.051 -20.353  87.416  1.00  0.00     0.073 C 
ATOM     11  C   UNL     1     -79.510 -21.065  88.685  1.00  0.00     0.012 C 
ENDBRANCH   8  10
ENDBRANCH   1   8
BRANCH   1  12
ATOM     12  C   UNL     1     -76.383 -18.243  88.162  1.00  0.00    -0.031 A 
ATOM     13  C   UNL     1     -76.000 -16.879  88.143  1.00  0.00     0.051 A 
ATOM     14  C   UNL     1     -76.475 -18.883  89.419  1.00  0.00     0.005 A 
ATOM     15  C   UNL     1     -75.706 -16.198  89.333  1.00  0.00     0.115 A 
ATOM     16  C   UNL     1     -76.181 -18.199  90.600  1.00  0.00     0.004 A 
ATOM     17  C   UNL     1     -75.795 -16.861  90.557  1.00  0.00     0.046 A 
BRANCH  15  18
ATOM     18  O   UNL     1     -75.327 -14.857  89.308  1.00  0.00    -0.508 OA
ATOM     19  H   UNL     1     -74.412 -14.571  88.979  1.00  0.00     0.293 HD
ENDBRANCH  15  18
ENDBRANCH   1  12
TORSDOF 4
ENDMDL
MODEL 7
REMARK VINA RESULT:    -6.286      2.291      3.994
REMARK INTER + INTRA:          -8.189
REMARK INTER:                  -8.013
REMARK INTRA:                  -0.177
REMARK UNBOUND:                -0.618
REMARK SMILES CCC(=O)C1(c2cccc(O)c2)CCN(C)CC1
REMARK SMILES IDX 5 1 13 2 14 3 15 4 16 5 17 6 18 7 3 8 4 9 2 10 1 11 6 12
REMARK SMILES IDX 12 13 7 14 10 15 8 16 9 17 11 18
REMARK H PARENT 11 19
REMARK Flexibility Score: inf
ROOT
ATOM      1  C   UNL     1     -77.347 -18.702  85.294  1.00  0.00     0.056 C 
ATOM      2  C   UNL     1     -77.206 -17.171  85.607  1.00  0.00     0.035 C 
ATOM      3  C   UNL     1     -76.098 -16.493  84.783  1.00  0.00     0.085 C 
ATOM      4  N   UNL     1     -74.769 -17.072  85.087  1.00  0.00    -0.306 NA
ATOM      5  C   UNL     1     -73.797 -16.693  84.051  1.00  0.00     0.105 C 
ATOM      6  C   UNL     1     -74.781 -18.542  85.309  1.00  0.00     0.085 C 
ATOM      7  C   UNL     1     -76.009 -19.231  84.685  1.00  0.00     0.035 C 
ENDROOT
BRANCH   1   8
ATOM      8  C   UNL     1     -78.440 -19.019  84.258  1.00  0.00     0.143 C 
ATOM      9  O   UNL     1     -78.141 -19.720  83.298  1.00  0.00    -0.299 OA
BRANCH   8  10
ATOM     10  C   UNL     1     -79.851 -18.473  84.301  1.00  0.00     0.073 C 
ATOM     11  C   UNL     1     -80.622 -18.862  83.044  1.00  0.00     0.012 C 
ENDBRANCH   8  10
ENDBRANCH   1   8
BRANCH   1  12
ATOM     12  C   UNL     1     -77.753 -19.400  86.615  1.00  0.00    -0.031 A 
ATOM     13  C   UNL     1     -77.130 -19.151  87.862  1.00  0.00     0.051 A 
ATOM     14  C   UNL     1     -78.828 -20.316  86.588  1.00  0.00     0.005 A 
ATOM     15  C   UNL     1     -77.558 -19.810  89.024  1.00  0.00     0.115 A 
ATOM     16  C   UNL     1     -79.250 -20.968  87.748  1.00  0.00     0.004 A 
ATOM     17  C   UNL     1     -78.615 -20.718  88.963  1.00  0.00     0.046 A 
BRANCH  15  18
ATOM     18  O   UNL     1     -76.939 -19.564  90.248  1.00  0.00    -0.508 OA
ATOM     19  H   UNL     1     -76.056 -19.998  90.492  1.00  0.00     0.293 HD
ENDBRANCH  15  18
ENDBRANCH   1  12
TORSDOF 4
ENDMDL
MODEL 8
REMARK VINA RESULT:    -6.277      1.885      3.497
REMARK INTER + INTRA:          -8.179
REMARK INTER:                  -7.849
REMARK INTRA:                  -0.330
REMARK UNBOUND:                -0.618
REMARK SMILES CCC(=O)C1(c2cccc(O)c2)CCN(C)CC1
REMARK SMILES IDX 5 1 13 2 14 3 15 4 16 5 17 6 18 7 3 8 4 9 2 10 1 11 6 12
REMARK SMILES IDX 12 13 7 14 10 15 8 16 9 17 11 18
REMARK H PARENT 11 19
REMARK Flexibility Score: inf
ROOT
ATOM      1  C   UNL     1     -77.079 -18.441  85.345  1.00  0.00     0.056 C 
ATOM      2  C   UNL     1     -77.201 -16.891  85.559  1.00  0.00     0.035 C 
ATOM      3  C   UNL     1     -76.029 -16.306  86.366  1.00  0.00     0.085 C 
ATOM      4  N   UNL     1     -75.977 -16.880  87.732  1.00  0.00    -0.306 NA
ATOM      5  C   UNL     1     -74.670 -16.609  88.349  1.00  0.00     0.105 C 
ATOM      6  C   UNL     1     -76.320 -18.325  87.799  1.00  0.00     0.085 C 
ATOM      7  C   UNL     1     -76.150 -19.044  86.448  1.00  0.00     0.035 C 
ENDROOT
BRANCH   1   8
ATOM      8  C   UNL     1     -76.445 -18.828  83.997  1.00  0.00     0.143 C 
ATOM      9  O   UNL     1     -75.710 -19.807  83.964  1.00  0.00    -0.299 OA
BRANCH   8  10
ATOM     10  C   UNL     1     -76.610 -18.045  82.713  1.00  0.00     0.073 C 
ATOM     11  C   UNL     1     -75.263 -17.829  82.032  1.00  0.00     0.012 C 
ENDBRANCH   8  10
ENDBRANCH   1   8
BRANCH   1  12
ATOM     12  C   UNL     1     -78.517 -19.014  85.355  1.00  0.00    -0.031 A 
ATOM     13  C   UNL     1     -79.514 -18.661  84.414  1.00  0.00     0.051 A 
ATOM     14  C   UNL     1     -78.851 -19.972  86.340  1.00  0.00     0.005 A 
ATOM     15  C   UNL     1     -80.794 -19.231  84.474  1.00  0.00     0.115 A 
ATOM     16  C   UNL     1     -80.127 -20.536  86.394  1.00  0.00     0.004 A 
ATOM     17  C   UNL     1     -81.097 -20.165  85.465  1.00  0.00     0.046 A 
BRANCH  15  18
ATOM     18  O   UNL     1     -81.773 -18.876  83.547  1.00  0.00    -0.508 OA
ATOM     19  H   UNL     1     -82.739 -19.158  83.663  1.00  0.00     0.293 HD
ENDBRANCH  15  18
ENDBRANCH   1  12
TORSDOF 4
ENDMDL
MODEL 9
REMARK VINA RESULT:    -6.214      2.133      4.091
REMARK INTER + INTRA:          -8.103
REMARK INTER:                  -7.436
REMARK INTRA:                  -0.668
REMARK UNBOUND:                -0.618
REMARK SMILES CCC(=O)C1(c2cccc(O)c2)CCN(C)CC1
REMARK SMILES IDX 5 1 13 2 14 3 15 4 16 5 17 6 18 7 3 8 4 9 2 10 1 11 6 12
REMARK SMILES IDX 12 13 7 14 10 15 8 16 9 17 11 18
REMARK H PARENT 11 19
REMARK Flexibility Score: inf
ROOT
ATOM      1  C   UNL     1     -76.237 -18.157  86.422  1.00  0.00     0.056 C 
ATOM      2  C   UNL     1     -76.429 -16.657  86.839  1.00  0.00     0.035 C 
ATOM      3  C   UNL     1     -75.554 -16.254  88.038  1.00  0.00     0.085 C 
ATOM      4  N   UNL     1     -75.904 -17.036  89.247  1.00  0.00    -0.306 NA
ATOM      5  C   UNL     1     -74.841 -16.918  90.256  1.00  0.00     0.105 C 
ATOM      6  C   UNL     1     -76.240 -18.459  88.976  1.00  0.00     0.085 C 
ATOM      7  C   UNL     1     -75.671 -18.963  87.636  1.00  0.00     0.035 C 
ENDROOT
BRANCH   1   8
ATOM      8  C   UNL     1     -75.228 -18.353  85.276  1.00  0.00     0.143 C 
ATOM      9  O   UNL     1     -74.750 -17.357  84.749  1.00  0.00    -0.299 OA
BRANCH   8  10
ATOM     10  C   UNL     1     -74.829 -19.696  84.703  1.00  0.00     0.073 C 
ATOM     11  C   UNL     1     -75.156 -19.769  83.215  1.00  0.00     0.012 C 
ENDBRANCH   8  10
ENDBRANCH   1   8
BRANCH   1  12
ATOM     12  C   UNL     1     -77.608 -18.668  85.916  1.00  0.00    -0.031 A 
ATOM     13  C   UNL     1     -78.359 -19.680  86.561  1.00  0.00     0.051 A 
ATOM     14  C   UNL     1     -78.163 -18.071  84.762  1.00  0.00     0.005 A 
ATOM     15  C   UNL     1     -79.603 -20.085  86.056  1.00  0.00     0.115 A 
ATOM     16  C   UNL     1     -79.402 -18.478  84.264  1.00  0.00     0.004 A 
ATOM     17  C   UNL     1     -80.120 -19.484  84.908  1.00  0.00     0.046 A 
BRANCH  15  18
ATOM     18  O   UNL     1     -80.337 -21.084  86.693  1.00  0.00    -0.508 OA
ATOM     19  H   UNL     1     -81.338 -21.002  86.829  1.00  0.00     0.293 HD
ENDBRANCH  15  18
ENDBRANCH   1  12
TORSDOF 4
ENDMDL
MODEL 10
REMARK VINA RESULT:    -6.163      2.196      3.460
REMARK INTER + INTRA:          -8.041
REMARK INTER:                  -7.984
REMARK INTRA:                  -0.058
REMARK UNBOUND:                -0.618
REMARK SMILES CCC(=O)C1(c2cccc(O)c2)CCN(C)CC1
REMARK SMILES IDX 5 1 13 2 14 3 15 4 16 5 17 6 18 7 3 8 4 9 2 10 1 11 6 12
REMARK SMILES IDX 12 13 7 14 10 15 8 16 9 17 11 18
REMARK H PARENT 11 19
REMARK Flexibility Score: inf
ROOT
ATOM      1  C   UNL     1     -77.348 -18.831  85.505  1.00  0.00     0.056 C 
ATOM      2  C   UNL     1     -77.194 -17.379  86.080  1.00  0.00     0.035 C 
ATOM      3  C   UNL     1     -75.814 -16.766  85.789  1.00  0.00     0.085 C 
ATOM      4  N   UNL     1     -74.730 -17.549  86.427  1.00  0.00    -0.306 NA
ATOM      5  C   UNL     1     -73.428 -17.186  85.846  1.00  0.00     0.105 C 
ATOM      6  C   UNL     1     -74.945 -19.020  86.402  1.00  0.00     0.085 C 
ATOM      7  C   UNL     1     -75.931 -19.461  85.304  1.00  0.00     0.035 C 
ENDROOT
BRANCH   1   8
ATOM      8  C   UNL     1     -78.032 -18.878  84.128  1.00  0.00     0.143 C 
ATOM      9  O   UNL     1     -77.481 -19.501  83.228  1.00  0.00    -0.299 OA
BRANCH   8  10
ATOM     10  C   UNL     1     -79.313 -18.151  83.779  1.00  0.00     0.073 C 
ATOM     11  C   UNL     1     -79.778 -18.516  82.373  1.00  0.00     0.012 C 
ENDBRANCH   8  10
ENDBRANCH   1   8
BRANCH   1  12
ATOM     12  C   UNL     1     -78.248 -19.616  86.490  1.00  0.00    -0.031 A 
ATOM     13  C   UNL     1     -79.482 -20.211  86.128  1.00  0.00     0.051 A 
ATOM     14  C   UNL     1     -77.804 -19.780  87.821  1.00  0.00     0.005 A 
ATOM     15  C   UNL     1     -80.241 -20.921  87.069  1.00  0.00     0.115 A 
ATOM     16  C   UNL     1     -78.565 -20.489  88.753  1.00  0.00     0.004 A 
ATOM     17  C   UNL     1     -79.781 -21.056  88.379  1.00  0.00     0.046 A 
BRANCH  15  18
ATOM     18  O   UNL     1     -81.456 -21.501  86.708  1.00  0.00    -0.508 OA
ATOM     19  H   UNL     1     -82.098 -21.038  86.077  1.00  0.00     0.293 HD
ENDBRANCH  15  18
ENDBRANCH   1  12
TORSDOF 4
ENDMDL
MODEL 11
REMARK VINA RESULT:    -6.104      4.646      7.489
REMARK INTER + INTRA:          -7.971
REMARK INTER:                  -8.035
REMARK INTRA:                   0.065
REMARK UNBOUND:                -0.618
REMARK SMILES CCC(=O)C1(c2cccc(O)c2)CCN(C)CC1
REMARK SMILES IDX 5 1 13 2 14 3 15 4 16 5 17 6 18 7 3 8 4 9 2 10 1 11 6 12
REMARK SMILES IDX 12 13 7 14 10 15 8 16 9 17 11 18
REMARK H PARENT 11 19
REMARK Flexibility Score: inf
ROOT
ATOM      1  C   UNL     1     -81.650 -21.168  87.580  1.00  0.00     0.056 C 
ATOM      2  C   UNL     1     -82.214 -22.627  87.703  1.00  0.00     0.035 C 
ATOM      3  C   UNL     1     -83.750 -22.680  87.644  1.00  0.00     0.085 C 
ATOM      4  N   UNL     1     -84.358 -21.937  88.772  1.00  0.00    -0.306 NA
ATOM      5  C   UNL     1     -85.781 -21.679  88.505  1.00  0.00     0.105 C 
ATOM      6  C   UNL     1     -83.639 -20.688  89.138  1.00  0.00     0.085 C 
ATOM      7  C   UNL     1     -82.760 -20.148  87.995  1.00  0.00     0.035 C 
ENDROOT
BRANCH   1   8
ATOM      8  C   UNL     1     -81.236 -20.786  86.148  1.00  0.00     0.143 C 
ATOM      9  O   UNL     1     -80.376 -21.459  85.595  1.00  0.00    -0.299 OA
BRANCH   8  10
ATOM     10  C   UNL     1     -81.771 -19.590  85.389  1.00  0.00     0.073 C 
ATOM     11  C   UNL     1     -80.657 -18.900  84.610  1.00  0.00     0.012 C 
ENDBRANCH   8  10
ENDBRANCH   1   8
BRANCH   1  12
ATOM     12  C   UNL     1     -80.377 -21.098  88.458  1.00  0.00    -0.031 A 
ATOM     13  C   UNL     1     -80.323 -21.528  89.806  1.00  0.00     0.051 A 
ATOM     14  C   UNL     1     -79.186 -20.607  87.876  1.00  0.00     0.005 A 
ATOM     15  C   UNL     1     -79.131 -21.449  90.540  1.00  0.00     0.115 A 
ATOM     16  C   UNL     1     -78.001 -20.531  88.612  1.00  0.00     0.004 A 
ATOM     17  C   UNL     1     -77.974 -20.949  89.941  1.00  0.00     0.046 A 
BRANCH  15  18
ATOM     18  O   UNL     1     -79.085 -21.870  91.867  1.00  0.00    -0.508 OA
ATOM     19  H   UNL     1     -78.414 -22.562  92.181  1.00  0.00     0.293 HD
ENDBRANCH  15  18
ENDBRANCH   1  12
TORSDOF 4
ENDMDL
MODEL 12
REMARK VINA RESULT:    -6.078      2.536      3.783
REMARK INTER + INTRA:          -7.940
REMARK INTER:                  -7.685
REMARK INTRA:                  -0.255
REMARK UNBOUND:                -0.618
REMARK SMILES CCC(=O)C1(c2cccc(O)c2)CCN(C)CC1
REMARK SMILES IDX 5 1 13 2 14 3 15 4 16 5 17 6 18 7 3 8 4 9 2 10 1 11 6 12
REMARK SMILES IDX 12 13 7 14 10 15 8 16 9 17 11 18
REMARK H PARENT 11 19
REMARK Flexibility Score: inf
ROOT
ATOM      1  C   UNL     1     -76.470 -18.631  85.856  1.00  0.00     0.056 C 
ATOM      2  C   UNL     1     -76.849 -17.586  86.963  1.00  0.00     0.035 C 
ATOM      3  C   UNL     1     -76.399 -18.017  88.369  1.00  0.00     0.085 C 
ATOM      4  N   UNL     1     -77.062 -19.275  88.786  1.00  0.00    -0.306 NA
ATOM      5  C   UNL     1     -76.363 -19.864  89.937  1.00  0.00     0.105 C 
ATOM      6  C   UNL     1     -77.235 -20.264  87.690  1.00  0.00     0.085 C 
ATOM      7  C   UNL     1     -76.264 -20.033  86.517  1.00  0.00     0.035 C 
ENDROOT
BRANCH   1   8
ATOM      8  C   UNL     1     -75.154 -18.308  85.128  1.00  0.00     0.143 C 
ATOM      9  O   UNL     1     -74.514 -19.235  84.647  1.00  0.00    -0.299 OA
BRANCH   8  10
ATOM     10  C   UNL     1     -74.551 -16.924  85.017  1.00  0.00     0.073 C 
ATOM     11  C   UNL     1     -73.389 -16.759  85.990  1.00  0.00     0.012 C 
ENDBRANCH   8  10
ENDBRANCH   1   8
BRANCH   1  12
ATOM     12  C   UNL     1     -77.598 -18.599  84.797  1.00  0.00    -0.031 A 
ATOM     13  C   UNL     1     -77.430 -18.107  83.479  1.00  0.00     0.051 A 
ATOM     14  C   UNL     1     -78.865 -19.118  85.148  1.00  0.00     0.005 A 
ATOM     15  C   UNL     1     -78.493 -18.121  82.565  1.00  0.00     0.115 A 
ATOM     16  C   UNL     1     -79.920 -19.129  84.233  1.00  0.00     0.004 A 
ATOM     17  C   UNL     1     -79.735 -18.630  82.945  1.00  0.00     0.046 A 
BRANCH  15  18
ATOM     18  O   UNL     1     -78.322 -17.633  81.271  1.00  0.00    -0.508 OA
ATOM     19  H   UNL     1     -79.072 -17.663  80.590  1.00  0.00     0.293 HD
ENDBRANCH  15  18
ENDBRANCH   1  12
TORSDOF 4
ENDMDL
MODEL 13
REMARK VINA RESULT:    -6.047      4.627      7.220
REMARK INTER + INTRA:          -7.902
REMARK INTER:                  -7.228
REMARK INTRA:                  -0.674
REMARK UNBOUND:                -0.618
REMARK SMILES CCC(=O)C1(c2cccc(O)c2)CCN(C)CC1
REMARK SMILES IDX 5 1 13 2 14 3 15 4 16 5 17 6 18 7 3 8 4 9 2 10 1 11 6 12
REMARK SMILES IDX 12 13 7 14 10 15 8 16 9 17 11 18
REMARK H PARENT 11 19
REMARK Flexibility Score: inf
ROOT
ATOM      1  C   UNL     1     -74.597 -16.058  90.267  1.00  0.00     0.056 C 
ATOM      2  C   UNL     1     -73.579 -17.252  90.245  1.00  0.00     0.035 C 
ATOM      3  C   UNL     1     -73.565 -17.999  88.901  1.00  0.00     0.085 C 
ATOM      4  N   UNL     1     -74.882 -18.612  88.611  1.00  0.00    -0.306 NA
ATOM      5  C   UNL     1     -74.968 -18.990  87.193  1.00  0.00     0.105 C 
ATOM      6  C   UNL     1     -76.045 -17.783  89.024  1.00  0.00     0.085 C 
ATOM      7  C   UNL     1     -75.691 -16.291  89.175  1.00  0.00     0.035 C 
ENDROOT
BRANCH   1   8
ATOM      8  C   UNL     1     -73.956 -14.697  89.942  1.00  0.00     0.143 C 
ATOM      9  O   UNL     1     -74.576 -13.922  89.224  1.00  0.00    -0.299 OA
BRANCH   8  10
ATOM     10  C   UNL     1     -72.577 -14.267  90.393  1.00  0.00     0.073 C 
ATOM     11  C   UNL     1     -71.678 -13.985  89.194  1.00  0.00     0.012 C 
ENDBRANCH   8  10
ENDBRANCH   1   8
BRANCH   1  12
ATOM     12  C   UNL     1     -75.159 -15.966  91.706  1.00  0.00    -0.031 A 
ATOM     13  C   UNL     1     -76.470 -15.529  92.015  1.00  0.00     0.051 A 
ATOM     14  C   UNL     1     -74.331 -16.371  92.778  1.00  0.00     0.005 A 
ATOM     15  C   UNL     1     -76.920 -15.485  93.342  1.00  0.00     0.115 A 
ATOM     16  C   UNL     1     -74.785 -16.324  94.098  1.00  0.00     0.004 A 
ATOM     17  C   UNL     1     -76.075 -15.880  94.380  1.00  0.00     0.046 A 
BRANCH  15  18
ATOM     18  O   UNL     1     -78.210 -15.050  93.641  1.00  0.00    -0.508 OA
ATOM     19  H   UNL     1     -78.896 -15.671  94.054  1.00  0.00     0.293 HD
ENDBRANCH  15  18
ENDBRANCH   1  12
TORSDOF 4
ENDMDL
MODEL 14
REMARK VINA RESULT:    -6.032      2.632      3.297
REMARK INTER + INTRA:          -7.884
REMARK INTER:                  -7.716
REMARK INTRA:                  -0.168
REMARK UNBOUND:                -0.618
REMARK SMILES CCC(=O)C1(c2cccc(O)c2)CCN(C)CC1
REMARK SMILES IDX 5 1 13 2 14 3 15 4 16 5 17 6 18 7 3 8 4 9 2 10 1 11 6 12
REMARK SMILES IDX 12 13 7 14 10 15 8 16 9 17 11 18
REMARK H PARENT 11 19
REMARK Flexibility Score: inf
ROOT
ATOM      1  C   UNL     1     -76.482 -18.660  86.767  1.00  0.00     0.056 C 
ATOM      2  C   UNL     1     -75.734 -19.655  85.812  1.00  0.00     0.035 C 
ATOM      3  C   UNL     1     -75.445 -19.050  84.428  1.00  0.00     0.085 C 
ATOM      4  N   UNL     1     -76.699 -18.706  83.717  1.00  0.00    -0.306 NA
ATOM      5  C   UNL     1     -76.416 -17.807  82.589  1.00  0.00     0.105 C 
ATOM      6  C   UNL     1     -77.766 -18.157  84.595  1.00  0.00     0.085 C 
ATOM      7  C   UNL     1     -77.217 -17.576  85.912  1.00  0.00     0.035 C 
ENDROOT
BRANCH   1   8
ATOM      8  C   UNL     1     -75.543 -17.889  87.711  1.00  0.00     0.143 C 
ATOM      9  O   UNL     1     -74.569 -18.477  88.165  1.00  0.00    -0.299 OA
BRANCH   8  10
ATOM     10  C   UNL     1     -75.770 -16.468  88.178  1.00  0.00     0.073 C 
ATOM     11  C   UNL     1     -75.674 -16.373  89.697  1.00  0.00     0.012 C 
ENDBRANCH   8  10
ENDBRANCH   1   8
BRANCH   1  12
ATOM     12  C   UNL     1     -77.429 -19.505  87.652  1.00  0.00    -0.031 A 
ATOM     13  C   UNL     1     -77.260 -19.677  89.048  1.00  0.00     0.051 A 
ATOM     14  C   UNL     1     -78.548 -20.119  87.045  1.00  0.00     0.005 A 
ATOM     15  C   UNL     1     -78.165 -20.446  89.793  1.00  0.00     0.115 A 
ATOM     16  C   UNL     1     -79.446 -20.884  87.793  1.00  0.00     0.004 A 
ATOM     17  C   UNL     1     -79.254 -21.049  89.163  1.00  0.00     0.046 A 
BRANCH  15  18
ATOM     18  O   UNL     1     -77.992 -20.615  91.166  1.00  0.00    -0.508 OA
ATOM     19  H   UNL     1     -77.080 -20.529  91.600  1.00  0.00     0.293 HD
ENDBRANCH  15  18
ENDBRANCH   1  12
TORSDOF 4
ENDMDL
MODEL 15
REMARK VINA RESULT:    -6.021      3.916      6.525
REMARK INTER + INTRA:          -7.870
REMARK INTER:                  -7.225
REMARK INTRA:                  -0.645
REMARK UNBOUND:                -0.618
REMARK SMILES CCC(=O)C1(c2cccc(O)c2)CCN(C)CC1
REMARK SMILES IDX 5 1 13 2 14 3 15 4 16 5 17 6 18 7 3 8 4 9 2 10 1 11 6 12
REMARK SMILES IDX 12 13 7 14 10 15 8 16 9 17 11 18
REMARK H PARENT 11 19
REMARK Flexibility Score: inf
ROOT
ATOM      1  C   UNL     1     -75.287 -17.712  89.314  1.00  0.00     0.056 C 
ATOM      2  C   UNL     1     -75.669 -16.591  88.285  1.00  0.00     0.035 C 
ATOM      3  C   UNL     1     -74.637 -16.441  87.154  1.00  0.00     0.085 C 
ATOM      4  N   UNL     1     -73.312 -16.041  87.683  1.00  0.00    -0.306 NA
ATOM      5  C   UNL     1     -72.270 -16.264  86.670  1.00  0.00     0.105 C 
ATOM      6  C   UNL     1     -72.956 -16.678  88.979  1.00  0.00     0.085 C 
ATOM      7  C   UNL     1     -73.746 -17.972  89.246  1.00  0.00     0.035 C 
ENDROOT
BRANCH   1   8
ATOM      8  C   UNL     1     -75.958 -19.067  89.026  1.00  0.00     0.143 C 
ATOM      9  O   UNL     1     -75.276 -20.080  89.107  1.00  0.00    -0.299 OA
BRANCH   8  10
ATOM     10  C   UNL     1     -77.396 -19.236  88.583  1.00  0.00     0.073 C 
ATOM     11  C   UNL     1     -77.470 -19.557  87.094  1.00  0.00     0.012 C 
ENDBRANCH   8  10
ENDBRANCH   1   8
BRANCH   1  12
ATOM     12  C   UNL     1     -75.782 -17.242  90.703  1.00  0.00    -0.031 A 
ATOM     13  C   UNL     1     -76.055 -18.118  91.781  1.00  0.00     0.051 A 
ATOM     14  C   UNL     1     -75.943 -15.856  90.925  1.00  0.00     0.005 A 
ATOM     15  C   UNL     1     -76.487 -17.622  93.019  1.00  0.00     0.115 A 
ATOM     16  C   UNL     1     -76.374 -15.368  92.160  1.00  0.00     0.004 A 
ATOM     17  C   UNL     1     -76.648 -16.249  93.204  1.00  0.00     0.046 A 
BRANCH  15  18
ATOM     18  O   UNL     1     -76.758 -18.489  94.076  1.00  0.00    -0.508 OA
ATOM     19  H   UNL     1     -77.403 -18.238  94.816  1.00  0.00     0.293 HD
ENDBRANCH  15  18
ENDBRANCH   1  12
TORSDOF 4
ENDMDL
