MODEL 1
REMARK VINA RESULT:    -9.477      0.000      0.000
REMARK INTER + INTRA:         -10.623
REMARK INTER:                 -10.031
REMARK INTRA:                  -0.592
REMARK UNBOUND:                -0.592
REMARK SMILES Cc1cc(C)c(/C=C2\C(=O)Nc3ccccc32)[nH]1
REMARK SMILES IDX 7 1 8 2 9 3 10 4 11 5 12 6 13 7 14 8 15 9 16 10 17 11 6 13
REMARK SMILES IDX 1 14 2 15 3 16 18 17 4 18 5 20
REMARK H PARENT 11 12 18 19
REMARK Flexibility Score: inf
ROOT
ATOM      1  C   UNL     1      20.429  24.404  39.638  1.00  0.00     0.040 C 
ATOM      2  C   UNL     1      20.137  25.690  39.884  1.00  0.00     0.051 C 
ATOM      3  C   UNL     1      20.948  26.900  39.661  1.00  0.00     0.256 C 
ATOM      4  O   UNL     1      22.090  26.939  39.132  1.00  0.00    -0.269 OA
ATOM      5  N   UNL     1      20.224  28.070  40.028  1.00  0.00    -0.321 N 
ATOM      6  C   UNL     1      18.950  27.592  40.447  1.00  0.00     0.049 A 
ATOM      7  C   UNL     1      17.878  28.371  40.880  1.00  0.00     0.027 A 
ATOM      8  C   UNL     1      16.689  27.719  41.248  1.00  0.00     0.002 A 
ATOM      9  C   UNL     1      16.593  26.314  41.176  1.00  0.00     0.001 A 
ATOM     10  C   UNL     1      17.685  25.548  40.735  1.00  0.00     0.011 A 
ATOM     11  C   UNL     1      18.858  26.215  40.371  1.00  0.00     0.011 A 
ATOM     12  H   UNL     1      20.535  29.063  39.943  1.00  0.00     0.170 HD
ENDROOT
BRANCH   1  13
ATOM     13  C   UNL     1      21.758  23.926  39.216  1.00  0.00     0.042 A 
ATOM     14  C   UNL     1      24.287  23.306  36.725  1.00  0.00     0.064 C 
ATOM     15  C   UNL     1      23.450  23.457  37.952  1.00  0.00     0.012 A 
ATOM     16  C   UNL     1      23.925  23.434  39.250  1.00  0.00     0.026 A 
ATOM     17  N   UNL     1      22.141  23.779  37.933  1.00  0.00    -0.359 N 
ATOM     18  C   UNL     1      22.841  23.726  40.056  1.00  0.00    -0.026 A 
ATOM     19  H   UNL     1      21.562  23.954  37.081  1.00  0.00     0.166 HD
ATOM     20  C   UNL     1      22.876  23.916  41.539  1.00  0.00     0.046 C 
ENDBRANCH   1  13
TORSDOF 1
ENDMDL
MODEL 2
REMARK VINA RESULT:    -9.373      1.037      1.755
REMARK INTER + INTRA:         -10.513
REMARK INTER:                  -9.956
REMARK INTRA:                  -0.558
REMARK UNBOUND:                -0.592
REMARK SMILES Cc1cc(C)c(/C=C2\C(=O)Nc3ccccc32)[nH]1
REMARK SMILES IDX 7 1 8 2 9 3 10 4 11 5 12 6 13 7 14 8 15 9 16 10 17 11 6 13
REMARK SMILES IDX 1 14 2 15 3 16 18 17 4 18 5 20
REMARK H PARENT 11 12 18 19
REMARK Flexibility Score: inf
ROOT
ATOM      1  C   UNL     1      20.086  24.524  39.858  1.00  0.00     0.040 C 
ATOM      2  C   UNL     1      19.733  25.791  40.121  1.00  0.00     0.051 C 
ATOM      3  C   UNL     1      20.517  27.032  40.003  1.00  0.00     0.256 C 
ATOM      4  O   UNL     1      21.695  27.126  39.569  1.00  0.00    -0.269 OA
ATOM      5  N   UNL     1      19.727  28.166  40.350  1.00  0.00    -0.321 N 
ATOM      6  C   UNL     1      18.441  27.634  40.650  1.00  0.00     0.049 A 
ATOM      7  C   UNL     1      17.312  28.363  41.021  1.00  0.00     0.027 A 
ATOM      8  C   UNL     1      16.121  27.662  41.272  1.00  0.00     0.002 A 
ATOM      9  C   UNL     1      16.079  26.258  41.147  1.00  0.00     0.001 A 
ATOM     10  C   UNL     1      17.227  25.542  40.769  1.00  0.00     0.011 A 
ATOM     11  C   UNL     1      18.402  26.258  40.521  1.00  0.00     0.011 A 
ATOM     12  H   UNL     1      20.009  29.170  40.322  1.00  0.00     0.170 HD
ENDROOT
BRANCH   1  13
ATOM     13  C   UNL     1      21.460  24.103  39.528  1.00  0.00     0.042 A 
ATOM     14  C   UNL     1      24.846  23.260  40.429  1.00  0.00     0.064 C 
ATOM     15  C   UNL     1      23.533  23.537  39.773  1.00  0.00     0.012 A 
ATOM     16  C   UNL     1      23.170  23.117  38.507  1.00  0.00     0.026 A 
ATOM     17  N   UNL     1      22.488  24.114  40.399  1.00  0.00    -0.359 N 
ATOM     18  C   UNL     1      21.848  23.486  38.350  1.00  0.00    -0.026 A 
ATOM     19  H   UNL     1      22.466  24.434  41.392  1.00  0.00     0.166 HD
ATOM     20  C   UNL     1      20.978  23.157  37.178  1.00  0.00     0.046 C 
ENDBRANCH   1  13
TORSDOF 1
ENDMDL
MODEL 3
REMARK VINA RESULT:    -8.452      1.562      6.287
REMARK INTER + INTRA:          -9.539
REMARK INTER:                  -9.019
REMARK INTRA:                  -0.519
REMARK UNBOUND:                -0.592
REMARK SMILES Cc1cc(C)c(/C=C2\C(=O)Nc3ccccc32)[nH]1
REMARK SMILES IDX 7 1 8 2 9 3 10 4 11 5 12 6 13 7 14 8 15 9 16 10 17 11 6 13
REMARK SMILES IDX 1 14 2 15 3 16 18 17 4 18 5 20
REMARK H PARENT 11 12 18 19
REMARK Flexibility Score: inf
ROOT
ATOM      1  C   UNL     1      21.197  25.161  40.336  1.00  0.00     0.040 C 
ATOM      2  C   UNL     1      21.785  24.466  39.352  1.00  0.00     0.051 C 
ATOM      3  C   UNL     1      21.316  24.188  37.983  1.00  0.00     0.256 C 
ATOM      4  O   UNL     1      20.251  24.616  37.464  1.00  0.00    -0.269 OA
ATOM      5  N   UNL     1      22.287  23.441  37.256  1.00  0.00    -0.321 N 
ATOM      6  C   UNL     1      23.375  23.285  38.159  1.00  0.00     0.049 A 
ATOM      7  C   UNL     1      24.581  22.638  37.894  1.00  0.00     0.027 A 
ATOM      8  C   UNL     1      25.547  22.590  38.913  1.00  0.00     0.002 A 
ATOM      9  C   UNL     1      25.295  23.184  40.166  1.00  0.00     0.001 A 
ATOM     10  C   UNL     1      24.073  23.833  40.412  1.00  0.00     0.011 A 
ATOM     11  C   UNL     1      23.125  23.873  39.385  1.00  0.00     0.011 A 
ATOM     12  H   UNL     1      22.238  23.137  36.258  1.00  0.00     0.170 HD
ENDROOT
BRANCH   1  13
ATOM     13  C   UNL     1      19.816  25.674  40.272  1.00  0.00     0.042 A 
ATOM     14  C   UNL     1      16.261  25.348  40.762  1.00  0.00     0.064 C 
ATOM     15  C   UNL     1      17.664  25.767  40.469  1.00  0.00     0.012 A 
ATOM     16  C   UNL     1      18.088  27.071  40.299  1.00  0.00     0.026 A 
ATOM     17  N   UNL     1      18.716  24.924  40.476  1.00  0.00    -0.359 N 
ATOM     18  C   UNL     1      19.462  27.009  40.167  1.00  0.00    -0.026 A 
ATOM     19  H   UNL     1      18.683  23.900  40.677  1.00  0.00     0.166 HD
ATOM     20  C   UNL     1      20.388  28.180  40.061  1.00  0.00     0.046 C 
ENDBRANCH   1  13
TORSDOF 1
ENDMDL
MODEL 4
REMARK VINA RESULT:    -8.390      2.160      3.208
REMARK INTER + INTRA:          -9.473
REMARK INTER:                  -9.004
REMARK INTRA:                  -0.469
REMARK UNBOUND:                -0.592
REMARK SMILES Cc1cc(C)c(/C=C2\C(=O)Nc3ccccc32)[nH]1
REMARK SMILES IDX 7 1 8 2 9 3 10 4 11 5 12 6 13 7 14 8 15 9 16 10 17 11 6 13
REMARK SMILES IDX 1 14 2 15 3 16 18 17 4 18 5 20
REMARK H PARENT 11 12 18 19
REMARK Flexibility Score: inf
ROOT
ATOM      1  C   UNL     1      23.355  24.953  38.424  1.00  0.00     0.040 C 
ATOM      2  C   UNL     1      22.085  24.744  38.799  1.00  0.00     0.051 C 
ATOM      3  C   UNL     1      21.314  23.491  38.861  1.00  0.00     0.256 C 
ATOM      4  O   UNL     1      21.753  22.338  38.607  1.00  0.00    -0.269 OA
ATOM      5  N   UNL     1      20.001  23.727  39.361  1.00  0.00    -0.321 N 
ATOM      6  C   UNL     1      19.965  25.121  39.643  1.00  0.00     0.049 A 
ATOM      7  C   UNL     1      18.889  25.829  40.177  1.00  0.00     0.027 A 
ATOM      8  C   UNL     1      19.043  27.208  40.394  1.00  0.00     0.002 A 
ATOM      9  C   UNL     1      20.258  27.850  40.078  1.00  0.00     0.001 A 
ATOM     10  C   UNL     1      21.331  27.119  39.543  1.00  0.00     0.011 A 
ATOM     11  C   UNL     1      21.160  25.747  39.336  1.00  0.00     0.011 A 
ATOM     12  H   UNL     1      19.254  23.021  39.546  1.00  0.00     0.170 HD
ENDROOT
BRANCH   1  13
ATOM     13  C   UNL     1      24.218  23.919  37.822  1.00  0.00     0.042 A 
ATOM     14  C   UNL     1      25.814  22.333  35.008  1.00  0.00     0.064 C 
ATOM     15  C   UNL     1      25.304  22.781  36.338  1.00  0.00     0.012 A 
ATOM     16  C   UNL     1      25.847  22.431  37.560  1.00  0.00     0.026 A 
ATOM     17  N   UNL     1      24.332  23.701  36.498  1.00  0.00    -0.359 N 
ATOM     18  C   UNL     1      25.147  23.153  38.507  1.00  0.00    -0.026 A 
ATOM     19  H   UNL     1      23.825  24.201  35.733  1.00  0.00     0.166 HD
ATOM     20  C   UNL     1      25.436  23.189  39.974  1.00  0.00     0.046 C 
ENDBRANCH   1  13
TORSDOF 1
ENDMDL
MODEL 5
REMARK VINA RESULT:    -8.115      3.342      7.311
REMARK INTER + INTRA:          -9.181
REMARK INTER:                  -8.695
REMARK INTRA:                  -0.486
REMARK UNBOUND:                -0.592
REMARK SMILES Cc1cc(C)c(/C=C2\C(=O)Nc3ccccc32)[nH]1
REMARK SMILES IDX 7 1 8 2 9 3 10 4 11 5 12 6 13 7 14 8 15 9 16 10 17 11 6 13
REMARK SMILES IDX 1 14 2 15 3 16 18 17 4 18 5 20
REMARK H PARENT 11 12 18 19
REMARK Flexibility Score: inf
ROOT
ATOM      1  C   UNL     1      16.139  25.562  40.859  1.00  0.00     0.040 C 
ATOM      2  C   UNL     1      16.970  26.607  40.739  1.00  0.00     0.051 C 
ATOM      3  C   UNL     1      16.729  28.038  40.996  1.00  0.00     0.256 C 
ATOM      4  O   UNL     1      15.663  28.541  41.440  1.00  0.00    -0.269 OA
ATOM      5  N   UNL     1      17.913  28.799  40.778  1.00  0.00    -0.321 N 
ATOM      6  C   UNL     1      18.900  27.839  40.419  1.00  0.00     0.049 A 
ATOM      7  C   UNL     1      20.239  28.100  40.129  1.00  0.00     0.027 A 
ATOM      8  C   UNL     1      21.071  27.017  39.800  1.00  0.00     0.002 A 
ATOM      9  C   UNL     1      20.557  25.705  39.767  1.00  0.00     0.001 A 
ATOM     10  C   UNL     1      19.205  25.463  40.064  1.00  0.00     0.011 A 
ATOM     11  C   UNL     1      18.393  26.553  40.391  1.00  0.00     0.011 A 
ATOM     12  H   UNL     1      18.044  29.825  40.918  1.00  0.00     0.170 HD
ENDROOT
BRANCH   1  13
ATOM     13  C   UNL     1      14.697  25.682  41.141  1.00  0.00     0.042 A 
ATOM     14  C   UNL     1      11.908  26.980  43.018  1.00  0.00     0.064 C 
ATOM     15  C   UNL     1      12.847  26.309  42.070  1.00  0.00     0.012 A 
ATOM     16  C   UNL     1      12.496  25.768  40.848  1.00  0.00     0.026 A 
ATOM     17  N   UNL     1      14.184  26.277  42.236  1.00  0.00    -0.359 N 
ATOM     18  C   UNL     1      13.678  25.362  40.259  1.00  0.00    -0.026 A 
ATOM     19  H   UNL     1      14.717  26.702  43.027  1.00  0.00     0.166 HD
ATOM     20  C   UNL     1      13.826  24.806  38.879  1.00  0.00     0.046 C 
ENDBRANCH   1  13
TORSDOF 1
ENDMDL
MODEL 6
REMARK VINA RESULT:    -7.951      2.268      6.758
REMARK INTER + INTRA:          -9.008
REMARK INTER:                  -9.155
REMARK INTRA:                   0.147
REMARK UNBOUND:                -0.592
REMARK SMILES Cc1cc(C)c(/C=C2\C(=O)Nc3ccccc32)[nH]1
REMARK SMILES IDX 7 1 8 2 9 3 10 4 11 5 12 6 13 7 14 8 15 9 16 10 17 11 6 13
REMARK SMILES IDX 1 14 2 15 3 16 18 17 4 18 5 20
REMARK H PARENT 11 12 18 19
REMARK Flexibility Score: inf
ROOT
ATOM      1  C   UNL     1      17.193  25.805  40.760  1.00  0.00     0.040 C 
ATOM      2  C   UNL     1      18.336  26.415  40.413  1.00  0.00     0.051 C 
ATOM      3  C   UNL     1      18.704  27.840  40.486  1.00  0.00     0.256 C 
ATOM      4  O   UNL     1      17.991  28.766  40.955  1.00  0.00    -0.269 OA
ATOM      5  N   UNL     1      20.044  28.041  40.048  1.00  0.00    -0.321 N 
ATOM      6  C   UNL     1      20.523  26.738  39.735  1.00  0.00     0.049 A 
ATOM      7  C   UNL     1      21.801  26.414  39.283  1.00  0.00     0.027 A 
ATOM      8  C   UNL     1      22.095  25.063  39.032  1.00  0.00     0.002 A 
ATOM      9  C   UNL     1      21.117  24.069  39.236  1.00  0.00     0.001 A 
ATOM     10  C   UNL     1      19.835  24.416  39.694  1.00  0.00     0.011 A 
ATOM     11  C   UNL     1      19.561  25.765  39.940  1.00  0.00     0.011 A 
ATOM     12  H   UNL     1      20.579  28.937  40.028  1.00  0.00     0.170 HD
ENDROOT
BRANCH   1  13
ATOM     13  C   UNL     1      15.966  26.517  41.161  1.00  0.00     0.042 A 
ATOM     14  C   UNL     1      14.231  29.328  42.601  1.00  0.00     0.064 C 
ATOM     15  C   UNL     1      14.669  28.057  41.950  1.00  0.00     0.012 A 
ATOM     16  C   UNL     1      13.863  27.234  41.187  1.00  0.00     0.026 A 
ATOM     17  N   UNL     1      15.948  27.634  41.914  1.00  0.00    -0.359 N 
ATOM     18  C   UNL     1      14.693  26.247  40.689  1.00  0.00    -0.026 A 
ATOM     19  H   UNL     1      16.771  28.126  42.329  1.00  0.00     0.166 HD
ATOM     20  C   UNL     1      14.300  25.175  39.722  1.00  0.00     0.046 C 
ENDBRANCH   1  13
TORSDOF 1
ENDMDL
MODEL 7
REMARK VINA RESULT:    -7.782      1.795      6.441
REMARK INTER + INTRA:          -8.829
REMARK INTER:                  -8.219
REMARK INTRA:                  -0.611
REMARK UNBOUND:                -0.592
REMARK SMILES Cc1cc(C)c(/C=C2\C(=O)Nc3ccccc32)[nH]1
REMARK SMILES IDX 7 1 8 2 9 3 10 4 11 5 12 6 13 7 14 8 15 9 16 10 17 11 6 13
REMARK SMILES IDX 1 14 2 15 3 16 18 17 4 18 5 20
REMARK H PARENT 11 12 18 19
REMARK Flexibility Score: inf
ROOT
ATOM      1  C   UNL     1      21.488  24.774  38.490  1.00  0.00     0.040 C 
ATOM      2  C   UNL     1      22.597  24.282  39.061  1.00  0.00     0.051 C 
ATOM      3  C   UNL     1      22.903  24.055  40.484  1.00  0.00     0.256 C 
ATOM      4  O   UNL     1      22.120  24.251  41.451  1.00  0.00    -0.269 OA
ATOM      5  N   UNL     1      24.193  23.471  40.639  1.00  0.00    -0.321 N 
ATOM      6  C   UNL     1      24.676  23.301  39.311  1.00  0.00     0.049 A 
ATOM      7  C   UNL     1      25.898  22.741  38.942  1.00  0.00     0.027 A 
ATOM      8  C   UNL     1      26.201  22.649  37.573  1.00  0.00     0.002 A 
ATOM      9  C   UNL     1      25.286  23.113  36.606  1.00  0.00     0.001 A 
ATOM     10  C   UNL     1      24.059  23.674  36.999  1.00  0.00     0.011 A 
ATOM     11  C   UNL     1      23.774  23.754  38.365  1.00  0.00     0.011 A 
ATOM     12  H   UNL     1      24.653  23.170  41.527  1.00  0.00     0.170 HD
ENDROOT
BRANCH   1  13
ATOM     13  C   UNL     1      20.362  25.358  39.241  1.00  0.00     0.042 A 
ATOM     14  C   UNL     1      17.340  25.092  41.186  1.00  0.00     0.064 C 
ATOM     15  C   UNL     1      18.561  25.503  40.429  1.00  0.00     0.012 A 
ATOM     16  C   UNL     1      19.173  26.738  40.514  1.00  0.00     0.026 A 
ATOM     17  N   UNL     1      19.296  24.660  39.676  1.00  0.00    -0.359 N 
ATOM     18  C   UNL     1      20.320  26.646  39.748  1.00  0.00    -0.026 A 
ATOM     19  H   UNL     1      19.108  23.643  39.528  1.00  0.00     0.166 HD
ATOM     20  C   UNL     1      21.371  27.702  39.610  1.00  0.00     0.046 C 
ENDBRANCH   1  13
TORSDOF 1
ENDMDL
MODEL 8
REMARK VINA RESULT:    -7.684      3.842      7.987
REMARK INTER + INTRA:          -8.725
REMARK INTER:                  -8.093
REMARK INTRA:                  -0.632
REMARK UNBOUND:                -0.592
REMARK SMILES Cc1cc(C)c(/C=C2\C(=O)Nc3ccccc32)[nH]1
REMARK SMILES IDX 7 1 8 2 9 3 10 4 11 5 12 6 13 7 14 8 15 9 16 10 17 11 6 13
REMARK SMILES IDX 1 14 2 15 3 16 18 17 4 18 5 20
REMARK H PARENT 11 12 18 19
REMARK Flexibility Score: inf
ROOT
ATOM      1  C   UNL     1      15.223  25.781  41.320  1.00  0.00     0.040 C 
ATOM      2  C   UNL     1      16.118  26.768  41.169  1.00  0.00     0.051 C 
ATOM      3  C   UNL     1      15.989  28.210  41.446  1.00  0.00     0.256 C 
ATOM      4  O   UNL     1      14.982  28.781  41.941  1.00  0.00    -0.269 OA
ATOM      5  N   UNL     1      17.212  28.889  41.178  1.00  0.00    -0.321 N 
ATOM      6  C   UNL     1      18.113  27.867  40.768  1.00  0.00     0.049 A 
ATOM      7  C   UNL     1      19.452  28.038  40.419  1.00  0.00     0.027 A 
ATOM      8  C   UNL     1      20.191  26.904  40.045  1.00  0.00     0.002 A 
ATOM      9  C   UNL     1      19.586  25.630  40.027  1.00  0.00     0.001 A 
ATOM     10  C   UNL     1      18.236  25.479  40.385  1.00  0.00     0.011 A 
ATOM     11  C   UNL     1      17.517  26.619  40.756  1.00  0.00     0.011 A 
ATOM     12  H   UNL     1      17.420  29.903  41.319  1.00  0.00     0.170 HD
ENDROOT
BRANCH   1  13
ATOM     13  C   UNL     1      13.807  25.998  41.670  1.00  0.00     0.042 A 
ATOM     14  C   UNL     1      11.203  27.179  43.863  1.00  0.00     0.064 C 
ATOM     15  C   UNL     1      12.050  26.618  42.768  1.00  0.00     0.012 A 
ATOM     16  C   UNL     1      11.628  26.384  41.474  1.00  0.00     0.026 A 
ATOM     17  N   UNL     1      13.377  26.407  42.879  1.00  0.00    -0.359 N 
ATOM     18  C   UNL     1      12.750  25.981  40.776  1.00  0.00    -0.026 A 
ATOM     19  H   UNL     1      13.963  26.599  43.722  1.00  0.00     0.166 HD
ATOM     20  C   UNL     1      12.819  25.708  39.306  1.00  0.00     0.046 C 
ENDBRANCH   1  13
TORSDOF 1
ENDMDL
MODEL 9
REMARK VINA RESULT:    -7.605      4.814      9.419
REMARK INTER + INTRA:          -8.641
REMARK INTER:                  -7.963
REMARK INTRA:                  -0.678
REMARK UNBOUND:                -0.592
REMARK SMILES Cc1cc(C)c(/C=C2\C(=O)Nc3ccccc32)[nH]1
REMARK SMILES IDX 7 1 8 2 9 3 10 4 11 5 12 6 13 7 14 8 15 9 16 10 17 11 6 13
REMARK SMILES IDX 1 14 2 15 3 16 18 17 4 18 5 20
REMARK H PARENT 11 12 18 19
REMARK Flexibility Score: inf
ROOT
ATOM      1  C   UNL     1      14.636  29.437  42.059  1.00  0.00     0.040 C 
ATOM      2  C   UNL     1      14.993  28.181  41.756  1.00  0.00     0.051 C 
ATOM      3  C   UNL     1      14.158  26.983  41.562  1.00  0.00     0.256 C 
ATOM      4  O   UNL     1      12.900  26.943  41.603  1.00  0.00    -0.269 OA
ATOM      5  N   UNL     1      14.958  25.859  41.208  1.00  0.00    -0.321 N 
ATOM      6  C   UNL     1      16.287  26.364  41.147  1.00  0.00     0.049 A 
ATOM      7  C   UNL     1      17.431  25.640  40.813  1.00  0.00     0.027 A 
ATOM      8  C   UNL     1      18.663  26.314  40.797  1.00  0.00     0.002 A 
ATOM      9  C   UNL     1      18.731  27.686  41.113  1.00  0.00     0.001 A 
ATOM     10  C   UNL     1      17.566  28.398  41.445  1.00  0.00     0.011 A 
ATOM     11  C   UNL     1      16.348  27.711  41.452  1.00  0.00     0.011 A 
ATOM     12  H   UNL     1      14.632  24.894  40.976  1.00  0.00     0.170 HD
ENDROOT
BRANCH   1  13
ATOM     13  C   UNL     1      13.265  29.839  42.427  1.00  0.00     0.042 A 
ATOM     14  C   UNL     1       9.800  30.450  41.651  1.00  0.00     0.064 C 
ATOM     15  C   UNL     1      11.153  30.269  42.258  1.00  0.00     0.012 A 
ATOM     16  C   UNL     1      11.410  30.150  43.610  1.00  0.00     0.026 A 
ATOM     17  N   UNL     1      12.274  30.057  41.541  1.00  0.00    -0.359 N 
ATOM     18  C   UNL     1      12.762  29.882  43.716  1.00  0.00    -0.026 A 
ATOM     19  H   UNL     1      12.338  29.998  40.500  1.00  0.00     0.166 HD
ATOM     20  C   UNL     1      13.499  29.572  44.980  1.00  0.00     0.046 C 
ENDBRANCH   1  13
TORSDOF 1
ENDMDL
MODEL 10
REMARK VINA RESULT:    -7.476      9.478     12.912
REMARK INTER + INTRA:          -8.505
REMARK INTER:                  -7.831
REMARK INTRA:                  -0.675
REMARK UNBOUND:                -0.592
REMARK SMILES Cc1cc(C)c(/C=C2\C(=O)Nc3ccccc32)[nH]1
REMARK SMILES IDX 7 1 8 2 9 3 10 4 11 5 12 6 13 7 14 8 15 9 16 10 17 11 6 13
REMARK SMILES IDX 1 14 2 15 3 16 18 17 4 18 5 20
REMARK H PARENT 11 12 18 19
REMARK Flexibility Score: inf
ROOT
ATOM      1  C   UNL     1      27.939  20.847  32.169  1.00  0.00     0.040 C 
ATOM      2  C   UNL     1      27.333  19.826  31.544  1.00  0.00     0.051 C 
ATOM      3  C   UNL     1      26.165  19.830  30.646  1.00  0.00     0.256 C 
ATOM      4  O   UNL     1      25.536  20.849  30.255  1.00  0.00    -0.269 OA
ATOM      5  N   UNL     1      25.886  18.517  30.171  1.00  0.00    -0.321 N 
ATOM      6  C   UNL     1      26.900  17.700  30.745  1.00  0.00     0.049 A 
ATOM      7  C   UNL     1      27.063  16.329  30.553  1.00  0.00     0.027 A 
ATOM      8  C   UNL     1      28.133  15.690  31.200  1.00  0.00     0.002 A 
ATOM      9  C   UNL     1      29.015  16.425  32.019  1.00  0.00     0.001 A 
ATOM     10  C   UNL     1      28.834  17.807  32.198  1.00  0.00     0.011 A 
ATOM     11  C   UNL     1      27.765  18.425  31.544  1.00  0.00     0.011 A 
ATOM     12  H   UNL     1      25.143  18.230  29.496  1.00  0.00     0.170 HD
ENDROOT
BRANCH   1  13
ATOM     13  C   UNL     1      27.418  22.226  32.192  1.00  0.00     0.042 A 
ATOM     14  C   UNL     1      26.614  25.363  30.613  1.00  0.00     0.064 C 
ATOM     15  C   UNL     1      26.826  24.193  31.517  1.00  0.00     0.012 A 
ATOM     16  C   UNL     1      26.214  24.010  32.742  1.00  0.00     0.026 A 
ATOM     17  N   UNL     1      27.537  23.100  31.174  1.00  0.00    -0.359 N 
ATOM     18  C   UNL     1      26.600  22.756  33.175  1.00  0.00    -0.026 A 
ATOM     19  H   UNL     1      28.019  22.940  30.262  1.00  0.00     0.166 HD
ATOM     20  C   UNL     1      26.113  22.066  34.410  1.00  0.00     0.046 C 
ENDBRANCH   1  13
TORSDOF 1
ENDMDL
MODEL 11
REMARK VINA RESULT:    -7.331     10.568     11.963
REMARK INTER + INTRA:          -8.351
REMARK INTER:                  -7.797
REMARK INTRA:                  -0.554
REMARK UNBOUND:                -0.592
REMARK SMILES Cc1cc(C)c(/C=C2\C(=O)Nc3ccccc32)[nH]1
REMARK SMILES IDX 7 1 8 2 9 3 10 4 11 5 12 6 13 7 14 8 15 9 16 10 17 11 6 13
REMARK SMILES IDX 1 14 2 15 3 16 18 17 4 18 5 20
REMARK H PARENT 11 12 18 19
REMARK Flexibility Score: inf
ROOT
ATOM      1  C   UNL     1      27.180  19.905  33.111  1.00  0.00     0.040 C 
ATOM      2  C   UNL     1      27.139  20.568  31.946  1.00  0.00     0.051 C 
ATOM      3  C   UNL     1      27.326  20.071  30.572  1.00  0.00     0.256 C 
ATOM      4  O   UNL     1      27.519  18.872  30.238  1.00  0.00    -0.269 OA
ATOM      5  N   UNL     1      27.154  21.121  29.625  1.00  0.00    -0.321 N 
ATOM      6  C   UNL     1      26.825  22.264  30.407  1.00  0.00     0.049 A 
ATOM      7  C   UNL     1      26.539  23.540  29.924  1.00  0.00     0.027 A 
ATOM      8  C   UNL     1      26.227  24.548  30.852  1.00  0.00     0.002 A 
ATOM      9  C   UNL     1      26.204  24.265  32.233  1.00  0.00     0.001 A 
ATOM     10  C   UNL     1      26.493  22.971  32.699  1.00  0.00     0.011 A 
ATOM     11  C   UNL     1      26.799  21.981  31.760  1.00  0.00     0.011 A 
ATOM     12  H   UNL     1      27.192  21.051  28.584  1.00  0.00     0.170 HD
ENDROOT
BRANCH   1  13
ATOM     13  C   UNL     1      27.599  18.498  33.246  1.00  0.00     0.042 A 
ATOM     14  C   UNL     1      30.100  15.907  33.360  1.00  0.00     0.064 C 
ATOM     15  C   UNL     1      28.869  16.752  33.369  1.00  0.00     0.012 A 
ATOM     16  C   UNL     1      27.641  16.367  33.873  1.00  0.00     0.026 A 
ATOM     17  N   UNL     1      28.848  18.051  33.011  1.00  0.00    -0.359 N 
ATOM     18  C   UNL     1      26.830  17.482  33.787  1.00  0.00    -0.026 A 
ATOM     19  H   UNL     1      29.666  18.614  32.687  1.00  0.00     0.166 HD
ATOM     20  C   UNL     1      25.430  17.591  34.304  1.00  0.00     0.046 C 
ENDBRANCH   1  13
TORSDOF 1
ENDMDL
MODEL 12
REMARK VINA RESULT:    -7.103     12.534     13.237
REMARK INTER + INTRA:          -8.110
REMARK INTER:                  -7.477
REMARK INTRA:                  -0.633
REMARK UNBOUND:                -0.592
REMARK SMILES Cc1cc(C)c(/C=C2\C(=O)Nc3ccccc32)[nH]1
REMARK SMILES IDX 7 1 8 2 9 3 10 4 11 5 12 6 13 7 14 8 15 9 16 10 17 11 6 13
REMARK SMILES IDX 1 14 2 15 3 16 18 17 4 18 5 20
REMARK H PARENT 11 12 18 19
REMARK Flexibility Score: inf
ROOT
ATOM      1  C   UNL     1      28.234  18.309  33.226  1.00  0.00     0.040 C 
ATOM      2  C   UNL     1      27.539  18.612  32.120  1.00  0.00     0.051 C 
ATOM      3  C   UNL     1      26.565  17.803  31.368  1.00  0.00     0.256 C 
ATOM      4  O   UNL     1      26.164  16.650  31.677  1.00  0.00    -0.269 OA
ATOM      5  N   UNL     1      26.031  18.540  30.272  1.00  0.00    -0.321 N 
ATOM      6  C   UNL     1      26.646  19.820  30.362  1.00  0.00     0.049 A 
ATOM      7  C   UNL     1      26.423  20.905  29.516  1.00  0.00     0.027 A 
ATOM      8  C   UNL     1      27.120  22.099  29.767  1.00  0.00     0.002 A 
ATOM      9  C   UNL     1      28.019  22.187  30.849  1.00  0.00     0.001 A 
ATOM     10  C   UNL     1      28.229  21.082  31.692  1.00  0.00     0.011 A 
ATOM     11  C   UNL     1      27.524  19.904  31.428  1.00  0.00     0.011 A 
ATOM     12  H   UNL     1      25.299  18.232  29.595  1.00  0.00     0.170 HD
ENDROOT
BRANCH   1  13
ATOM     13  C   UNL     1      28.266  16.969  33.839  1.00  0.00     0.042 A 
ATOM     14  C   UNL     1      26.687  14.141  35.419  1.00  0.00     0.064 C 
ATOM     15  C   UNL     1      27.594  15.143  34.783  1.00  0.00     0.012 A 
ATOM     16  C   UNL     1      28.855  14.874  34.286  1.00  0.00     0.026 A 
ATOM     17  N   UNL     1      27.229  16.407  34.491  1.00  0.00    -0.359 N 
ATOM     18  C   UNL     1      29.285  16.044  33.690  1.00  0.00    -0.026 A 
ATOM     19  H   UNL     1      26.294  16.835  34.670  1.00  0.00     0.166 HD
ATOM     20  C   UNL     1      30.556  16.221  32.921  1.00  0.00     0.046 C 
ENDBRANCH   1  13
TORSDOF 1
ENDMDL
MODEL 13
REMARK VINA RESULT:    -6.961      9.900     12.274
REMARK INTER + INTRA:          -7.960
REMARK INTER:                  -7.416
REMARK INTRA:                  -0.545
REMARK UNBOUND:                -0.592
REMARK SMILES Cc1cc(C)c(/C=C2\C(=O)Nc3ccccc32)[nH]1
REMARK SMILES IDX 7 1 8 2 9 3 10 4 11 5 12 6 13 7 14 8 15 9 16 10 17 11 6 13
REMARK SMILES IDX 1 14 2 15 3 16 18 17 4 18 5 20
REMARK H PARENT 11 12 18 19
REMARK Flexibility Score: inf
ROOT
ATOM      1  C   UNL     1      26.987  20.336  30.053  1.00  0.00     0.040 C 
ATOM      2  C   UNL     1      26.810  21.121  31.126  1.00  0.00     0.051 C 
ATOM      3  C   UNL     1      26.768  20.769  32.556  1.00  0.00     0.256 C 
ATOM      4  O   UNL     1      26.948  19.621  33.041  1.00  0.00    -0.269 OA
ATOM      5  N   UNL     1      26.599  21.932  33.361  1.00  0.00    -0.321 N 
ATOM      6  C   UNL     1      26.571  23.013  32.435  1.00  0.00     0.049 A 
ATOM      7  C   UNL     1      26.446  24.366  32.748  1.00  0.00     0.027 A 
ATOM      8  C   UNL     1      26.446  25.294  31.694  1.00  0.00     0.002 A 
ATOM      9  C   UNL     1      26.570  24.860  30.359  1.00  0.00     0.001 A 
ATOM     10  C   UNL     1      26.697  23.492  30.064  1.00  0.00     0.011 A 
ATOM     11  C   UNL     1      26.698  22.583  31.126  1.00  0.00     0.011 A 
ATOM     12  H   UNL     1      26.573  21.986  34.403  1.00  0.00     0.170 HD
ENDROOT
BRANCH   1  13
ATOM     13  C   UNL     1      27.022  18.863  30.106  1.00  0.00     0.042 A 
ATOM     14  C   UNL     1      25.430  15.631  30.143  1.00  0.00     0.064 C 
ATOM     15  C   UNL     1      26.349  16.808  30.131  1.00  0.00     0.012 A 
ATOM     16  C   UNL     1      27.698  16.764  29.834  1.00  0.00     0.026 A 
ATOM     17  N   UNL     1      25.936  18.083  30.273  1.00  0.00    -0.359 N 
ATOM     18  C   UNL     1      28.127  18.077  29.826  1.00  0.00    -0.026 A 
ATOM     19  H   UNL     1      24.950  18.400  30.408  1.00  0.00     0.166 HD
ATOM     20  C   UNL     1      29.497  18.551  29.454  1.00  0.00     0.046 C 
ENDBRANCH   1  13
TORSDOF 1
ENDMDL
MODEL 14
REMARK VINA RESULT:    -6.937     10.381     13.792
REMARK INTER + INTRA:          -7.935
REMARK INTER:                  -7.517
REMARK INTRA:                  -0.417
REMARK UNBOUND:                -0.592
REMARK SMILES Cc1cc(C)c(/C=C2\C(=O)Nc3ccccc32)[nH]1
REMARK SMILES IDX 7 1 8 2 9 3 10 4 11 5 12 6 13 7 14 8 15 9 16 10 17 11 6 13
REMARK SMILES IDX 1 14 2 15 3 16 18 17 4 18 5 20
REMARK H PARENT 11 12 18 19
REMARK Flexibility Score: inf
ROOT
ATOM      1  C   UNL     1      28.253  20.472  31.196  1.00  0.00     0.040 C 
ATOM      2  C   UNL     1      27.555  19.348  30.975  1.00  0.00     0.051 C 
ATOM      3  C   UNL     1      26.212  19.170  30.397  1.00  0.00     0.256 C 
ATOM      4  O   UNL     1      25.473  20.085  29.945  1.00  0.00    -0.269 OA
ATOM      5  N   UNL     1      25.877  17.789  30.307  1.00  0.00    -0.321 N 
ATOM      6  C   UNL     1      27.024  17.104  30.797  1.00  0.00     0.049 A 
ATOM      7  C   UNL     1      27.187  15.723  30.885  1.00  0.00     0.027 A 
ATOM      8  C   UNL     1      28.400  15.227  31.391  1.00  0.00     0.002 A 
ATOM      9  C   UNL     1      29.420  16.112  31.796  1.00  0.00     0.001 A 
ATOM     10  C   UNL     1      29.237  17.501  31.697  1.00  0.00     0.011 A 
ATOM     11  C   UNL     1      28.025  17.976  31.189  1.00  0.00     0.011 A 
ATOM     12  H   UNL     1      25.009  17.370  29.906  1.00  0.00     0.170 HD
ENDROOT
BRANCH   1  13
ATOM     13  C   UNL     1      27.703  21.830  31.030  1.00  0.00     0.042 A 
ATOM     14  C   UNL     1      26.593  25.005  32.322  1.00  0.00     0.064 C 
ATOM     15  C   UNL     1      26.991  23.814  31.514  1.00  0.00     0.012 A 
ATOM     16  C   UNL     1      27.238  23.818  30.155  1.00  0.00     0.026 A 
ATOM     17  N   UNL     1      27.296  22.614  32.047  1.00  0.00    -0.359 N 
ATOM     18  C   UNL     1      27.686  22.548  29.847  1.00  0.00    -0.026 A 
ATOM     19  H   UNL     1      27.289  22.372  33.063  1.00  0.00     0.166 HD
ATOM     20  C   UNL     1      28.178  22.090  28.510  1.00  0.00     0.046 C 
ENDBRANCH   1  13
TORSDOF 1
ENDMDL
MODEL 15
REMARK VINA RESULT:    -6.895      8.555     13.589
REMARK INTER + INTRA:          -7.891
REMARK INTER:                  -7.478
REMARK INTRA:                  -0.412
REMARK UNBOUND:                -0.592
REMARK SMILES Cc1cc(C)c(/C=C2\C(=O)Nc3ccccc32)[nH]1
REMARK SMILES IDX 7 1 8 2 9 3 10 4 11 5 12 6 13 7 14 8 15 9 16 10 17 11 6 13
REMARK SMILES IDX 1 14 2 15 3 16 18 17 4 18 5 20
REMARK H PARENT 11 12 18 19
REMARK Flexibility Score: inf
ROOT
ATOM      1  C   UNL     1      28.076  21.517  31.440  1.00  0.00     0.040 C 
ATOM      2  C   UNL     1      28.255  20.203  31.244  1.00  0.00     0.051 C 
ATOM      3  C   UNL     1      27.566  19.055  31.859  1.00  0.00     0.256 C 
ATOM      4  O   UNL     1      26.614  19.117  32.681  1.00  0.00    -0.269 OA
ATOM      5  N   UNL     1      28.048  17.827  31.322  1.00  0.00    -0.321 N 
ATOM      6  C   UNL     1      29.010  18.210  30.347  1.00  0.00     0.049 A 
ATOM      7  C   UNL     1      29.744  17.352  29.529  1.00  0.00     0.027 A 
ATOM      8  C   UNL     1      30.649  17.916  28.615  1.00  0.00     0.002 A 
ATOM      9  C   UNL     1      30.802  19.315  28.533  1.00  0.00     0.001 A 
ATOM     10  C   UNL     1      30.051  20.163  29.364  1.00  0.00     0.011 A 
ATOM     11  C   UNL     1      29.154  19.583  30.266  1.00  0.00     0.011 A 
ATOM     12  H   UNL     1      27.717  16.862  31.545  1.00  0.00     0.170 HD
ENDROOT
BRANCH   1  13
ATOM     13  C   UNL     1      27.209  22.084  32.489  1.00  0.00     0.042 A 
ATOM     14  C   UNL     1      26.230  22.529  35.928  1.00  0.00     0.064 C 
ATOM     15  C   UNL     1      26.407  22.540  34.445  1.00  0.00     0.012 A 
ATOM     16  C   UNL     1      25.868  23.477  33.585  1.00  0.00     0.026 A 
ATOM     17  N   UNL     1      27.238  21.711  33.783  1.00  0.00    -0.359 N 
ATOM     18  C   UNL     1      26.376  23.179  32.334  1.00  0.00    -0.026 A 
ATOM     19  H   UNL     1      27.842  20.974  34.211  1.00  0.00     0.166 HD
ATOM     20  C   UNL     1      26.161  23.977  31.087  1.00  0.00     0.046 C 
ENDBRANCH   1  13
TORSDOF 1
ENDMDL
