MODEL 1
REMARK VINA RESULT:    -7.798      0.000      0.000
REMARK INTER + INTRA:         -14.005
REMARK INTER:                 -12.356
REMARK INTRA:                  -1.649
REMARK UNBOUND:                -1.649
REMARK SMILES COc1cc(Nc2c(C#N)cnc3cc(OCCCN4CCN(C)CC4)c(OC)cc23)c(Cl)cc1Cl
REMARK SMILES IDX 16 1 15 2 7 3 8 4 31 5 11 6 13 7 30 8 12 9 14 10 27 11 6 12
REMARK SMILES IDX 5 14 3 15 4 16 35 17 34 18 36 19 32 20 33 21 2 22 1 23 9 24
REMARK SMILES IDX 10 25 28 26 29 27 17 28 18 29 19 30 20 31 21 32 26 33 22 34
REMARK SMILES IDX 25 35 23 36 24 37
REMARK H PARENT 6 13
REMARK Flexibility Score: inf
ROOT
ATOM      1  O   UNL     1      22.019  40.051  -6.382  1.00  0.00    -0.490 OA
ENDROOT
BRANCH   1   2
ATOM      2  C   UNL     1      21.642  39.798  -7.709  1.00  0.00     0.163 A 
ATOM      3  C   UNL     1      20.435  39.067 -11.710  1.00  0.00     0.068 A 
ATOM      4  C   UNL     1      20.466  37.737 -12.174  1.00  0.00     0.094 A 
ATOM      5  C   UNL     1      20.824  39.340 -10.374  1.00  0.00     0.029 A 
ATOM      6  C   UNL     1      20.856  36.711 -11.309  1.00  0.00     0.133 A 
ATOM      7  C   UNL     1      21.216  38.262  -9.548  1.00  0.00     0.076 A 
ATOM      8  C   UNL     1      20.855  40.645  -9.846  1.00  0.00     0.063 A 
ATOM      9  N   UNL     1      21.219  36.995 -10.033  1.00  0.00    -0.255 NA
ATOM     10  C   UNL     1      21.626  38.495  -8.231  1.00  0.00     0.079 A 
ATOM     11  C   UNL     1      21.239  40.875  -8.511  1.00  0.00     0.161 A 
BRANCH   3  12
ATOM     12  N   UNL     1      20.041  40.120 -12.609  1.00  0.00    -0.353 N 
ATOM     13  H   UNL     1      20.803  40.602 -13.136  1.00  0.00     0.167 HD
BRANCH  12  14
ATOM     14  C   UNL     1      18.670  40.427 -12.936  1.00  0.00     0.061 A 
ATOM     15  C   UNL     1      16.370  40.895 -12.233  1.00  0.00     0.139 A 
ATOM     16  C   UNL     1      17.703  40.564 -11.920  1.00  0.00     0.075 A 
ATOM     17  C   UNL     1      16.007  41.075 -13.573  1.00  0.00     0.084 A 
ATOM     18  C   UNL     1      16.959  40.927 -14.587  1.00  0.00     0.047 A 
ATOM     19  Cl  UNL     1      14.356  41.494 -14.008  1.00  0.00    -0.080 Cl
ATOM     20  C   UNL     1      18.282  40.606 -14.279  1.00  0.00     0.066 A 
ATOM     21  Cl  UNL     1      19.440  40.478 -15.599  1.00  0.00    -0.082 Cl
BRANCH  15  22
ATOM     22  O   UNL     1      15.388  41.057 -11.241  1.00  0.00    -0.495 OA
ATOM     23  C   UNL     1      15.260  42.209 -10.411  1.00  0.00     0.278 C 
ENDBRANCH  15  22
ENDBRANCH  12  14
ENDBRANCH   3  12
BRANCH   4  24
ATOM     24  C   UNL     1      20.092  37.411 -13.527  1.00  0.00     0.103 C 
ATOM     25  N   UNL     1      19.793  37.149 -14.613  1.00  0.00    -0.192 NA
ENDBRANCH   4  24
BRANCH  11  26
ATOM     26  O   UNL     1      21.249  42.161  -7.950  1.00  0.00    -0.493 OA
ATOM     27  C   UNL     1      20.883  43.352  -8.642  1.00  0.00     0.278 C 
ENDBRANCH  11  26
ENDBRANCH   1   2
BRANCH   1  28
ATOM     28  C   UNL     1      21.388  39.460  -5.247  1.00  0.00     0.231 C 
BRANCH  28  29
ATOM     29  C   UNL     1      22.456  38.910  -4.304  1.00  0.00     0.057 C 
BRANCH  29  30
ATOM     30  C   UNL     1      23.802  38.738  -5.028  1.00  0.00     0.088 C 
BRANCH  30  31
ATOM     31  N   UNL     1      24.141  37.301  -5.155  1.00  0.00    -0.301 NA
ATOM     32  C   UNL     1      25.243  36.948  -4.237  1.00  0.00     0.100 C 
ATOM     33  C   UNL     1      24.522  36.971  -6.547  1.00  0.00     0.100 C 
ATOM     34  C   UNL     1      25.588  35.460  -4.364  1.00  0.00     0.099 C 
ATOM     35  C   UNL     1      24.855  35.482  -6.669  1.00  0.00     0.099 C 
ATOM     36  N   UNL     1      25.963  35.144  -5.756  1.00  0.00    -0.304 NA
ATOM     37  C   UNL     1      26.301  33.718  -5.880  1.00  0.00     0.105 C 
ENDBRANCH  30  31
ENDBRANCH  29  30
ENDBRANCH  28  29
ENDBRANCH   1  28
TORSDOF 10
ENDMDL
MODEL 2
REMARK VINA RESULT:    -7.761      1.177      1.450
REMARK INTER + INTRA:         -13.947
REMARK INTER:                 -12.368
REMARK INTRA:                  -1.580
REMARK UNBOUND:                -1.649
REMARK SMILES COc1cc(Nc2c(C#N)cnc3cc(OCCCN4CCN(C)CC4)c(OC)cc23)c(Cl)cc1Cl
REMARK SMILES IDX 16 1 15 2 7 3 8 4 31 5 11 6 13 7 30 8 12 9 14 10 27 11 6 12
REMARK SMILES IDX 5 14 3 15 4 16 35 17 34 18 36 19 32 20 33 21 2 22 1 23 9 24
REMARK SMILES IDX 10 25 28 26 29 27 17 28 18 29 19 30 20 31 21 32 26 33 22 34
REMARK SMILES IDX 25 35 23 36 24 37
REMARK H PARENT 6 13
REMARK Flexibility Score: inf
ROOT
ATOM      1  O   UNL     1      22.017  39.989  -6.356  1.00  0.00    -0.490 OA
ENDROOT
BRANCH   1   2
ATOM      2  C   UNL     1      21.664  39.761  -7.694  1.00  0.00     0.163 A 
ATOM      3  C   UNL     1      20.530  39.105 -11.729  1.00  0.00     0.068 A 
ATOM      4  C   UNL     1      20.528  37.779 -12.205  1.00  0.00     0.094 A 
ATOM      5  C   UNL     1      20.895  39.353 -10.382  1.00  0.00     0.029 A 
ATOM      6  C   UNL     1      20.862  36.733 -11.341  1.00  0.00     0.133 A 
ATOM      7  C   UNL     1      21.231  38.256  -9.557  1.00  0.00     0.076 A 
ATOM      8  C   UNL     1      20.957  40.652  -9.841  1.00  0.00     0.063 A 
ATOM      9  N   UNL     1      21.203  36.994 -10.055  1.00  0.00    -0.255 NA
ATOM     10  C   UNL     1      21.617  38.463  -8.228  1.00  0.00     0.079 A 
ATOM     11  C   UNL     1      21.316  40.857  -8.495  1.00  0.00     0.161 A 
BRANCH   3  12
ATOM     12  N   UNL     1      20.193  40.179 -12.628  1.00  0.00    -0.353 N 
ATOM     13  H   UNL     1      20.887  40.406 -13.375  1.00  0.00     0.167 HD
BRANCH  12  14
ATOM     14  C   UNL     1      18.909  40.834 -12.652  1.00  0.00     0.061 A 
ATOM     15  C   UNL     1      16.480  40.741 -12.963  1.00  0.00     0.139 A 
ATOM     16  C   UNL     1      17.741  40.112 -12.969  1.00  0.00     0.075 A 
ATOM     17  C   UNL     1      16.398  42.104 -12.651  1.00  0.00     0.084 A 
ATOM     18  C   UNL     1      17.554  42.829 -12.351  1.00  0.00     0.047 A 
ATOM     19  Cl  UNL     1      14.844  42.927 -12.627  1.00  0.00    -0.080 Cl
ATOM     20  C   UNL     1      18.804  42.206 -12.349  1.00  0.00     0.066 A 
ATOM     21  Cl  UNL     1      20.216  43.167 -11.919  1.00  0.00    -0.082 Cl
BRANCH  15  22
ATOM     22  O   UNL     1      15.295  40.044 -13.254  1.00  0.00    -0.495 OA
ATOM     23  C   UNL     1      14.653  40.037 -14.527  1.00  0.00     0.278 C 
ENDBRANCH  15  22
ENDBRANCH  12  14
ENDBRANCH   3  12
BRANCH   4  24
ATOM     24  C   UNL     1      20.176  37.478 -13.570  1.00  0.00     0.103 C 
ATOM     25  N   UNL     1      19.894  37.237 -14.666  1.00  0.00    -0.192 NA
ENDBRANCH   4  24
BRANCH  11  26
ATOM     26  O   UNL     1      21.355  42.137  -7.921  1.00  0.00    -0.493 OA
ATOM     27  C   UNL     1      20.207  42.898  -7.555  1.00  0.00     0.278 C 
ENDBRANCH  11  26
ENDBRANCH   1   2
BRANCH   1  28
ATOM     28  C   UNL     1      21.192  39.644  -5.244  1.00  0.00     0.231 C 
BRANCH  28  29
ATOM     29  C   UNL     1      21.948  38.676  -4.336  1.00  0.00     0.057 C 
BRANCH  29  30
ATOM     30  C   UNL     1      23.448  38.655  -4.671  1.00  0.00     0.088 C 
BRANCH  30  31
ATOM     31  N   UNL     1      23.919  37.262  -4.851  1.00  0.00    -0.301 NA
ATOM     32  C   UNL     1      25.084  36.995  -3.984  1.00  0.00     0.100 C 
ATOM     33  C   UNL     1      24.277  37.006  -6.265  1.00  0.00     0.100 C 
ATOM     34  C   UNL     1      25.566  35.551  -4.166  1.00  0.00     0.099 C 
ATOM     35  C   UNL     1      24.747  35.560  -6.442  1.00  0.00     0.099 C 
ATOM     36  N   UNL     1      25.917  35.308  -5.579  1.00  0.00    -0.304 NA
ATOM     37  C   UNL     1      26.386  33.926  -5.756  1.00  0.00     0.105 C 
ENDBRANCH  30  31
ENDBRANCH  29  30
ENDBRANCH  28  29
ENDBRANCH   1  28
TORSDOF 10
ENDMDL
MODEL 3
REMARK VINA RESULT:    -7.687      4.382      8.479
REMARK INTER + INTRA:         -13.830
REMARK INTER:                 -13.174
REMARK INTRA:                  -0.656
REMARK UNBOUND:                -1.649
REMARK SMILES COc1cc(Nc2c(C#N)cnc3cc(OCCCN4CCN(C)CC4)c(OC)cc23)c(Cl)cc1Cl
REMARK SMILES IDX 16 1 15 2 7 3 8 4 31 5 11 6 13 7 30 8 12 9 14 10 27 11 6 12
REMARK SMILES IDX 5 14 3 15 4 16 35 17 34 18 36 19 32 20 33 21 2 22 1 23 9 24
REMARK SMILES IDX 10 25 28 26 29 27 17 28 18 29 19 30 20 31 21 32 26 33 22 34
REMARK SMILES IDX 25 35 23 36 24 37
REMARK H PARENT 6 13
REMARK Flexibility Score: inf
ROOT
ATOM      1  O   UNL     1      20.452  36.628 -12.061  1.00  0.00    -0.490 OA
ENDROOT
BRANCH   1   2
ATOM      2  C   UNL     1      21.383  36.660 -11.013  1.00  0.00     0.163 A 
ATOM      3  C   UNL     1      24.224  36.823  -7.867  1.00  0.00     0.068 A 
ATOM      4  C   UNL     1      25.100  35.729  -7.714  1.00  0.00     0.094 A 
ATOM      5  C   UNL     1      23.271  36.800  -8.916  1.00  0.00     0.029 A 
ATOM      6  C   UNL     1      25.031  34.657  -8.608  1.00  0.00     0.133 A 
ATOM      7  C   UNL     1      23.242  35.685  -9.783  1.00  0.00     0.076 A 
ATOM      8  C   UNL     1      22.337  37.836  -9.113  1.00  0.00     0.063 A 
ATOM      9  N   UNL     1      24.114  34.660  -9.607  1.00  0.00    -0.255 NA
ATOM     10  C   UNL     1      22.302  35.617 -10.817  1.00  0.00     0.079 A 
ATOM     11  C   UNL     1      21.410  37.780 -10.171  1.00  0.00     0.161 A 
BRANCH   3  12
ATOM     12  N   UNL     1      24.295  37.920  -6.937  1.00  0.00    -0.353 N 
ATOM     13  H   UNL     1      25.194  38.450  -6.899  1.00  0.00     0.167 HD
BRANCH  12  14
ATOM     14  C   UNL     1      23.165  38.417  -6.193  1.00  0.00     0.061 A 
ATOM     15  C   UNL     1      21.316  40.005  -5.940  1.00  0.00     0.139 A 
ATOM     16  C   UNL     1      22.441  39.536  -6.648  1.00  0.00     0.075 A 
ATOM     17  C   UNL     1      20.930  39.353  -4.763  1.00  0.00     0.084 A 
ATOM     18  C   UNL     1      21.652  38.251  -4.298  1.00  0.00     0.047 A 
ATOM     19  Cl  UNL     1      19.530  39.902  -3.851  1.00  0.00    -0.080 Cl
ATOM     20  C   UNL     1      22.762  37.780  -5.001  1.00  0.00     0.066 A 
ATOM     21  Cl  UNL     1      23.602  36.360  -4.385  1.00  0.00    -0.082 Cl
BRANCH  15  22
ATOM     22  O   UNL     1      20.562  41.106  -6.379  1.00  0.00    -0.495 OA
ATOM     23  C   UNL     1      19.506  41.033  -7.334  1.00  0.00     0.278 C 
ENDBRANCH  15  22
ENDBRANCH  12  14
ENDBRANCH   3  12
BRANCH   4  24
ATOM     24  C   UNL     1      26.078  35.700  -6.656  1.00  0.00     0.103 C 
ATOM     25  N   UNL     1      26.863  35.677  -5.806  1.00  0.00    -0.192 NA
ENDBRANCH   4  24
BRANCH  11  26
ATOM     26  O   UNL     1      20.490  38.813 -10.410  1.00  0.00    -0.493 OA
ATOM     27  C   UNL     1      20.842  40.160 -10.716  1.00  0.00     0.278 C 
ENDBRANCH  11  26
ENDBRANCH   1   2
BRANCH   1  28
ATOM     28  C   UNL     1      20.593  37.366 -13.275  1.00  0.00     0.231 C 
BRANCH  28  29
ATOM     29  C   UNL     1      22.052  37.319 -13.727  1.00  0.00     0.057 C 
BRANCH  29  30
ATOM     30  C   UNL     1      22.593  38.730 -14.008  1.00  0.00     0.088 C 
BRANCH  30  31
ATOM     31  N   UNL     1      23.874  38.655 -14.748  1.00  0.00    -0.301 NA
ATOM     32  C   UNL     1      24.543  39.972 -14.757  1.00  0.00     0.100 C 
ATOM     33  C   UNL     1      23.654  38.195 -16.138  1.00  0.00     0.100 C 
ATOM     34  C   UNL     1      25.872  39.891 -15.517  1.00  0.00     0.099 C 
ATOM     35  C   UNL     1      24.986  38.107 -16.887  1.00  0.00     0.099 C 
ATOM     36  N   UNL     1      25.639  39.429 -16.899  1.00  0.00    -0.304 NA
ATOM     37  C   UNL     1      26.911  39.357 -17.633  1.00  0.00     0.105 C 
ENDBRANCH  30  31
ENDBRANCH  29  30
ENDBRANCH  28  29
ENDBRANCH   1  28
TORSDOF 10
ENDMDL
MODEL 4
REMARK VINA RESULT:    -7.549      4.927      9.271
REMARK INTER + INTRA:         -13.610
REMARK INTER:                 -12.236
REMARK INTRA:                  -1.374
REMARK UNBOUND:                -1.649
REMARK SMILES COc1cc(Nc2c(C#N)cnc3cc(OCCCN4CCN(C)CC4)c(OC)cc23)c(Cl)cc1Cl
REMARK SMILES IDX 16 1 15 2 7 3 8 4 31 5 11 6 13 7 30 8 12 9 14 10 27 11 6 12
REMARK SMILES IDX 5 14 3 15 4 16 35 17 34 18 36 19 32 20 33 21 2 22 1 23 9 24
REMARK SMILES IDX 10 25 28 26 29 27 17 28 18 29 19 30 20 31 21 32 26 33 22 34
REMARK SMILES IDX 25 35 23 36 24 37
REMARK H PARENT 6 13
REMARK Flexibility Score: inf
ROOT
ATOM      1  O   UNL     1      21.439  37.619 -13.500  1.00  0.00    -0.490 OA
ENDROOT
BRANCH   1   2
ATOM      2  C   UNL     1      21.191  38.282 -12.290  1.00  0.00     0.163 A 
ATOM      3  C   UNL     1      20.376  40.251  -8.621  1.00  0.00     0.068 A 
ATOM      4  C   UNL     1      20.367  41.660  -8.618  1.00  0.00     0.094 A 
ATOM      5  C   UNL     1      20.636  39.566  -9.835  1.00  0.00     0.029 A 
ATOM      6  C   UNL     1      20.589  42.356  -9.809  1.00  0.00     0.133 A 
ATOM      7  C   UNL     1      20.862  40.323 -11.006  1.00  0.00     0.076 A 
ATOM      8  C   UNL     1      20.699  38.161  -9.913  1.00  0.00     0.063 A 
ATOM      9  N   UNL     1      20.830  41.679 -10.959  1.00  0.00    -0.255 NA
ATOM     10  C   UNL     1      21.142  39.684 -12.218  1.00  0.00     0.079 A 
ATOM     11  C   UNL     1      20.952  37.518 -11.140  1.00  0.00     0.161 A 
BRANCH   3  12
ATOM     12  N   UNL     1      20.155  39.540  -7.388  1.00  0.00    -0.353 N 
ATOM     13  H   UNL     1      19.190  39.179  -7.217  1.00  0.00     0.167 HD
BRANCH  12  14
ATOM     14  C   UNL     1      21.207  39.168  -6.475  1.00  0.00     0.061 A 
ATOM     15  C   UNL     1      23.435  38.233  -6.065  1.00  0.00     0.139 A 
ATOM     16  C   UNL     1      22.391  38.570  -6.949  1.00  0.00     0.075 A 
ATOM     17  C   UNL     1      23.278  38.487  -4.696  1.00  0.00     0.084 A 
ATOM     18  C   UNL     1      22.100  39.067  -4.217  1.00  0.00     0.047 A 
ATOM     19  Cl  UNL     1      24.557  38.088  -3.558  1.00  0.00    -0.080 Cl
ATOM     20  C   UNL     1      21.068  39.408  -5.093  1.00  0.00     0.066 A 
ATOM     21  Cl  UNL     1      19.628  40.175  -4.430  1.00  0.00    -0.082 Cl
BRANCH  15  22
ATOM     22  O   UNL     1      24.636  37.655  -6.509  1.00  0.00    -0.495 OA
ATOM     23  C   UNL     1      24.796  36.278  -6.839  1.00  0.00     0.278 C 
ENDBRANCH  15  22
ENDBRANCH  12  14
ENDBRANCH   3  12
BRANCH   4  24
ATOM     24  C   UNL     1      20.120  42.401  -7.407  1.00  0.00     0.103 C 
ATOM     25  N   UNL     1      19.922  42.995  -6.434  1.00  0.00    -0.192 NA
ENDBRANCH   4  24
BRANCH  11  26
ATOM     26  O   UNL     1      20.988  36.119 -11.253  1.00  0.00    -0.493 OA
ATOM     27  C   UNL     1      22.142  35.315 -11.020  1.00  0.00     0.278 C 
ENDBRANCH  11  26
ENDBRANCH   1   2
BRANCH   1  28
ATOM     28  C   UNL     1      22.564  37.882 -14.337  1.00  0.00     0.231 C 
BRANCH  28  29
ATOM     29  C   UNL     1      23.717  36.964 -13.937  1.00  0.00     0.057 C 
BRANCH  29  30
ATOM     30  C   UNL     1      25.044  37.435 -14.554  1.00  0.00     0.088 C 
BRANCH  30  31
ATOM     31  N   UNL     1      24.897  37.620 -16.017  1.00  0.00    -0.301 NA
ATOM     32  C   UNL     1      24.859  36.312 -16.701  1.00  0.00     0.100 C 
ATOM     33  C   UNL     1      26.007  38.438 -16.558  1.00  0.00     0.100 C 
ATOM     34  C   UNL     1      24.700  36.505 -18.214  1.00  0.00     0.099 C 
ATOM     35  C   UNL     1      25.836  38.635 -18.066  1.00  0.00     0.099 C 
ATOM     36  N   UNL     1      25.810  37.323 -18.740  1.00  0.00    -0.304 NA
ATOM     37  C   UNL     1      25.664  37.505 -20.192  1.00  0.00     0.105 C 
ENDBRANCH  30  31
ENDBRANCH  29  30
ENDBRANCH  28  29
ENDBRANCH   1  28
TORSDOF 10
ENDMDL
MODEL 5
REMARK VINA RESULT:    -7.527      5.000      8.681
REMARK INTER + INTRA:         -13.576
REMARK INTER:                 -12.193
REMARK INTRA:                  -1.383
REMARK UNBOUND:                -1.649
REMARK SMILES COc1cc(Nc2c(C#N)cnc3cc(OCCCN4CCN(C)CC4)c(OC)cc23)c(Cl)cc1Cl
REMARK SMILES IDX 16 1 15 2 7 3 8 4 31 5 11 6 13 7 30 8 12 9 14 10 27 11 6 12
REMARK SMILES IDX 5 14 3 15 4 16 35 17 34 18 36 19 32 20 33 21 2 22 1 23 9 24
REMARK SMILES IDX 10 25 28 26 29 27 17 28 18 29 19 30 20 31 21 32 26 33 22 34
REMARK SMILES IDX 25 35 23 36 24 37
REMARK H PARENT 6 13
REMARK Flexibility Score: inf
ROOT
ATOM      1  O   UNL     1      19.752  43.494  -7.423  1.00  0.00    -0.490 OA
ENDROOT
BRANCH   1   2
ATOM      2  C   UNL     1      20.054  42.194  -7.849  1.00  0.00     0.163 A 
ATOM      3  C   UNL     1      21.034  38.259  -9.098  1.00  0.00     0.068 A 
ATOM      4  C   UNL     1      21.122  38.011 -10.483  1.00  0.00     0.094 A 
ATOM      5  C   UNL     1      20.718  39.567  -8.652  1.00  0.00     0.029 A 
ATOM      6  C   UNL     1      20.921  39.057 -11.387  1.00  0.00     0.133 A 
ATOM      7  C   UNL     1      20.517  40.583  -9.614  1.00  0.00     0.076 A 
ATOM      8  C   UNL     1      20.575  39.888  -7.288  1.00  0.00     0.063 A 
ATOM      9  N   UNL     1      20.625  40.301 -10.937  1.00  0.00    -0.255 NA
ATOM     10  C   UNL     1      20.183  41.880  -9.212  1.00  0.00     0.079 A 
ATOM     11  C   UNL     1      20.268  41.201  -6.883  1.00  0.00     0.161 A 
BRANCH   3  12
ATOM     12  N   UNL     1      21.234  37.175  -8.172  1.00  0.00    -0.353 N 
ATOM     13  H   UNL     1      20.422  36.539  -8.006  1.00  0.00     0.167 HD
BRANCH  12  14
ATOM     14  C   UNL     1      22.512  36.833  -7.599  1.00  0.00     0.061 A 
ATOM     15  C   UNL     1      24.809  36.021  -7.857  1.00  0.00     0.139 A 
ATOM     16  C   UNL     1      23.549  36.326  -8.407  1.00  0.00     0.075 A 
ATOM     17  C   UNL     1      25.020  36.212  -6.486  1.00  0.00     0.084 A 
ATOM     18  C   UNL     1      23.992  36.700  -5.676  1.00  0.00     0.047 A 
ATOM     19  Cl  UNL     1      26.579  35.849  -5.759  1.00  0.00    -0.080 Cl
ATOM     20  C   UNL     1      22.744  37.011  -6.220  1.00  0.00     0.066 A 
ATOM     21  Cl  UNL     1      21.505  37.663  -5.152  1.00  0.00    -0.082 Cl
BRANCH  15  22
ATOM     22  O   UNL     1      25.869  35.534  -8.640  1.00  0.00    -0.495 OA
ATOM     23  C   UNL     1      25.714  34.665  -9.760  1.00  0.00     0.278 C 
ENDBRANCH  15  22
ENDBRANCH  12  14
ENDBRANCH   3  12
BRANCH   4  24
ATOM     24  C   UNL     1      21.429  36.696 -10.986  1.00  0.00     0.103 C 
ATOM     25  N   UNL     1      21.675  35.640 -11.389  1.00  0.00    -0.192 NA
ENDBRANCH   4  24
BRANCH  11  26
ATOM     26  O   UNL     1      20.151  41.555  -5.530  1.00  0.00    -0.493 OA
ATOM     27  C   UNL     1      19.347  40.866  -4.577  1.00  0.00     0.278 C 
ENDBRANCH  11  26
ENDBRANCH   1   2
BRANCH   1  28
ATOM     28  C   UNL     1      18.474  44.109  -7.584  1.00  0.00     0.231 C 
BRANCH  28  29
ATOM     29  C   UNL     1      18.104  44.850  -6.301  1.00  0.00     0.057 C 
BRANCH  29  30
ATOM     30  C   UNL     1      17.401  43.917  -5.302  1.00  0.00     0.088 C 
BRANCH  30  31
ATOM     31  N   UNL     1      17.784  44.263  -3.913  1.00  0.00    -0.301 NA
ATOM     32  C   UNL     1      17.056  45.467  -3.462  1.00  0.00     0.100 C 
ATOM     33  C   UNL     1      19.243  44.491  -3.811  1.00  0.00     0.100 C 
ATOM     34  C   UNL     1      17.448  45.819  -2.022  1.00  0.00     0.099 C 
ATOM     35  C   UNL     1      19.629  44.832  -2.369  1.00  0.00     0.099 C 
ATOM     36  N   UNL     1      18.904  46.041  -1.933  1.00  0.00    -0.304 NA
ATOM     37  C   UNL     1      19.283  46.386  -0.555  1.00  0.00     0.105 C 
ENDBRANCH  30  31
ENDBRANCH  29  30
ENDBRANCH  28  29
ENDBRANCH   1  28
TORSDOF 10
ENDMDL
MODEL 6
REMARK VINA RESULT:    -7.487      2.536      3.716
REMARK INTER + INTRA:         -13.512
REMARK INTER:                 -11.822
REMARK INTRA:                  -1.691
REMARK UNBOUND:                -1.649
REMARK SMILES COc1cc(Nc2c(C#N)cnc3cc(OCCCN4CCN(C)CC4)c(OC)cc23)c(Cl)cc1Cl
REMARK SMILES IDX 16 1 15 2 7 3 8 4 31 5 11 6 13 7 30 8 12 9 14 10 27 11 6 12
REMARK SMILES IDX 5 14 3 15 4 16 35 17 34 18 36 19 32 20 33 21 2 22 1 23 9 24
REMARK SMILES IDX 10 25 28 26 29 27 17 28 18 29 19 30 20 31 21 32 26 33 22 34
REMARK SMILES IDX 25 35 23 36 24 37
REMARK H PARENT 6 13
REMARK Flexibility Score: inf
ROOT
ATOM      1  O   UNL     1      22.106  39.893  -6.366  1.00  0.00    -0.490 OA
ENDROOT
BRANCH   1   2
ATOM      2  C   UNL     1      21.719  39.655  -7.692  1.00  0.00     0.163 A 
ATOM      3  C   UNL     1      20.480  38.969 -11.692  1.00  0.00     0.068 A 
ATOM      4  C   UNL     1      20.512  37.645 -12.173  1.00  0.00     0.094 A 
ATOM      5  C   UNL     1      20.880  39.227 -10.356  1.00  0.00     0.029 A 
ATOM      6  C   UNL     1      20.912  36.610 -11.323  1.00  0.00     0.133 A 
ATOM      7  C   UNL     1      21.282  38.141  -9.546  1.00  0.00     0.076 A 
ATOM      8  C   UNL     1      20.911  40.525  -9.812  1.00  0.00     0.063 A 
ATOM      9  N   UNL     1      21.284  36.880 -10.048  1.00  0.00    -0.255 NA
ATOM     10  C   UNL     1      21.702  38.358  -8.230  1.00  0.00     0.079 A 
ATOM     11  C   UNL     1      21.306  40.740  -8.477  1.00  0.00     0.161 A 
BRANCH   3  12
ATOM     12  N   UNL     1      20.076  40.033 -12.575  1.00  0.00    -0.353 N 
ATOM     13  H   UNL     1      19.051  40.218 -12.653  1.00  0.00     0.167 HD
BRANCH  12  14
ATOM     14  C   UNL     1      20.996  40.939 -13.216  1.00  0.00     0.061 A 
ATOM     15  C   UNL     1      23.006  41.329 -14.563  1.00  0.00     0.139 A 
ATOM     16  C   UNL     1      22.121  40.449 -13.908  1.00  0.00     0.075 A 
ATOM     17  C   UNL     1      22.763  42.707 -14.507  1.00  0.00     0.084 A 
ATOM     18  C   UNL     1      21.657  43.201 -13.810  1.00  0.00     0.047 A 
ATOM     19  Cl  UNL     1      23.838  43.841 -15.314  1.00  0.00    -0.080 Cl
ATOM     20  C   UNL     1      20.775  42.330 -13.167  1.00  0.00     0.066 A 
ATOM     21  Cl  UNL     1      19.377  43.014 -12.342  1.00  0.00    -0.082 Cl
BRANCH  15  22
ATOM     22  O   UNL     1      24.124  40.870 -15.278  1.00  0.00    -0.495 OA
ATOM     23  C   UNL     1      25.003  39.841 -14.832  1.00  0.00     0.278 C 
ENDBRANCH  15  22
ENDBRANCH  12  14
ENDBRANCH   3  12
BRANCH   4  24
ATOM     24  C   UNL     1      20.128  37.335 -13.527  1.00  0.00     0.103 C 
ATOM     25  N   UNL     1      19.820  37.085 -14.613  1.00  0.00    -0.192 NA
ENDBRANCH   4  24
BRANCH  11  26
ATOM     26  O   UNL     1      21.316  42.019  -7.900  1.00  0.00    -0.493 OA
ATOM     27  C   UNL     1      20.151  42.775  -7.581  1.00  0.00     0.278 C 
ENDBRANCH  11  26
ENDBRANCH   1   2
BRANCH   1  28
ATOM     28  C   UNL     1      21.274  39.637  -5.235  1.00  0.00     0.231 C 
BRANCH  28  29
ATOM     29  C   UNL     1      21.908  38.543  -4.378  1.00  0.00     0.057 C 
BRANCH  29  30
ATOM     30  C   UNL     1      23.439  38.546  -4.516  1.00  0.00     0.088 C 
BRANCH  30  31
ATOM     31  N   UNL     1      23.939  37.173  -4.765  1.00  0.00    -0.301 NA
ATOM     32  C   UNL     1      25.147  36.909  -3.957  1.00  0.00     0.100 C 
ATOM     33  C   UNL     1      24.243  36.976  -6.201  1.00  0.00     0.100 C 
ATOM     34  C   UNL     1      25.658  35.487  -4.210  1.00  0.00     0.099 C 
ATOM     35  C   UNL     1      24.744  35.550  -6.448  1.00  0.00     0.099 C 
ATOM     36  N   UNL     1      25.955  35.302  -5.643  1.00  0.00    -0.304 NA
ATOM     37  C   UNL     1      26.453  33.940  -5.889  1.00  0.00     0.105 C 
ENDBRANCH  30  31
ENDBRANCH  29  30
ENDBRANCH  28  29
ENDBRANCH   1  28
TORSDOF 10
ENDMDL
MODEL 7
REMARK VINA RESULT:    -7.363      3.612      8.819
REMARK INTER + INTRA:         -13.316
REMARK INTER:                 -11.730
REMARK INTRA:                  -1.586
REMARK UNBOUND:                -1.649
REMARK SMILES COc1cc(Nc2c(C#N)cnc3cc(OCCCN4CCN(C)CC4)c(OC)cc23)c(Cl)cc1Cl
REMARK SMILES IDX 16 1 15 2 7 3 8 4 31 5 11 6 13 7 30 8 12 9 14 10 27 11 6 12
REMARK SMILES IDX 5 14 3 15 4 16 35 17 34 18 36 19 32 20 33 21 2 22 1 23 9 24
REMARK SMILES IDX 10 25 28 26 29 27 17 28 18 29 19 30 20 31 21 32 26 33 22 34
REMARK SMILES IDX 25 35 23 36 24 37
REMARK H PARENT 6 13
REMARK Flexibility Score: inf
ROOT
ATOM      1  O   UNL     1      20.059  43.752  -8.113  1.00  0.00    -0.490 OA
ENDROOT
BRANCH   1   2
ATOM      2  C   UNL     1      20.297  42.401  -8.401  1.00  0.00     0.163 A 
ATOM      3  C   UNL     1      21.078  38.314  -9.230  1.00  0.00     0.068 A 
ATOM      4  C   UNL     1      21.167  37.922 -10.581  1.00  0.00     0.094 A 
ATOM      5  C   UNL     1      20.828  39.675  -8.923  1.00  0.00     0.029 A 
ATOM      6  C   UNL     1      21.030  38.879 -11.590  1.00  0.00     0.133 A 
ATOM      7  C   UNL     1      20.690  40.597  -9.986  1.00  0.00     0.076 A 
ATOM      8  C   UNL     1      20.689  40.140  -7.601  1.00  0.00     0.063 A 
ATOM      9  N   UNL     1      20.796  40.176 -11.272  1.00  0.00    -0.255 NA
ATOM     10  C   UNL     1      20.421  41.944  -9.723  1.00  0.00     0.079 A 
ATOM     11  C   UNL     1      20.448  41.502  -7.336  1.00  0.00     0.161 A 
BRANCH   3  12
ATOM     12  N   UNL     1      21.212  37.321  -8.195  1.00  0.00    -0.353 N 
ATOM     13  H   UNL     1      20.370  36.739  -7.988  1.00  0.00     0.167 HD
BRANCH  12  14
ATOM     14  C   UNL     1      22.462  36.986  -7.560  1.00  0.00     0.061 A 
ATOM     15  C   UNL     1      24.750  36.120  -7.692  1.00  0.00     0.139 A 
ATOM     16  C   UNL     1      23.516  36.419  -8.302  1.00  0.00     0.075 A 
ATOM     17  C   UNL     1      24.916  36.379  -6.325  1.00  0.00     0.084 A 
ATOM     18  C   UNL     1      23.869  36.927  -5.579  1.00  0.00     0.047 A 
ATOM     19  Cl  UNL     1      26.441  36.025  -5.524  1.00  0.00    -0.080 Cl
ATOM     20  C   UNL     1      22.649  37.232  -6.184  1.00  0.00     0.066 A 
ATOM     21  Cl  UNL     1      21.386  37.962  -5.197  1.00  0.00    -0.082 Cl
BRANCH  15  22
ATOM     22  O   UNL     1      25.827  35.573  -8.409  1.00  0.00    -0.495 OA
ATOM     23  C   UNL     1      25.692  34.734  -9.553  1.00  0.00     0.278 C 
ENDBRANCH  15  22
ENDBRANCH  12  14
ENDBRANCH   3  12
BRANCH   4  24
ATOM     24  C   UNL     1      21.408  36.548 -10.943  1.00  0.00     0.103 C 
ATOM     25  N   UNL     1      21.601  35.445 -11.234  1.00  0.00    -0.192 NA
ENDBRANCH   4  24
BRANCH  11  26
ATOM     26  O   UNL     1      20.338  41.998  -6.028  1.00  0.00    -0.493 OA
ATOM     27  C   UNL     1      19.305  41.647  -5.111  1.00  0.00     0.278 C 
ENDBRANCH  11  26
ENDBRANCH   1   2
BRANCH   1  28
ATOM     28  C   UNL     1      18.785  44.382  -8.239  1.00  0.00     0.231 C 
BRANCH  28  29
ATOM     29  C   UNL     1      17.685  43.349  -8.003  1.00  0.00     0.057 C 
BRANCH  29  30
ATOM     30  C   UNL     1      16.419  43.690  -8.804  1.00  0.00     0.088 C 
BRANCH  30  31
ATOM     31  N   UNL     1      16.496  43.111 -10.166  1.00  0.00    -0.301 NA
ATOM     32  C   UNL     1      15.208  43.273 -10.870  1.00  0.00     0.100 C 
ATOM     33  C   UNL     1      16.861  41.677 -10.109  1.00  0.00     0.100 C 
ATOM     34  C   UNL     1      15.292  42.681 -12.281  1.00  0.00     0.099 C 
ATOM     35  C   UNL     1      16.953  41.095 -11.522  1.00  0.00     0.099 C 
ATOM     36  N   UNL     1      15.658  41.253 -12.211  1.00  0.00    -0.304 NA
ATOM     37  C   UNL     1      15.733  40.680 -13.563  1.00  0.00     0.105 C 
ENDBRANCH  30  31
ENDBRANCH  29  30
ENDBRANCH  28  29
ENDBRANCH   1  28
TORSDOF 10
ENDMDL
MODEL 8
REMARK VINA RESULT:    -7.275      3.115      5.257
REMARK INTER + INTRA:         -13.177
REMARK INTER:                 -11.557
REMARK INTRA:                  -1.620
REMARK UNBOUND:                -1.649
REMARK SMILES COc1cc(Nc2c(C#N)cnc3cc(OCCCN4CCN(C)CC4)c(OC)cc23)c(Cl)cc1Cl
REMARK SMILES IDX 16 1 15 2 7 3 8 4 31 5 11 6 13 7 30 8 12 9 14 10 27 11 6 12
REMARK SMILES IDX 5 14 3 15 4 16 35 17 34 18 36 19 32 20 33 21 2 22 1 23 9 24
REMARK SMILES IDX 10 25 28 26 29 27 17 28 18 29 19 30 20 31 21 32 26 33 22 34
REMARK SMILES IDX 25 35 23 36 24 37
REMARK H PARENT 6 13
REMARK Flexibility Score: inf
ROOT
ATOM      1  O   UNL     1      22.657  35.820 -10.301  1.00  0.00    -0.490 OA
ENDROOT
BRANCH   1   2
ATOM      2  C   UNL     1      22.015  36.925  -9.724  1.00  0.00     0.163 A 
ATOM      3  C   UNL     1      20.100  40.311  -8.031  1.00  0.00     0.068 A 
ATOM      4  C   UNL     1      20.367  40.611  -6.680  1.00  0.00     0.094 A 
ATOM      5  C   UNL     1      20.734  39.191  -8.626  1.00  0.00     0.029 A 
ATOM      6  C   UNL     1      21.265  39.819  -5.959  1.00  0.00     0.133 A 
ATOM      7  C   UNL     1      21.625  38.421  -7.845  1.00  0.00     0.076 A 
ATOM      8  C   UNL     1      20.492  38.803  -9.958  1.00  0.00     0.063 A 
ATOM      9  N   UNL     1      21.863  38.755  -6.551  1.00  0.00    -0.255 NA
ATOM     10  C   UNL     1      22.253  37.297  -8.391  1.00  0.00     0.079 A 
ATOM     11  C   UNL     1      21.147  37.688 -10.515  1.00  0.00     0.161 A 
BRANCH   3  12
ATOM     12  N   UNL     1      19.168  41.127  -8.765  1.00  0.00    -0.353 N 
ATOM     13  H   UNL     1      18.161  41.053  -8.497  1.00  0.00     0.167 HD
BRANCH  12  14
ATOM     14  C   UNL     1      19.560  42.136  -9.718  1.00  0.00     0.061 A 
ATOM     15  C   UNL     1      20.833  44.154 -10.275  1.00  0.00     0.139 A 
ATOM     16  C   UNL     1      20.422  43.183  -9.340  1.00  0.00     0.075 A 
ATOM     17  C   UNL     1      20.361  44.076 -11.592  1.00  0.00     0.084 A 
ATOM     18  C   UNL     1      19.493  43.047 -11.970  1.00  0.00     0.047 A 
ATOM     19  Cl  UNL     1      20.852  45.262 -12.793  1.00  0.00    -0.080 Cl
ATOM     20  C   UNL     1      19.091  42.081 -11.046  1.00  0.00     0.066 A 
ATOM     21  Cl  UNL     1      18.032  40.787 -11.598  1.00  0.00    -0.082 Cl
BRANCH  15  22
ATOM     22  O   UNL     1      21.708  45.199  -9.935  1.00  0.00    -0.495 OA
ATOM     23  C   UNL     1      21.648  45.940  -8.719  1.00  0.00     0.278 C 
ENDBRANCH  15  22
ENDBRANCH  12  14
ENDBRANCH   3  12
BRANCH   4  24
ATOM     24  C   UNL     1      19.738  41.732  -6.028  1.00  0.00     0.103 C 
ATOM     25  N   UNL     1      19.234  42.632  -5.505  1.00  0.00    -0.192 NA
ENDBRANCH   4  24
BRANCH  11  26
ATOM     26  O   UNL     1      20.949  37.299 -11.849  1.00  0.00    -0.493 OA
ATOM     27  C   UNL     1      21.616  37.873 -12.971  1.00  0.00     0.278 C 
ENDBRANCH  11  26
ENDBRANCH   1   2
BRANCH   1  28
ATOM     28  C   UNL     1      24.074  35.692 -10.416  1.00  0.00     0.231 C 
BRANCH  28  29
ATOM     29  C   UNL     1      24.512  34.363  -9.804  1.00  0.00     0.057 C 
BRANCH  29  30
ATOM     30  C   UNL     1      25.808  34.524  -8.993  1.00  0.00     0.088 C 
BRANCH  30  31
ATOM     31  N   UNL     1      25.512  34.527  -7.541  1.00  0.00    -0.301 NA
ATOM     32  C   UNL     1      25.701  35.879  -6.978  1.00  0.00     0.100 C 
ATOM     33  C   UNL     1      26.377  33.560  -6.826  1.00  0.00     0.100 C 
ATOM     34  C   UNL     1      25.388  35.882  -5.478  1.00  0.00     0.099 C 
ATOM     35  C   UNL     1      26.052  33.561  -5.330  1.00  0.00     0.099 C 
ATOM     36  N   UNL     1      26.254  34.914  -4.778  1.00  0.00    -0.304 NA
ATOM     37  C   UNL     1      25.961  34.919  -3.337  1.00  0.00     0.105 C 
ENDBRANCH  30  31
ENDBRANCH  29  30
ENDBRANCH  28  29
ENDBRANCH   1  28
TORSDOF 10
ENDMDL
MODEL 9
REMARK VINA RESULT:    -7.216      3.110      4.822
REMARK INTER + INTRA:         -13.083
REMARK INTER:                 -11.451
REMARK INTRA:                  -1.632
REMARK UNBOUND:                -1.649
REMARK SMILES COc1cc(Nc2c(C#N)cnc3cc(OCCCN4CCN(C)CC4)c(OC)cc23)c(Cl)cc1Cl
REMARK SMILES IDX 16 1 15 2 7 3 8 4 31 5 11 6 13 7 30 8 12 9 14 10 27 11 6 12
REMARK SMILES IDX 5 14 3 15 4 16 35 17 34 18 36 19 32 20 33 21 2 22 1 23 9 24
REMARK SMILES IDX 10 25 28 26 29 27 17 28 18 29 19 30 20 31 21 32 26 33 22 34
REMARK SMILES IDX 25 35 23 36 24 37
REMARK H PARENT 6 13
REMARK Flexibility Score: inf
ROOT
ATOM      1  O   UNL     1      21.403  38.429  -5.350  1.00  0.00    -0.490 OA
ENDROOT
BRANCH   1   2
ATOM      2  C   UNL     1      20.736  39.577  -5.799  1.00  0.00     0.163 A 
ATOM      3  C   UNL     1      18.783  43.082  -7.181  1.00  0.00     0.068 A 
ATOM      4  C   UNL     1      17.987  43.796  -6.264  1.00  0.00     0.094 A 
ATOM      5  C   UNL     1      19.455  41.912  -6.744  1.00  0.00     0.029 A 
ATOM      6  C   UNL     1      17.892  43.357  -4.941  1.00  0.00     0.133 A 
ATOM      7  C   UNL     1      19.315  41.511  -5.396  1.00  0.00     0.076 A 
ATOM      8  C   UNL     1      20.240  41.123  -7.607  1.00  0.00     0.063 A 
ATOM      9  N   UNL     1      18.548  42.238  -4.545  1.00  0.00    -0.255 NA
ATOM     10  C   UNL     1      19.946  40.352  -4.935  1.00  0.00     0.079 A 
ATOM     11  C   UNL     1      20.899  39.972  -7.134  1.00  0.00     0.161 A 
BRANCH   3  12
ATOM     12  N   UNL     1      18.870  43.535  -8.545  1.00  0.00    -0.353 N 
ATOM     13  H   UNL     1      19.468  44.372  -8.728  1.00  0.00     0.167 HD
BRANCH  12  14
ATOM     14  C   UNL     1      18.321  42.816  -9.667  1.00  0.00     0.061 A 
ATOM     15  C   UNL     1      16.459  41.624 -10.724  1.00  0.00     0.139 A 
ATOM     16  C   UNL     1      17.011  42.300  -9.618  1.00  0.00     0.075 A 
ATOM     17  C   UNL     1      17.235  41.455 -11.878  1.00  0.00     0.084 A 
ATOM     18  C   UNL     1      18.541  41.952 -11.928  1.00  0.00     0.047 A 
ATOM     19  Cl  UNL     1      16.585  40.623 -13.283  1.00  0.00    -0.080 Cl
ATOM     20  C   UNL     1      19.087  42.628 -10.836  1.00  0.00     0.066 A 
ATOM     21  Cl  UNL     1      20.722  43.267 -10.980  1.00  0.00    -0.082 Cl
BRANCH  15  22
ATOM     22  O   UNL     1      15.149  41.116 -10.713  1.00  0.00    -0.495 OA
ATOM     23  C   UNL     1      13.978  41.896 -10.940  1.00  0.00     0.278 C 
ENDBRANCH  15  22
ENDBRANCH  12  14
ENDBRANCH   3  12
BRANCH   4  24
ATOM     24  C   UNL     1      17.275  44.984  -6.663  1.00  0.00     0.103 C 
ATOM     25  N   UNL     1      16.703  45.937  -6.984  1.00  0.00    -0.192 NA
ENDBRANCH   4  24
BRANCH  11  26
ATOM     26  O   UNL     1      21.712  39.185  -7.965  1.00  0.00    -0.493 OA
ATOM     27  C   UNL     1      21.230  38.221  -8.897  1.00  0.00     0.278 C 
ENDBRANCH  11  26
ENDBRANCH   1   2
BRANCH   1  28
ATOM     28  C   UNL     1      22.420  38.438  -4.349  1.00  0.00     0.231 C 
BRANCH  28  29
ATOM     29  C   UNL     1      23.791  38.461  -5.022  1.00  0.00     0.057 C 
BRANCH  29  30
ATOM     30  C   UNL     1      24.563  37.158  -4.758  1.00  0.00     0.088 C 
BRANCH  30  31
ATOM     31  N   UNL     1      24.576  36.309  -5.972  1.00  0.00    -0.301 NA
ATOM     32  C   UNL     1      25.803  35.487  -6.013  1.00  0.00     0.100 C 
ATOM     33  C   UNL     1      24.485  37.138  -7.195  1.00  0.00     0.100 C 
ATOM     34  C   UNL     1      25.812  34.604  -7.266  1.00  0.00     0.099 C 
ATOM     35  C   UNL     1      24.485  36.249  -8.441  1.00  0.00     0.099 C 
ATOM     36  N   UNL     1      25.718  35.441  -8.477  1.00  0.00    -0.304 NA
ATOM     37  C   UNL     1      25.733  34.598  -9.682  1.00  0.00     0.105 C 
ENDBRANCH  30  31
ENDBRANCH  29  30
ENDBRANCH  28  29
ENDBRANCH   1  28
TORSDOF 10
ENDMDL
MODEL 10
REMARK VINA RESULT:    -7.151      4.656     10.022
REMARK INTER + INTRA:         -12.980
REMARK INTER:                 -11.820
REMARK INTRA:                  -1.160
REMARK UNBOUND:                -1.649
REMARK SMILES COc1cc(Nc2c(C#N)cnc3cc(OCCCN4CCN(C)CC4)c(OC)cc23)c(Cl)cc1Cl
REMARK SMILES IDX 16 1 15 2 7 3 8 4 31 5 11 6 13 7 30 8 12 9 14 10 27 11 6 12
REMARK SMILES IDX 5 14 3 15 4 16 35 17 34 18 36 19 32 20 33 21 2 22 1 23 9 24
REMARK SMILES IDX 10 25 28 26 29 27 17 28 18 29 19 30 20 31 21 32 26 33 22 34
REMARK SMILES IDX 25 35 23 36 24 37
REMARK H PARENT 6 13
REMARK Flexibility Score: inf
ROOT
ATOM      1  O   UNL     1      21.216  37.975 -13.664  1.00  0.00    -0.490 OA
ENDROOT
BRANCH   1   2
ATOM      2  C   UNL     1      21.003  38.575 -12.415  1.00  0.00     0.163 A 
ATOM      3  C   UNL     1      20.293  40.350  -8.627  1.00  0.00     0.068 A 
ATOM      4  C   UNL     1      20.286  41.757  -8.551  1.00  0.00     0.094 A 
ATOM      5  C   UNL     1      20.518  39.729  -9.882  1.00  0.00     0.029 A 
ATOM      6  C   UNL     1      20.477  42.514  -9.710  1.00  0.00     0.133 A 
ATOM      7  C   UNL     1      20.713  40.546 -11.018  1.00  0.00     0.076 A 
ATOM      8  C   UNL     1      20.576  38.331 -10.035  1.00  0.00     0.063 A 
ATOM      9  N   UNL     1      20.685  41.898 -10.900  1.00  0.00    -0.255 NA
ATOM     10  C   UNL     1      20.958  39.970 -12.269  1.00  0.00     0.079 A 
ATOM     11  C   UNL     1      20.794  37.751 -11.300  1.00  0.00     0.161 A 
BRANCH   3  12
ATOM     12  N   UNL     1      20.104  39.576  -7.427  1.00  0.00    -0.353 N 
ATOM     13  H   UNL     1      19.148  39.192  -7.258  1.00  0.00     0.167 HD
BRANCH  12  14
ATOM     14  C   UNL     1      21.178  39.175  -6.552  1.00  0.00     0.061 A 
ATOM     15  C   UNL     1      23.413  38.226  -6.225  1.00  0.00     0.139 A 
ATOM     16  C   UNL     1      22.349  38.590  -7.073  1.00  0.00     0.075 A 
ATOM     17  C   UNL     1      23.291  38.440  -4.846  1.00  0.00     0.084 A 
ATOM     18  C   UNL     1      22.127  39.006  -4.321  1.00  0.00     0.047 A 
ATOM     19  Cl  UNL     1      24.597  38.006  -3.753  1.00  0.00    -0.080 Cl
ATOM     20  C   UNL     1      21.074  39.374  -5.161  1.00  0.00     0.066 A 
ATOM     21  Cl  UNL     1      19.652  40.124  -4.440  1.00  0.00    -0.082 Cl
BRANCH  15  22
ATOM     22  O   UNL     1      24.602  37.660  -6.717  1.00  0.00    -0.495 OA
ATOM     23  C   UNL     1      24.659  36.606  -7.674  1.00  0.00     0.278 C 
ENDBRANCH  15  22
ENDBRANCH  12  14
ENDBRANCH   3  12
BRANCH   4  24
ATOM     24  C   UNL     1      20.074  42.434  -7.296  1.00  0.00     0.103 C 
ATOM     25  N   UNL     1      19.904  42.978  -6.290  1.00  0.00    -0.192 NA
ENDBRANCH   4  24
BRANCH  11  26
ATOM     26  O   UNL     1      20.824  36.361 -11.487  1.00  0.00    -0.493 OA
ATOM     27  C   UNL     1      21.931  35.522 -11.166  1.00  0.00     0.278 C 
ENDBRANCH  11  26
ENDBRANCH   1   2
BRANCH   1  28
ATOM     28  C   UNL     1      20.542  38.366 -14.861  1.00  0.00     0.231 C 
BRANCH  28  29
ATOM     29  C   UNL     1      20.080  37.117 -15.610  1.00  0.00     0.057 C 
BRANCH  29  30
ATOM     30  C   UNL     1      19.826  37.421 -17.095  1.00  0.00     0.088 C 
BRANCH  30  31
ATOM     31  N   UNL     1      20.366  36.335 -17.945  1.00  0.00    -0.301 NA
ATOM     32  C   UNL     1      20.521  36.799 -19.339  1.00  0.00     0.100 C 
ATOM     33  C   UNL     1      19.482  35.147 -17.907  1.00  0.00     0.100 C 
ATOM     34  C   UNL     1      21.087  35.677 -20.216  1.00  0.00     0.099 C 
ATOM     35  C   UNL     1      20.058  34.027 -18.777  1.00  0.00     0.099 C 
ATOM     36  N   UNL     1      20.199  34.499 -20.168  1.00  0.00    -0.304 NA
ATOM     37  C   UNL     1      20.735  33.423 -21.014  1.00  0.00     0.105 C 
ENDBRANCH  30  31
ENDBRANCH  29  30
ENDBRANCH  28  29
ENDBRANCH   1  28
TORSDOF 10
ENDMDL
MODEL 11
REMARK VINA RESULT:    -7.148      3.693      5.919
REMARK INTER + INTRA:         -12.975
REMARK INTER:                 -11.335
REMARK INTRA:                  -1.640
REMARK UNBOUND:                -1.649
REMARK SMILES COc1cc(Nc2c(C#N)cnc3cc(OCCCN4CCN(C)CC4)c(OC)cc23)c(Cl)cc1Cl
REMARK SMILES IDX 16 1 15 2 7 3 8 4 31 5 11 6 13 7 30 8 12 9 14 10 27 11 6 12
REMARK SMILES IDX 5 14 3 15 4 16 35 17 34 18 36 19 32 20 33 21 2 22 1 23 9 24
REMARK SMILES IDX 10 25 28 26 29 27 17 28 18 29 19 30 20 31 21 32 26 33 22 34
REMARK SMILES IDX 25 35 23 36 24 37
REMARK H PARENT 6 13
REMARK Flexibility Score: inf
ROOT
ATOM      1  O   UNL     1      21.529  38.497  -5.456  1.00  0.00    -0.490 OA
ENDROOT
BRANCH   1   2
ATOM      2  C   UNL     1      20.787  39.596  -5.911  1.00  0.00     0.163 A 
ATOM      3  C   UNL     1      18.605  42.952  -7.317  1.00  0.00     0.068 A 
ATOM      4  C   UNL     1      17.823  43.665  -6.386  1.00  0.00     0.094 A 
ATOM      5  C   UNL     1      19.353  41.832  -6.873  1.00  0.00     0.029 A 
ATOM      6  C   UNL     1      17.814  43.273  -5.045  1.00  0.00     0.133 A 
ATOM      7  C   UNL     1      19.298  41.477  -5.506  1.00  0.00     0.076 A 
ATOM      8  C   UNL     1      20.130  41.047  -7.746  1.00  0.00     0.063 A 
ATOM      9  N   UNL     1      18.541  42.201  -4.643  1.00  0.00    -0.255 NA
ATOM     10  C   UNL     1      20.005  40.366  -5.036  1.00  0.00     0.079 A 
ATOM     11  C   UNL     1      20.865  39.946  -7.266  1.00  0.00     0.161 A 
BRANCH   3  12
ATOM     12  N   UNL     1      18.603  43.357  -8.699  1.00  0.00    -0.353 N 
ATOM     13  H   UNL     1      17.703  43.257  -9.219  1.00  0.00     0.167 HD
BRANCH  12  14
ATOM     14  C   UNL     1      19.706  44.027  -9.342  1.00  0.00     0.061 A 
ATOM     15  C   UNL     1      21.568  45.617  -9.259  1.00  0.00     0.139 A 
ATOM     16  C   UNL     1      20.470  44.983  -8.645  1.00  0.00     0.075 A 
ATOM     17  C   UNL     1      21.888  45.296 -10.584  1.00  0.00     0.084 A 
ATOM     18  C   UNL     1      21.125  44.359 -11.286  1.00  0.00     0.047 A 
ATOM     19  Cl  UNL     1      23.253  46.059 -11.388  1.00  0.00    -0.080 Cl
ATOM     20  C   UNL     1      20.041  43.724 -10.677  1.00  0.00     0.066 A 
ATOM     21  Cl  UNL     1      19.148  42.521 -11.603  1.00  0.00    -0.082 Cl
BRANCH  15  22
ATOM     22  O   UNL     1      22.362  46.559  -8.584  1.00  0.00    -0.495 OA
ATOM     23  C   UNL     1      21.944  47.882  -8.257  1.00  0.00     0.278 C 
ENDBRANCH  15  22
ENDBRANCH  12  14
ENDBRANCH   3  12
BRANCH   4  24
ATOM     24  C   UNL     1      17.036  44.803  -6.791  1.00  0.00     0.103 C 
ATOM     25  N   UNL     1      16.405  45.716  -7.117  1.00  0.00    -0.192 NA
ENDBRANCH   4  24
BRANCH  11  26
ATOM     26  O   UNL     1      21.673  39.165  -8.108  1.00  0.00    -0.493 OA
ATOM     27  C   UNL     1      21.186  38.179  -9.015  1.00  0.00     0.278 C 
ENDBRANCH  11  26
ENDBRANCH   1   2
BRANCH   1  28
ATOM     28  C   UNL     1      22.441  38.550  -4.359  1.00  0.00     0.231 C 
BRANCH  28  29
ATOM     29  C   UNL     1      23.870  38.425  -4.885  1.00  0.00     0.057 C 
BRANCH  29  30
ATOM     30  C   UNL     1      24.442  37.024  -4.615  1.00  0.00     0.088 C 
BRANCH  30  31
ATOM     31  N   UNL     1      24.481  36.231  -5.867  1.00  0.00    -0.301 NA
ATOM     32  C   UNL     1      25.716  35.422  -5.926  1.00  0.00     0.100 C 
ATOM     33  C   UNL     1      24.403  37.115  -7.052  1.00  0.00     0.100 C 
ATOM     34  C   UNL     1      25.752  34.598  -7.218  1.00  0.00     0.099 C 
ATOM     35  C   UNL     1      24.430  36.285  -8.338  1.00  0.00     0.099 C 
ATOM     36  N   UNL     1      25.671  35.489  -8.391  1.00  0.00    -0.304 NA
ATOM     37  C   UNL     1      25.713  34.702  -9.632  1.00  0.00     0.105 C 
ENDBRANCH  30  31
ENDBRANCH  29  30
ENDBRANCH  28  29
ENDBRANCH   1  28
TORSDOF 10
ENDMDL
MODEL 12
REMARK VINA RESULT:    -7.123      5.011      8.586
REMARK INTER + INTRA:         -12.935
REMARK INTER:                 -12.646
REMARK INTRA:                  -0.289
REMARK UNBOUND:                -1.649
REMARK SMILES COc1cc(Nc2c(C#N)cnc3cc(OCCCN4CCN(C)CC4)c(OC)cc23)c(Cl)cc1Cl
REMARK SMILES IDX 16 1 15 2 7 3 8 4 31 5 11 6 13 7 30 8 12 9 14 10 27 11 6 12
REMARK SMILES IDX 5 14 3 15 4 16 35 17 34 18 36 19 32 20 33 21 2 22 1 23 9 24
REMARK SMILES IDX 10 25 28 26 29 27 17 28 18 29 19 30 20 31 21 32 26 33 22 34
REMARK SMILES IDX 25 35 23 36 24 37
REMARK H PARENT 6 13
REMARK Flexibility Score: inf
ROOT
ATOM      1  O   UNL     1      20.084  42.548  -6.335  1.00  0.00    -0.490 OA
ENDROOT
BRANCH   1   2
ATOM      2  C   UNL     1      20.423  41.409  -7.080  1.00  0.00     0.163 A 
ATOM      3  C   UNL     1      21.515  37.961  -9.297  1.00  0.00     0.068 A 
ATOM      4  C   UNL     1      21.460  38.038 -10.703  1.00  0.00     0.094 A 
ATOM      5  C   UNL     1      21.165  39.101  -8.531  1.00  0.00     0.029 A 
ATOM      6  C   UNL     1      21.086  39.236 -11.317  1.00  0.00     0.133 A 
ATOM      7  C   UNL     1      20.786  40.283  -9.206  1.00  0.00     0.076 A 
ATOM      8  C   UNL     1      21.159  39.094  -7.122  1.00  0.00     0.063 A 
ATOM      9  N   UNL     1      20.760  40.315 -10.563  1.00  0.00    -0.255 NA
ATOM     10  C   UNL     1      20.414  41.421  -8.484  1.00  0.00     0.079 A 
ATOM     11  C   UNL     1      20.813  40.249  -6.396  1.00  0.00     0.161 A 
BRANCH   3  12
ATOM     12  N   UNL     1      21.893  36.720  -8.672  1.00  0.00    -0.353 N 
ATOM     13  H   UNL     1      21.328  35.876  -8.916  1.00  0.00     0.167 HD
BRANCH  12  14
ATOM     14  C   UNL     1      23.081  36.552  -7.872  1.00  0.00     0.061 A 
ATOM     15  C   UNL     1      24.304  36.910  -5.779  1.00  0.00     0.139 A 
ATOM     16  C   UNL     1      23.157  37.098  -6.576  1.00  0.00     0.075 A 
ATOM     17  C   UNL     1      25.382  36.181  -6.296  1.00  0.00     0.084 A 
ATOM     18  C   UNL     1      25.319  35.649  -7.587  1.00  0.00     0.047 A 
ATOM     19  Cl  UNL     1      26.830  35.918  -5.335  1.00  0.00    -0.080 Cl
ATOM     20  C   UNL     1      24.181  35.828  -8.375  1.00  0.00     0.066 A 
ATOM     21  Cl  UNL     1      24.148  35.095  -9.976  1.00  0.00    -0.082 Cl
BRANCH  15  22
ATOM     22  O   UNL     1      24.402  37.425  -4.475  1.00  0.00    -0.495 OA
ATOM     23  C   UNL     1      23.815  38.649  -4.044  1.00  0.00     0.278 C 
ENDBRANCH  15  22
ENDBRANCH  12  14
ENDBRANCH   3  12
BRANCH   4  24
ATOM     24  C   UNL     1      21.794  36.902 -11.525  1.00  0.00     0.103 C 
ATOM     25  N   UNL     1      22.062  35.990 -12.185  1.00  0.00    -0.192 NA
ENDBRANCH   4  24
BRANCH  11  26
ATOM     26  O   UNL     1      20.829  40.280  -4.993  1.00  0.00    -0.493 OA
ATOM     27  C   UNL     1      19.909  39.586  -4.155  1.00  0.00     0.278 C 
ENDBRANCH  11  26
ENDBRANCH   1   2
BRANCH   1  28
ATOM     28  C   UNL     1      18.772  43.108  -6.288  1.00  0.00     0.231 C 
BRANCH  28  29
ATOM     29  C   UNL     1      18.307  43.181  -4.835  1.00  0.00     0.057 C 
BRANCH  29  30
ATOM     30  C   UNL     1      18.704  44.519  -4.190  1.00  0.00     0.088 C 
BRANCH  30  31
ATOM     31  N   UNL     1      18.493  44.470  -2.724  1.00  0.00    -0.301 NA
ATOM     32  C   UNL     1      17.686  45.624  -2.280  1.00  0.00     0.100 C 
ATOM     33  C   UNL     1      19.788  44.456  -2.006  1.00  0.00     0.100 C 
ATOM     34  C   UNL     1      17.463  45.568  -0.765  1.00  0.00     0.099 C 
ATOM     35  C   UNL     1      19.557  44.389  -0.494  1.00  0.00     0.099 C 
ATOM     36  N   UNL     1      18.760  45.552  -0.061  1.00  0.00    -0.304 NA
ATOM     37  C   UNL     1      18.549  45.505   1.394  1.00  0.00     0.105 C 
ENDBRANCH  30  31
ENDBRANCH  29  30
ENDBRANCH  28  29
ENDBRANCH   1  28
TORSDOF 10
ENDMDL
MODEL 13
REMARK VINA RESULT:    -7.053      4.651      9.433
REMARK INTER + INTRA:         -12.825
REMARK INTER:                 -11.463
REMARK INTRA:                  -1.362
REMARK UNBOUND:                -1.649
REMARK SMILES COc1cc(Nc2c(C#N)cnc3cc(OCCCN4CCN(C)CC4)c(OC)cc23)c(Cl)cc1Cl
REMARK SMILES IDX 16 1 15 2 7 3 8 4 31 5 11 6 13 7 30 8 12 9 14 10 27 11 6 12
REMARK SMILES IDX 5 14 3 15 4 16 35 17 34 18 36 19 32 20 33 21 2 22 1 23 9 24
REMARK SMILES IDX 10 25 28 26 29 27 17 28 18 29 19 30 20 31 21 32 26 33 22 34
REMARK SMILES IDX 25 35 23 36 24 37
REMARK H PARENT 6 13
REMARK Flexibility Score: inf
ROOT
ATOM      1  O   UNL     1      19.822  43.713  -7.898  1.00  0.00    -0.490 OA
ENDROOT
BRANCH   1   2
ATOM      2  C   UNL     1      20.090  42.378  -8.229  1.00  0.00     0.163 A 
ATOM      3  C   UNL     1      20.963  38.338  -9.188  1.00  0.00     0.068 A 
ATOM      4  C   UNL     1      21.070  37.993 -10.550  1.00  0.00     0.094 A 
ATOM      5  C   UNL     1      20.682  39.683  -8.838  1.00  0.00     0.029 A 
ATOM      6  C   UNL     1      20.922  38.981 -11.528  1.00  0.00     0.133 A 
ATOM      7  C   UNL     1      20.533  40.636  -9.870  1.00  0.00     0.076 A 
ATOM      8  C   UNL     1      20.523  40.100  -7.502  1.00  0.00     0.063 A 
ATOM      9  N   UNL     1      20.658  40.261 -11.168  1.00  0.00    -0.255 NA
ATOM     10  C   UNL     1      20.234  41.968  -9.564  1.00  0.00     0.079 A 
ATOM     11  C   UNL     1      20.252  41.447  -7.194  1.00  0.00     0.161 A 
BRANCH   3  12
ATOM     12  N   UNL     1      21.109  37.314  -8.186  1.00  0.00    -0.353 N 
ATOM     13  H   UNL     1      20.265  36.735  -7.975  1.00  0.00     0.167 HD
BRANCH  12  14
ATOM     14  C   UNL     1      22.370  36.946  -7.591  1.00  0.00     0.061 A 
ATOM     15  C   UNL     1      24.636  36.039  -7.800  1.00  0.00     0.139 A 
ATOM     16  C   UNL     1      23.392  36.371  -8.371  1.00  0.00     0.075 A 
ATOM     17  C   UNL     1      24.846  36.274  -6.435  1.00  0.00     0.084 A 
ATOM     18  C   UNL     1      23.831  36.830  -5.652  1.00  0.00     0.047 A 
ATOM     19  Cl  UNL     1      26.385  35.880  -5.683  1.00  0.00    -0.080 Cl
ATOM     20  C   UNL     1      22.600  37.167  -6.218  1.00  0.00     0.066 A 
ATOM     21  Cl  UNL     1      21.379  37.905  -5.185  1.00  0.00    -0.082 Cl
BRANCH  15  22
ATOM     22  O   UNL     1      25.682  35.483  -8.556  1.00  0.00    -0.495 OA
ATOM     23  C   UNL     1      25.791  34.102  -8.892  1.00  0.00     0.278 C 
ENDBRANCH  15  22
ENDBRANCH  12  14
ENDBRANCH   3  12
BRANCH   4  24
ATOM     24  C   UNL     1      21.343  36.637 -10.956  1.00  0.00     0.103 C 
ATOM     25  N   UNL     1      21.561  35.549 -11.281  1.00  0.00    -0.192 NA
ENDBRANCH   4  24
BRANCH  11  26
ATOM     26  O   UNL     1      20.121  41.896  -5.871  1.00  0.00    -0.493 OA
ATOM     27  C   UNL     1      19.449  41.185  -4.834  1.00  0.00     0.278 C 
ENDBRANCH  11  26
ENDBRANCH   1   2
BRANCH   1  28
ATOM     28  C   UNL     1      18.660  44.423  -8.325  1.00  0.00     0.231 C 
BRANCH  28  29
ATOM     29  C   UNL     1      17.413  43.696  -7.826  1.00  0.00     0.057 C 
BRANCH  29  30
ATOM     30  C   UNL     1      17.218  43.897  -6.314  1.00  0.00     0.088 C 
BRANCH  30  31
ATOM     31  N   UNL     1      15.903  44.522  -6.041  1.00  0.00    -0.301 NA
ATOM     32  C   UNL     1      14.930  44.157  -7.090  1.00  0.00     0.100 C 
ATOM     33  C   UNL     1      16.027  45.996  -5.961  1.00  0.00     0.100 C 
ATOM     34  C   UNL     1      13.568  44.799  -6.802  1.00  0.00     0.099 C 
ATOM     35  C   UNL     1      14.665  46.629  -5.663  1.00  0.00     0.099 C 
ATOM     36  N   UNL     1      13.705  46.266  -6.723  1.00  0.00    -0.304 NA
ATOM     37  C   UNL     1      12.399  46.885  -6.453  1.00  0.00     0.105 C 
ENDBRANCH  30  31
ENDBRANCH  29  30
ENDBRANCH  28  29
ENDBRANCH   1  28
TORSDOF 10
ENDMDL
MODEL 14
REMARK VINA RESULT:    -7.039      4.464      9.024
REMARK INTER + INTRA:         -12.802
REMARK INTER:                 -11.601
REMARK INTRA:                  -1.201
REMARK UNBOUND:                -1.649
REMARK SMILES COc1cc(Nc2c(C#N)cnc3cc(OCCCN4CCN(C)CC4)c(OC)cc23)c(Cl)cc1Cl
REMARK SMILES IDX 16 1 15 2 7 3 8 4 31 5 11 6 13 7 30 8 12 9 14 10 27 11 6 12
REMARK SMILES IDX 5 14 3 15 4 16 35 17 34 18 36 19 32 20 33 21 2 22 1 23 9 24
REMARK SMILES IDX 10 25 28 26 29 27 17 28 18 29 19 30 20 31 21 32 26 33 22 34
REMARK SMILES IDX 25 35 23 36 24 37
REMARK H PARENT 6 13
REMARK Flexibility Score: inf
ROOT
ATOM      1  O   UNL     1      20.096  43.766  -8.125  1.00  0.00    -0.490 OA
ENDROOT
BRANCH   1   2
ATOM      2  C   UNL     1      20.320  42.413  -8.416  1.00  0.00     0.163 A 
ATOM      3  C   UNL     1      21.059  38.320  -9.253  1.00  0.00     0.068 A 
ATOM      4  C   UNL     1      21.148  37.931 -10.605  1.00  0.00     0.094 A 
ATOM      5  C   UNL     1      20.822  39.684  -8.944  1.00  0.00     0.029 A 
ATOM      6  C   UNL     1      21.026  38.892 -11.611  1.00  0.00     0.133 A 
ATOM      7  C   UNL     1      20.699  40.609 -10.004  1.00  0.00     0.076 A 
ATOM      8  C   UNL     1      20.685  40.146  -7.621  1.00  0.00     0.063 A 
ATOM      9  N   UNL     1      20.804  40.191 -11.291  1.00  0.00    -0.255 NA
ATOM     10  C   UNL     1      20.444  41.958  -9.738  1.00  0.00     0.079 A 
ATOM     11  C   UNL     1      20.458  41.510  -7.353  1.00  0.00     0.161 A 
BRANCH   3  12
ATOM     12  N   UNL     1      21.178  37.323  -8.221  1.00  0.00    -0.353 N 
ATOM     13  H   UNL     1      20.325  36.761  -8.006  1.00  0.00     0.167 HD
BRANCH  12  14
ATOM     14  C   UNL     1      22.426  36.958  -7.597  1.00  0.00     0.061 A 
ATOM     15  C   UNL     1      24.701  36.062  -7.755  1.00  0.00     0.139 A 
ATOM     16  C   UNL     1      23.469  36.392  -8.355  1.00  0.00     0.075 A 
ATOM     17  C   UNL     1      24.875  36.291  -6.384  1.00  0.00     0.084 A 
ATOM     18  C   UNL     1      23.839  36.838  -5.623  1.00  0.00     0.047 A 
ATOM     19  Cl  UNL     1      26.397  35.900  -5.596  1.00  0.00    -0.080 Cl
ATOM     20  C   UNL     1      22.620  37.172  -6.217  1.00  0.00     0.066 A 
ATOM     21  Cl  UNL     1      21.371  37.899  -5.211  1.00  0.00    -0.082 Cl
BRANCH  15  22
ATOM     22  O   UNL     1      25.768  35.516  -8.488  1.00  0.00    -0.495 OA
ATOM     23  C   UNL     1      25.727  34.260  -9.160  1.00  0.00     0.278 C 
ENDBRANCH  15  22
ENDBRANCH  12  14
ENDBRANCH   3  12
BRANCH   4  24
ATOM     24  C   UNL     1      21.376  36.555 -10.970  1.00  0.00     0.103 C 
ATOM     25  N   UNL     1      21.557  35.451 -11.264  1.00  0.00    -0.192 NA
ENDBRANCH   4  24
BRANCH  11  26
ATOM     26  O   UNL     1      20.348  42.004  -6.044  1.00  0.00    -0.493 OA
ATOM     27  C   UNL     1      19.262  41.731  -5.161  1.00  0.00     0.278 C 
ENDBRANCH  11  26
ENDBRANCH   1   2
BRANCH   1  28
ATOM     28  C   UNL     1      21.100  44.777  -8.213  1.00  0.00     0.231 C 
BRANCH  28  29
ATOM     29  C   UNL     1      20.749  45.738  -9.347  1.00  0.00     0.057 C 
BRANCH  29  30
ATOM     30  C   UNL     1      21.324  45.252 -10.687  1.00  0.00     0.088 C 
BRANCH  30  31
ATOM     31  N   UNL     1      22.525  46.041 -11.052  1.00  0.00    -0.301 NA
ATOM     32  C   UNL     1      22.247  47.487 -10.937  1.00  0.00     0.100 C 
ATOM     33  C   UNL     1      22.966  45.722 -12.429  1.00  0.00     0.100 C 
ATOM     34  C   UNL     1      23.491  48.301 -11.307  1.00  0.00     0.099 C 
ATOM     35  C   UNL     1      24.214  46.531 -12.788  1.00  0.00     0.099 C 
ATOM     36  N   UNL     1      23.922  47.973 -12.680  1.00  0.00    -0.304 NA
ATOM     37  C   UNL     1      25.112  48.757 -13.041  1.00  0.00     0.105 C 
ENDBRANCH  30  31
ENDBRANCH  29  30
ENDBRANCH  28  29
ENDBRANCH   1  28
TORSDOF 10
ENDMDL
MODEL 15
REMARK VINA RESULT:    -6.969      4.916      8.308
REMARK INTER + INTRA:         -12.691
REMARK INTER:                 -11.227
REMARK INTRA:                  -1.464
REMARK UNBOUND:                -1.649
REMARK SMILES COc1cc(Nc2c(C#N)cnc3cc(OCCCN4CCN(C)CC4)c(OC)cc23)c(Cl)cc1Cl
REMARK SMILES IDX 16 1 15 2 7 3 8 4 31 5 11 6 13 7 30 8 12 9 14 10 27 11 6 12
REMARK SMILES IDX 5 14 3 15 4 16 35 17 34 18 36 19 32 20 33 21 2 22 1 23 9 24
REMARK SMILES IDX 10 25 28 26 29 27 17 28 18 29 19 30 20 31 21 32 26 33 22 34
REMARK SMILES IDX 25 35 23 36 24 37
REMARK H PARENT 6 13
REMARK Flexibility Score: inf
ROOT
ATOM      1  O   UNL     1      18.435  44.140  -7.464  1.00  0.00    -0.490 OA
ENDROOT
BRANCH   1   2
ATOM      2  C   UNL     1      19.207  43.012  -7.153  1.00  0.00     0.163 A 
ATOM      3  C   UNL     1      21.526  39.568  -6.280  1.00  0.00     0.068 A 
ATOM      4  C   UNL     1      21.221  38.849  -5.107  1.00  0.00     0.094 A 
ATOM      5  C   UNL     1      20.761  40.718  -6.602  1.00  0.00     0.029 A 
ATOM      6  C   UNL     1      20.160  39.264  -4.297  1.00  0.00     0.133 A 
ATOM      7  C   UNL     1      19.706  41.094  -5.740  1.00  0.00     0.076 A 
ATOM      8  C   UNL     1      21.026  41.511  -7.735  1.00  0.00     0.063 A 
ATOM      9  N   UNL     1      19.439  40.364  -4.628  1.00  0.00    -0.255 NA
ATOM     10  C   UNL     1      18.943  42.234  -6.014  1.00  0.00     0.079 A 
ATOM     11  C   UNL     1      20.239  42.641  -8.026  1.00  0.00     0.161 A 
BRANCH   3  12
ATOM     12  N   UNL     1      22.626  39.140  -7.105  1.00  0.00    -0.353 N 
ATOM     13  H   UNL     1      23.576  39.484  -6.842  1.00  0.00     0.167 HD
BRANCH  12  14
ATOM     14  C   UNL     1      22.509  38.156  -8.152  1.00  0.00     0.061 A 
ATOM     15  C   UNL     1      21.384  37.306 -10.157  1.00  0.00     0.139 A 
ATOM     16  C   UNL     1      21.483  38.248  -9.113  1.00  0.00     0.075 A 
ATOM     17  C   UNL     1      22.313  36.261 -10.223  1.00  0.00     0.084 A 
ATOM     18  C   UNL     1      23.325  36.155  -9.264  1.00  0.00     0.047 A 
ATOM     19  Cl  UNL     1      22.230  35.067 -11.510  1.00  0.00    -0.080 Cl
ATOM     20  C   UNL     1      23.429  37.091  -8.234  1.00  0.00     0.066 A 
ATOM     21  Cl  UNL     1      24.753  36.925  -7.084  1.00  0.00    -0.082 Cl
BRANCH  15  22
ATOM     22  O   UNL     1      20.385  37.383 -11.141  1.00  0.00    -0.495 OA
ATOM     23  C   UNL     1      20.475  38.174 -12.324  1.00  0.00     0.278 C 
ENDBRANCH  15  22
ENDBRANCH  12  14
ENDBRANCH   3  12
BRANCH   4  24
ATOM     24  C   UNL     1      21.977  37.682  -4.730  1.00  0.00     0.103 C 
ATOM     25  N   UNL     1      22.584  36.744  -4.429  1.00  0.00    -0.192 NA
ENDBRANCH   4  24
BRANCH  11  26
ATOM     26  O   UNL     1      20.460  43.430  -9.165  1.00  0.00    -0.493 OA
ATOM     27  C   UNL     1      20.191  43.019 -10.503  1.00  0.00     0.278 C 
ENDBRANCH  11  26
ENDBRANCH   1   2
BRANCH   1  28
ATOM     28  C   UNL     1      18.876  45.484  -7.277  1.00  0.00     0.231 C 
BRANCH  28  29
ATOM     29  C   UNL     1      18.457  45.964  -5.888  1.00  0.00     0.057 C 
BRANCH  29  30
ATOM     30  C   UNL     1      19.592  45.778  -4.869  1.00  0.00     0.088 C 
BRANCH  30  31
ATOM     31  N   UNL     1      19.084  45.958  -3.489  1.00  0.00    -0.301 NA
ATOM     32  C   UNL     1      19.927  45.219  -2.528  1.00  0.00     0.100 C 
ATOM     33  C   UNL     1      17.680  45.499  -3.381  1.00  0.00     0.100 C 
ATOM     34  C   UNL     1      19.404  45.412  -1.100  1.00  0.00     0.099 C 
ATOM     35  C   UNL     1      17.161  45.704  -1.956  1.00  0.00     0.099 C 
ATOM     36  N   UNL     1      18.004  44.954  -1.006  1.00  0.00    -0.304 NA
ATOM     37  C   UNL     1      17.501  45.132   0.364  1.00  0.00     0.105 C 
ENDBRANCH  30  31
ENDBRANCH  29  30
ENDBRANCH  28  29
ENDBRANCH   1  28
TORSDOF 10
ENDMDL
