MODEL 1
REMARK VINA RESULT:    -8.863      0.000      0.000
REMARK INTER + INTRA:         -14.078
REMARK INTER:                 -14.044
REMARK INTRA:                  -0.034
REMARK UNBOUND:                -0.034
REMARK SMILES COc1cc(Nc2c(C#N)cnc3cc(OCCCN4CCN(C)CC4)c(OC)cc23)c(Cl)cc1Cl
REMARK SMILES IDX 16 1 15 2 7 3 8 4 31 5 11 6 13 7 30 8 12 9 14 10 27 11 6 12
REMARK SMILES IDX 5 14 3 15 4 16 35 17 34 18 36 19 32 20 33 21 2 22 1 23 9 24
REMARK SMILES IDX 10 25 28 26 29 27 17 28 18 29 19 30 20 31 21 32 26 33 22 34
REMARK SMILES IDX 25 35 23 36 24 37
REMARK H PARENT 6 13
REMARK Flexibility Score: inf
ROOT
ATOM      1  O   UNL     1      31.462   8.577   8.574  1.00  0.00    -0.490 OA
ENDROOT
BRANCH   1   2
ATOM      2  C   UNL     1      30.787   9.725   9.011  1.00  0.00     0.163 A 
ATOM      3  C   UNL     1      28.730  13.219  10.260  1.00  0.00     0.068 A 
ATOM      4  C   UNL     1      29.404  14.106  11.123  1.00  0.00     0.094 A 
ATOM      5  C   UNL     1      29.396  12.048   9.819  1.00  0.00     0.029 A 
ATOM      6  C   UNL     1      30.719  13.832  11.508  1.00  0.00     0.133 A 
ATOM      7  C   UNL     1      30.723  11.819  10.249  1.00  0.00     0.076 A 
ATOM      8  C   UNL     1      28.780  11.094   8.986  1.00  0.00     0.063 A 
ATOM      9  N   UNL     1      31.338  12.708  11.069  1.00  0.00    -0.255 NA
ATOM     10  C   UNL     1      31.405  10.665   9.851  1.00  0.00     0.079 A 
ATOM     11  C   UNL     1      29.478   9.947   8.562  1.00  0.00     0.161 A 
BRANCH   3  12
ATOM     12  N   UNL     1      27.372  13.503   9.874  1.00  0.00    -0.353 N 
ATOM     13  H   UNL     1      27.233  14.217   9.124  1.00  0.00     0.167 HD
BRANCH  12  14
ATOM     14  C   UNL     1      26.230  12.756  10.341  1.00  0.00     0.061 A 
ATOM     15  C   UNL     1      25.013  10.639  10.545  1.00  0.00     0.139 A 
ATOM     16  C   UNL     1      26.111  11.380  10.064  1.00  0.00     0.075 A 
ATOM     17  C   UNL     1      24.025  11.291  11.294  1.00  0.00     0.084 A 
ATOM     18  C   UNL     1      24.130  12.659  11.560  1.00  0.00     0.047 A 
ATOM     19  Cl  UNL     1      22.642  10.404  11.918  1.00  0.00    -0.080 Cl
ATOM     20  C   UNL     1      25.221  13.393  11.091  1.00  0.00     0.066 A 
ATOM     21  Cl  UNL     1      25.315  15.104  11.497  1.00  0.00    -0.082 Cl
BRANCH  15  22
ATOM     22  O   UNL     1      24.876   9.262  10.304  1.00  0.00    -0.495 OA
ATOM     23  C   UNL     1      25.928   8.310  10.437  1.00  0.00     0.278 C 
ENDBRANCH  15  22
ENDBRANCH  12  14
ENDBRANCH   3  12
BRANCH   4  24
ATOM     24  C   UNL     1      28.764  15.303  11.609  1.00  0.00     0.103 C 
ATOM     25  N   UNL     1      28.251  16.264  11.999  1.00  0.00    -0.192 NA
ENDBRANCH   4  24
BRANCH  11  26
ATOM     26  O   UNL     1      28.898   8.996   7.707  1.00  0.00    -0.493 OA
ATOM     27  C   UNL     1      28.297   7.777   8.136  1.00  0.00     0.278 C 
ENDBRANCH  11  26
ENDBRANCH   1   2
BRANCH   1  28
ATOM     28  C   UNL     1      32.393   7.847   9.373  1.00  0.00     0.231 C 
BRANCH  28  29
ATOM     29  C   UNL     1      33.242   6.955   8.470  1.00  0.00     0.057 C 
BRANCH  29  30
ATOM     30  C   UNL     1      32.801   5.485   8.565  1.00  0.00     0.088 C 
BRANCH  30  31
ATOM     31  N   UNL     1      33.507   4.666   7.552  1.00  0.00    -0.301 NA
ATOM     32  C   UNL     1      34.327   3.628   8.208  1.00  0.00     0.100 C 
ATOM     33  C   UNL     1      34.364   5.515   6.693  1.00  0.00     0.100 C 
ATOM     34  C   UNL     1      35.051   2.777   7.159  1.00  0.00     0.099 C 
ATOM     35  C   UNL     1      35.076   4.660   5.641  1.00  0.00     0.099 C 
ATOM     36  N   UNL     1      35.899   3.633   6.308  1.00  0.00    -0.304 NA
ATOM     37  C   UNL     1      36.600   2.819   5.304  1.00  0.00     0.105 C 
ENDBRANCH  30  31
ENDBRANCH  29  30
ENDBRANCH  28  29
ENDBRANCH   1  28
TORSDOF 10
ENDMDL
MODEL 2
REMARK VINA RESULT:    -8.836      4.305      8.965
REMARK INTER + INTRA:         -14.036
REMARK INTER:                 -12.356
REMARK INTRA:                  -1.680
REMARK UNBOUND:                -0.034
REMARK SMILES COc1cc(Nc2c(C#N)cnc3cc(OCCCN4CCN(C)CC4)c(OC)cc23)c(Cl)cc1Cl
REMARK SMILES IDX 16 1 15 2 7 3 8 4 31 5 11 6 13 7 30 8 12 9 14 10 27 11 6 12
REMARK SMILES IDX 5 14 3 15 4 16 35 17 34 18 36 19 32 20 33 21 2 22 1 23 9 24
REMARK SMILES IDX 10 25 28 26 29 27 17 28 18 29 19 30 20 31 21 32 26 33 22 34
REMARK SMILES IDX 25 35 23 36 24 37
REMARK H PARENT 6 13
REMARK Flexibility Score: inf
ROOT
ATOM      1  O   UNL     1      28.566   7.903   9.929  1.00  0.00    -0.490 OA
ENDROOT
BRANCH   1   2
ATOM      2  C   UNL     1      29.449   8.985  10.050  1.00  0.00     0.163 A 
ATOM      3  C   UNL     1      32.168  12.216  10.459  1.00  0.00     0.068 A 
ATOM      4  C   UNL     1      31.665  13.443  10.938  1.00  0.00     0.094 A 
ATOM      5  C   UNL     1      31.284  11.116  10.321  1.00  0.00     0.029 A 
ATOM      6  C   UNL     1      30.317  13.548  11.290  1.00  0.00     0.133 A 
ATOM      7  C   UNL     1      29.929  11.284  10.685  1.00  0.00     0.076 A 
ATOM      8  C   UNL     1      31.700   9.869   9.816  1.00  0.00     0.063 A 
ATOM      9  N   UNL     1      29.492  12.480  11.155  1.00  0.00    -0.255 NA
ATOM     10  C   UNL     1      29.023  10.228  10.543  1.00  0.00     0.079 A 
ATOM     11  C   UNL     1      30.794   8.798   9.701  1.00  0.00     0.161 A 
BRANCH   3  12
ATOM     12  N   UNL     1      33.556  12.117  10.090  1.00  0.00    -0.353 N 
ATOM     13  H   UNL     1      34.242  11.977  10.865  1.00  0.00     0.167 HD
BRANCH  12  14
ATOM     14  C   UNL     1      34.022  12.041   8.728  1.00  0.00     0.061 A 
ATOM     15  C   UNL     1      34.153  12.981   6.469  1.00  0.00     0.139 A 
ATOM     16  C   UNL     1      33.674  13.035   7.793  1.00  0.00     0.075 A 
ATOM     17  C   UNL     1      34.974  11.914   6.083  1.00  0.00     0.084 A 
ATOM     18  C   UNL     1      35.311  10.916   7.002  1.00  0.00     0.047 A 
ATOM     19  Cl  UNL     1      35.598  11.810   4.443  1.00  0.00    -0.080 Cl
ATOM     20  C   UNL     1      34.844  10.972   8.316  1.00  0.00     0.066 A 
ATOM     21  Cl  UNL     1      35.342   9.707   9.435  1.00  0.00    -0.082 Cl
BRANCH  15  22
ATOM     22  O   UNL     1      33.839  13.968   5.519  1.00  0.00    -0.495 OA
ATOM     23  C   UNL     1      32.669  13.964   4.705  1.00  0.00     0.278 C 
ENDBRANCH  15  22
ENDBRANCH  12  14
ENDBRANCH   3  12
BRANCH   4  24
ATOM     24  C   UNL     1      32.521  14.593  11.084  1.00  0.00     0.103 C 
ATOM     25  N   UNL     1      33.209  15.516  11.202  1.00  0.00    -0.192 NA
ENDBRANCH   4  24
BRANCH  11  26
ATOM     26  O   UNL     1      31.189   7.536   9.231  1.00  0.00    -0.493 OA
ATOM     27  C   UNL     1      32.528   7.172   8.907  1.00  0.00     0.278 C 
ENDBRANCH  11  26
ENDBRANCH   1   2
BRANCH   1  28
ATOM     28  C   UNL     1      27.295   7.979   9.283  1.00  0.00     0.231 C 
BRANCH  28  29
ATOM     29  C   UNL     1      26.189   7.872  10.331  1.00  0.00     0.057 C 
BRANCH  29  30
ATOM     30  C   UNL     1      25.002   8.785   9.983  1.00  0.00     0.088 C 
BRANCH  30  31
ATOM     31  N   UNL     1      25.144  10.097  10.655  1.00  0.00    -0.301 NA
ATOM     32  C   UNL     1      23.834  10.568  11.150  1.00  0.00     0.100 C 
ATOM     33  C   UNL     1      25.722  11.102   9.733  1.00  0.00     0.100 C 
ATOM     34  C   UNL     1      23.983  11.922  11.851  1.00  0.00     0.099 C 
ATOM     35  C   UNL     1      25.877  12.449  10.443  1.00  0.00     0.099 C 
ATOM     36  N   UNL     1      24.562  12.913  10.923  1.00  0.00    -0.304 NA
ATOM     37  C   UNL     1      24.700  14.216  11.591  1.00  0.00     0.105 C 
ENDBRANCH  30  31
ENDBRANCH  29  30
ENDBRANCH  28  29
ENDBRANCH   1  28
TORSDOF 10
ENDMDL
MODEL 3
REMARK VINA RESULT:    -8.796      3.577      9.247
REMARK INTER + INTRA:         -13.973
REMARK INTER:                 -12.602
REMARK INTRA:                  -1.370
REMARK UNBOUND:                -0.034
REMARK SMILES COc1cc(Nc2c(C#N)cnc3cc(OCCCN4CCN(C)CC4)c(OC)cc23)c(Cl)cc1Cl
REMARK SMILES IDX 16 1 15 2 7 3 8 4 31 5 11 6 13 7 30 8 12 9 14 10 27 11 6 12
REMARK SMILES IDX 5 14 3 15 4 16 35 17 34 18 36 19 32 20 33 21 2 22 1 23 9 24
REMARK SMILES IDX 10 25 28 26 29 27 17 28 18 29 19 30 20 31 21 32 26 33 22 34
REMARK SMILES IDX 25 35 23 36 24 37
REMARK H PARENT 6 13
REMARK Flexibility Score: inf
ROOT
ATOM      1  O   UNL     1      28.044   8.330  10.501  1.00  0.00    -0.490 OA
ENDROOT
BRANCH   1   2
ATOM      2  C   UNL     1      29.377   8.556  10.130  1.00  0.00     0.163 A 
ATOM      3  C   UNL     1      33.388   9.297   8.962  1.00  0.00     0.068 A 
ATOM      4  C   UNL     1      34.119   8.229   8.405  1.00  0.00     0.094 A 
ATOM      5  C   UNL     1      32.042   9.081   9.352  1.00  0.00     0.029 A 
ATOM      6  C   UNL     1      33.503   6.987   8.225  1.00  0.00     0.133 A 
ATOM      7  C   UNL     1      31.475   7.802   9.154  1.00  0.00     0.076 A 
ATOM      8  C   UNL     1      31.257  10.085   9.949  1.00  0.00     0.063 A 
ATOM      9  N   UNL     1      32.213   6.806   8.602  1.00  0.00    -0.255 NA
ATOM     10  C   UNL     1      30.157   7.545   9.546  1.00  0.00     0.079 A 
ATOM     11  C   UNL     1      29.921   9.834  10.316  1.00  0.00     0.161 A 
BRANCH   3  12
ATOM     12  N   UNL     1      34.032  10.571   9.152  1.00  0.00    -0.353 N 
ATOM     13  H   UNL     1      34.899  10.580   9.735  1.00  0.00     0.167 HD
BRANCH  12  14
ATOM     14  C   UNL     1      33.645  11.777   8.463  1.00  0.00     0.061 A 
ATOM     15  C   UNL     1      33.020  12.941   6.400  1.00  0.00     0.139 A 
ATOM     16  C   UNL     1      33.429  11.772   7.071  1.00  0.00     0.075 A 
ATOM     17  C   UNL     1      32.843  14.122   7.131  1.00  0.00     0.084 A 
ATOM     18  C   UNL     1      33.070  14.138   8.510  1.00  0.00     0.047 A 
ATOM     19  Cl  UNL     1      32.328  15.602   6.334  1.00  0.00    -0.080 Cl
ATOM     20  C   UNL     1      33.468  12.979   9.179  1.00  0.00     0.066 A 
ATOM     21  Cl  UNL     1      33.694  13.056  10.924  1.00  0.00    -0.082 Cl
BRANCH  15  22
ATOM     22  O   UNL     1      32.777  12.962   5.016  1.00  0.00    -0.495 OA
ATOM     23  C   UNL     1      33.722  13.383   4.036  1.00  0.00     0.278 C 
ENDBRANCH  15  22
ENDBRANCH  12  14
ENDBRANCH   3  12
BRANCH   4  24
ATOM     24  C   UNL     1      35.494   8.395   8.004  1.00  0.00     0.103 C 
ATOM     25  N   UNL     1      36.596   8.530   7.682  1.00  0.00    -0.192 NA
ENDBRANCH   4  24
BRANCH  11  26
ATOM     26  O   UNL     1      29.105  10.826  10.884  1.00  0.00    -0.493 OA
ATOM     27  C   UNL     1      29.422  12.215  10.919  1.00  0.00     0.278 C 
ENDBRANCH  11  26
ENDBRANCH   1   2
BRANCH   1  28
ATOM     28  C   UNL     1      27.031   7.881   9.601  1.00  0.00     0.231 C 
BRANCH  28  29
ATOM     29  C   UNL     1      25.726   7.683  10.369  1.00  0.00     0.057 C 
BRANCH  29  30
ATOM     30  C   UNL     1      24.668   8.714   9.944  1.00  0.00     0.088 C 
BRANCH  30  31
ATOM     31  N   UNL     1      24.902  10.008  10.626  1.00  0.00    -0.301 NA
ATOM     32  C   UNL     1      23.628  10.572  11.115  1.00  0.00     0.100 C 
ATOM     33  C   UNL     1      25.561  10.972   9.715  1.00  0.00     0.100 C 
ATOM     34  C   UNL     1      23.872  11.908  11.826  1.00  0.00     0.099 C 
ATOM     35  C   UNL     1      25.811  12.299  10.435  1.00  0.00     0.099 C 
ATOM     36  N   UNL     1      24.531  12.858  10.909  1.00  0.00    -0.304 NA
ATOM     37  C   UNL     1      24.762  14.142  11.586  1.00  0.00     0.105 C 
ENDBRANCH  30  31
ENDBRANCH  29  30
ENDBRANCH  28  29
ENDBRANCH   1  28
TORSDOF 10
ENDMDL
MODEL 4
REMARK VINA RESULT:    -8.767      3.969      8.840
REMARK INTER + INTRA:         -13.926
REMARK INTER:                 -12.826
REMARK INTRA:                  -1.099
REMARK UNBOUND:                -0.034
REMARK SMILES COc1cc(Nc2c(C#N)cnc3cc(OCCCN4CCN(C)CC4)c(OC)cc23)c(Cl)cc1Cl
REMARK SMILES IDX 16 1 15 2 7 3 8 4 31 5 11 6 13 7 30 8 12 9 14 10 27 11 6 12
REMARK SMILES IDX 5 14 3 15 4 16 35 17 34 18 36 19 32 20 33 21 2 22 1 23 9 24
REMARK SMILES IDX 10 25 28 26 29 27 17 28 18 29 19 30 20 31 21 32 26 33 22 34
REMARK SMILES IDX 25 35 23 36 24 37
REMARK H PARENT 6 13
REMARK Flexibility Score: inf
ROOT
ATOM      1  O   UNL     1      28.328   8.328  10.536  1.00  0.00    -0.490 OA
ENDROOT
BRANCH   1   2
ATOM      2  C   UNL     1      29.189   9.425  10.390  1.00  0.00     0.163 A 
ATOM      3  C   UNL     1      31.851  12.703   9.973  1.00  0.00     0.068 A 
ATOM      4  C   UNL     1      31.522  13.905  10.630  1.00  0.00     0.094 A 
ATOM      5  C   UNL     1      30.984  11.588  10.103  1.00  0.00     0.029 A 
ATOM      6  C   UNL     1      30.366  13.973  11.413  1.00  0.00     0.133 A 
ATOM      7  C   UNL     1      29.826  11.718  10.901  1.00  0.00     0.076 A 
ATOM      8  C   UNL     1      31.224  10.363   9.450  1.00  0.00     0.063 A 
ATOM      9  N   UNL     1      29.555  12.892  11.526  1.00  0.00    -0.255 NA
ATOM     10  C   UNL     1      28.936  10.646  11.035  1.00  0.00     0.079 A 
ATOM     11  C   UNL     1      30.343   9.276   9.610  1.00  0.00     0.161 A 
BRANCH   3  12
ATOM     12  N   UNL     1      33.039  12.643   9.161  1.00  0.00    -0.353 N 
ATOM     13  H   UNL     1      33.219  13.452   8.527  1.00  0.00     0.167 HD
BRANCH  12  14
ATOM     14  C   UNL     1      34.052  11.625   9.294  1.00  0.00     0.061 A 
ATOM     15  C   UNL     1      35.308   9.740   8.360  1.00  0.00     0.139 A 
ATOM     16  C   UNL     1      34.298  10.716   8.247  1.00  0.00     0.075 A 
ATOM     17  C   UNL     1      36.064   9.673   9.538  1.00  0.00     0.084 A 
ATOM     18  C   UNL     1      35.815  10.563  10.586  1.00  0.00     0.047 A 
ATOM     19  Cl  UNL     1      37.338   8.475   9.719  1.00  0.00    -0.080 Cl
ATOM     20  C   UNL     1      34.819  11.535  10.473  1.00  0.00     0.066 A 
ATOM     21  Cl  UNL     1      34.587  12.654  11.813  1.00  0.00    -0.082 Cl
BRANCH  15  22
ATOM     22  O   UNL     1      35.591   8.832   7.326  1.00  0.00    -0.495 OA
ATOM     23  C   UNL     1      34.951   7.570   7.162  1.00  0.00     0.278 C 
ENDBRANCH  15  22
ENDBRANCH  12  14
ENDBRANCH   3  12
BRANCH   4  24
ATOM     24  C   UNL     1      32.364  15.069  10.519  1.00  0.00     0.103 C 
ATOM     25  N   UNL     1      33.041  16.003  10.429  1.00  0.00    -0.192 NA
ENDBRANCH   4  24
BRANCH  11  26
ATOM     26  O   UNL     1      30.574   8.035   8.996  1.00  0.00    -0.493 OA
ATOM     27  C   UNL     1      31.766   7.266   9.140  1.00  0.00     0.278 C 
ENDBRANCH  11  26
ENDBRANCH   1   2
BRANCH   1  28
ATOM     28  C   UNL     1      27.272   8.017   9.628  1.00  0.00     0.231 C 
BRANCH  28  29
ATOM     29  C   UNL     1      25.981   7.794  10.414  1.00  0.00     0.057 C 
BRANCH  29  30
ATOM     30  C   UNL     1      24.886   8.781   9.977  1.00  0.00     0.088 C 
BRANCH  30  31
ATOM     31  N   UNL     1      25.073  10.091  10.645  1.00  0.00    -0.301 NA
ATOM     32  C   UNL     1      23.789  10.586  11.179  1.00  0.00     0.100 C 
ATOM     33  C   UNL     1      25.642  11.084   9.706  1.00  0.00     0.100 C 
ATOM     34  C   UNL     1      23.985  11.937  11.876  1.00  0.00     0.099 C 
ATOM     35  C   UNL     1      25.845  12.428  10.411  1.00  0.00     0.099 C 
ATOM     36  N   UNL     1      24.555  12.916  10.931  1.00  0.00    -0.304 NA
ATOM     37  C   UNL     1      24.738  14.216  11.594  1.00  0.00     0.105 C 
ENDBRANCH  30  31
ENDBRANCH  29  30
ENDBRANCH  28  29
ENDBRANCH   1  28
TORSDOF 10
ENDMDL
MODEL 5
REMARK VINA RESULT:    -8.764      4.425      9.909
REMARK INTER + INTRA:         -13.922
REMARK INTER:                 -12.413
REMARK INTRA:                  -1.509
REMARK UNBOUND:                -0.034
REMARK SMILES COc1cc(Nc2c(C#N)cnc3cc(OCCCN4CCN(C)CC4)c(OC)cc23)c(Cl)cc1Cl
REMARK SMILES IDX 16 1 15 2 7 3 8 4 31 5 11 6 13 7 30 8 12 9 14 10 27 11 6 12
REMARK SMILES IDX 5 14 3 15 4 16 35 17 34 18 36 19 32 20 33 21 2 22 1 23 9 24
REMARK SMILES IDX 10 25 28 26 29 27 17 28 18 29 19 30 20 31 21 32 26 33 22 34
REMARK SMILES IDX 25 35 23 36 24 37
REMARK H PARENT 6 13
REMARK Flexibility Score: inf
ROOT
ATOM      1  O   UNL     1      28.835  12.915  11.568  1.00  0.00    -0.490 OA
ENDROOT
BRANCH   1   2
ATOM      2  C   UNL     1      29.717  11.951  11.061  1.00  0.00     0.163 A 
ATOM      3  C   UNL     1      32.406   9.080   9.470  1.00  0.00     0.068 A 
ATOM      4  C   UNL     1      31.902   7.797   9.178  1.00  0.00     0.094 A 
ATOM      5  C   UNL     1      31.528  10.063   9.993  1.00  0.00     0.029 A 
ATOM      6  C   UNL     1      30.548   7.522   9.386  1.00  0.00     0.133 A 
ATOM      7  C   UNL     1      30.170   9.724  10.190  1.00  0.00     0.076 A 
ATOM      8  C   UNL     1      31.962  11.356  10.344  1.00  0.00     0.063 A 
ATOM      9  N   UNL     1      29.726   8.479   9.883  1.00  0.00    -0.255 NA
ATOM     10  C   UNL     1      29.279  10.660  10.725  1.00  0.00     0.079 A 
ATOM     11  C   UNL     1      31.057  12.307  10.854  1.00  0.00     0.161 A 
BRANCH   3  12
ATOM     12  N   UNL     1      33.804   9.355   9.261  1.00  0.00    -0.353 N 
ATOM     13  H   UNL     1      34.460   9.078  10.026  1.00  0.00     0.167 HD
BRANCH  12  14
ATOM     14  C   UNL     1      34.353   9.830   8.015  1.00  0.00     0.061 A 
ATOM     15  C   UNL     1      34.292  11.379   6.118  1.00  0.00     0.139 A 
ATOM     16  C   UNL     1      33.741  10.891   7.319  1.00  0.00     0.075 A 
ATOM     17  C   UNL     1      35.454  10.786   5.609  1.00  0.00     0.084 A 
ATOM     18  C   UNL     1      36.057   9.723   6.286  1.00  0.00     0.047 A 
ATOM     19  Cl  UNL     1      36.178  11.367   4.116  1.00  0.00    -0.080 Cl
ATOM     20  C   UNL     1      35.518   9.243   7.481  1.00  0.00     0.066 A 
ATOM     21  Cl  UNL     1      36.352   7.930   8.307  1.00  0.00    -0.082 Cl
BRANCH  15  22
ATOM     22  O   UNL     1      33.717  12.449   5.412  1.00  0.00    -0.495 OA
ATOM     23  C   UNL     1      32.768  13.361   5.958  1.00  0.00     0.278 C 
ENDBRANCH  15  22
ENDBRANCH  12  14
ENDBRANCH   3  12
BRANCH   4  24
ATOM     24  C   UNL     1      32.758   6.762   8.656  1.00  0.00     0.103 C 
ATOM     25  N   UNL     1      33.445   5.931   8.237  1.00  0.00    -0.192 NA
ENDBRANCH   4  24
BRANCH  11  26
ATOM     26  O   UNL     1      31.455  13.612  11.183  1.00  0.00    -0.493 OA
ATOM     27  C   UNL     1      32.760  14.142  10.965  1.00  0.00     0.278 C 
ENDBRANCH  11  26
ENDBRANCH   1   2
BRANCH   1  28
ATOM     28  C   UNL     1      28.193  13.907  10.767  1.00  0.00     0.231 C 
BRANCH  28  29
ATOM     29  C   UNL     1      26.953  13.303  10.112  1.00  0.00     0.057 C 
BRANCH  29  30
ATOM     30  C   UNL     1      25.744  13.348  11.061  1.00  0.00     0.088 C 
BRANCH  30  31
ATOM     31  N   UNL     1      25.188  11.989  11.257  1.00  0.00    -0.301 NA
ATOM     32  C   UNL     1      25.648  11.084  10.183  1.00  0.00     0.100 C 
ATOM     33  C   UNL     1      23.708  12.024  11.284  1.00  0.00     0.100 C 
ATOM     34  C   UNL     1      25.078   9.677  10.390  1.00  0.00     0.099 C 
ATOM     35  C   UNL     1      23.146  10.617  11.501  1.00  0.00     0.099 C 
ATOM     36  N   UNL     1      23.603   9.726  10.418  1.00  0.00    -0.304 NA
ATOM     37  C   UNL     1      23.053   8.376  10.610  1.00  0.00     0.105 C 
ENDBRANCH  30  31
ENDBRANCH  29  30
ENDBRANCH  28  29
ENDBRANCH   1  28
TORSDOF 10
ENDMDL
MODEL 6
REMARK VINA RESULT:    -8.749      2.121      3.026
REMARK INTER + INTRA:         -13.898
REMARK INTER:                 -13.111
REMARK INTRA:                  -0.787
REMARK UNBOUND:                -0.034
REMARK SMILES COc1cc(Nc2c(C#N)cnc3cc(OCCCN4CCN(C)CC4)c(OC)cc23)c(Cl)cc1Cl
REMARK SMILES IDX 16 1 15 2 7 3 8 4 31 5 11 6 13 7 30 8 12 9 14 10 27 11 6 12
REMARK SMILES IDX 5 14 3 15 4 16 35 17 34 18 36 19 32 20 33 21 2 22 1 23 9 24
REMARK SMILES IDX 10 25 28 26 29 27 17 28 18 29 19 30 20 31 21 32 26 33 22 34
REMARK SMILES IDX 25 35 23 36 24 37
REMARK H PARENT 6 13
REMARK Flexibility Score: inf
ROOT
ATOM      1  O   UNL     1      33.847   9.439  10.119  1.00  0.00    -0.490 OA
ENDROOT
BRANCH   1   2
ATOM      2  C   UNL     1      32.581  10.036  10.037  1.00  0.00     0.163 A 
ATOM      3  C   UNL     1      28.758  11.846   9.712  1.00  0.00     0.068 A 
ATOM      4  C   UNL     1      28.514  13.008  10.472  1.00  0.00     0.094 A 
ATOM      5  C   UNL     1      30.030  11.225   9.794  1.00  0.00     0.029 A 
ATOM      6  C   UNL     1      29.530  13.540  11.270  1.00  0.00     0.133 A 
ATOM      7  C   UNL     1      31.016  11.804  10.624  1.00  0.00     0.076 A 
ATOM      8  C   UNL     1      30.341  10.043   9.095  1.00  0.00     0.063 A 
ATOM      9  N   UNL     1      30.741  12.931  11.327  1.00  0.00    -0.255 NA
ATOM     10  C   UNL     1      32.276  11.208  10.746  1.00  0.00     0.079 A 
ATOM     11  C   UNL     1      31.619   9.460   9.195  1.00  0.00     0.161 A 
BRANCH   3  12
ATOM     12  N   UNL     1      27.704  11.299   8.899  1.00  0.00    -0.353 N 
ATOM     13  H   UNL     1      27.752  11.487   7.872  1.00  0.00     0.167 HD
BRANCH  12  14
ATOM     14  C   UNL     1      26.699  10.390   9.391  1.00  0.00     0.061 A 
ATOM     15  C   UNL     1      24.548   9.993  10.496  1.00  0.00     0.139 A 
ATOM     16  C   UNL     1      25.548  10.876  10.041  1.00  0.00     0.075 A 
ATOM     17  C   UNL     1      24.716   8.615  10.307  1.00  0.00     0.084 A 
ATOM     18  C   UNL     1      25.863   8.126   9.675  1.00  0.00     0.047 A 
ATOM     19  Cl  UNL     1      23.492   7.479  10.853  1.00  0.00    -0.080 Cl
ATOM     20  C   UNL     1      26.851   8.999   9.217  1.00  0.00     0.066 A 
ATOM     21  Cl  UNL     1      28.250   8.320   8.391  1.00  0.00    -0.082 Cl
BRANCH  15  22
ATOM     22  O   UNL     1      23.380  10.448  11.130  1.00  0.00    -0.495 OA
ATOM     23  C   UNL     1      23.155  11.794  11.541  1.00  0.00     0.278 C 
ENDBRANCH  15  22
ENDBRANCH  12  14
ENDBRANCH   3  12
BRANCH   4  24
ATOM     24  C   UNL     1      27.233  13.668  10.432  1.00  0.00     0.103 C 
ATOM     25  N   UNL     1      26.206  14.199  10.400  1.00  0.00    -0.192 NA
ENDBRANCH   4  24
BRANCH  11  26
ATOM     26  O   UNL     1      31.967   8.300   8.486  1.00  0.00    -0.493 OA
ATOM     27  C   UNL     1      31.717   6.970   8.932  1.00  0.00     0.278 C 
ENDBRANCH  11  26
ENDBRANCH   1   2
BRANCH   1  28
ATOM     28  C   UNL     1      34.974   9.849   9.344  1.00  0.00     0.231 C 
BRANCH  28  29
ATOM     29  C   UNL     1      35.440   8.683   8.475  1.00  0.00     0.057 C 
BRANCH  29  30
ATOM     30  C   UNL     1      35.076   8.908   6.998  1.00  0.00     0.088 C 
BRANCH  30  31
ATOM     31  N   UNL     1      34.768   7.618   6.338  1.00  0.00    -0.301 NA
ATOM     32  C   UNL     1      34.918   6.501   7.293  1.00  0.00     0.100 C 
ATOM     33  C   UNL     1      35.651   7.400   5.169  1.00  0.00     0.100 C 
ATOM     34  C   UNL     1      34.592   5.168   6.611  1.00  0.00     0.099 C 
ATOM     35  C   UNL     1      35.313   6.072   4.487  1.00  0.00     0.099 C 
ATOM     36  N   UNL     1      35.476   4.964   5.447  1.00  0.00    -0.304 NA
ATOM     37  C   UNL     1      35.171   3.682   4.794  1.00  0.00     0.105 C 
ENDBRANCH  30  31
ENDBRANCH  29  30
ENDBRANCH  28  29
ENDBRANCH   1  28
TORSDOF 10
ENDMDL
MODEL 7
REMARK VINA RESULT:    -8.600      4.664     10.980
REMARK INTER + INTRA:         -13.661
REMARK INTER:                 -12.215
REMARK INTRA:                  -1.446
REMARK UNBOUND:                -0.034
REMARK SMILES COc1cc(Nc2c(C#N)cnc3cc(OCCCN4CCN(C)CC4)c(OC)cc23)c(Cl)cc1Cl
REMARK SMILES IDX 16 1 15 2 7 3 8 4 31 5 11 6 13 7 30 8 12 9 14 10 27 11 6 12
REMARK SMILES IDX 5 14 3 15 4 16 35 17 34 18 36 19 32 20 33 21 2 22 1 23 9 24
REMARK SMILES IDX 10 25 28 26 29 27 17 28 18 29 19 30 20 31 21 32 26 33 22 34
REMARK SMILES IDX 25 35 23 36 24 37
REMARK H PARENT 6 13
REMARK Flexibility Score: inf
ROOT
ATOM      1  O   UNL     1      31.459   9.997   9.305  1.00  0.00    -0.490 OA
ENDROOT
BRANCH   1   2
ATOM      2  C   UNL     1      32.303   8.970   8.860  1.00  0.00     0.163 A 
ATOM      3  C   UNL     1      34.859   5.893   7.443  1.00  0.00     0.068 A 
ATOM      4  C   UNL     1      34.437   4.559   7.610  1.00  0.00     0.094 A 
ATOM      5  C   UNL     1      34.020   6.942   7.899  1.00  0.00     0.029 A 
ATOM      6  C   UNL     1      33.197   4.293   8.197  1.00  0.00     0.133 A 
ATOM      7  C   UNL     1      32.781   6.612   8.492  1.00  0.00     0.076 A 
ATOM      8  C   UNL     1      34.385   8.299   7.802  1.00  0.00     0.063 A 
ATOM      9  N   UNL     1      32.410   5.313   8.620  1.00  0.00    -0.255 NA
ATOM     10  C   UNL     1      31.937   7.619   8.972  1.00  0.00     0.079 A 
ATOM     11  C   UNL     1      33.521   9.313   8.258  1.00  0.00     0.161 A 
BRANCH   3  12
ATOM     12  N   UNL     1      36.142   6.160   6.846  1.00  0.00    -0.353 N 
ATOM     13  H   UNL     1      36.985   5.967   7.431  1.00  0.00     0.167 HD
BRANCH  12  14
ATOM     14  C   UNL     1      36.324   6.516   5.461  1.00  0.00     0.061 A 
ATOM     15  C   UNL     1      35.943   6.069   3.082  1.00  0.00     0.139 A 
ATOM     16  C   UNL     1      35.794   5.708   4.436  1.00  0.00     0.075 A 
ATOM     17  C   UNL     1      36.642   7.240   2.760  1.00  0.00     0.084 A 
ATOM     18  C   UNL     1      37.183   8.038   3.772  1.00  0.00     0.047 A 
ATOM     19  Cl  UNL     1      36.847   7.730   1.085  1.00  0.00    -0.080 Cl
ATOM     20  C   UNL     1      37.030   7.686   5.114  1.00  0.00     0.066 A 
ATOM     21  Cl  UNL     1      37.698   8.759   6.341  1.00  0.00    -0.082 Cl
BRANCH  15  22
ATOM     22  O   UNL     1      35.409   5.295   2.038  1.00  0.00    -0.495 OA
ATOM     23  C   UNL     1      34.607   4.131   2.224  1.00  0.00     0.278 C 
ENDBRANCH  15  22
ENDBRANCH  12  14
ENDBRANCH   3  12
BRANCH   4  24
ATOM     24  C   UNL     1      35.259   3.458   7.175  1.00  0.00     0.103 C 
ATOM     25  N   UNL     1      35.919   2.574   6.827  1.00  0.00    -0.192 NA
ENDBRANCH   4  24
BRANCH  11  26
ATOM     26  O   UNL     1      33.846  10.674   8.145  1.00  0.00    -0.493 OA
ATOM     27  C   UNL     1      33.633  11.466   6.979  1.00  0.00     0.278 C 
ENDBRANCH  11  26
ENDBRANCH   1   2
BRANCH   1  28
ATOM     28  C   UNL     1      31.029  10.145  10.658  1.00  0.00     0.231 C 
BRANCH  28  29
ATOM     29  C   UNL     1      29.562  10.570  10.678  1.00  0.00     0.057 C 
BRANCH  29  30
ATOM     30  C   UNL     1      28.760   9.850   9.582  1.00  0.00     0.088 C 
BRANCH  30  31
ATOM     31  N   UNL     1      27.452   9.398  10.111  1.00  0.00    -0.301 NA
ATOM     32  C   UNL     1      27.120   8.056   9.590  1.00  0.00     0.100 C 
ATOM     33  C   UNL     1      26.380  10.354   9.753  1.00  0.00     0.100 C 
ATOM     34  C   UNL     1      25.770   7.586  10.144  1.00  0.00     0.099 C 
ATOM     35  C   UNL     1      25.036   9.884  10.317  1.00  0.00     0.099 C 
ATOM     36  N   UNL     1      24.712   8.548   9.782  1.00  0.00    -0.304 NA
ATOM     37  C   UNL     1      23.414   8.098  10.306  1.00  0.00     0.105 C 
ENDBRANCH  30  31
ENDBRANCH  29  30
ENDBRANCH  28  29
ENDBRANCH   1  28
TORSDOF 10
ENDMDL
MODEL 8
REMARK VINA RESULT:    -8.523      5.165      9.986
REMARK INTER + INTRA:         -13.540
REMARK INTER:                 -12.908
REMARK INTRA:                  -0.632
REMARK UNBOUND:                -0.034
REMARK SMILES COc1cc(Nc2c(C#N)cnc3cc(OCCCN4CCN(C)CC4)c(OC)cc23)c(Cl)cc1Cl
REMARK SMILES IDX 16 1 15 2 7 3 8 4 31 5 11 6 13 7 30 8 12 9 14 10 27 11 6 12
REMARK SMILES IDX 5 14 3 15 4 16 35 17 34 18 36 19 32 20 33 21 2 22 1 23 9 24
REMARK SMILES IDX 10 25 28 26 29 27 17 28 18 29 19 30 20 31 21 32 26 33 22 34
REMARK SMILES IDX 25 35 23 36 24 37
REMARK H PARENT 6 13
REMARK Flexibility Score: inf
ROOT
ATOM      1  O   UNL     1      25.988  16.866  11.774  1.00  0.00    -0.490 OA
ENDROOT
BRANCH   1   2
ATOM      2  C   UNL     1      25.839  15.523  11.402  1.00  0.00     0.163 A 
ATOM      3  C   UNL     1      25.391  11.477  10.204  1.00  0.00     0.068 A 
ATOM      4  C   UNL     1      24.276  10.766  10.692  1.00  0.00     0.094 A 
ATOM      5  C   UNL     1      25.561  12.834  10.580  1.00  0.00     0.029 A 
ATOM      6  C   UNL     1      23.349  11.412  11.515  1.00  0.00     0.133 A 
ATOM      7  C   UNL     1      24.595  13.431  11.422  1.00  0.00     0.076 A 
ATOM      8  C   UNL     1      26.666  13.602  10.165  1.00  0.00     0.063 A 
ATOM      9  N   UNL     1      23.530  12.712  11.857  1.00  0.00    -0.255 NA
ATOM     10  C   UNL     1      24.740  14.761  11.831  1.00  0.00     0.079 A 
ATOM     11  C   UNL     1      26.795  14.949  10.553  1.00  0.00     0.161 A 
BRANCH   3  12
ATOM     12  N   UNL     1      26.347  10.804   9.364  1.00  0.00    -0.353 N 
ATOM     13  H   UNL     1      26.014  10.494   8.423  1.00  0.00     0.167 HD
BRANCH  12  14
ATOM     14  C   UNL     1      27.748  10.682   9.679  1.00  0.00     0.061 A 
ATOM     15  C   UNL     1      30.009  11.626   9.721  1.00  0.00     0.139 A 
ATOM     16  C   UNL     1      28.644  11.728   9.386  1.00  0.00     0.075 A 
ATOM     17  C   UNL     1      30.474  10.459  10.340  1.00  0.00     0.084 A 
ATOM     18  C   UNL     1      29.594   9.411  10.620  1.00  0.00     0.047 A 
ATOM     19  Cl  UNL     1      32.168  10.291  10.780  1.00  0.00    -0.080 Cl
ATOM     20  C   UNL     1      28.240   9.513  10.296  1.00  0.00     0.066 A 
ATOM     21  Cl  UNL     1      27.175   8.174  10.716  1.00  0.00    -0.082 Cl
BRANCH  15  22
ATOM     22  O   UNL     1      30.923  12.661   9.460  1.00  0.00    -0.495 OA
ATOM     23  C   UNL     1      31.596  12.850   8.218  1.00  0.00     0.278 C 
ENDBRANCH  15  22
ENDBRANCH  12  14
ENDBRANCH   3  12
BRANCH   4  24
ATOM     24  C   UNL     1      24.067   9.382  10.348  1.00  0.00     0.103 C 
ATOM     25  N   UNL     1      23.899   8.272  10.073  1.00  0.00    -0.192 NA
ENDBRANCH   4  24
BRANCH  11  26
ATOM     26  O   UNL     1      27.869  15.747  10.128  1.00  0.00    -0.493 OA
ATOM     27  C   UNL     1      29.214  15.607  10.581  1.00  0.00     0.278 C 
ENDBRANCH  11  26
ENDBRANCH   1   2
BRANCH   1  28
ATOM     28  C   UNL     1      26.517  17.292  13.029  1.00  0.00     0.231 C 
BRANCH  28  29
ATOM     29  C   UNL     1      27.306  18.586  12.831  1.00  0.00     0.057 C 
BRANCH  29  30
ATOM     30  C   UNL     1      28.107  18.948  14.092  1.00  0.00     0.088 C 
BRANCH  30  31
ATOM     31  N   UNL     1      29.561  18.894  13.815  1.00  0.00    -0.301 NA
ATOM     32  C   UNL     1      29.813  18.987  12.362  1.00  0.00     0.100 C 
ATOM     33  C   UNL     1      30.153  17.645  14.347  1.00  0.00     0.100 C 
ATOM     34  C   UNL     1      31.318  18.938  12.077  1.00  0.00     0.099 C 
ATOM     35  C   UNL     1      31.657  17.607  14.068  1.00  0.00     0.099 C 
ATOM     36  N   UNL     1      31.896  17.691  12.615  1.00  0.00    -0.304 NA
ATOM     37  C   UNL     1      33.339  17.638  12.337  1.00  0.00     0.105 C 
ENDBRANCH  30  31
ENDBRANCH  29  30
ENDBRANCH  28  29
ENDBRANCH   1  28
TORSDOF 10
ENDMDL
MODEL 9
REMARK VINA RESULT:    -8.509      3.028      4.619
REMARK INTER + INTRA:         -13.517
REMARK INTER:                 -13.250
REMARK INTRA:                  -0.267
REMARK UNBOUND:                -0.034
REMARK SMILES COc1cc(Nc2c(C#N)cnc3cc(OCCCN4CCN(C)CC4)c(OC)cc23)c(Cl)cc1Cl
REMARK SMILES IDX 16 1 15 2 7 3 8 4 31 5 11 6 13 7 30 8 12 9 14 10 27 11 6 12
REMARK SMILES IDX 5 14 3 15 4 16 35 17 34 18 36 19 32 20 33 21 2 22 1 23 9 24
REMARK SMILES IDX 10 25 28 26 29 27 17 28 18 29 19 30 20 31 21 32 26 33 22 34
REMARK SMILES IDX 25 35 23 36 24 37
REMARK H PARENT 6 13
REMARK Flexibility Score: inf
ROOT
ATOM      1  O   UNL     1      31.575   8.746   9.443  1.00  0.00    -0.490 OA
ENDROOT
BRANCH   1   2
ATOM      2  C   UNL     1      30.807   9.887   9.716  1.00  0.00     0.163 A 
ATOM      3  C   UNL     1      28.472  13.349  10.466  1.00  0.00     0.068 A 
ATOM      4  C   UNL     1      29.054  14.383  11.227  1.00  0.00     0.094 A 
ATOM      5  C   UNL     1      29.233  12.184  10.192  1.00  0.00     0.029 A 
ATOM      6  C   UNL     1      30.371  14.254  11.676  1.00  0.00     0.133 A 
ATOM      7  C   UNL     1      30.557  12.107  10.679  1.00  0.00     0.076 A 
ATOM      8  C   UNL     1      28.712  11.092   9.471  1.00  0.00     0.063 A 
ATOM      9  N   UNL     1      31.081  13.133  11.397  1.00  0.00    -0.255 NA
ATOM     10  C   UNL     1      31.331  10.965  10.446  1.00  0.00     0.079 A 
ATOM     11  C   UNL     1      29.502   9.956   9.211  1.00  0.00     0.161 A 
BRANCH   3  12
ATOM     12  N   UNL     1      27.112  13.484  10.014  1.00  0.00    -0.353 N 
ATOM     13  H   UNL     1      26.942  14.134   9.215  1.00  0.00     0.167 HD
BRANCH  12  14
ATOM     14  C   UNL     1      26.023  12.665  10.487  1.00  0.00     0.061 A 
ATOM     15  C   UNL     1      24.962  10.470  10.729  1.00  0.00     0.139 A 
ATOM     16  C   UNL     1      26.008  11.278  10.241  1.00  0.00     0.075 A 
ATOM     17  C   UNL     1      23.921  11.064  11.453  1.00  0.00     0.084 A 
ATOM     18  C   UNL     1      23.922  12.442  11.687  1.00  0.00     0.047 A 
ATOM     19  Cl  UNL     1      22.599  10.092  12.084  1.00  0.00    -0.080 Cl
ATOM     20  C   UNL     1      24.961  13.243  11.211  1.00  0.00     0.066 A 
ATOM     21  Cl  UNL     1      24.924  14.965  11.579  1.00  0.00    -0.082 Cl
BRANCH  15  22
ATOM     22  O   UNL     1      24.930   9.081  10.518  1.00  0.00    -0.495 OA
ATOM     23  C   UNL     1      23.967   8.408   9.711  1.00  0.00     0.278 C 
ENDBRANCH  15  22
ENDBRANCH  12  14
ENDBRANCH   3  12
BRANCH   4  24
ATOM     24  C   UNL     1      28.317  15.580  11.543  1.00  0.00     0.103 C 
ATOM     25  N   UNL     1      27.725  16.541  11.795  1.00  0.00    -0.192 NA
ENDBRANCH   4  24
BRANCH  11  26
ATOM     26  O   UNL     1      29.018   8.867   8.468  1.00  0.00    -0.493 OA
ATOM     27  C   UNL     1      28.009   7.964   8.912  1.00  0.00     0.278 C 
ENDBRANCH  11  26
ENDBRANCH   1   2
BRANCH   1  28
ATOM     28  C   UNL     1      32.693   8.730   8.556  1.00  0.00     0.231 C 
BRANCH  28  29
ATOM     29  C   UNL     1      33.970   9.001   9.349  1.00  0.00     0.057 C 
BRANCH  29  30
ATOM     30  C   UNL     1      34.754  10.182   8.755  1.00  0.00     0.088 C 
BRANCH  30  31
ATOM     31  N   UNL     1      34.522  11.410   9.551  1.00  0.00    -0.301 NA
ATOM     32  C   UNL     1      35.304  12.537   9.002  1.00  0.00     0.100 C 
ATOM     33  C   UNL     1      34.882  11.194  10.971  1.00  0.00     0.100 C 
ATOM     34  C   UNL     1      35.057  13.808   9.821  1.00  0.00     0.099 C 
ATOM     35  C   UNL     1      34.623  12.465  11.785  1.00  0.00     0.099 C 
ATOM     36  N   UNL     1      35.417  13.579  11.234  1.00  0.00    -0.304 NA
ATOM     37  C   UNL     1      35.187  14.799  12.022  1.00  0.00     0.105 C 
ENDBRANCH  30  31
ENDBRANCH  29  30
ENDBRANCH  28  29
ENDBRANCH   1  28
TORSDOF 10
ENDMDL
MODEL 10
REMARK VINA RESULT:    -8.459      4.648      9.655
REMARK INTER + INTRA:         -13.438
REMARK INTER:                 -12.069
REMARK INTRA:                  -1.369
REMARK UNBOUND:                -0.034
REMARK SMILES COc1cc(Nc2c(C#N)cnc3cc(OCCCN4CCN(C)CC4)c(OC)cc23)c(Cl)cc1Cl
REMARK SMILES IDX 16 1 15 2 7 3 8 4 31 5 11 6 13 7 30 8 12 9 14 10 27 11 6 12
REMARK SMILES IDX 5 14 3 15 4 16 35 17 34 18 36 19 32 20 33 21 2 22 1 23 9 24
REMARK SMILES IDX 10 25 28 26 29 27 17 28 18 29 19 30 20 31 21 32 26 33 22 34
REMARK SMILES IDX 25 35 23 36 24 37
REMARK H PARENT 6 13
REMARK Flexibility Score: inf
ROOT
ATOM      1  O   UNL     1      28.828  11.542   9.963  1.00  0.00    -0.490 OA
ENDROOT
BRANCH   1   2
ATOM      2  C   UNL     1      30.166  11.126   9.909  1.00  0.00     0.163 A 
ATOM      3  C   UNL     1      34.194   9.801   9.771  1.00  0.00     0.068 A 
ATOM      4  C   UNL     1      35.161  10.561  10.459  1.00  0.00     0.094 A 
ATOM      5  C   UNL     1      32.839  10.215   9.808  1.00  0.00     0.029 A 
ATOM      6  C   UNL     1      34.768  11.691  11.181  1.00  0.00     0.133 A 
ATOM      7  C   UNL     1      32.501  11.371  10.548  1.00  0.00     0.076 A 
ATOM      8  C   UNL     1      31.819   9.531   9.118  1.00  0.00     0.063 A 
ATOM      9  N   UNL     1      33.464  12.065  11.206  1.00  0.00    -0.255 NA
ATOM     10  C   UNL     1      31.178  11.821  10.590  1.00  0.00     0.079 A 
ATOM     11  C   UNL     1      30.483   9.969   9.185  1.00  0.00     0.161 A 
BRANCH   3  12
ATOM     12  N   UNL     1      34.608   8.643   9.022  1.00  0.00    -0.353 N 
ATOM     13  H   UNL     1      34.603   7.728   9.526  1.00  0.00     0.167 HD
BRANCH  12  14
ATOM     14  C   UNL     1      34.865   8.653   7.604  1.00  0.00     0.061 A 
ATOM     15  C   UNL     1      35.456   9.866   5.558  1.00  0.00     0.139 A 
ATOM     16  C   UNL     1      35.173   9.856   6.938  1.00  0.00     0.075 A 
ATOM     17  C   UNL     1      35.415   8.662   4.844  1.00  0.00     0.084 A 
ATOM     18  C   UNL     1      35.097   7.467   5.495  1.00  0.00     0.047 A 
ATOM     19  Cl  UNL     1      35.767   8.628   3.122  1.00  0.00    -0.080 Cl
ATOM     20  C   UNL     1      34.823   7.454   6.864  1.00  0.00     0.066 A 
ATOM     21  Cl  UNL     1      34.471   5.908   7.632  1.00  0.00    -0.082 Cl
BRANCH  15  22
ATOM     22  O   UNL     1      35.786  11.046   4.871  1.00  0.00    -0.495 OA
ATOM     23  C   UNL     1      36.976  11.801   5.085  1.00  0.00     0.278 C 
ENDBRANCH  15  22
ENDBRANCH  12  14
ENDBRANCH   3  12
BRANCH   4  24
ATOM     24  C   UNL     1      36.553  10.188  10.441  1.00  0.00     0.103 C 
ATOM     25  N   UNL     1      37.670   9.889  10.428  1.00  0.00    -0.192 NA
ENDBRANCH   4  24
BRANCH  11  26
ATOM     26  O   UNL     1      29.442   9.288   8.534  1.00  0.00    -0.493 OA
ATOM     27  C   UNL     1      29.004   7.971   8.860  1.00  0.00     0.278 C 
ENDBRANCH  11  26
ENDBRANCH   1   2
BRANCH   1  28
ATOM     28  C   UNL     1      28.352  12.588  10.809  1.00  0.00     0.231 C 
BRANCH  28  29
ATOM     29  C   UNL     1      26.826  12.623  10.758  1.00  0.00     0.057 C 
BRANCH  29  30
ATOM     30  C   UNL     1      26.283  11.669   9.682  1.00  0.00     0.088 C 
BRANCH  30  31
ATOM     31  N   UNL     1      25.560  10.538  10.310  1.00  0.00    -0.301 NA
ATOM     32  C   UNL     1      25.915   9.267   9.647  1.00  0.00     0.100 C 
ATOM     33  C   UNL     1      24.096  10.747  10.244  1.00  0.00     0.100 C 
ATOM     34  C   UNL     1      25.173   8.097  10.303  1.00  0.00     0.099 C 
ATOM     35  C   UNL     1      23.361   9.580  10.910  1.00  0.00     0.099 C 
ATOM     36  N   UNL     1      23.715   8.318  10.233  1.00  0.00    -0.304 NA
ATOM     37  C   UNL     1      22.999   7.195  10.855  1.00  0.00     0.105 C 
ENDBRANCH  30  31
ENDBRANCH  29  30
ENDBRANCH  28  29
ENDBRANCH   1  28
TORSDOF 10
ENDMDL
MODEL 11
REMARK VINA RESULT:    -8.386      4.392     10.987
REMARK INTER + INTRA:         -13.323
REMARK INTER:                 -12.029
REMARK INTRA:                  -1.293
REMARK UNBOUND:                -0.034
REMARK SMILES COc1cc(Nc2c(C#N)cnc3cc(OCCCN4CCN(C)CC4)c(OC)cc23)c(Cl)cc1Cl
REMARK SMILES IDX 16 1 15 2 7 3 8 4 31 5 11 6 13 7 30 8 12 9 14 10 27 11 6 12
REMARK SMILES IDX 5 14 3 15 4 16 35 17 34 18 36 19 32 20 33 21 2 22 1 23 9 24
REMARK SMILES IDX 10 25 28 26 29 27 17 28 18 29 19 30 20 31 21 32 26 33 22 34
REMARK SMILES IDX 25 35 23 36 24 37
REMARK H PARENT 6 13
REMARK Flexibility Score: inf
ROOT
ATOM      1  O   UNL     1      30.297   8.741   9.789  1.00  0.00    -0.490 OA
ENDROOT
BRANCH   1   2
ATOM      2  C   UNL     1      31.449   8.197   9.204  1.00  0.00     0.163 A 
ATOM      3  C   UNL     1      34.923   6.592   7.372  1.00  0.00     0.068 A 
ATOM      4  C   UNL     1      35.021   5.191   7.261  1.00  0.00     0.094 A 
ATOM      5  C   UNL     1      33.769   7.157   7.971  1.00  0.00     0.029 A 
ATOM      6  C   UNL     1      33.975   4.385   7.719  1.00  0.00     0.133 A 
ATOM      7  C   UNL     1      32.747   6.292   8.424  1.00  0.00     0.076 A 
ATOM      8  C   UNL     1      33.612   8.544   8.152  1.00  0.00     0.063 A 
ATOM      9  N   UNL     1      32.878   4.948   8.285  1.00  0.00    -0.255 NA
ATOM     10  C   UNL     1      31.603   6.811   9.039  1.00  0.00     0.079 A 
ATOM     11  C   UNL     1      32.446   9.068   8.745  1.00  0.00     0.161 A 
BRANCH   3  12
ATOM     12  N   UNL     1      36.009   7.416   6.905  1.00  0.00    -0.353 N 
ATOM     13  H   UNL     1      36.848   7.486   7.523  1.00  0.00     0.167 HD
BRANCH  12  14
ATOM     14  C   UNL     1      36.064   8.002   5.590  1.00  0.00     0.061 A 
ATOM     15  C   UNL     1      36.098   7.758   3.152  1.00  0.00     0.139 A 
ATOM     16  C   UNL     1      36.076   7.188   4.440  1.00  0.00     0.075 A 
ATOM     17  C   UNL     1      36.122   9.153   3.023  1.00  0.00     0.084 A 
ATOM     18  C   UNL     1      36.125   9.966   4.159  1.00  0.00     0.047 A 
ATOM     19  Cl  UNL     1      36.145   9.906   1.434  1.00  0.00    -0.080 Cl
ATOM     20  C   UNL     1      36.095   9.403   5.436  1.00  0.00     0.066 A 
ATOM     21  Cl  UNL     1      36.056  10.485   6.826  1.00  0.00    -0.082 Cl
BRANCH  15  22
ATOM     22  O   UNL     1      36.091   6.974   1.986  1.00  0.00    -0.495 OA
ATOM     23  C   UNL     1      37.253   6.413   1.382  1.00  0.00     0.278 C 
ENDBRANCH  15  22
ENDBRANCH  12  14
ENDBRANCH   3  12
BRANCH   4  24
ATOM     24  C   UNL     1      36.180   4.569   6.671  1.00  0.00     0.103 C 
ATOM     25  N   UNL     1      37.110   4.070   6.198  1.00  0.00    -0.192 NA
ENDBRANCH   4  24
BRANCH  11  26
ATOM     26  O   UNL     1      32.250  10.448   8.908  1.00  0.00    -0.493 OA
ATOM     27  C   UNL     1      31.732  11.319   7.906  1.00  0.00     0.278 C 
ENDBRANCH  11  26
ENDBRANCH   1   2
BRANCH   1  28
ATOM     28  C   UNL     1      29.133   7.982  10.114  1.00  0.00     0.231 C 
BRANCH  28  29
ATOM     29  C   UNL     1      28.014   8.331   9.134  1.00  0.00     0.057 C 
BRANCH  29  30
ATOM     30  C   UNL     1      27.907   9.851   8.930  1.00  0.00     0.088 C 
BRANCH  30  31
ATOM     31  N   UNL     1      26.544  10.324   9.265  1.00  0.00    -0.301 NA
ATOM     32  C   UNL     1      26.611  11.551  10.085  1.00  0.00     0.100 C 
ATOM     33  C   UNL     1      25.787   9.277   9.989  1.00  0.00     0.100 C 
ATOM     34  C   UNL     1      25.199  12.043  10.425  1.00  0.00     0.099 C 
ATOM     35  C   UNL     1      24.375   9.772  10.317  1.00  0.00     0.099 C 
ATOM     36  N   UNL     1      24.455  10.991  11.143  1.00  0.00    -0.304 NA
ATOM     37  C   UNL     1      23.103  11.462  11.478  1.00  0.00     0.105 C 
ENDBRANCH  30  31
ENDBRANCH  29  30
ENDBRANCH  28  29
ENDBRANCH   1  28
TORSDOF 10
ENDMDL
MODEL 12
REMARK VINA RESULT:    -8.351      3.551      5.722
REMARK INTER + INTRA:         -13.266
REMARK INTER:                 -11.778
REMARK INTRA:                  -1.489
REMARK UNBOUND:                -0.034
REMARK SMILES COc1cc(Nc2c(C#N)cnc3cc(OCCCN4CCN(C)CC4)c(OC)cc23)c(Cl)cc1Cl
REMARK SMILES IDX 16 1 15 2 7 3 8 4 31 5 11 6 13 7 30 8 12 9 14 10 27 11 6 12
REMARK SMILES IDX 5 14 3 15 4 16 35 17 34 18 36 19 32 20 33 21 2 22 1 23 9 24
REMARK SMILES IDX 10 25 28 26 29 27 17 28 18 29 19 30 20 31 21 32 26 33 22 34
REMARK SMILES IDX 25 35 23 36 24 37
REMARK H PARENT 6 13
REMARK Flexibility Score: inf
ROOT
ATOM      1  O   UNL     1      33.908   5.986   8.085  1.00  0.00    -0.490 OA
ENDROOT
BRANCH   1   2
ATOM      2  C   UNL     1      33.183   7.054   8.634  1.00  0.00     0.163 A 
ATOM      3  C   UNL     1      31.040  10.287  10.353  1.00  0.00     0.068 A 
ATOM      4  C   UNL     1      29.659  10.116  10.575  1.00  0.00     0.094 A 
ATOM      5  C   UNL     1      31.784   9.219   9.788  1.00  0.00     0.029 A 
ATOM      6  C   UNL     1      29.052   8.898  10.259  1.00  0.00     0.133 A 
ATOM      7  C   UNL     1      31.114   8.013   9.482  1.00  0.00     0.076 A 
ATOM      8  C   UNL     1      33.159   9.323   9.502  1.00  0.00     0.063 A 
ATOM      9  N   UNL     1      29.785   7.890   9.725  1.00  0.00    -0.255 NA
ATOM     10  C   UNL     1      31.810   6.946   8.904  1.00  0.00     0.079 A 
ATOM     11  C   UNL     1      33.865   8.237   8.949  1.00  0.00     0.161 A 
BRANCH   3  12
ATOM     12  N   UNL     1      31.658  11.548  10.673  1.00  0.00    -0.353 N 
ATOM     13  H   UNL     1      32.208  11.593  11.559  1.00  0.00     0.167 HD
BRANCH  12  14
ATOM     14  C   UNL     1      31.692  12.676   9.776  1.00  0.00     0.061 A 
ATOM     15  C   UNL     1      32.039  13.601   7.533  1.00  0.00     0.139 A 
ATOM     16  C   UNL     1      32.035  12.506   8.420  1.00  0.00     0.075 A 
ATOM     17  C   UNL     1      31.710  14.873   8.018  1.00  0.00     0.084 A 
ATOM     18  C   UNL     1      31.382  15.051   9.365  1.00  0.00     0.047 A 
ATOM     19  Cl  UNL     1      31.697  16.265   6.945  1.00  0.00    -0.080 Cl
ATOM     20  C   UNL     1      31.371  13.967  10.243  1.00  0.00     0.066 A 
ATOM     21  Cl  UNL     1      30.906  14.252  11.918  1.00  0.00    -0.082 Cl
BRANCH  15  22
ATOM     22  O   UNL     1      32.357  13.459   6.172  1.00  0.00    -0.495 OA
ATOM     23  C   UNL     1      33.396  12.624   5.667  1.00  0.00     0.278 C 
ENDBRANCH  15  22
ENDBRANCH  12  14
ENDBRANCH   3  12
BRANCH   4  24
ATOM     24  C   UNL     1      28.858  11.176  11.135  1.00  0.00     0.103 C 
ATOM     25  N   UNL     1      28.215  12.026  11.584  1.00  0.00    -0.192 NA
ENDBRANCH   4  24
BRANCH  11  26
ATOM     26  O   UNL     1      35.241   8.302   8.683  1.00  0.00    -0.493 OA
ATOM     27  C   UNL     1      36.121   9.302   9.192  1.00  0.00     0.278 C 
ENDBRANCH  11  26
ENDBRANCH   1   2
BRANCH   1  28
ATOM     28  C   UNL     1      33.498   4.621   8.164  1.00  0.00     0.231 C 
BRANCH  28  29
ATOM     29  C   UNL     1      34.610   3.728   7.617  1.00  0.00     0.057 C 
BRANCH  29  30
ATOM     30  C   UNL     1      35.749   4.564   7.012  1.00  0.00     0.088 C 
BRANCH  30  31
ATOM     31  N   UNL     1      35.856   4.316   5.556  1.00  0.00    -0.301 NA
ATOM     32  C   UNL     1      35.098   5.335   4.801  1.00  0.00     0.100 C 
ATOM     33  C   UNL     1      35.358   2.964   5.214  1.00  0.00     0.100 C 
ATOM     34  C   UNL     1      35.216   5.080   3.294  1.00  0.00     0.099 C 
ATOM     35  C   UNL     1      35.488   2.714   3.709  1.00  0.00     0.099 C 
ATOM     36  N   UNL     1      34.719   3.730   2.967  1.00  0.00    -0.304 NA
ATOM     37  C   UNL     1      34.823   3.485   1.521  1.00  0.00     0.105 C 
ENDBRANCH  30  31
ENDBRANCH  29  30
ENDBRANCH  28  29
ENDBRANCH   1  28
TORSDOF 10
ENDMDL
MODEL 13
REMARK VINA RESULT:    -8.316      3.174      5.332
REMARK INTER + INTRA:         -13.211
REMARK INTER:                 -12.579
REMARK INTRA:                  -0.632
REMARK UNBOUND:                -0.034
REMARK SMILES COc1cc(Nc2c(C#N)cnc3cc(OCCCN4CCN(C)CC4)c(OC)cc23)c(Cl)cc1Cl
REMARK SMILES IDX 16 1 15 2 7 3 8 4 31 5 11 6 13 7 30 8 12 9 14 10 27 11 6 12
REMARK SMILES IDX 5 14 3 15 4 16 35 17 34 18 36 19 32 20 33 21 2 22 1 23 9 24
REMARK SMILES IDX 10 25 28 26 29 27 17 28 18 29 19 30 20 31 21 32 26 33 22 34
REMARK SMILES IDX 25 35 23 36 24 37
REMARK H PARENT 6 13
REMARK Flexibility Score: inf
ROOT
ATOM      1  O   UNL     1      34.892   6.050   6.233  1.00  0.00    -0.490 OA
ENDROOT
BRANCH   1   2
ATOM      2  C   UNL     1      34.448   7.026   7.136  1.00  0.00     0.163 A 
ATOM      3  C   UNL     1      33.034   9.975   9.838  1.00  0.00     0.068 A 
ATOM      4  C   UNL     1      33.705  11.214   9.872  1.00  0.00     0.094 A 
ATOM      5  C   UNL     1      33.479   8.974   8.938  1.00  0.00     0.029 A 
ATOM      6  C   UNL     1      34.778  11.443   9.006  1.00  0.00     0.133 A 
ATOM      7  C   UNL     1      34.574   9.260   8.092  1.00  0.00     0.076 A 
ATOM      8  C   UNL     1      32.884   7.699   8.869  1.00  0.00     0.063 A 
ATOM      9  N   UNL     1      35.183  10.472   8.150  1.00  0.00    -0.255 NA
ATOM     10  C   UNL     1      35.054   8.291   7.206  1.00  0.00     0.079 A 
ATOM     11  C   UNL     1      33.350   6.734   7.956  1.00  0.00     0.161 A 
BRANCH   3  12
ATOM     12  N   UNL     1      31.934   9.743  10.739  1.00  0.00    -0.353 N 
ATOM     13  H   UNL     1      32.172   9.402  11.697  1.00  0.00     0.167 HD
BRANCH  12  14
ATOM     14  C   UNL     1      30.568  10.103  10.450  1.00  0.00     0.061 A 
ATOM     15  C   UNL     1      28.801  11.793  10.298  1.00  0.00     0.139 A 
ATOM     16  C   UNL     1      30.126  11.431  10.610  1.00  0.00     0.075 A 
ATOM     17  C   UNL     1      27.915  10.811   9.837  1.00  0.00     0.084 A 
ATOM     18  C   UNL     1      28.343   9.489   9.690  1.00  0.00     0.047 A 
ATOM     19  Cl  UNL     1      26.254  11.220   9.432  1.00  0.00    -0.080 Cl
ATOM     20  C   UNL     1      29.658   9.129   9.992  1.00  0.00     0.066 A 
ATOM     21  Cl  UNL     1      30.145   7.455   9.743  1.00  0.00    -0.082 Cl
BRANCH  15  22
ATOM     22  O   UNL     1      28.336  13.113  10.427  1.00  0.00    -0.495 OA
ATOM     23  C   UNL     1      29.147  14.222  10.803  1.00  0.00     0.278 C 
ENDBRANCH  15  22
ENDBRANCH  12  14
ENDBRANCH   3  12
BRANCH   4  24
ATOM     24  C   UNL     1      33.298  12.258  10.778  1.00  0.00     0.103 C 
ATOM     25  N   UNL     1      32.971  13.095  11.506  1.00  0.00    -0.192 NA
ENDBRANCH   4  24
BRANCH  11  26
ATOM     26  O   UNL     1      32.756   5.467   7.844  1.00  0.00    -0.493 OA
ATOM     27  C   UNL     1      33.158   4.314   8.579  1.00  0.00     0.278 C 
ENDBRANCH  11  26
ENDBRANCH   1   2
BRANCH   1  28
ATOM     28  C   UNL     1      36.062   6.184   5.426  1.00  0.00     0.231 C 
BRANCH  28  29
ATOM     29  C   UNL     1      36.327   4.867   4.699  1.00  0.00     0.057 C 
BRANCH  29  30
ATOM     30  C   UNL     1      35.322   3.784   5.124  1.00  0.00     0.088 C 
BRANCH  30  31
ATOM     31  N   UNL     1      34.981   2.915   3.974  1.00  0.00    -0.301 NA
ATOM     32  C   UNL     1      35.701   1.628   4.069  1.00  0.00     0.100 C 
ATOM     33  C   UNL     1      35.311   3.581   2.694  1.00  0.00     0.100 C 
ATOM     34  C   UNL     1      35.341   0.727   2.882  1.00  0.00     0.099 C 
ATOM     35  C   UNL     1      34.940   2.680   1.514  1.00  0.00     0.099 C 
ATOM     36  N   UNL     1      35.672   1.403   1.613  1.00  0.00    -0.304 NA
ATOM     37  C   UNL     1      35.334   0.539   0.473  1.00  0.00     0.105 C 
ENDBRANCH  30  31
ENDBRANCH  29  30
ENDBRANCH  28  29
ENDBRANCH   1  28
TORSDOF 10
ENDMDL
MODEL 14
REMARK VINA RESULT:    -8.315      3.363      5.282
REMARK INTER + INTRA:         -13.210
REMARK INTER:                 -11.860
REMARK INTRA:                  -1.350
REMARK UNBOUND:                -0.034
REMARK SMILES COc1cc(Nc2c(C#N)cnc3cc(OCCCN4CCN(C)CC4)c(OC)cc23)c(Cl)cc1Cl
REMARK SMILES IDX 16 1 15 2 7 3 8 4 31 5 11 6 13 7 30 8 12 9 14 10 27 11 6 12
REMARK SMILES IDX 5 14 3 15 4 16 35 17 34 18 36 19 32 20 33 21 2 22 1 23 9 24
REMARK SMILES IDX 10 25 28 26 29 27 17 28 18 29 19 30 20 31 21 32 26 33 22 34
REMARK SMILES IDX 25 35 23 36 24 37
REMARK H PARENT 6 13
REMARK Flexibility Score: inf
ROOT
ATOM      1  O   UNL     1      33.110   6.742   8.862  1.00  0.00    -0.490 OA
ENDROOT
BRANCH   1   2
ATOM      2  C   UNL     1      32.167   7.772   8.989  1.00  0.00     0.163 A 
ATOM      3  C   UNL     1      29.362  10.927   9.413  1.00  0.00     0.068 A 
ATOM      4  C   UNL     1      28.091  10.611   9.932  1.00  0.00     0.094 A 
ATOM      5  C   UNL     1      30.323   9.894   9.269  1.00  0.00     0.029 A 
ATOM      6  C   UNL     1      27.806   9.298  10.316  1.00  0.00     0.133 A 
ATOM      7  C   UNL     1      29.975   8.583   9.667  1.00  0.00     0.076 A 
ATOM      8  C   UNL     1      31.602  10.120   8.725  1.00  0.00     0.063 A 
ATOM      9  N   UNL     1      28.743   8.328  10.174  1.00  0.00    -0.255 NA
ATOM     10  C   UNL     1      30.890   7.535   9.521  1.00  0.00     0.079 A 
ATOM     11  C   UNL     1      32.532   9.069   8.606  1.00  0.00     0.161 A 
BRANCH   3  12
ATOM     12  N   UNL     1      29.646  12.280   9.010  1.00  0.00    -0.353 N 
ATOM     13  H   UNL     1      29.086  12.665   8.217  1.00  0.00     0.167 HD
BRANCH  12  14
ATOM     14  C   UNL     1      30.525  13.166   9.733  1.00  0.00     0.061 A 
ATOM     15  C   UNL     1      31.179  14.282  11.814  1.00  0.00     0.139 A 
ATOM     16  C   UNL     1      30.304  13.442  11.096  1.00  0.00     0.075 A 
ATOM     17  C   UNL     1      32.271  14.856  11.151  1.00  0.00     0.084 A 
ATOM     18  C   UNL     1      32.488  14.597   9.795  1.00  0.00     0.047 A 
ATOM     19  Cl  UNL     1      33.391  15.905  12.010  1.00  0.00    -0.080 Cl
ATOM     20  C   UNL     1      31.627  13.760   9.084  1.00  0.00     0.066 A 
ATOM     21  Cl  UNL     1      31.981  13.441   7.389  1.00  0.00    -0.082 Cl
BRANCH  15  22
ATOM     22  O   UNL     1      30.997  14.560  13.179  1.00  0.00    -0.495 OA
ATOM     23  C   UNL     1      30.328  15.711  13.687  1.00  0.00     0.278 C 
ENDBRANCH  15  22
ENDBRANCH  12  14
ENDBRANCH   3  12
BRANCH   4  24
ATOM     24  C   UNL     1      27.077  11.624  10.085  1.00  0.00     0.103 C 
ATOM     25  N   UNL     1      26.263  12.437  10.209  1.00  0.00    -0.192 NA
ENDBRANCH   4  24
BRANCH  11  26
ATOM     26  O   UNL     1      33.824   9.273   8.097  1.00  0.00    -0.493 OA
ATOM     27  C   UNL     1      34.996   9.429   8.894  1.00  0.00     0.278 C 
ENDBRANCH  11  26
ENDBRANCH   1   2
BRANCH   1  28
ATOM     28  C   UNL     1      32.782   5.400   8.504  1.00  0.00     0.231 C 
BRANCH  28  29
ATOM     29  C   UNL     1      33.951   4.783   7.738  1.00  0.00     0.057 C 
BRANCH  29  30
ATOM     30  C   UNL     1      34.529   5.771   6.713  1.00  0.00     0.088 C 
BRANCH  30  31
ATOM     31  N   UNL     1      34.588   5.149   5.370  1.00  0.00    -0.301 NA
ATOM     32  C   UNL     1      35.226   3.819   5.444  1.00  0.00     0.100 C 
ATOM     33  C   UNL     1      35.331   6.011   4.422  1.00  0.00     0.100 C 
ATOM     34  C   UNL     1      35.280   3.174   4.055  1.00  0.00     0.099 C 
ATOM     35  C   UNL     1      35.371   5.365   3.035  1.00  0.00     0.099 C 
ATOM     36  N   UNL     1      36.020   4.043   3.120  1.00  0.00    -0.304 NA
ATOM     37  C   UNL     1      36.079   3.424   1.787  1.00  0.00     0.105 C 
ENDBRANCH  30  31
ENDBRANCH  29  30
ENDBRANCH  28  29
ENDBRANCH   1  28
TORSDOF 10
ENDMDL
MODEL 15
REMARK VINA RESULT:    -8.236      4.921      9.887
REMARK INTER + INTRA:         -13.085
REMARK INTER:                 -12.089
REMARK INTRA:                  -0.996
REMARK UNBOUND:                -0.034
REMARK SMILES COc1cc(Nc2c(C#N)cnc3cc(OCCCN4CCN(C)CC4)c(OC)cc23)c(Cl)cc1Cl
REMARK SMILES IDX 16 1 15 2 7 3 8 4 31 5 11 6 13 7 30 8 12 9 14 10 27 11 6 12
REMARK SMILES IDX 5 14 3 15 4 16 35 17 34 18 36 19 32 20 33 21 2 22 1 23 9 24
REMARK SMILES IDX 10 25 28 26 29 27 17 28 18 29 19 30 20 31 21 32 26 33 22 34
REMARK SMILES IDX 25 35 23 36 24 37
REMARK H PARENT 6 13
REMARK Flexibility Score: inf
ROOT
ATOM      1  O   UNL     1      26.654  16.013  11.101  1.00  0.00    -0.490 OA
ENDROOT
BRANCH   1   2
ATOM      2  C   UNL     1      26.765  14.623  10.956  1.00  0.00     0.163 A 
ATOM      3  C   UNL     1      27.147  10.427  10.459  1.00  0.00     0.068 A 
ATOM      4  C   UNL     1      25.967   9.671  10.315  1.00  0.00     0.094 A 
ATOM      5  C   UNL     1      27.050  11.833  10.617  1.00  0.00     0.029 A 
ATOM      6  C   UNL     1      24.728  10.318  10.306  1.00  0.00     0.133 A 
ATOM      7  C   UNL     1      25.770  12.430  10.609  1.00  0.00     0.076 A 
ATOM      8  C   UNL     1      28.180  12.653  10.804  1.00  0.00     0.063 A 
ATOM      9  N   UNL     1      24.660  11.664  10.453  1.00  0.00    -0.255 NA
ATOM     10  C   UNL     1      25.633  13.811  10.783  1.00  0.00     0.079 A 
ATOM     11  C   UNL     1      28.043  14.047  10.950  1.00  0.00     0.161 A 
BRANCH   3  12
ATOM     12  N   UNL     1      28.420   9.754  10.476  1.00  0.00    -0.353 N 
ATOM     13  H   UNL     1      28.427   8.764  10.810  1.00  0.00     0.167 HD
BRANCH  12  14
ATOM     14  C   UNL     1      29.629  10.306   9.916  1.00  0.00     0.061 A 
ATOM     15  C   UNL     1      31.846  11.307  10.212  1.00  0.00     0.139 A 
ATOM     16  C   UNL     1      30.650  10.796  10.754  1.00  0.00     0.075 A 
ATOM     17  C   UNL     1      32.006  11.337   8.821  1.00  0.00     0.084 A 
ATOM     18  C   UNL     1      30.991  10.866   7.984  1.00  0.00     0.047 A 
ATOM     19  Cl  UNL     1      33.484  11.962   8.102  1.00  0.00    -0.080 Cl
ATOM     20  C   UNL     1      29.809  10.352   8.519  1.00  0.00     0.066 A 
ATOM     21  Cl  UNL     1      28.588   9.735   7.410  1.00  0.00    -0.082 Cl
BRANCH  15  22
ATOM     22  O   UNL     1      32.890  11.784  11.021  1.00  0.00    -0.495 OA
ATOM     23  C   UNL     1      33.999  11.000  11.455  1.00  0.00     0.278 C 
ENDBRANCH  15  22
ENDBRANCH  12  14
ENDBRANCH   3  12
BRANCH   4  24
ATOM     24  C   UNL     1      26.013   8.239  10.163  1.00  0.00     0.103 C 
ATOM     25  N   UNL     1      26.050   7.089  10.041  1.00  0.00    -0.192 NA
ENDBRANCH   4  24
BRANCH  11  26
ATOM     26  O   UNL     1      29.153  14.892  11.105  1.00  0.00    -0.493 OA
ATOM     27  C   UNL     1      30.408  14.712  10.454  1.00  0.00     0.278 C 
ENDBRANCH  11  26
ENDBRANCH   1   2
BRANCH   1  28
ATOM     28  C   UNL     1      26.081  16.653  12.241  1.00  0.00     0.231 C 
BRANCH  28  29
ATOM     29  C   UNL     1      27.089  17.639  12.827  1.00  0.00     0.057 C 
BRANCH  29  30
ATOM     30  C   UNL     1      28.048  18.164  11.746  1.00  0.00     0.088 C 
BRANCH  30  31
ATOM     31  N   UNL     1      29.380  18.446  12.328  1.00  0.00    -0.301 NA
ATOM     32  C   UNL     1      30.416  18.436  11.275  1.00  0.00     0.100 C 
ATOM     33  C   UNL     1      29.718  17.454  13.374  1.00  0.00     0.100 C 
ATOM     34  C   UNL     1      31.793  18.734  11.878  1.00  0.00     0.099 C 
ATOM     35  C   UNL     1      31.090  17.764  13.979  1.00  0.00     0.099 C 
ATOM     36  N   UNL     1      32.117  17.741  12.920  1.00  0.00    -0.304 NA
ATOM     37  C   UNL     1      33.441  18.020  13.496  1.00  0.00     0.105 C 
ENDBRANCH  30  31
ENDBRANCH  29  30
ENDBRANCH  28  29
ENDBRANCH   1  28
TORSDOF 10
ENDMDL
