MODEL 1
REMARK VINA RESULT:    -7.577      0.000      0.000
REMARK INTER + INTRA:         -11.789
REMARK INTER:                 -11.342
REMARK INTRA:                  -0.447
REMARK UNBOUND:                -0.447
REMARK SMILES O=C(O)COCCN1CCN([C@H](c2ccccc2)c2ccc(Cl)cc2)CC1
REMARK SMILES IDX 6 1 5 2 4 3 2 4 1 5 3 6 7 8 8 9 9 10 27 11 10 12 26 13 11 14
REMARK SMILES IDX 12 15 13 16 14 17 18 18 15 19 17 20 16 21 19 22 20 23 25 24
REMARK SMILES IDX 21 25 24 26 22 27 23 28
REMARK H PARENT 3 7
REMARK Flexibility Score: inf
ROOT
ATOM      1  C   UNL     1      25.600   8.885   9.981  1.00  0.00     0.176 C 
ENDROOT
BRANCH   1   2
ATOM      2  O   UNL     1      24.312   9.133  10.517  1.00  0.00    -0.368 OA
BRANCH   2   3
ATOM      3  C   UNL     1      23.975  10.505  10.434  1.00  0.00     0.282 C 
BRANCH   3   4
ATOM      4  C   UNL     1      23.196  10.923  11.641  1.00  0.00     0.329 C 
ATOM      5  O   UNL     1      23.408  12.048  12.169  1.00  0.00    -0.250 OA
BRANCH   4   6
ATOM      6  O   UNL     1      22.223  10.079  12.166  1.00  0.00    -0.480 OA
ATOM      7  H   UNL     1      21.314   9.996  11.727  1.00  0.00     0.296 HD
ENDBRANCH   4   6
ENDBRANCH   3   4
ENDBRANCH   2   3
ENDBRANCH   1   2
BRANCH   1   8
ATOM      8  C   UNL     1      26.470  10.149  10.041  1.00  0.00     0.113 C 
BRANCH   8   9
ATOM      9  N   UNL     1      27.463  10.188   8.944  1.00  0.00    -0.299 NA
ATOM     10  C   UNL     1      28.315   8.973   8.935  1.00  0.00     0.100 C 
ATOM     11  C   UNL     1      28.251  11.445   8.970  1.00  0.00     0.100 C 
ATOM     12  C   UNL     1      29.652   9.221   8.219  1.00  0.00     0.101 C 
ATOM     13  C   UNL     1      29.625  11.253   9.628  1.00  0.00     0.101 C 
ATOM     14  N   UNL     1      30.466  10.282   8.878  1.00  0.00    -0.290 NA
BRANCH  14  15
ATOM     15  C   UNL     1      31.549   9.711   9.731  1.00  0.00     0.117 C 
BRANCH  15  16
ATOM     16  C   UNL     1      32.622  10.736  10.067  1.00  0.00    -0.026 A 
ATOM     17  C   UNL     1      32.898  11.810   9.199  1.00  0.00     0.006 A 
ATOM     18  C   UNL     1      33.389  10.592  11.238  1.00  0.00     0.006 A 
ATOM     19  C   UNL     1      33.906  12.727   9.508  1.00  0.00     0.000 A 
ATOM     20  C   UNL     1      34.396  11.512  11.541  1.00  0.00     0.000 A 
ATOM     21  C   UNL     1      34.654  12.580  10.679  1.00  0.00     0.000 A 
ENDBRANCH  15  16
BRANCH  15  22
ATOM     22  C   UNL     1      32.237   8.529   9.064  1.00  0.00    -0.026 A 
ATOM     23  C   UNL     1      33.381   8.704   8.263  1.00  0.00     0.007 A 
ATOM     24  C   UNL     1      31.765   7.227   9.300  1.00  0.00     0.007 A 
ATOM     25  C   UNL     1      34.020   7.600   7.690  1.00  0.00     0.021 A 
ATOM     26  C   UNL     1      32.406   6.125   8.726  1.00  0.00     0.021 A 
ATOM     27  C   UNL     1      33.533   6.311   7.919  1.00  0.00     0.041 A 
ATOM     28  Cl  UNL     1      34.337   4.928   7.201  1.00  0.00    -0.084 Cl
ENDBRANCH  15  22
ENDBRANCH  14  15
ENDBRANCH   8   9
ENDBRANCH   1   8
TORSDOF 9
ENDMDL
MODEL 2
REMARK VINA RESULT:    -7.558      4.149      7.681
REMARK INTER + INTRA:         -11.760
REMARK INTER:                 -12.030
REMARK INTRA:                   0.270
REMARK UNBOUND:                -0.447
REMARK SMILES O=C(O)COCCN1CCN([C@H](c2ccccc2)c2ccc(Cl)cc2)CC1
REMARK SMILES IDX 6 1 5 2 4 3 2 4 1 5 3 6 7 8 8 9 9 10 27 11 10 12 26 13 11 14
REMARK SMILES IDX 12 15 13 16 14 17 18 18 15 19 17 20 16 21 19 22 20 23 25 24
REMARK SMILES IDX 21 25 24 26 22 27 23 28
REMARK H PARENT 3 7
REMARK Flexibility Score: inf
ROOT
ATOM      1  C   UNL     1      31.682  14.948  11.027  1.00  0.00     0.176 C 
ENDROOT
BRANCH   1   2
ATOM      2  O   UNL     1      32.348  13.847  11.621  1.00  0.00    -0.368 OA
BRANCH   2   3
ATOM      3  C   UNL     1      33.310  13.294  10.744  1.00  0.00     0.282 C 
BRANCH   3   4
ATOM      4  C   UNL     1      34.515  12.846  11.509  1.00  0.00     0.329 C 
ATOM      5  O   UNL     1      34.601  13.085  12.744  1.00  0.00    -0.250 OA
BRANCH   4   6
ATOM      6  O   UNL     1      35.529  12.148  10.862  1.00  0.00    -0.480 OA
ATOM      7  H   UNL     1      36.498  12.273  11.128  1.00  0.00     0.296 HD
ENDBRANCH   4   6
ENDBRANCH   3   4
ENDBRANCH   2   3
ENDBRANCH   1   2
BRANCH   1   8
ATOM      8  C   UNL     1      30.408  14.489  10.302  1.00  0.00     0.113 C 
BRANCH   8   9
ATOM      9  N   UNL     1      29.462  13.816  11.220  1.00  0.00    -0.299 NA
ATOM     10  C   UNL     1      29.538  12.339  11.097  1.00  0.00     0.100 C 
ATOM     11  C   UNL     1      28.082  14.338  11.054  1.00  0.00     0.100 C 
ATOM     12  C   UNL     1      28.247  11.661  11.581  1.00  0.00     0.101 C 
ATOM     13  C   UNL     1      27.217  13.419  10.180  1.00  0.00     0.101 C 
ATOM     14  N   UNL     1      27.053  12.071  10.789  1.00  0.00    -0.290 NA
BRANCH  14  15
ATOM     15  C   UNL     1      26.673  11.046   9.774  1.00  0.00     0.117 C 
BRANCH  15  16
ATOM     16  C   UNL     1      25.423  10.274  10.170  1.00  0.00    -0.026 A 
ATOM     17  C   UNL     1      25.230   8.942   9.755  1.00  0.00     0.006 A 
ATOM     18  C   UNL     1      24.416  10.905  10.922  1.00  0.00     0.006 A 
ATOM     19  C   UNL     1      24.064   8.255  10.103  1.00  0.00     0.000 A 
ATOM     20  C   UNL     1      23.251  10.214  11.267  1.00  0.00     0.000 A 
ATOM     21  C   UNL     1      23.076   8.890  10.860  1.00  0.00     0.000 A 
ENDBRANCH  15  16
BRANCH  15  22
ATOM     22  C   UNL     1      27.784  10.032   9.542  1.00  0.00    -0.026 A 
ATOM     23  C   UNL     1      28.602  10.091   8.399  1.00  0.00     0.007 A 
ATOM     24  C   UNL     1      28.045   9.054  10.517  1.00  0.00     0.007 A 
ATOM     25  C   UNL     1      29.642   9.172   8.224  1.00  0.00     0.021 A 
ATOM     26  C   UNL     1      29.086   8.138  10.340  1.00  0.00     0.021 A 
ATOM     27  C   UNL     1      29.883   8.194   9.193  1.00  0.00     0.041 A 
ATOM     28  Cl  UNL     1      31.189   7.044   8.973  1.00  0.00    -0.084 Cl
ENDBRANCH  15  22
ENDBRANCH  14  15
ENDBRANCH   8   9
ENDBRANCH   1   8
TORSDOF 9
ENDMDL
MODEL 3
REMARK VINA RESULT:    -7.505      4.317      7.413
REMARK INTER + INTRA:         -11.682
REMARK INTER:                 -11.313
REMARK INTRA:                  -0.369
REMARK UNBOUND:                -0.447
REMARK SMILES O=C(O)COCCN1CCN([C@H](c2ccccc2)c2ccc(Cl)cc2)CC1
REMARK SMILES IDX 6 1 5 2 4 3 2 4 1 5 3 6 7 8 8 9 9 10 27 11 10 12 26 13 11 14
REMARK SMILES IDX 12 15 13 16 14 17 18 18 15 19 17 20 16 21 19 22 20 23 25 24
REMARK SMILES IDX 21 25 24 26 22 27 23 28
REMARK H PARENT 3 7
REMARK Flexibility Score: inf
ROOT
ATOM      1  C   UNL     1      30.993  16.468  10.568  1.00  0.00     0.176 C 
ENDROOT
BRANCH   1   2
ATOM      2  O   UNL     1      30.676  17.144  11.772  1.00  0.00    -0.368 OA
BRANCH   2   3
ATOM      3  C   UNL     1      31.618  16.858  12.787  1.00  0.00     0.282 C 
BRANCH   3   4
ATOM      4  C   UNL     1      30.972  16.082  13.892  1.00  0.00     0.329 C 
ATOM      5  O   UNL     1      30.607  16.671  14.945  1.00  0.00    -0.250 OA
BRANCH   4   6
ATOM      6  O   UNL     1      30.756  14.716  13.747  1.00  0.00    -0.480 OA
ATOM      7  H   UNL     1      30.221  14.354  12.966  1.00  0.00     0.296 HD
ENDBRANCH   4   6
ENDBRANCH   3   4
ENDBRANCH   2   3
ENDBRANCH   1   2
BRANCH   1   8
ATOM      8  C   UNL     1      29.774  15.701  10.034  1.00  0.00     0.113 C 
BRANCH   8   9
ATOM      9  N   UNL     1      29.238  14.751  11.035  1.00  0.00    -0.299 NA
ATOM     10  C   UNL     1      29.611  13.351  10.714  1.00  0.00     0.100 C 
ATOM     11  C   UNL     1      27.777  14.930  11.225  1.00  0.00     0.100 C 
ATOM     12  C   UNL     1      28.650  12.343  11.363  1.00  0.00     0.101 C 
ATOM     13  C   UNL     1      26.960  13.894  10.438  1.00  0.00     0.101 C 
ATOM     14  N   UNL     1      27.244  12.506  10.893  1.00  0.00    -0.290 NA
BRANCH  14  15
ATOM     15  C   UNL     1      26.878  11.498   9.857  1.00  0.00     0.117 C 
BRANCH  15  16
ATOM     16  C   UNL     1      25.581  10.774  10.187  1.00  0.00    -0.026 A 
ATOM     17  C   UNL     1      24.556  11.413  10.911  1.00  0.00     0.006 A 
ATOM     18  C   UNL     1      25.411   9.429   9.809  1.00  0.00     0.006 A 
ATOM     19  C   UNL     1      23.382  10.726  11.231  1.00  0.00     0.000 A 
ATOM     20  C   UNL     1      24.235   8.747  10.133  1.00  0.00     0.000 A 
ATOM     21  C   UNL     1      23.220   9.395  10.841  1.00  0.00     0.000 A 
ENDBRANCH  15  16
BRANCH  15  22
ATOM     22  C   UNL     1      27.960  10.442   9.680  1.00  0.00    -0.026 A 
ATOM     23  C   UNL     1      28.247   9.510  10.695  1.00  0.00     0.007 A 
ATOM     24  C   UNL     1      28.647  10.349   8.457  1.00  0.00     0.007 A 
ATOM     25  C   UNL     1      29.219   8.525  10.498  1.00  0.00     0.021 A 
ATOM     26  C   UNL     1      29.618   9.363   8.263  1.00  0.00     0.021 A 
ATOM     27  C   UNL     1      29.906   8.451   9.283  1.00  0.00     0.041 A 
ATOM     28  Cl  UNL     1      31.124   7.213   9.037  1.00  0.00    -0.084 Cl
ENDBRANCH  15  22
ENDBRANCH  14  15
ENDBRANCH   8   9
ENDBRANCH   1   8
TORSDOF 9
ENDMDL
MODEL 4
REMARK VINA RESULT:    -7.495      4.460      7.540
REMARK INTER + INTRA:         -11.666
REMARK INTER:                 -11.385
REMARK INTRA:                  -0.281
REMARK UNBOUND:                -0.447
REMARK SMILES O=C(O)COCCN1CCN([C@H](c2ccccc2)c2ccc(Cl)cc2)CC1
REMARK SMILES IDX 6 1 5 2 4 3 2 4 1 5 3 6 7 8 8 9 9 10 27 11 10 12 26 13 11 14
REMARK SMILES IDX 12 15 13 16 14 17 18 18 15 19 17 20 16 21 19 22 20 23 25 24
REMARK SMILES IDX 21 25 24 26 22 27 23 28
REMARK H PARENT 3 7
REMARK Flexibility Score: inf
ROOT
ATOM      1  C   UNL     1      27.872  17.563  10.491  1.00  0.00     0.176 C 
ENDROOT
BRANCH   1   2
ATOM      2  O   UNL     1      26.961  18.433  11.140  1.00  0.00    -0.368 OA
BRANCH   2   3
ATOM      3  C   UNL     1      25.952  18.876  10.253  1.00  0.00     0.282 C 
BRANCH   3   4
ATOM      4  C   UNL     1      24.627  18.906  10.948  1.00  0.00     0.329 C 
ATOM      5  O   UNL     1      23.776  19.785  10.643  1.00  0.00    -0.250 OA
BRANCH   4   6
ATOM      6  O   UNL     1      24.327  17.950  11.913  1.00  0.00    -0.480 OA
ATOM      7  H   UNL     1      24.832  17.921  12.791  1.00  0.00     0.296 HD
ENDBRANCH   4   6
ENDBRANCH   3   4
ENDBRANCH   2   3
ENDBRANCH   1   2
BRANCH   1   8
ATOM      8  C   UNL     1      27.159  16.297   9.994  1.00  0.00     0.113 C 
BRANCH   8   9
ATOM      9  N   UNL     1      27.247  15.193  10.976  1.00  0.00    -0.299 NA
ATOM     10  C   UNL     1      27.976  14.025  10.420  1.00  0.00     0.100 C 
ATOM     11  C   UNL     1      25.910  14.836  11.513  1.00  0.00     0.100 C 
ATOM     12  C   UNL     1      27.609  12.725  11.153  1.00  0.00     0.101 C 
ATOM     13  C   UNL     1      25.320  13.599  10.820  1.00  0.00     0.101 C 
ATOM     14  N   UNL     1      26.160  12.391  11.036  1.00  0.00    -0.290 NA
BRANCH  14  15
ATOM     15  C   UNL     1      25.906  11.346  10.003  1.00  0.00     0.117 C 
BRANCH  15  16
ATOM     16  C   UNL     1      24.794  10.389  10.408  1.00  0.00    -0.026 A 
ATOM     17  C   UNL     1      24.698   9.105   9.838  1.00  0.00     0.006 A 
ATOM     18  C   UNL     1      23.814  10.800  11.330  1.00  0.00     0.006 A 
ATOM     19  C   UNL     1      23.655   8.247  10.199  1.00  0.00     0.000 A 
ATOM     20  C   UNL     1      22.773   9.938  11.687  1.00  0.00     0.000 A 
ATOM     21  C   UNL     1      22.694   8.663  11.124  1.00  0.00     0.000 A 
ENDBRANCH  15  16
BRANCH  15  22
ATOM     22  C   UNL     1      27.147  10.512   9.717  1.00  0.00    -0.026 A 
ATOM     23  C   UNL     1      27.664   9.616  10.672  1.00  0.00     0.007 A 
ATOM     24  C   UNL     1      27.756  10.585   8.452  1.00  0.00     0.007 A 
ATOM     25  C   UNL     1      28.783   8.833  10.374  1.00  0.00     0.021 A 
ATOM     26  C   UNL     1      28.874   9.799   8.158  1.00  0.00     0.021 A 
ATOM     27  C   UNL     1      29.390   8.925   9.119  1.00  0.00     0.041 A 
ATOM     28  Cl  UNL     1      30.792   7.939   8.747  1.00  0.00    -0.084 Cl
ENDBRANCH  15  22
ENDBRANCH  14  15
ENDBRANCH   8   9
ENDBRANCH   1   8
TORSDOF 9
ENDMDL
MODEL 5
REMARK VINA RESULT:    -7.383      4.785      7.564
REMARK INTER + INTRA:         -11.499
REMARK INTER:                 -12.108
REMARK INTRA:                   0.610
REMARK UNBOUND:                -0.447
REMARK SMILES O=C(O)COCCN1CCN([C@H](c2ccccc2)c2ccc(Cl)cc2)CC1
REMARK SMILES IDX 6 1 5 2 4 3 2 4 1 5 3 6 7 8 8 9 9 10 27 11 10 12 26 13 11 14
REMARK SMILES IDX 12 15 13 16 14 17 18 18 15 19 17 20 16 21 19 22 20 23 25 24
REMARK SMILES IDX 21 25 24 26 22 27 23 28
REMARK H PARENT 3 7
REMARK Flexibility Score: inf
ROOT
ATOM      1  C   UNL     1      31.656  13.469  11.154  1.00  0.00     0.176 C 
ENDROOT
BRANCH   1   2
ATOM      2  O   UNL     1      31.382  14.814  11.508  1.00  0.00    -0.368 OA
BRANCH   2   3
ATOM      3  C   UNL     1      30.338  14.893  12.459  1.00  0.00     0.282 C 
BRANCH   3   4
ATOM      4  C   UNL     1      30.784  15.675  13.655  1.00  0.00     0.329 C 
ATOM      5  O   UNL     1      31.507  16.696  13.506  1.00  0.00    -0.250 OA
BRANCH   4   6
ATOM      6  O   UNL     1      30.380  15.286  14.928  1.00  0.00    -0.480 OA
ATOM      7  H   UNL     1      30.988  15.415  15.728  1.00  0.00     0.296 HD
ENDBRANCH   4   6
ENDBRANCH   3   4
ENDBRANCH   2   3
ENDBRANCH   1   2
BRANCH   1   8
ATOM      8  C   UNL     1      31.166  13.168   9.730  1.00  0.00     0.113 C 
BRANCH   8   9
ATOM      9  N   UNL     1      30.800  11.744   9.561  1.00  0.00    -0.299 NA
ATOM     10  C   UNL     1      29.882  11.548   8.411  1.00  0.00     0.100 C 
ATOM     11  C   UNL     1      30.275  11.165  10.824  1.00  0.00     0.100 C 
ATOM     12  C   UNL     1      29.070  10.251   8.547  1.00  0.00     0.101 C 
ATOM     13  C   UNL     1      28.741  11.113  10.841  1.00  0.00     0.101 C 
ATOM     14  N   UNL     1      28.205  10.240   9.762  1.00  0.00    -0.290 NA
BRANCH  14  15
ATOM     15  C   UNL     1      26.784  10.561   9.443  1.00  0.00     0.117 C 
BRANCH  15  16
ATOM     16  C   UNL     1      26.297  11.811  10.162  1.00  0.00    -0.026 A 
ATOM     17  C   UNL     1      25.185  11.764  11.025  1.00  0.00     0.006 A 
ATOM     18  C   UNL     1      26.930  13.046   9.932  1.00  0.00     0.006 A 
ATOM     19  C   UNL     1      24.732  12.926  11.656  1.00  0.00     0.000 A 
ATOM     20  C   UNL     1      26.472  14.204  10.566  1.00  0.00     0.000 A 
ATOM     21  C   UNL     1      25.375  14.145  11.428  1.00  0.00     0.000 A 
ENDBRANCH  15  16
BRANCH  15  22
ATOM     22  C   UNL     1      25.845   9.423   9.815  1.00  0.00    -0.026 A 
ATOM     23  C   UNL     1      26.339   8.160  10.195  1.00  0.00     0.007 A 
ATOM     24  C   UNL     1      24.458   9.648   9.843  1.00  0.00     0.007 A 
ATOM     25  C   UNL     1      25.459   7.140  10.569  1.00  0.00     0.021 A 
ATOM     26  C   UNL     1      23.581   8.626  10.218  1.00  0.00     0.021 A 
ATOM     27  C   UNL     1      24.081   7.370  10.579  1.00  0.00     0.041 A 
ATOM     28  Cl  UNL     1      22.979   6.089  11.050  1.00  0.00    -0.084 Cl
ENDBRANCH  15  22
ENDBRANCH  14  15
ENDBRANCH   8   9
ENDBRANCH   1   8
TORSDOF 9
ENDMDL
MODEL 6
REMARK VINA RESULT:    -7.347      4.476      7.601
REMARK INTER + INTRA:         -11.445
REMARK INTER:                 -11.374
REMARK INTRA:                  -0.071
REMARK UNBOUND:                -0.447
REMARK SMILES O=C(O)COCCN1CCN([C@H](c2ccccc2)c2ccc(Cl)cc2)CC1
REMARK SMILES IDX 6 1 5 2 4 3 2 4 1 5 3 6 7 8 8 9 9 10 27 11 10 12 26 13 11 14
REMARK SMILES IDX 12 15 13 16 14 17 18 18 15 19 17 20 16 21 19 22 20 23 25 24
REMARK SMILES IDX 21 25 24 26 22 27 23 28
REMARK H PARENT 3 7
REMARK Flexibility Score: inf
ROOT
ATOM      1  C   UNL     1      28.230  17.197  10.310  1.00  0.00     0.176 C 
ENDROOT
BRANCH   1   2
ATOM      2  O   UNL     1      27.788  18.236  11.166  1.00  0.00    -0.368 OA
BRANCH   2   3
ATOM      3  C   UNL     1      28.264  18.054  12.486  1.00  0.00     0.282 C 
BRANCH   3   4
ATOM      4  C   UNL     1      27.134  18.140  13.462  1.00  0.00     0.329 C 
ATOM      5  O   UNL     1      27.093  19.084  14.297  1.00  0.00    -0.250 OA
BRANCH   4   6
ATOM      6  O   UNL     1      26.117  17.191  13.434  1.00  0.00    -0.480 OA
ATOM      7  H   UNL     1      25.981  16.599  12.623  1.00  0.00     0.296 HD
ENDBRANCH   4   6
ENDBRANCH   3   4
ENDBRANCH   2   3
ENDBRANCH   1   2
BRANCH   1   8
ATOM      8  C   UNL     1      27.102  16.189  10.046  1.00  0.00     0.113 C 
BRANCH   8   9
ATOM      9  N   UNL     1      27.123  15.071  11.015  1.00  0.00    -0.299 NA
ATOM     10  C   UNL     1      27.839  13.890  10.471  1.00  0.00     0.100 C 
ATOM     11  C   UNL     1      25.758  14.746  11.498  1.00  0.00     0.100 C 
ATOM     12  C   UNL     1      27.409  12.592  11.173  1.00  0.00     0.101 C 
ATOM     13  C   UNL     1      25.159  13.535  10.768  1.00  0.00     0.101 C 
ATOM     14  N   UNL     1      25.957  12.300  10.999  1.00  0.00    -0.290 NA
BRANCH  14  15
ATOM     15  C   UNL     1      25.712  11.276   9.943  1.00  0.00     0.117 C 
BRANCH  15  16
ATOM     16  C   UNL     1      24.624  10.287  10.338  1.00  0.00    -0.026 A 
ATOM     17  C   UNL     1      23.643  10.628  11.289  1.00  0.00     0.006 A 
ATOM     18  C   UNL     1      24.617   8.993   9.786  1.00  0.00     0.006 A 
ATOM     19  C   UNL     1      22.668   9.700  11.662  1.00  0.00     0.000 A 
ATOM     20  C   UNL     1      23.639   8.069  10.163  1.00  0.00     0.000 A 
ATOM     21  C   UNL     1      22.665   8.421  11.099  1.00  0.00     0.000 A 
ENDBRANCH  15  16
BRANCH  15  22
ATOM     22  C   UNL     1      26.965  10.475   9.623  1.00  0.00    -0.026 A 
ATOM     23  C   UNL     1      27.682  10.681   8.429  1.00  0.00     0.007 A 
ATOM     24  C   UNL     1      27.460   9.554  10.563  1.00  0.00     0.007 A 
ATOM     25  C   UNL     1      28.852   9.961   8.172  1.00  0.00     0.021 A 
ATOM     26  C   UNL     1      28.631   8.836  10.303  1.00  0.00     0.021 A 
ATOM     27  C   UNL     1      29.327   9.037   9.107  1.00  0.00     0.041 A 
ATOM     28  Cl  UNL     1      30.796   8.136   8.783  1.00  0.00    -0.084 Cl
ENDBRANCH  15  22
ENDBRANCH  14  15
ENDBRANCH   8   9
ENDBRANCH   1   8
TORSDOF 9
ENDMDL
MODEL 7
REMARK VINA RESULT:    -7.241      4.176      7.467
REMARK INTER + INTRA:         -11.287
REMARK INTER:                 -11.325
REMARK INTRA:                   0.038
REMARK UNBOUND:                -0.447
REMARK SMILES O=C(O)COCCN1CCN([C@H](c2ccccc2)c2ccc(Cl)cc2)CC1
REMARK SMILES IDX 6 1 5 2 4 3 2 4 1 5 3 6 7 8 8 9 9 10 27 11 10 12 26 13 11 14
REMARK SMILES IDX 12 15 13 16 14 17 18 18 15 19 17 20 16 21 19 22 20 23 25 24
REMARK SMILES IDX 21 25 24 26 22 27 23 28
REMARK H PARENT 3 7
REMARK Flexibility Score: inf
ROOT
ATOM      1  C   UNL     1      30.892  13.281   9.245  1.00  0.00     0.176 C 
ENDROOT
BRANCH   1   2
ATOM      2  O   UNL     1      31.889  13.831   8.400  1.00  0.00    -0.368 OA
BRANCH   2   3
ATOM      3  C   UNL     1      33.000  12.964   8.284  1.00  0.00     0.282 C 
BRANCH   3   4
ATOM      4  C   UNL     1      32.602  11.699   7.590  1.00  0.00     0.329 C 
ATOM      5  O   UNL     1      32.523  10.623   8.241  1.00  0.00    -0.250 OA
BRANCH   4   6
ATOM      6  O   UNL     1      32.299  11.718   6.233  1.00  0.00    -0.480 OA
ATOM      7  H   UNL     1      32.745  12.380   5.609  1.00  0.00     0.296 HD
ENDBRANCH   4   6
ENDBRANCH   3   4
ENDBRANCH   2   3
ENDBRANCH   1   2
BRANCH   1   8
ATOM      8  C   UNL     1      30.259  14.370  10.124  1.00  0.00     0.113 C 
BRANCH   8   9
ATOM      9  N   UNL     1      29.252  13.812  11.055  1.00  0.00    -0.299 NA
ATOM     10  C   UNL     1      29.263  12.327  11.044  1.00  0.00     0.100 C 
ATOM     11  C   UNL     1      27.905  14.381  10.801  1.00  0.00     0.100 C 
ATOM     12  C   UNL     1      27.926  11.746  11.530  1.00  0.00     0.101 C 
ATOM     13  C   UNL     1      27.027  13.438   9.966  1.00  0.00     0.101 C 
ATOM     14  N   UNL     1      26.779  12.149  10.667  1.00  0.00    -0.290 NA
BRANCH  14  15
ATOM     15  C   UNL     1      26.384  11.069   9.717  1.00  0.00     0.117 C 
BRANCH  15  16
ATOM     16  C   UNL     1      25.165  10.294  10.196  1.00  0.00    -0.026 A 
ATOM     17  C   UNL     1      24.933   8.970   9.773  1.00  0.00     0.006 A 
ATOM     18  C   UNL     1      24.223  10.914  11.037  1.00  0.00     0.006 A 
ATOM     19  C   UNL     1      23.795   8.281  10.198  1.00  0.00     0.000 A 
ATOM     20  C   UNL     1      23.085  10.220  11.459  1.00  0.00     0.000 A 
ATOM     21  C   UNL     1      22.872   8.904  11.042  1.00  0.00     0.000 A 
ENDBRANCH  15  16
BRANCH  15  22
ATOM     22  C   UNL     1      27.506  10.066   9.495  1.00  0.00    -0.026 A 
ATOM     23  C   UNL     1      28.312  10.111   8.341  1.00  0.00     0.007 A 
ATOM     24  C   UNL     1      27.792   9.112  10.487  1.00  0.00     0.007 A 
ATOM     25  C   UNL     1      29.362   9.203   8.174  1.00  0.00     0.021 A 
ATOM     26  C   UNL     1      28.844   8.206  10.317  1.00  0.00     0.021 A 
ATOM     27  C   UNL     1      29.627   8.250   9.160  1.00  0.00     0.041 A 
ATOM     28  Cl  UNL     1      30.947   7.113   8.950  1.00  0.00    -0.084 Cl
ENDBRANCH  15  22
ENDBRANCH  14  15
ENDBRANCH   8   9
ENDBRANCH   1   8
TORSDOF 9
ENDMDL
MODEL 8
REMARK VINA RESULT:    -7.171      5.317      8.771
REMARK INTER + INTRA:         -11.181
REMARK INTER:                 -11.981
REMARK INTRA:                   0.800
REMARK UNBOUND:                -0.447
REMARK SMILES O=C(O)COCCN1CCN([C@H](c2ccccc2)c2ccc(Cl)cc2)CC1
REMARK SMILES IDX 6 1 5 2 4 3 2 4 1 5 3 6 7 8 8 9 9 10 27 11 10 12 26 13 11 14
REMARK SMILES IDX 12 15 13 16 14 17 18 18 15 19 17 20 16 21 19 22 20 23 25 24
REMARK SMILES IDX 21 25 24 26 22 27 23 28
REMARK H PARENT 3 7
REMARK Flexibility Score: inf
ROOT
ATOM      1  C   UNL     1      32.767  12.763   9.351  1.00  0.00     0.176 C 
ENDROOT
BRANCH   1   2
ATOM      2  O   UNL     1      33.998  12.062   9.412  1.00  0.00    -0.368 OA
BRANCH   2   3
ATOM      3  C   UNL     1      34.894  12.675  10.320  1.00  0.00     0.282 C 
BRANCH   3   4
ATOM      4  C   UNL     1      34.565  12.275  11.724  1.00  0.00     0.329 C 
ATOM      5  O   UNL     1      34.079  11.135  11.957  1.00  0.00    -0.250 OA
BRANCH   4   6
ATOM      6  O   UNL     1      34.815  13.153  12.773  1.00  0.00    -0.480 OA
ATOM      7  H   UNL     1      35.575  13.821  12.721  1.00  0.00     0.296 HD
ENDBRANCH   4   6
ENDBRANCH   3   4
ENDBRANCH   2   3
ENDBRANCH   1   2
BRANCH   1   8
ATOM      8  C   UNL     1      31.591  11.787   9.195  1.00  0.00     0.113 C 
BRANCH   8   9
ATOM      9  N   UNL     1      30.747  11.741  10.410  1.00  0.00    -0.299 NA
ATOM     10  C   UNL     1      29.421  11.137  10.131  1.00  0.00     0.100 C 
ATOM     11  C   UNL     1      30.649  13.076  11.053  1.00  0.00     0.100 C 
ATOM     12  C   UNL     1      28.370  11.572  11.163  1.00  0.00     0.101 C 
ATOM     13  C   UNL     1      29.342  13.796  10.693  1.00  0.00     0.101 C 
ATOM     14  N   UNL     1      28.149  13.047  11.170  1.00  0.00    -0.290 NA
BRANCH  14  15
ATOM     15  C   UNL     1      26.916  13.434  10.425  1.00  0.00     0.117 C 
BRANCH  15  16
ATOM     16  C   UNL     1      26.422  14.822  10.804  1.00  0.00    -0.026 A 
ATOM     17  C   UNL     1      27.167  15.972  10.478  1.00  0.00     0.006 A 
ATOM     18  C   UNL     1      25.228  14.968  11.534  1.00  0.00     0.006 A 
ATOM     19  C   UNL     1      26.714  17.238  10.858  1.00  0.00     0.000 A 
ATOM     20  C   UNL     1      24.781  16.237  11.912  1.00  0.00     0.000 A 
ATOM     21  C   UNL     1      25.522  17.371  11.573  1.00  0.00     0.000 A 
ENDBRANCH  15  16
BRANCH  15  22
ATOM     22  C   UNL     1      25.773  12.458  10.666  1.00  0.00    -0.026 A 
ATOM     23  C   UNL     1      25.459  11.453   9.732  1.00  0.00     0.007 A 
ATOM     24  C   UNL     1      25.055  12.516  11.873  1.00  0.00     0.007 A 
ATOM     25  C   UNL     1      24.429  10.544   9.991  1.00  0.00     0.021 A 
ATOM     26  C   UNL     1      24.026  11.604  12.129  1.00  0.00     0.021 A 
ATOM     27  C   UNL     1      23.710  10.619  11.187  1.00  0.00     0.041 A 
ATOM     28  Cl  UNL     1      22.420   9.476  11.511  1.00  0.00    -0.084 Cl
ENDBRANCH  15  22
ENDBRANCH  14  15
ENDBRANCH   8   9
ENDBRANCH   1   8
TORSDOF 9
ENDMDL
MODEL 9
REMARK VINA RESULT:    -7.169      2.166      4.098
REMARK INTER + INTRA:         -11.177
REMARK INTER:                 -10.757
REMARK INTRA:                  -0.420
REMARK UNBOUND:                -0.447
REMARK SMILES O=C(O)COCCN1CCN([C@H](c2ccccc2)c2ccc(Cl)cc2)CC1
REMARK SMILES IDX 6 1 5 2 4 3 2 4 1 5 3 6 7 8 8 9 9 10 27 11 10 12 26 13 11 14
REMARK SMILES IDX 12 15 13 16 14 17 18 18 15 19 17 20 16 21 19 22 20 23 25 24
REMARK SMILES IDX 21 25 24 26 22 27 23 28
REMARK H PARENT 3 7
REMARK Flexibility Score: inf
ROOT
ATOM      1  C   UNL     1      25.605  11.459   9.712  1.00  0.00     0.176 C 
ENDROOT
BRANCH   1   2
ATOM      2  O   UNL     1      25.150  10.523  10.674  1.00  0.00    -0.368 OA
BRANCH   2   3
ATOM      3  C   UNL     1      23.762  10.284  10.542  1.00  0.00     0.282 C 
BRANCH   3   4
ATOM      4  C   UNL     1      23.022  10.867  11.705  1.00  0.00     0.329 C 
ATOM      5  O   UNL     1      23.092  12.104  11.939  1.00  0.00    -0.250 OA
BRANCH   4   6
ATOM      6  O   UNL     1      22.240  10.048  12.511  1.00  0.00    -0.480 OA
ATOM      7  H   UNL     1      22.613   9.188  12.896  1.00  0.00     0.296 HD
ENDBRANCH   4   6
ENDBRANCH   3   4
ENDBRANCH   2   3
ENDBRANCH   1   2
BRANCH   1   8
ATOM      8  C   UNL     1      26.854  10.935   8.988  1.00  0.00     0.113 C 
BRANCH   8   9
ATOM      9  N   UNL     1      27.778  10.242   9.913  1.00  0.00    -0.299 NA
ATOM     10  C   UNL     1      28.968  11.074  10.222  1.00  0.00     0.100 C 
ATOM     11  C   UNL     1      28.134   8.890   9.414  1.00  0.00     0.100 C 
ATOM     12  C   UNL     1      30.155  10.217  10.688  1.00  0.00     0.101 C 
ATOM     13  C   UNL     1      29.503   8.872   8.718  1.00  0.00     0.101 C 
ATOM     14  N   UNL     1      30.601   9.244   9.651  1.00  0.00    -0.290 NA
BRANCH  14  15
ATOM     15  C   UNL     1      31.813   9.715   8.921  1.00  0.00     0.117 C 
BRANCH  15  16
ATOM     16  C   UNL     1      32.743   8.572   8.543  1.00  0.00    -0.026 A 
ATOM     17  C   UNL     1      33.950   8.814   7.859  1.00  0.00     0.006 A 
ATOM     18  C   UNL     1      32.379   7.244   8.833  1.00  0.00     0.006 A 
ATOM     19  C   UNL     1      34.781   7.751   7.493  1.00  0.00     0.000 A 
ATOM     20  C   UNL     1      33.213   6.185   8.463  1.00  0.00     0.000 A 
ATOM     21  C   UNL     1      34.413   6.438   7.796  1.00  0.00     0.000 A 
ENDBRANCH  15  16
BRANCH  15  22
ATOM     22  C   UNL     1      32.621  10.711   9.740  1.00  0.00    -0.026 A 
ATOM     23  C   UNL     1      32.568  12.093   9.474  1.00  0.00     0.007 A 
ATOM     24  C   UNL     1      33.388  10.257  10.827  1.00  0.00     0.007 A 
ATOM     25  C   UNL     1      33.289  12.994  10.263  1.00  0.00     0.021 A 
ATOM     26  C   UNL     1      34.107  11.161  11.614  1.00  0.00     0.021 A 
ATOM     27  C   UNL     1      34.061  12.529  11.331  1.00  0.00     0.041 A 
ATOM     28  Cl  UNL     1      34.963  13.662  12.321  1.00  0.00    -0.084 Cl
ENDBRANCH  15  22
ENDBRANCH  14  15
ENDBRANCH   8   9
ENDBRANCH   1   8
TORSDOF 9
ENDMDL
MODEL 10
REMARK VINA RESULT:    -7.140      1.965      2.716
REMARK INTER + INTRA:         -11.135
REMARK INTER:                 -10.486
REMARK INTRA:                  -0.649
REMARK UNBOUND:                -0.447
REMARK SMILES O=C(O)COCCN1CCN([C@H](c2ccccc2)c2ccc(Cl)cc2)CC1
REMARK SMILES IDX 6 1 5 2 4 3 2 4 1 5 3 6 7 8 8 9 9 10 27 11 10 12 26 13 11 14
REMARK SMILES IDX 12 15 13 16 14 17 18 18 15 19 17 20 16 21 19 22 20 23 25 24
REMARK SMILES IDX 21 25 24 26 22 27 23 28
REMARK H PARENT 3 7
REMARK Flexibility Score: inf
ROOT
ATOM      1  C   UNL     1      25.014   8.466   9.725  1.00  0.00     0.176 C 
ENDROOT
BRANCH   1   2
ATOM      2  O   UNL     1      23.869   9.119  10.248  1.00  0.00    -0.368 OA
BRANCH   2   3
ATOM      3  C   UNL     1      24.196  10.393  10.768  1.00  0.00     0.282 C 
BRANCH   3   4
ATOM      4  C   UNL     1      23.088  10.900  11.635  1.00  0.00     0.329 C 
ATOM      5  O   UNL     1      22.906  12.141  11.763  1.00  0.00    -0.250 OA
BRANCH   4   6
ATOM      6  O   UNL     1      22.245  10.002  12.281  1.00  0.00    -0.480 OA
ATOM      7  H   UNL     1      21.389   9.684  11.843  1.00  0.00     0.296 HD
ENDBRANCH   4   6
ENDBRANCH   3   4
ENDBRANCH   2   3
ENDBRANCH   1   2
BRANCH   1   8
ATOM      8  C   UNL     1      26.295   9.001  10.382  1.00  0.00     0.113 C 
BRANCH   8   9
ATOM      9  N   UNL     1      27.498   8.690   9.578  1.00  0.00    -0.299 NA
ATOM     10  C   UNL     1      28.657   8.343  10.439  1.00  0.00     0.100 C 
ATOM     11  C   UNL     1      27.802   9.778   8.614  1.00  0.00     0.100 C 
ATOM     12  C   UNL     1      29.992   8.565   9.712  1.00  0.00     0.101 C 
ATOM     13  C   UNL     1      28.911  10.710   9.125  1.00  0.00     0.101 C 
ATOM     14  N   UNL     1      30.197   9.987   9.313  1.00  0.00    -0.290 NA
BRANCH  14  15
ATOM     15  C   UNL     1      31.107  10.708  10.250  1.00  0.00     0.117 C 
BRANCH  15  16
ATOM     16  C   UNL     1      31.011  12.220  10.101  1.00  0.00    -0.026 A 
ATOM     17  C   UNL     1      31.478  12.866   8.941  1.00  0.00     0.006 A 
ATOM     18  C   UNL     1      30.494  12.998  11.153  1.00  0.00     0.006 A 
ATOM     19  C   UNL     1      31.409  14.258   8.831  1.00  0.00     0.000 A 
ATOM     20  C   UNL     1      30.428  14.389  11.038  1.00  0.00     0.000 A 
ATOM     21  C   UNL     1      30.884  15.019   9.877  1.00  0.00     0.000 A 
ENDBRANCH  15  16
BRANCH  15  22
ATOM     22  C   UNL     1      32.563  10.319  10.044  1.00  0.00    -0.026 A 
ATOM     23  C   UNL     1      32.961   9.521   8.954  1.00  0.00     0.007 A 
ATOM     24  C   UNL     1      33.545  10.815  10.919  1.00  0.00     0.007 A 
ATOM     25  C   UNL     1      34.310   9.206   8.763  1.00  0.00     0.021 A 
ATOM     26  C   UNL     1      34.893  10.499  10.724  1.00  0.00     0.021 A 
ATOM     27  C   UNL     1      35.276   9.693   9.648  1.00  0.00     0.041 A 
ATOM     28  Cl  UNL     1      36.968   9.299   9.405  1.00  0.00    -0.084 Cl
ENDBRANCH  15  22
ENDBRANCH  14  15
ENDBRANCH   8   9
ENDBRANCH   1   8
TORSDOF 9
ENDMDL
MODEL 11
REMARK VINA RESULT:    -7.044      4.951      8.141
REMARK INTER + INTRA:         -10.991
REMARK INTER:                 -12.466
REMARK INTRA:                   1.475
REMARK UNBOUND:                -0.447
REMARK SMILES O=C(O)COCCN1CCN([C@H](c2ccccc2)c2ccc(Cl)cc2)CC1
REMARK SMILES IDX 6 1 5 2 4 3 2 4 1 5 3 6 7 8 8 9 9 10 27 11 10 12 26 13 11 14
REMARK SMILES IDX 12 15 13 16 14 17 18 18 15 19 17 20 16 21 19 22 20 23 25 24
REMARK SMILES IDX 21 25 24 26 22 27 23 28
REMARK H PARENT 3 7
REMARK Flexibility Score: inf
ROOT
ATOM      1  C   UNL     1      32.730  13.166   9.749  1.00  0.00     0.176 C 
ENDROOT
BRANCH   1   2
ATOM      2  O   UNL     1      33.892  12.443   9.379  1.00  0.00    -0.368 OA
BRANCH   2   3
ATOM      3  C   UNL     1      34.934  12.627  10.318  1.00  0.00     0.282 C 
BRANCH   3   4
ATOM      4  C   UNL     1      34.487  12.198  11.680  1.00  0.00     0.329 C 
ATOM      5  O   UNL     1      33.987  11.053  11.848  1.00  0.00    -0.250 OA
BRANCH   4   6
ATOM      6  O   UNL     1      34.644  13.056  12.764  1.00  0.00    -0.480 OA
ATOM      7  H   UNL     1      34.061  12.966  13.587  1.00  0.00     0.296 HD
ENDBRANCH   4   6
ENDBRANCH   3   4
ENDBRANCH   2   3
ENDBRANCH   1   2
BRANCH   1   8
ATOM      8  C   UNL     1      31.515  12.702   8.932  1.00  0.00     0.113 C 
BRANCH   8   9
ATOM      9  N   UNL     1      30.969  11.422   9.435  1.00  0.00    -0.299 NA
ATOM     10  C   UNL     1      30.011  10.821   8.472  1.00  0.00     0.100 C 
ATOM     11  C   UNL     1      30.399  11.572  10.797  1.00  0.00     0.100 C 
ATOM     12  C   UNL     1      29.044   9.849   9.165  1.00  0.00     0.101 C 
ATOM     13  C   UNL     1      28.871  11.720  10.772  1.00  0.00     0.101 C 
ATOM     14  N   UNL     1      28.209  10.514  10.205  1.00  0.00    -0.290 NA
BRANCH  14  15
ATOM     15  C   UNL     1      26.834  10.816   9.713  1.00  0.00     0.117 C 
BRANCH  15  16
ATOM     16  C   UNL     1      26.281  12.109  10.296  1.00  0.00    -0.026 A 
ATOM     17  C   UNL     1      25.095  12.115  11.055  1.00  0.00     0.006 A 
ATOM     18  C   UNL     1      26.931  13.330  10.038  1.00  0.00     0.006 A 
ATOM     19  C   UNL     1      24.585  13.314  11.560  1.00  0.00     0.000 A 
ATOM     20  C   UNL     1      26.415  14.526  10.545  1.00  0.00     0.000 A 
ATOM     21  C   UNL     1      25.245  14.519  11.306  1.00  0.00     0.000 A 
ENDBRANCH  15  16
BRANCH  15  22
ATOM     22  C   UNL     1      25.850   9.705  10.050  1.00  0.00    -0.026 A 
ATOM     23  C   UNL     1      24.461   9.933  10.052  1.00  0.00     0.007 A 
ATOM     24  C   UNL     1      26.328   8.407  10.301  1.00  0.00     0.007 A 
ATOM     25  C   UNL     1      23.573   8.888  10.328  1.00  0.00     0.021 A 
ATOM     26  C   UNL     1      25.437   7.365  10.575  1.00  0.00     0.021 A 
ATOM     27  C   UNL     1      24.060   7.605  10.591  1.00  0.00     0.041 A 
ATOM     28  Cl  UNL     1      22.944   6.295  10.934  1.00  0.00    -0.084 Cl
ENDBRANCH  15  22
ENDBRANCH  14  15
ENDBRANCH   8   9
ENDBRANCH   1   8
TORSDOF 9
ENDMDL
MODEL 12
REMARK VINA RESULT:    -7.001      4.670      7.964
REMARK INTER + INTRA:         -10.927
REMARK INTER:                 -11.067
REMARK INTRA:                   0.139
REMARK UNBOUND:                -0.447
REMARK SMILES O=C(O)COCCN1CCN([C@H](c2ccccc2)c2ccc(Cl)cc2)CC1
REMARK SMILES IDX 6 1 5 2 4 3 2 4 1 5 3 6 7 8 8 9 9 10 27 11 10 12 26 13 11 14
REMARK SMILES IDX 12 15 13 16 14 17 18 18 15 19 17 20 16 21 19 22 20 23 25 24
REMARK SMILES IDX 21 25 24 26 22 27 23 28
REMARK H PARENT 3 7
REMARK Flexibility Score: inf
ROOT
ATOM      1  C   UNL     1      33.237  14.399  10.670  1.00  0.00     0.176 C 
ENDROOT
BRANCH   1   2
ATOM      2  O   UNL     1      33.380  13.881  11.981  1.00  0.00    -0.368 OA
BRANCH   2   3
ATOM      3  C   UNL     1      34.653  13.294  12.167  1.00  0.00     0.282 C 
BRANCH   3   4
ATOM      4  C   UNL     1      34.686  11.923  11.569  1.00  0.00     0.329 C 
ATOM      5  O   UNL     1      33.810  11.075  11.891  1.00  0.00    -0.250 OA
BRANCH   4   6
ATOM      6  O   UNL     1      35.670  11.592  10.644  1.00  0.00    -0.480 OA
ATOM      7  H   UNL     1      36.279  10.797  10.794  1.00  0.00     0.296 HD
ENDBRANCH   4   6
ENDBRANCH   3   4
ENDBRANCH   2   3
ENDBRANCH   1   2
BRANCH   1   8
ATOM      8  C   UNL     1      31.861  14.041  10.088  1.00  0.00     0.113 C 
BRANCH   8   9
ATOM      9  N   UNL     1      31.036  13.279  11.052  1.00  0.00    -0.299 NA
ATOM     10  C   UNL     1      30.548  12.005  10.466  1.00  0.00     0.100 C 
ATOM     11  C   UNL     1      29.942  14.114  11.609  1.00  0.00     0.100 C 
ATOM     12  C   UNL     1      29.292  11.493  11.186  1.00  0.00     0.101 C 
ATOM     13  C   UNL     1      28.600  13.850  10.909  1.00  0.00     0.101 C 
ATOM     14  N   UNL     1      28.148  12.445  11.092  1.00  0.00    -0.290 NA
BRANCH  14  15
ATOM     15  C   UNL     1      27.163  12.038  10.049  1.00  0.00     0.117 C 
BRANCH  15  16
ATOM     16  C   UNL     1      25.735  12.028  10.574  1.00  0.00    -0.026 A 
ATOM     17  C   UNL     1      24.874  10.943  10.317  1.00  0.00     0.006 A 
ATOM     18  C   UNL     1      25.240  13.136  11.287  1.00  0.00     0.006 A 
ATOM     19  C   UNL     1      23.556  10.961  10.781  1.00  0.00     0.000 A 
ATOM     20  C   UNL     1      23.921  13.148  11.748  1.00  0.00     0.000 A 
ATOM     21  C   UNL     1      23.080  12.061  11.498  1.00  0.00     0.000 A 
ENDBRANCH  15  16
BRANCH  15  22
ATOM     22  C   UNL     1      27.458  10.652   9.495  1.00  0.00    -0.026 A 
ATOM     23  C   UNL     1      27.149   9.490  10.227  1.00  0.00     0.007 A 
ATOM     24  C   UNL     1      27.988  10.520   8.200  1.00  0.00     0.007 A 
ATOM     25  C   UNL     1      27.394   8.225   9.684  1.00  0.00     0.021 A 
ATOM     26  C   UNL     1      28.230   9.254   7.659  1.00  0.00     0.021 A 
ATOM     27  C   UNL     1      27.936   8.106   8.401  1.00  0.00     0.041 A 
ATOM     28  Cl  UNL     1      28.240   6.518   7.720  1.00  0.00    -0.084 Cl
ENDBRANCH  15  22
ENDBRANCH  14  15
ENDBRANCH   8   9
ENDBRANCH   1   8
TORSDOF 9
ENDMDL
MODEL 13
REMARK VINA RESULT:    -6.989      4.974      8.197
REMARK INTER + INTRA:         -10.909
REMARK INTER:                 -10.539
REMARK INTRA:                  -0.371
REMARK UNBOUND:                -0.447
REMARK SMILES O=C(O)COCCN1CCN([C@H](c2ccccc2)c2ccc(Cl)cc2)CC1
REMARK SMILES IDX 6 1 5 2 4 3 2 4 1 5 3 6 7 8 8 9 9 10 27 11 10 12 26 13 11 14
REMARK SMILES IDX 12 15 13 16 14 17 18 18 15 19 17 20 16 21 19 22 20 23 25 24
REMARK SMILES IDX 21 25 24 26 22 27 23 28
REMARK H PARENT 3 7
REMARK Flexibility Score: inf
ROOT
ATOM      1  C   UNL     1      32.569   8.314   9.221  1.00  0.00     0.176 C 
ENDROOT
BRANCH   1   2
ATOM      2  O   UNL     1      32.931   7.634   8.031  1.00  0.00    -0.368 OA
BRANCH   2   3
ATOM      3  C   UNL     1      33.823   6.570   8.297  1.00  0.00     0.282 C 
BRANCH   3   4
ATOM      4  C   UNL     1      33.179   5.259   7.974  1.00  0.00     0.329 C 
ATOM      5  O   UNL     1      33.784   4.422   7.250  1.00  0.00    -0.250 OA
BRANCH   4   6
ATOM      6  O   UNL     1      31.924   4.956   8.490  1.00  0.00    -0.480 OA
ATOM      7  H   UNL     1      31.828   4.435   9.353  1.00  0.00     0.296 HD
ENDBRANCH   4   6
ENDBRANCH   3   4
ENDBRANCH   2   3
ENDBRANCH   1   2
BRANCH   1   8
ATOM      8  C   UNL     1      31.212   9.016   9.059  1.00  0.00     0.113 C 
BRANCH   8   9
ATOM      9  N   UNL     1      30.737   9.600  10.333  1.00  0.00    -0.299 NA
ATOM     10  C   UNL     1      29.255   9.620  10.406  1.00  0.00     0.100 C 
ATOM     11  C   UNL     1      31.344  10.933  10.578  1.00  0.00     0.100 C 
ATOM     12  C   UNL     1      28.749  10.680  11.396  1.00  0.00     0.101 C 
ATOM     13  C   UNL     1      30.397  12.079  10.196  1.00  0.00     0.101 C 
ATOM     14  N   UNL     1      29.153  12.063  11.012  1.00  0.00    -0.290 NA
BRANCH  14  15
ATOM     15  C   UNL     1      28.044  12.808  10.348  1.00  0.00     0.117 C 
BRANCH  15  16
ATOM     16  C   UNL     1      28.029  14.282  10.728  1.00  0.00    -0.026 A 
ATOM     17  C   UNL     1      27.093  15.168  10.160  1.00  0.00     0.006 A 
ATOM     18  C   UNL     1      28.990  14.787  11.623  1.00  0.00     0.006 A 
ATOM     19  C   UNL     1      27.110  16.524  10.497  1.00  0.00     0.000 A 
ATOM     20  C   UNL     1      29.001  16.145  11.956  1.00  0.00     0.000 A 
ATOM     21  C   UNL     1      28.062  17.012  11.396  1.00  0.00     0.000 A 
ENDBRANCH  15  16
BRANCH  15  22
ATOM     22  C   UNL     1      26.680  12.231  10.696  1.00  0.00    -0.026 A 
ATOM     23  C   UNL     1      25.991  12.627  11.858  1.00  0.00     0.007 A 
ATOM     24  C   UNL     1      26.060  11.332   9.810  1.00  0.00     0.007 A 
ATOM     25  C   UNL     1      24.722  12.112  12.139  1.00  0.00     0.021 A 
ATOM     26  C   UNL     1      24.791  10.820  10.094  1.00  0.00     0.021 A 
ATOM     27  C   UNL     1      24.122  11.207  11.259  1.00  0.00     0.041 A 
ATOM     28  Cl  UNL     1      22.529  10.564  11.612  1.00  0.00    -0.084 Cl
ENDBRANCH  15  22
ENDBRANCH  14  15
ENDBRANCH   8   9
ENDBRANCH   1   8
TORSDOF 9
ENDMDL
MODEL 14
REMARK VINA RESULT:    -6.985      2.306      4.284
REMARK INTER + INTRA:         -10.903
REMARK INTER:                 -10.352
REMARK INTRA:                  -0.551
REMARK UNBOUND:                -0.447
REMARK SMILES O=C(O)COCCN1CCN([C@H](c2ccccc2)c2ccc(Cl)cc2)CC1
REMARK SMILES IDX 6 1 5 2 4 3 2 4 1 5 3 6 7 8 8 9 9 10 27 11 10 12 26 13 11 14
REMARK SMILES IDX 12 15 13 16 14 17 18 18 15 19 17 20 16 21 19 22 20 23 25 24
REMARK SMILES IDX 21 25 24 26 22 27 23 28
REMARK H PARENT 3 7
REMARK Flexibility Score: inf
ROOT
ATOM      1  C   UNL     1      25.645   9.112   9.743  1.00  0.00     0.176 C 
ENDROOT
BRANCH   1   2
ATOM      2  O   UNL     1      24.626   9.619  10.588  1.00  0.00    -0.368 OA
BRANCH   2   3
ATOM      3  C   UNL     1      24.561  11.030  10.525  1.00  0.00     0.282 C 
BRANCH   3   4
ATOM      4  C   UNL     1      23.606  11.552  11.552  1.00  0.00     0.329 C 
ATOM      5  O   UNL     1      22.622  10.850  11.911  1.00  0.00    -0.250 OA
BRANCH   4   6
ATOM      6  O   UNL     1      23.817  12.802  12.125  1.00  0.00    -0.480 OA
ATOM      7  H   UNL     1      23.475  13.644  11.678  1.00  0.00     0.296 HD
ENDBRANCH   4   6
ENDBRANCH   3   4
ENDBRANCH   2   3
ENDBRANCH   1   2
BRANCH   1   8
ATOM      8  C   UNL     1      26.830  10.087   9.669  1.00  0.00     0.113 C 
BRANCH   8   9
ATOM      9  N   UNL     1      27.966   9.640  10.505  1.00  0.00    -0.299 NA
ATOM     10  C   UNL     1      28.950  10.731  10.720  1.00  0.00     0.100 C 
ATOM     11  C   UNL     1      28.585   8.404   9.963  1.00  0.00     0.100 C 
ATOM     12  C   UNL     1      30.340  10.181  11.073  1.00  0.00     0.101 C 
ATOM     13  C   UNL     1      29.854   8.701   9.152  1.00  0.00     0.101 C 
ATOM     14  N   UNL     1      30.911   9.328   9.991  1.00  0.00    -0.290 NA
BRANCH  14  15
ATOM     15  C   UNL     1      31.911  10.064   9.165  1.00  0.00     0.117 C 
BRANCH  15  16
ATOM     16  C   UNL     1      32.940   9.134   8.537  1.00  0.00    -0.026 A 
ATOM     17  C   UNL     1      32.898   7.745   8.766  1.00  0.00     0.006 A 
ATOM     18  C   UNL     1      33.981   9.664   7.754  1.00  0.00     0.006 A 
ATOM     19  C   UNL     1      33.866   6.907   8.206  1.00  0.00     0.000 A 
ATOM     20  C   UNL     1      34.947   8.821   7.197  1.00  0.00     0.000 A 
ATOM     21  C   UNL     1      34.889   7.444   7.420  1.00  0.00     0.000 A 
ENDBRANCH  15  16
BRANCH  15  22
ATOM     22  C   UNL     1      32.669  11.104   9.977  1.00  0.00    -0.026 A 
ATOM     23  C   UNL     1      33.638  10.727  10.927  1.00  0.00     0.007 A 
ATOM     24  C   UNL     1      32.449  12.470   9.735  1.00  0.00     0.007 A 
ATOM     25  C   UNL     1      34.349  11.700  11.636  1.00  0.00     0.021 A 
ATOM     26  C   UNL     1      33.162  13.440  10.445  1.00  0.00     0.021 A 
ATOM     27  C   UNL     1      34.111  13.056  11.397  1.00  0.00     0.041 A 
ATOM     28  Cl  UNL     1      35.006  14.275  12.286  1.00  0.00    -0.084 Cl
ENDBRANCH  15  22
ENDBRANCH  14  15
ENDBRANCH   8   9
ENDBRANCH   1   8
TORSDOF 9
ENDMDL
MODEL 15
REMARK VINA RESULT:    -6.947      4.921      7.859
REMARK INTER + INTRA:         -10.845
REMARK INTER:                 -10.474
REMARK INTRA:                  -0.372
REMARK UNBOUND:                -0.447
REMARK SMILES O=C(O)COCCN1CCN([C@H](c2ccccc2)c2ccc(Cl)cc2)CC1
REMARK SMILES IDX 6 1 5 2 4 3 2 4 1 5 3 6 7 8 8 9 9 10 27 11 10 12 26 13 11 14
REMARK SMILES IDX 12 15 13 16 14 17 18 18 15 19 17 20 16 21 19 22 20 23 25 24
REMARK SMILES IDX 21 25 24 26 22 27 23 28
REMARK H PARENT 3 7
REMARK Flexibility Score: inf
ROOT
ATOM      1  C   UNL     1      31.217  16.461   8.759  1.00  0.00     0.176 C 
ENDROOT
BRANCH   1   2
ATOM      2  O   UNL     1      31.124  16.608   7.352  1.00  0.00    -0.368 OA
BRANCH   2   3
ATOM      3  C   UNL     1      30.120  17.539   6.997  1.00  0.00     0.282 C 
BRANCH   3   4
ATOM      4  C   UNL     1      29.852  17.479   5.526  1.00  0.00     0.329 C 
ATOM      5  O   UNL     1      30.072  18.489   4.804  1.00  0.00    -0.250 OA
BRANCH   4   6
ATOM      6  O   UNL     1      29.381  16.303   4.954  1.00  0.00    -0.480 OA
ATOM      7  H   UNL     1      28.388  16.108   4.907  1.00  0.00     0.296 HD
ENDBRANCH   4   6
ENDBRANCH   3   4
ENDBRANCH   2   3
ENDBRANCH   1   2
BRANCH   1   8
ATOM      8  C   UNL     1      29.862  16.737   9.428  1.00  0.00     0.113 C 
BRANCH   8   9
ATOM      9  N   UNL     1      29.597  15.804  10.545  1.00  0.00    -0.299 NA
ATOM     10  C   UNL     1      29.944  14.406  10.183  1.00  0.00     0.100 C 
ATOM     11  C   UNL     1      28.208  15.941  11.050  1.00  0.00     0.100 C 
ATOM     12  C   UNL     1      29.190  13.390  11.054  1.00  0.00     0.101 C 
ATOM     13  C   UNL     1      27.279  14.854  10.489  1.00  0.00     0.101 C 
ATOM     14  N   UNL     1      27.711  13.491  10.903  1.00  0.00    -0.290 NA
BRANCH  14  15
ATOM     15  C   UNL     1      27.165  12.438   9.998  1.00  0.00     0.117 C 
BRANCH  15  16
ATOM     16  C   UNL     1      25.839  11.879  10.495  1.00  0.00    -0.026 A 
ATOM     17  C   UNL     1      25.307  10.690   9.960  1.00  0.00     0.006 A 
ATOM     18  C   UNL     1      25.101  12.578  11.467  1.00  0.00     0.006 A 
ATOM     19  C   UNL     1      24.074  10.204  10.405  1.00  0.00     0.000 A 
ATOM     20  C   UNL     1      23.869  12.088  11.908  1.00  0.00     0.000 A 
ATOM     21  C   UNL     1      23.357  10.902  11.380  1.00  0.00     0.000 A 
ENDBRANCH  15  16
BRANCH  15  22
ATOM     22  C   UNL     1      28.125  11.268   9.840  1.00  0.00    -0.026 A 
ATOM     23  C   UNL     1      28.527  10.496  10.946  1.00  0.00     0.007 A 
ATOM     24  C   UNL     1      28.572  10.906   8.558  1.00  0.00     0.007 A 
ATOM     25  C   UNL     1      29.380   9.402  10.772  1.00  0.00     0.021 A 
ATOM     26  C   UNL     1      29.425   9.811   8.388  1.00  0.00     0.021 A 
ATOM     27  C   UNL     1      29.831   9.060   9.495  1.00  0.00     0.041 A 
ATOM     28  Cl  UNL     1      30.900   7.686   9.279  1.00  0.00    -0.084 Cl
ENDBRANCH  15  22
ENDBRANCH  14  15
ENDBRANCH   8   9
ENDBRANCH   1   8
TORSDOF 9
ENDMDL
