MODEL 1
REMARK VINA RESULT:    -5.839      0.000      0.000
REMARK INTER + INTRA:          -6.394
REMARK INTER:                  -6.351
REMARK INTRA:                  -0.043
REMARK UNBOUND:                -0.043
REMARK SMILES C=CC(=O)Nc1cc2c(Nc3ccc(F)c(Cl)c3)ncnc2cc1C#CC(C)(C)N1CCN(C)CC1.Cc1ccc(S(=O)(=O)O)cc1.Cc1ccc(S(=O)(=O)O)cc1
REMARK SMILES IDX 42 1 43 2 44 3 41 4 37 5 38 6 39 7 47 8 40 9 46 10 45 11
REMARK H PARENT 45 12
REMARK Flexibility Score: inf
ROOT
ATOM      1  S   UNL     1      16.120  28.585   7.030  1.00  0.00     0.294 S 
ATOM      2  O   UNL     1      15.051  28.342   6.001  1.00  0.00    -0.194 OA
ATOM      3  O   UNL     1      15.730  27.884   8.300  1.00  0.00    -0.194 OA
ENDROOT
BRANCH   1   4
ATOM      4  C   UNL     1      16.285  30.311   7.334  1.00  0.00     0.094 A 
ATOM      5  C   UNL     1      16.684  34.542   8.065  1.00  0.00     0.044 C 
ATOM      6  C   UNL     1      16.545  33.075   7.779  1.00  0.00    -0.051 A 
ATOM      7  C   UNL     1      15.273  32.485   7.714  1.00  0.00     0.005 A 
ATOM      8  C   UNL     1      17.686  32.271   7.639  1.00  0.00     0.005 A 
ATOM      9  C   UNL     1      15.144  31.112   7.485  1.00  0.00     0.023 A 
ATOM     10  C   UNL     1      17.555  30.897   7.407  1.00  0.00     0.023 A 
ENDBRANCH   1   4
BRANCH   1  11
ATOM     11  O   UNL     1      17.583  27.964   6.483  1.00  0.00    -0.282 OA
ATOM     12  H   UNL     1      17.715  27.129   6.999  1.00  0.00     0.234 HD
ENDBRANCH   1  11
TORSDOF 2
ENDMDL
MODEL 2
REMARK VINA RESULT:    -5.489      3.780      4.164
REMARK INTER + INTRA:          -6.013
REMARK INTER:                  -5.969
REMARK INTRA:                  -0.044
REMARK UNBOUND:                -0.043
REMARK SMILES C=CC(=O)Nc1cc2c(Nc3ccc(F)c(Cl)c3)ncnc2cc1C#CC(C)(C)N1CCN(C)CC1.Cc1ccc(S(=O)(=O)O)cc1.Cc1ccc(S(=O)(=O)O)cc1
REMARK SMILES IDX 42 1 43 2 44 3 41 4 37 5 38 6 39 7 47 8 40 9 46 10 45 11
REMARK H PARENT 45 12
REMARK Flexibility Score: inf
ROOT
ATOM      1  S   UNL     1      17.610  31.839   7.992  1.00  0.00     0.294 S 
ATOM      2  O   UNL     1      16.566  32.523   7.154  1.00  0.00    -0.194 OA
ATOM      3  O   UNL     1      17.246  30.387   8.120  1.00  0.00    -0.194 OA
ENDROOT
BRANCH   1   4
ATOM      4  C   UNL     1      17.679  32.576   9.589  1.00  0.00     0.094 A 
ATOM      5  C   UNL     1      17.854  34.391  13.496  1.00  0.00     0.044 C 
ATOM      6  C   UNL     1      17.817  33.778  12.127  1.00  0.00    -0.051 A 
ATOM      7  C   UNL     1      16.963  34.299  11.142  1.00  0.00     0.005 A 
ATOM      8  C   UNL     1      18.587  32.640  11.841  1.00  0.00     0.005 A 
ATOM      9  C   UNL     1      16.901  33.705   9.878  1.00  0.00     0.023 A 
ATOM     10  C   UNL     1      18.525  32.049  10.574  1.00  0.00     0.023 A 
ENDBRANCH   1   4
BRANCH   1  11
ATOM     11  O   UNL     1      19.110  31.968   7.243  1.00  0.00    -0.282 OA
ATOM     12  H   UNL     1      18.909  31.994   6.273  1.00  0.00     0.234 HD
ENDBRANCH   1  11
TORSDOF 2
ENDMDL
MODEL 3
REMARK VINA RESULT:    -5.422      4.766      5.169
REMARK INTER + INTRA:          -5.941
REMARK INTER:                  -5.897
REMARK INTRA:                  -0.044
REMARK UNBOUND:                -0.043
REMARK SMILES C=CC(=O)Nc1cc2c(Nc3ccc(F)c(Cl)c3)ncnc2cc1C#CC(C)(C)N1CCN(C)CC1.Cc1ccc(S(=O)(=O)O)cc1.Cc1ccc(S(=O)(=O)O)cc1
REMARK SMILES IDX 42 1 43 2 44 3 41 4 37 5 38 6 39 7 47 8 40 9 46 10 45 11
REMARK H PARENT 45 12
REMARK Flexibility Score: inf
ROOT
ATOM      1  S   UNL     1      17.062  32.323   9.308  1.00  0.00     0.294 S 
ATOM      2  O   UNL     1      17.326  33.374   8.267  1.00  0.00    -0.194 OA
ATOM      3  O   UNL     1      15.728  31.692   9.025  1.00  0.00    -0.194 OA
ENDROOT
BRANCH   1   4
ATOM      4  C   UNL     1      17.043  33.052  10.910  1.00  0.00     0.094 A 
ATOM      5  C   UNL     1      16.991  34.848  14.830  1.00  0.00     0.044 C 
ATOM      6  C   UNL     1      17.002  34.252  13.453  1.00  0.00    -0.051 A 
ATOM      7  C   UNL     1      15.835  33.682  12.919  1.00  0.00     0.005 A 
ATOM      8  C   UNL     1      18.194  34.199  12.715  1.00  0.00     0.005 A 
ATOM      9  C   UNL     1      15.855  33.093  11.652  1.00  0.00     0.023 A 
ATOM     10  C   UNL     1      18.212  33.611  11.445  1.00  0.00     0.023 A 
ENDBRANCH   1   4
BRANCH   1  11
ATOM     11  O   UNL     1      18.258  31.143   9.236  1.00  0.00    -0.282 OA
ATOM     12  H   UNL     1      17.799  30.336   8.892  1.00  0.00     0.234 HD
ENDBRANCH   1  11
TORSDOF 2
ENDMDL
MODEL 4
REMARK VINA RESULT:    -5.375      4.855      5.466
REMARK INTER + INTRA:          -5.889
REMARK INTER:                  -5.846
REMARK INTRA:                  -0.043
REMARK UNBOUND:                -0.043
REMARK SMILES C=CC(=O)Nc1cc2c(Nc3ccc(F)c(Cl)c3)ncnc2cc1C#CC(C)(C)N1CCN(C)CC1.Cc1ccc(S(=O)(=O)O)cc1.Cc1ccc(S(=O)(=O)O)cc1
REMARK SMILES IDX 42 1 43 2 44 3 41 4 37 5 38 6 39 7 47 8 40 9 46 10 45 11
REMARK H PARENT 45 12
REMARK Flexibility Score: inf
ROOT
ATOM      1  S   UNL     1      17.107  32.365   9.395  1.00  0.00     0.294 S 
ATOM      2  O   UNL     1      17.279  33.403   8.321  1.00  0.00    -0.194 OA
ATOM      3  O   UNL     1      15.748  31.742   9.245  1.00  0.00    -0.194 OA
ENDROOT
BRANCH   1   4
ATOM      4  C   UNL     1      17.244  33.112  10.983  1.00  0.00     0.094 A 
ATOM      5  C   UNL     1      17.588  34.930  14.878  1.00  0.00     0.044 C 
ATOM      6  C   UNL     1      17.470  34.268  13.536  1.00  0.00    -0.051 A 
ATOM      7  C   UNL     1      18.617  34.022  12.766  1.00  0.00     0.005 A 
ATOM      8  C   UNL     1      16.207  33.951  13.012  1.00  0.00     0.005 A 
ATOM      9  C   UNL     1      18.505  33.440  11.500  1.00  0.00     0.023 A 
ATOM     10  C   UNL     1      16.097  33.366  11.746  1.00  0.00     0.023 A 
ENDBRANCH   1   4
BRANCH   1  11
ATOM     11  O   UNL     1      18.283  31.176   9.224  1.00  0.00    -0.282 OA
ATOM     12  H   UNL     1      18.547  31.214   8.270  1.00  0.00     0.234 HD
ENDBRANCH   1  11
TORSDOF 2
ENDMDL
MODEL 5
REMARK VINA RESULT:    -5.348      3.521      4.395
REMARK INTER + INTRA:          -5.861
REMARK INTER:                  -5.818
REMARK INTRA:                  -0.043
REMARK UNBOUND:                -0.043
REMARK SMILES C=CC(=O)Nc1cc2c(Nc3ccc(F)c(Cl)c3)ncnc2cc1C#CC(C)(C)N1CCN(C)CC1.Cc1ccc(S(=O)(=O)O)cc1.Cc1ccc(S(=O)(=O)O)cc1
REMARK SMILES IDX 42 1 43 2 44 3 41 4 37 5 38 6 39 7 47 8 40 9 46 10 45 11
REMARK H PARENT 45 12
REMARK Flexibility Score: inf
ROOT
ATOM      1  S   UNL     1      17.140  32.503   9.199  1.00  0.00     0.294 S 
ATOM      2  O   UNL     1      16.614  32.390  10.603  1.00  0.00    -0.194 OA
ATOM      3  O   UNL     1      16.793  33.864   8.666  1.00  0.00    -0.194 OA
ENDROOT
BRANCH   1   4
ATOM      4  C   UNL     1      16.413  31.265   8.181  1.00  0.00     0.094 A 
ATOM      5  C   UNL     1      14.628  28.225   5.698  1.00  0.00     0.044 C 
ATOM      6  C   UNL     1      15.250  29.262   6.587  1.00  0.00    -0.051 A 
ATOM      7  C   UNL     1      14.440  30.147   7.315  1.00  0.00     0.005 A 
ATOM      8  C   UNL     1      16.645  29.398   6.645  1.00  0.00     0.005 A 
ATOM      9  C   UNL     1      15.019  31.138   8.113  1.00  0.00     0.023 A 
ATOM     10  C   UNL     1      17.223  30.388   7.448  1.00  0.00     0.023 A 
ENDBRANCH   1   4
BRANCH   1  11
ATOM     11  O   UNL     1      18.811  32.321   9.207  1.00  0.00    -0.282 OA
ATOM     12  H   UNL     1      19.113  32.771  10.036  1.00  0.00     0.234 HD
ENDBRANCH   1  11
TORSDOF 2
ENDMDL
MODEL 6
REMARK VINA RESULT:    -5.308     12.303     13.476
REMARK INTER + INTRA:          -5.817
REMARK INTER:                  -5.773
REMARK INTRA:                  -0.044
REMARK UNBOUND:                -0.043
REMARK SMILES C=CC(=O)Nc1cc2c(Nc3ccc(F)c(Cl)c3)ncnc2cc1C#CC(C)(C)N1CCN(C)CC1.Cc1ccc(S(=O)(=O)O)cc1.Cc1ccc(S(=O)(=O)O)cc1
REMARK SMILES IDX 42 1 43 2 44 3 41 4 37 5 38 6 39 7 47 8 40 9 46 10 45 11
REMARK H PARENT 45 12
REMARK Flexibility Score: inf
ROOT
ATOM      1  S   UNL     1      22.217  19.187  -0.715  1.00  0.00     0.294 S 
ATOM      2  O   UNL     1      23.647  19.624  -0.869  1.00  0.00    -0.194 OA
ATOM      3  O   UNL     1      21.782  18.516  -1.986  1.00  0.00    -0.194 OA
ENDROOT
BRANCH   1   4
ATOM      4  C   UNL     1      21.191  20.582  -0.400  1.00  0.00     0.094 A 
ATOM      5  C   UNL     1      18.676  24.000   0.361  1.00  0.00     0.044 C 
ATOM      6  C   UNL     1      19.562  22.825   0.070  1.00  0.00    -0.051 A 
ATOM      7  C   UNL     1      19.072  21.735  -0.667  1.00  0.00     0.005 A 
ATOM      8  C   UNL     1      20.865  22.777   0.587  1.00  0.00     0.005 A 
ATOM      9  C   UNL     1      19.885  20.624  -0.906  1.00  0.00     0.023 A 
ATOM     10  C   UNL     1      21.679  21.664   0.344  1.00  0.00     0.023 A 
ENDBRANCH   1   4
BRANCH   1  11
ATOM     11  O   UNL     1      22.095  18.094   0.557  1.00  0.00    -0.282 OA
ATOM     12  H   UNL     1      22.726  18.430   1.243  1.00  0.00     0.234 HD
ENDBRANCH   1  11
TORSDOF 2
ENDMDL
MODEL 7
REMARK VINA RESULT:    -5.274      5.564      5.974
REMARK INTER + INTRA:          -5.779
REMARK INTER:                  -5.736
REMARK INTRA:                  -0.043
REMARK UNBOUND:                -0.043
REMARK SMILES C=CC(=O)Nc1cc2c(Nc3ccc(F)c(Cl)c3)ncnc2cc1C#CC(C)(C)N1CCN(C)CC1.Cc1ccc(S(=O)(=O)O)cc1.Cc1ccc(S(=O)(=O)O)cc1
REMARK SMILES IDX 42 1 43 2 44 3 41 4 37 5 38 6 39 7 47 8 40 9 46 10 45 11
REMARK H PARENT 45 12
REMARK Flexibility Score: inf
ROOT
ATOM      1  S   UNL     1      17.227  32.424  10.190  1.00  0.00     0.294 S 
ATOM      2  O   UNL     1      17.567  33.574   9.283  1.00  0.00    -0.194 OA
ATOM      3  O   UNL     1      15.899  31.860   9.771  1.00  0.00    -0.194 OA
ENDROOT
BRANCH   1   4
ATOM      4  C   UNL     1      17.136  32.977  11.858  1.00  0.00     0.094 A 
ATOM      5  C   UNL     1      16.914  34.344  15.942  1.00  0.00     0.044 C 
ATOM      6  C   UNL     1      17.006  33.896  14.513  1.00  0.00    -0.051 A 
ATOM      7  C   UNL     1      15.950  34.148  13.623  1.00  0.00     0.005 A 
ATOM      8  C   UNL     1      18.119  33.164  14.071  1.00  0.00     0.005 A 
ATOM      9  C   UNL     1      16.018  33.697  12.302  1.00  0.00     0.023 A 
ATOM     10  C   UNL     1      18.188  32.716  12.747  1.00  0.00     0.023 A 
ENDBRANCH   1   4
BRANCH   1  11
ATOM     11  O   UNL     1      18.403  31.230  10.052  1.00  0.00    -0.282 OA
ATOM     12  H   UNL     1      17.943  30.468   9.619  1.00  0.00     0.234 HD
ENDBRANCH   1  11
TORSDOF 2
ENDMDL
MODEL 8
REMARK VINA RESULT:    -5.269      4.385      4.947
REMARK INTER + INTRA:          -5.774
REMARK INTER:                  -5.731
REMARK INTRA:                  -0.044
REMARK UNBOUND:                -0.043
REMARK SMILES C=CC(=O)Nc1cc2c(Nc3ccc(F)c(Cl)c3)ncnc2cc1C#CC(C)(C)N1CCN(C)CC1.Cc1ccc(S(=O)(=O)O)cc1.Cc1ccc(S(=O)(=O)O)cc1
REMARK SMILES IDX 42 1 43 2 44 3 41 4 37 5 38 6 39 7 47 8 40 9 46 10 45 11
REMARK H PARENT 45 12
REMARK Flexibility Score: inf
ROOT
ATOM      1  S   UNL     1      16.799  32.031   8.893  1.00  0.00     0.294 S 
ATOM      2  O   UNL     1      15.443  31.389   8.799  1.00  0.00    -0.194 OA
ATOM      3  O   UNL     1      17.846  30.972   8.696  1.00  0.00    -0.194 OA
ENDROOT
BRANCH   1   4
ATOM      4  C   UNL     1      17.003  32.782  10.472  1.00  0.00     0.094 A 
ATOM      5  C   UNL     1      17.513  34.610  14.343  1.00  0.00     0.044 C 
ATOM      6  C   UNL     1      17.345  33.946  13.008  1.00  0.00    -0.051 A 
ATOM      7  C   UNL     1      18.392  33.967  12.072  1.00  0.00     0.005 A 
ATOM      8  C   UNL     1      16.121  33.357  12.660  1.00  0.00     0.005 A 
ATOM      9  C   UNL     1      18.223  33.381  10.814  1.00  0.00     0.023 A 
ATOM     10  C   UNL     1      15.955  32.768  11.401  1.00  0.00     0.023 A 
ENDBRANCH   1   4
BRANCH   1  11
ATOM     11  O   UNL     1      16.957  33.194   7.688  1.00  0.00    -0.282 OA
ATOM     12  H   UNL     1      17.832  33.625   7.863  1.00  0.00     0.234 HD
ENDBRANCH   1  11
TORSDOF 2
ENDMDL
MODEL 9
REMARK VINA RESULT:    -5.256      9.288     10.343
REMARK INTER + INTRA:          -5.760
REMARK INTER:                  -5.717
REMARK INTRA:                  -0.043
REMARK UNBOUND:                -0.043
REMARK SMILES C=CC(=O)Nc1cc2c(Nc3ccc(F)c(Cl)c3)ncnc2cc1C#CC(C)(C)N1CCN(C)CC1.Cc1ccc(S(=O)(=O)O)cc1.Cc1ccc(S(=O)(=O)O)cc1
REMARK SMILES IDX 42 1 43 2 44 3 41 4 37 5 38 6 39 7 47 8 40 9 46 10 45 11
REMARK H PARENT 45 12
REMARK Flexibility Score: inf
ROOT
ATOM      1  S   UNL     1      14.611  34.440  16.700  1.00  0.00     0.294 S 
ATOM      2  O   UNL     1      14.678  33.072  17.318  1.00  0.00    -0.194 OA
ATOM      3  O   UNL     1      13.767  34.365  15.459  1.00  0.00    -0.194 OA
ENDROOT
BRANCH   1   4
ATOM      4  C   UNL     1      16.229  34.995  16.284  1.00  0.00     0.094 A 
ATOM      5  C   UNL     1      20.188  36.365  15.265  1.00  0.00     0.044 C 
ATOM      6  C   UNL     1      18.798  35.914  15.606  1.00  0.00    -0.051 A 
ATOM      7  C   UNL     1      18.236  36.237  16.851  1.00  0.00     0.005 A 
ATOM      8  C   UNL     1      18.075  35.112  14.710  1.00  0.00     0.005 A 
ATOM      9  C   UNL     1      16.955  35.785  17.184  1.00  0.00     0.023 A 
ATOM     10  C   UNL     1      16.792  34.663  15.044  1.00  0.00     0.023 A 
ENDBRANCH   1   4
BRANCH   1  11
ATOM     11  O   UNL     1      13.905  35.515  17.783  1.00  0.00    -0.282 OA
ATOM     12  H   UNL     1      14.537  35.562  18.544  1.00  0.00     0.234 HD
ENDBRANCH   1  11
TORSDOF 2
ENDMDL
MODEL 10
REMARK VINA RESULT:    -5.256      6.449      7.031
REMARK INTER + INTRA:          -5.760
REMARK INTER:                  -5.717
REMARK INTRA:                  -0.043
REMARK UNBOUND:                -0.043
REMARK SMILES C=CC(=O)Nc1cc2c(Nc3ccc(F)c(Cl)c3)ncnc2cc1C#CC(C)(C)N1CCN(C)CC1.Cc1ccc(S(=O)(=O)O)cc1.Cc1ccc(S(=O)(=O)O)cc1
REMARK SMILES IDX 42 1 43 2 44 3 41 4 37 5 38 6 39 7 47 8 40 9 46 10 45 11
REMARK H PARENT 45 12
REMARK Flexibility Score: inf
ROOT
ATOM      1  S   UNL     1      19.643  32.722  11.834  1.00  0.00     0.294 S 
ATOM      2  O   UNL     1      20.248  31.502  12.470  1.00  0.00    -0.194 OA
ATOM      3  O   UNL     1      20.678  33.810  11.803  1.00  0.00    -0.194 OA
ENDROOT
BRANCH   1   4
ATOM      4  C   UNL     1      18.247  33.258  12.763  1.00  0.00     0.094 A 
ATOM      5  C   UNL     1      14.828  34.582  15.031  1.00  0.00     0.044 C 
ATOM      6  C   UNL     1      16.023  34.152  14.233  1.00  0.00    -0.051 A 
ATOM      7  C   UNL     1      15.873  33.743  12.898  1.00  0.00     0.005 A 
ATOM      8  C   UNL     1      17.290  34.092  14.833  1.00  0.00     0.005 A 
ATOM      9  C   UNL     1      16.980  33.306  12.166  1.00  0.00     0.023 A 
ATOM     10  C   UNL     1      18.398  33.657  14.098  1.00  0.00     0.023 A 
ENDBRANCH   1   4
BRANCH   1  11
ATOM     11  O   UNL     1      19.172  32.363  10.260  1.00  0.00    -0.282 OA
ATOM     12  H   UNL     1      19.275  31.381  10.181  1.00  0.00     0.234 HD
ENDBRANCH   1  11
TORSDOF 2
ENDMDL
MODEL 11
REMARK VINA RESULT:    -5.235      8.273      9.102
REMARK INTER + INTRA:          -5.737
REMARK INTER:                  -5.693
REMARK INTRA:                  -0.043
REMARK UNBOUND:                -0.043
REMARK SMILES C=CC(=O)Nc1cc2c(Nc3ccc(F)c(Cl)c3)ncnc2cc1C#CC(C)(C)N1CCN(C)CC1.Cc1ccc(S(=O)(=O)O)cc1.Cc1ccc(S(=O)(=O)O)cc1
REMARK SMILES IDX 42 1 43 2 44 3 41 4 37 5 38 6 39 7 47 8 40 9 46 10 45 11
REMARK H PARENT 45 12
REMARK Flexibility Score: inf
ROOT
ATOM      1  S   UNL     1      16.117  34.379  16.966  1.00  0.00     0.294 S 
ATOM      2  O   UNL     1      15.853  35.820  17.300  1.00  0.00    -0.194 OA
ATOM      3  O   UNL     1      17.176  33.858  17.897  1.00  0.00    -0.194 OA
ENDROOT
BRANCH   1   4
ATOM      4  C   UNL     1      16.670  34.236  15.301  1.00  0.00     0.094 A 
ATOM      5  C   UNL     1      18.017  33.875  11.221  1.00  0.00     0.044 C 
ATOM      6  C   UNL     1      17.547  33.968  12.643  1.00  0.00    -0.051 A 
ATOM      7  C   UNL     1      16.178  34.097  12.928  1.00  0.00     0.005 A 
ATOM      8  C   UNL     1      18.475  33.995  13.695  1.00  0.00     0.005 A 
ATOM      9  C   UNL     1      15.743  34.223  14.250  1.00  0.00     0.023 A 
ATOM     10  C   UNL     1      18.037  34.117  15.018  1.00  0.00     0.023 A 
ENDBRANCH   1   4
BRANCH   1  11
ATOM     11  O   UNL     1      14.709  33.483  17.175  1.00  0.00    -0.282 OA
ATOM     12  H   UNL     1      14.068  33.860  16.520  1.00  0.00     0.234 HD
ENDBRANCH   1  11
TORSDOF 2
ENDMDL
MODEL 12
REMARK VINA RESULT:    -5.226      1.605      2.194
REMARK INTER + INTRA:          -5.727
REMARK INTER:                  -5.684
REMARK INTRA:                  -0.043
REMARK UNBOUND:                -0.043
REMARK SMILES C=CC(=O)Nc1cc2c(Nc3ccc(F)c(Cl)c3)ncnc2cc1C#CC(C)(C)N1CCN(C)CC1.Cc1ccc(S(=O)(=O)O)cc1.Cc1ccc(S(=O)(=O)O)cc1
REMARK SMILES IDX 42 1 43 2 44 3 41 4 37 5 38 6 39 7 47 8 40 9 46 10 45 11
REMARK H PARENT 45 12
REMARK Flexibility Score: inf
ROOT
ATOM      1  S   UNL     1      16.656  30.083   7.031  1.00  0.00     0.294 S 
ATOM      2  O   UNL     1      17.979  29.959   6.330  1.00  0.00    -0.194 OA
ATOM      3  O   UNL     1      15.562  30.038   6.002  1.00  0.00    -0.194 OA
ENDROOT
BRANCH   1   4
ATOM      4  C   UNL     1      16.579  31.607   7.910  1.00  0.00     0.094 A 
ATOM      5  C   UNL     1      16.398  35.343  10.054  1.00  0.00     0.044 C 
ATOM      6  C   UNL     1      16.488  34.053   9.293  1.00  0.00    -0.051 A 
ATOM      7  C   UNL     1      15.792  33.896   8.083  1.00  0.00     0.005 A 
ATOM      8  C   UNL     1      17.212  32.972   9.816  1.00  0.00     0.005 A 
ATOM      9  C   UNL     1      15.844  32.682   7.393  1.00  0.00     0.023 A 
ATOM     10  C   UNL     1      17.266  31.758   9.122  1.00  0.00     0.023 A 
ENDBRANCH   1   4
BRANCH   1  11
ATOM     11  O   UNL     1      16.461  28.801   8.102  1.00  0.00    -0.282 OA
ATOM     12  H   UNL     1      17.294  28.272   8.019  1.00  0.00     0.234 HD
ENDBRANCH   1  11
TORSDOF 2
ENDMDL
MODEL 13
REMARK VINA RESULT:    -5.212      6.445      7.004
REMARK INTER + INTRA:          -5.713
REMARK INTER:                  -5.669
REMARK INTRA:                  -0.043
REMARK UNBOUND:                -0.043
REMARK SMILES C=CC(=O)Nc1cc2c(Nc3ccc(F)c(Cl)c3)ncnc2cc1C#CC(C)(C)N1CCN(C)CC1.Cc1ccc(S(=O)(=O)O)cc1.Cc1ccc(S(=O)(=O)O)cc1
REMARK SMILES IDX 42 1 43 2 44 3 41 4 37 5 38 6 39 7 47 8 40 9 46 10 45 11
REMARK H PARENT 45 12
REMARK Flexibility Score: inf
ROOT
ATOM      1  S   UNL     1      19.333  32.368  11.974  1.00  0.00     0.294 S 
ATOM      2  O   UNL     1      20.194  33.454  11.392  1.00  0.00    -0.194 OA
ATOM      3  O   UNL     1      18.740  31.571  10.848  1.00  0.00    -0.194 OA
ENDROOT
BRANCH   1   4
ATOM      4  C   UNL     1      18.044  33.075  12.943  1.00  0.00     0.094 A 
ATOM      5  C   UNL     1      14.885  34.815  15.306  1.00  0.00     0.044 C 
ATOM      6  C   UNL     1      15.993  34.239  14.474  1.00  0.00    -0.051 A 
ATOM      7  C   UNL     1      15.740  33.808  13.162  1.00  0.00     0.005 A 
ATOM      8  C   UNL     1      17.273  34.065  15.021  1.00  0.00     0.005 A 
ATOM      9  C   UNL     1      16.762  33.236  12.399  1.00  0.00     0.023 A 
ATOM     10  C   UNL     1      18.295  33.495  14.255  1.00  0.00     0.023 A 
ENDBRANCH   1   4
BRANCH   1  11
ATOM     11  O   UNL     1      20.272  31.356  12.934  1.00  0.00    -0.282 OA
ATOM     12  H   UNL     1      21.197  31.476  12.601  1.00  0.00     0.234 HD
ENDBRANCH   1  11
TORSDOF 2
ENDMDL
MODEL 14
REMARK VINA RESULT:    -5.160      6.298      7.007
REMARK INTER + INTRA:          -5.655
REMARK INTER:                  -5.612
REMARK INTRA:                  -0.044
REMARK UNBOUND:                -0.043
REMARK SMILES C=CC(=O)Nc1cc2c(Nc3ccc(F)c(Cl)c3)ncnc2cc1C#CC(C)(C)N1CCN(C)CC1.Cc1ccc(S(=O)(=O)O)cc1.Cc1ccc(S(=O)(=O)O)cc1
REMARK SMILES IDX 42 1 43 2 44 3 41 4 37 5 38 6 39 7 47 8 40 9 46 10 45 11
REMARK H PARENT 45 12
REMARK Flexibility Score: inf
ROOT
ATOM      1  S   UNL     1      16.874  32.861  11.331  1.00  0.00     0.294 S 
ATOM      2  O   UNL     1      15.674  31.960  11.422  1.00  0.00    -0.194 OA
ATOM      3  O   UNL     1      18.089  32.017  11.072  1.00  0.00    -0.194 OA
ENDROOT
BRANCH   1   4
ATOM      4  C   UNL     1      17.078  33.748  12.838  1.00  0.00     0.094 A 
ATOM      5  C   UNL     1      17.574  35.930  16.523  1.00  0.00     0.044 C 
ATOM      6  C   UNL     1      17.402  35.199  15.224  1.00  0.00    -0.051 A 
ATOM      7  C   UNL     1      16.117  34.910  14.740  1.00  0.00     0.005 A 
ATOM      8  C   UNL     1      18.524  34.740  14.518  1.00  0.00     0.005 A 
ATOM      9  C   UNL     1      15.957  34.195  13.550  1.00  0.00     0.023 A 
ATOM     10  C   UNL     1      18.362  34.027  13.325  1.00  0.00     0.023 A 
ENDBRANCH   1   4
BRANCH   1  11
ATOM     11  O   UNL     1      16.672  33.943  10.060  1.00  0.00    -0.282 OA
ATOM     12  H   UNL     1      15.960  33.546   9.497  1.00  0.00     0.234 HD
ENDBRANCH   1  11
TORSDOF 2
ENDMDL
MODEL 15
REMARK VINA RESULT:    -5.158      8.436      9.243
REMARK INTER + INTRA:          -5.653
REMARK INTER:                  -5.609
REMARK INTRA:                  -0.044
REMARK UNBOUND:                -0.043
REMARK SMILES C=CC(=O)Nc1cc2c(Nc3ccc(F)c(Cl)c3)ncnc2cc1C#CC(C)(C)N1CCN(C)CC1.Cc1ccc(S(=O)(=O)O)cc1.Cc1ccc(S(=O)(=O)O)cc1
REMARK SMILES IDX 42 1 43 2 44 3 41 4 37 5 38 6 39 7 47 8 40 9 46 10 45 11
REMARK H PARENT 45 12
REMARK Flexibility Score: inf
ROOT
ATOM      1  S   UNL     1      14.698  34.426  16.447  1.00  0.00     0.294 S 
ATOM      2  O   UNL     1      13.462  34.618  15.614  1.00  0.00    -0.194 OA
ATOM      3  O   UNL     1      14.872  35.628  17.331  1.00  0.00    -0.194 OA
ENDROOT
BRANCH   1   4
ATOM      4  C   UNL     1      16.106  34.247  15.406  1.00  0.00     0.094 A 
ATOM      5  C   UNL     1      19.550  33.798  12.852  1.00  0.00     0.044 C 
ATOM      6  C   UNL     1      18.349  33.922  13.742  1.00  0.00    -0.051 A 
ATOM      7  C   UNL     1      17.066  34.042  13.186  1.00  0.00     0.005 A 
ATOM      8  C   UNL     1      18.505  33.986  15.135  1.00  0.00     0.005 A 
ATOM      9  C   UNL     1      15.950  34.196  14.014  1.00  0.00     0.023 A 
ATOM     10  C   UNL     1      17.387  34.137  15.963  1.00  0.00     0.023 A 
ENDBRANCH   1   4
BRANCH   1  11
ATOM     11  O   UNL     1      14.525  33.055  17.406  1.00  0.00    -0.282 OA
ATOM     12  H   UNL     1      13.555  33.003  17.603  1.00  0.00     0.234 HD
ENDBRANCH   1  11
TORSDOF 2
ENDMDL
