MODEL 1
REMARK VINA RESULT:    -8.876      0.000      0.000
REMARK INTER + INTRA:         -11.893
REMARK INTER:                 -11.730
REMARK INTRA:                  -0.163
REMARK UNBOUND:                -0.163
REMARK SMILES Cc1ccc(Nc2nccc(N(C)c3ccc4c(C)n(C)nc4c3)n2)cc1S(N)(=O)=O
REMARK SMILES IDX 6 1 7 3 11 4 10 5 25 6 9 7 8 8 12 9 13 10 14 11 24 12 15 13
REMARK SMILES IDX 23 14 16 15 22 16 17 17 20 18 18 19 21 20 19 21 5 22 4 23
REMARK SMILES IDX 26 24 3 25 27 26 2 27 1 28 28 29 30 30 31 31 29 32
REMARK H PARENT 6 2 29 33 29 34
REMARK Flexibility Score: inf
ROOT
ATOM      1  N   UNL     1      29.975  22.456   5.704  1.00  0.00    -0.324 N 
ATOM      2  H   UNL     1      29.066  22.570   5.202  1.00  0.00     0.170 HD
ENDROOT
BRANCH   1   3
ATOM      3  C   UNL     1      29.945  22.443   7.138  1.00  0.00     0.229 A 
ATOM      4  C   UNL     1      29.038  21.544   9.142  1.00  0.00     0.138 A 
ATOM      5  C   UNL     1      29.814  22.443   9.889  1.00  0.00     0.067 A 
ATOM      6  N   UNL     1      29.117  21.581   7.783  1.00  0.00    -0.195 NA
ATOM      7  C   UNL     1      30.650  23.330   9.214  1.00  0.00     0.119 A 
ATOM      8  N   UNL     1      30.698  23.317   7.858  1.00  0.00    -0.221 NA
BRANCH   4   9
ATOM      9  N   UNL     1      28.146  20.607   9.786  1.00  0.00    -0.329 N 
ATOM     10  C   UNL     1      28.564  19.211   9.943  1.00  0.00     0.152 C 
BRANCH   9  11
ATOM     11  C   UNL     1      26.820  21.002  10.199  1.00  0.00     0.044 A 
ATOM     12  C   UNL     1      25.932  20.043  10.739  1.00  0.00     0.057 A 
ATOM     13  C   UNL     1      26.394  22.349  10.053  1.00  0.00     0.027 A 
ATOM     14  C   UNL     1      24.664  20.466  11.121  1.00  0.00     0.095 A 
ATOM     15  C   UNL     1      25.100  22.742  10.443  1.00  0.00     0.014 A 
ATOM     16  N   UNL     1      23.671  19.718  11.637  1.00  0.00    -0.173 NA
ATOM     17  C   UNL     1      24.263  21.767  10.980  1.00  0.00     0.023 A 
ATOM     18  N   UNL     1      22.641  20.537  11.826  1.00  0.00    -0.272 N 
ATOM     19  C   UNL     1      22.965  21.797  11.446  1.00  0.00     0.043 A 
ATOM     20  C   UNL     1      21.359  20.100  12.368  1.00  0.00     0.174 C 
ATOM     21  C   UNL     1      22.030  22.971  11.452  1.00  0.00     0.067 C 
ENDBRANCH   9  11
ENDBRANCH   4   9
ENDBRANCH   1   3
BRANCH   1  22
ATOM     22  C   UNL     1      31.183  22.418   4.924  1.00  0.00     0.042 A 
ATOM     23  C   UNL     1      31.438  21.373   4.026  1.00  0.00     0.026 A 
ATOM     24  C   UNL     1      32.092  23.479   5.013  1.00  0.00     0.048 A 
ATOM     25  C   UNL     1      32.604  21.368   3.261  1.00  0.00     0.007 A 
ATOM     26  C   UNL     1      33.270  23.490   4.249  1.00  0.00     0.087 A 
ATOM     27  C   UNL     1      33.543  22.406   3.378  1.00  0.00    -0.031 A 
ATOM     28  C   UNL     1      34.783  22.358   2.525  1.00  0.00     0.046 C 
BRANCH  26  29
ATOM     29  S   UNL     1      34.385  24.859   4.433  1.00  0.00     0.238 S 
ATOM     30  O   UNL     1      35.633  24.408   5.138  1.00  0.00    -0.207 OA
ATOM     31  O   UNL     1      33.746  25.939   5.260  1.00  0.00    -0.207 OA
BRANCH  29  32
ATOM     32  N   UNL     1      34.822  25.486   2.881  1.00  0.00    -0.225 NA
ATOM     33  H   UNL     1      35.694  26.049   3.007  1.00  0.00     0.137 HD
ATOM     34  H   UNL     1      35.069  24.676   2.269  1.00  0.00     0.137 HD
ENDBRANCH  29  32
ENDBRANCH  26  29
ENDBRANCH   1  22
TORSDOF 6
ENDMDL
MODEL 2
REMARK VINA RESULT:    -8.729      3.411      4.580
REMARK INTER + INTRA:         -11.700
REMARK INTER:                 -10.954
REMARK INTRA:                  -0.746
REMARK UNBOUND:                -0.163
REMARK SMILES Cc1ccc(Nc2nccc(N(C)c3ccc4c(C)n(C)nc4c3)n2)cc1S(N)(=O)=O
REMARK SMILES IDX 6 1 7 3 11 4 10 5 25 6 9 7 8 8 12 9 13 10 14 11 24 12 15 13
REMARK SMILES IDX 23 14 16 15 22 16 17 17 20 18 18 19 21 20 19 21 5 22 4 23
REMARK SMILES IDX 26 24 3 25 27 26 2 27 1 28 28 29 30 30 31 31 29 32
REMARK H PARENT 6 2 29 33 29 34
REMARK Flexibility Score: inf
ROOT
ATOM      1  N   UNL     1      31.958  26.676   6.475  1.00  0.00    -0.324 N 
ATOM      2  H   UNL     1      32.053  27.638   6.080  1.00  0.00     0.170 HD
ENDROOT
BRANCH   1   3
ATOM      3  C   UNL     1      31.210  26.528   7.690  1.00  0.00     0.229 A 
ATOM      4  C   UNL     1      29.293  25.667   8.802  1.00  0.00     0.138 A 
ATOM      5  C   UNL     1      29.715  26.283   9.991  1.00  0.00     0.067 A 
ATOM      6  N   UNL     1      30.049  25.820   7.679  1.00  0.00    -0.195 NA
ATOM      7  C   UNL     1      30.901  27.015   9.983  1.00  0.00     0.119 A 
ATOM      8  N   UNL     1      31.621  27.127   8.839  1.00  0.00    -0.221 NA
BRANCH   4   9
ATOM      9  N   UNL     1      28.068  24.904   8.746  1.00  0.00    -0.329 N 
ATOM     10  C   UNL     1      26.788  25.609   8.624  1.00  0.00     0.152 C 
BRANCH   9  11
ATOM     11  C   UNL     1      28.076  23.468   8.891  1.00  0.00     0.044 A 
ATOM     12  C   UNL     1      27.149  22.678   8.172  1.00  0.00     0.057 A 
ATOM     13  C   UNL     1      29.002  22.840   9.767  1.00  0.00     0.027 A 
ATOM     14  C   UNL     1      27.190  21.299   8.345  1.00  0.00     0.095 A 
ATOM     15  C   UNL     1      29.011  21.441   9.925  1.00  0.00     0.014 A 
ATOM     16  N   UNL     1      26.394  20.377   7.772  1.00  0.00    -0.173 NA
ATOM     17  C   UNL     1      28.088  20.702   9.189  1.00  0.00     0.023 A 
ATOM     18  N   UNL     1      26.782  19.197   8.246  1.00  0.00    -0.272 N 
ATOM     19  C   UNL     1      27.819  19.352   9.106  1.00  0.00     0.043 A 
ATOM     20  C   UNL     1      26.152  17.936   7.869  1.00  0.00     0.174 C 
ATOM     21  C   UNL     1      28.470  18.248   9.885  1.00  0.00     0.067 C 
ENDBRANCH   9  11
ENDBRANCH   4   9
ENDBRANCH   1   3
BRANCH   1  22
ATOM     22  C   UNL     1      32.659  25.601   5.826  1.00  0.00     0.042 A 
ATOM     23  C   UNL     1      33.920  25.799   5.246  1.00  0.00     0.026 A 
ATOM     24  C   UNL     1      32.104  24.316   5.831  1.00  0.00     0.048 A 
ATOM     25  C   UNL     1      34.594  24.738   4.643  1.00  0.00     0.007 A 
ATOM     26  C   UNL     1      32.770  23.237   5.229  1.00  0.00     0.087 A 
ATOM     27  C   UNL     1      34.023  23.455   4.604  1.00  0.00    -0.031 A 
ATOM     28  C   UNL     1      34.794  22.341   3.947  1.00  0.00     0.046 C 
BRANCH  26  29
ATOM     29  S   UNL     1      31.991  21.642   5.255  1.00  0.00     0.238 S 
ATOM     30  O   UNL     1      32.891  20.647   5.935  1.00  0.00    -0.207 OA
ATOM     31  O   UNL     1      31.741  21.164   3.853  1.00  0.00    -0.207 OA
BRANCH  29  32
ATOM     32  N   UNL     1      30.498  21.721   6.126  1.00  0.00    -0.225 NA
ATOM     33  H   UNL     1      30.215  20.741   6.349  1.00  0.00     0.137 HD
ATOM     34  H   UNL     1      30.685  22.198   7.036  1.00  0.00     0.137 HD
ENDBRANCH  29  32
ENDBRANCH  26  29
ENDBRANCH   1  22
TORSDOF 6
ENDMDL
MODEL 3
REMARK VINA RESULT:    -8.629      4.312      9.660
REMARK INTER + INTRA:         -11.567
REMARK INTER:                 -10.940
REMARK INTRA:                  -0.627
REMARK UNBOUND:                -0.163
REMARK SMILES Cc1ccc(Nc2nccc(N(C)c3ccc4c(C)n(C)nc4c3)n2)cc1S(N)(=O)=O
REMARK SMILES IDX 6 1 7 3 11 4 10 5 25 6 9 7 8 8 12 9 13 10 14 11 24 12 15 13
REMARK SMILES IDX 23 14 16 15 22 16 17 17 20 18 18 19 21 20 19 21 5 22 4 23
REMARK SMILES IDX 26 24 3 25 27 26 2 27 1 28 28 29 30 30 31 31 29 32
REMARK H PARENT 6 2 29 33 29 34
REMARK Flexibility Score: inf
ROOT
ATOM      1  N   UNL     1      27.841  24.139  10.852  1.00  0.00    -0.324 N 
ATOM      2  H   UNL     1      28.317  24.572  11.675  1.00  0.00     0.170 HD
ENDROOT
BRANCH   1   3
ATOM      3  C   UNL     1      28.029  24.760   9.573  1.00  0.00     0.229 A 
ATOM      4  C   UNL     1      29.519  25.626   7.935  1.00  0.00     0.138 A 
ATOM      5  C   UNL     1      28.421  26.015   7.152  1.00  0.00     0.067 A 
ATOM      6  N   UNL     1      29.289  25.020   9.134  1.00  0.00    -0.195 NA
ATOM      7  C   UNL     1      27.135  25.753   7.621  1.00  0.00     0.119 A 
ATOM      8  N   UNL     1      26.963  25.137   8.818  1.00  0.00    -0.221 NA
BRANCH   4   9
ATOM      9  N   UNL     1      30.875  25.879   7.506  1.00  0.00    -0.329 N 
ATOM     10  C   UNL     1      31.568  27.077   7.990  1.00  0.00     0.152 C 
BRANCH   9  11
ATOM     11  C   UNL     1      31.527  25.020   6.546  1.00  0.00     0.044 A 
ATOM     12  C   UNL     1      30.818  23.944   5.963  1.00  0.00     0.057 A 
ATOM     13  C   UNL     1      32.885  25.239   6.192  1.00  0.00     0.027 A 
ATOM     14  C   UNL     1      31.485  23.140   5.046  1.00  0.00     0.095 A 
ATOM     15  C   UNL     1      33.532  24.401   5.265  1.00  0.00     0.014 A 
ATOM     16  N   UNL     1      31.001  22.066   4.394  1.00  0.00    -0.173 NA
ATOM     17  C   UNL     1      32.793  23.360   4.708  1.00  0.00     0.023 A 
ATOM     18  N   UNL     1      31.996  21.602   3.643  1.00  0.00    -0.272 N 
ATOM     19  C   UNL     1      33.102  22.370   3.799  1.00  0.00     0.043 A 
ATOM     20  C   UNL     1      31.871  20.429   2.785  1.00  0.00     0.174 C 
ATOM     21  C   UNL     1      34.435  22.109   3.161  1.00  0.00     0.067 C 
ENDBRANCH   9  11
ENDBRANCH   4   9
ENDBRANCH   1   3
BRANCH   1  22
ATOM     22  C   UNL     1      26.966  23.021  11.083  1.00  0.00     0.042 A 
ATOM     23  C   UNL     1      25.879  23.116  11.963  1.00  0.00     0.026 A 
ATOM     24  C   UNL     1      27.163  21.835  10.366  1.00  0.00     0.048 A 
ATOM     25  C   UNL     1      25.029  22.028  12.153  1.00  0.00     0.007 A 
ATOM     26  C   UNL     1      26.315  20.730  10.546  1.00  0.00     0.087 A 
ATOM     27  C   UNL     1      25.246  20.819  11.472  1.00  0.00    -0.031 A 
ATOM     28  C   UNL     1      24.295  19.676  11.707  1.00  0.00     0.046 C 
BRANCH  26  29
ATOM     29  S   UNL     1      26.642  19.253   9.618  1.00  0.00     0.238 S 
ATOM     30  O   UNL     1      25.425  18.872   8.821  1.00  0.00    -0.207 OA
ATOM     31  O   UNL     1      26.966  18.118  10.547  1.00  0.00    -0.207 OA
BRANCH  29  32
ATOM     32  N   UNL     1      27.958  19.515   8.524  1.00  0.00    -0.225 NA
ATOM     33  H   UNL     1      28.566  20.255   8.941  1.00  0.00     0.137 HD
ATOM     34  H   UNL     1      28.523  18.638   8.491  1.00  0.00     0.137 HD
ENDBRANCH  29  32
ENDBRANCH  26  29
ENDBRANCH   1  22
TORSDOF 6
ENDMDL
MODEL 4
REMARK VINA RESULT:    -8.593      4.670      9.467
REMARK INTER + INTRA:         -11.519
REMARK INTER:                 -11.040
REMARK INTRA:                  -0.479
REMARK UNBOUND:                -0.163
REMARK SMILES Cc1ccc(Nc2nccc(N(C)c3ccc4c(C)n(C)nc4c3)n2)cc1S(N)(=O)=O
REMARK SMILES IDX 6 1 7 3 11 4 10 5 25 6 9 7 8 8 12 9 13 10 14 11 24 12 15 13
REMARK SMILES IDX 23 14 16 15 22 16 17 17 20 18 18 19 21 20 19 21 5 22 4 23
REMARK SMILES IDX 26 24 3 25 27 26 2 27 1 28 28 29 30 30 31 31 29 32
REMARK H PARENT 6 2 29 33 29 34
REMARK Flexibility Score: inf
ROOT
ATOM      1  N   UNL     1      27.762  23.657  10.721  1.00  0.00    -0.324 N 
ATOM      2  H   UNL     1      27.400  23.898  11.670  1.00  0.00     0.170 HD
ENDROOT
BRANCH   1   3
ATOM      3  C   UNL     1      27.950  24.730   9.788  1.00  0.00     0.229 A 
ATOM      4  C   UNL     1      29.372  25.866   8.259  1.00  0.00     0.138 A 
ATOM      5  C   UNL     1      28.367  26.821   8.044  1.00  0.00     0.067 A 
ATOM      6  N   UNL     1      29.138  24.853   9.139  1.00  0.00    -0.195 NA
ATOM      7  C   UNL     1      27.158  26.689   8.726  1.00  0.00     0.119 A 
ATOM      8  N   UNL     1      26.974  25.655   9.583  1.00  0.00    -0.221 NA
BRANCH   4   9
ATOM      9  N   UNL     1      30.649  25.955   7.588  1.00  0.00    -0.329 N 
ATOM     10  C   UNL     1      31.495  27.132   7.811  1.00  0.00     0.152 C 
BRANCH   9  11
ATOM     11  C   UNL     1      31.066  24.949   6.641  1.00  0.00     0.044 A 
ATOM     12  C   UNL     1      32.379  24.974   6.114  1.00  0.00     0.057 A 
ATOM     13  C   UNL     1      30.160  23.939   6.220  1.00  0.00     0.027 A 
ATOM     14  C   UNL     1      32.737  23.988   5.202  1.00  0.00     0.095 A 
ATOM     15  C   UNL     1      30.554  22.960   5.288  1.00  0.00     0.014 A 
ATOM     16  N   UNL     1      33.920  23.841   4.577  1.00  0.00    -0.173 NA
ATOM     17  C   UNL     1      31.859  23.016   4.805  1.00  0.00     0.023 A 
ATOM     18  N   UNL     1      33.799  22.781   3.784  1.00  0.00    -0.272 N 
ATOM     19  C   UNL     1      32.559  22.244   3.902  1.00  0.00     0.043 A 
ATOM     20  C   UNL     1      34.873  22.296   2.924  1.00  0.00     0.174 C 
ATOM     21  C   UNL     1      32.041  21.081   3.109  1.00  0.00     0.067 C 
ENDBRANCH   9  11
ENDBRANCH   4   9
ENDBRANCH   1   3
BRANCH   1  22
ATOM     22  C   UNL     1      27.949  22.268  10.397  1.00  0.00     0.042 A 
ATOM     23  C   UNL     1      29.230  21.721  10.243  1.00  0.00     0.026 A 
ATOM     24  C   UNL     1      26.832  21.429  10.299  1.00  0.00     0.048 A 
ATOM     25  C   UNL     1      29.389  20.367   9.953  1.00  0.00     0.007 A 
ATOM     26  C   UNL     1      26.975  20.063  10.009  1.00  0.00     0.087 A 
ATOM     27  C   UNL     1      28.272  19.528   9.809  1.00  0.00    -0.031 A 
ATOM     28  C   UNL     1      28.497  18.071   9.502  1.00  0.00     0.046 C 
BRANCH  26  29
ATOM     29  S   UNL     1      25.511  19.068   9.879  1.00  0.00     0.238 S 
ATOM     30  O   UNL     1      24.322  19.845  10.372  1.00  0.00    -0.207 OA
ATOM     31  O   UNL     1      25.646  17.833  10.725  1.00  0.00    -0.207 OA
BRANCH  29  32
ATOM     32  N   UNL     1      25.235  18.626   8.229  1.00  0.00    -0.225 NA
ATOM     33  H   UNL     1      24.624  17.778   8.232  1.00  0.00     0.137 HD
ATOM     34  H   UNL     1      24.687  19.394   7.781  1.00  0.00     0.137 HD
ENDBRANCH  29  32
ENDBRANCH  26  29
ENDBRANCH   1  22
TORSDOF 6
ENDMDL
MODEL 5
REMARK VINA RESULT:    -8.555      4.445     10.677
REMARK INTER + INTRA:         -11.469
REMARK INTER:                 -11.215
REMARK INTRA:                  -0.254
REMARK UNBOUND:                -0.163
REMARK SMILES Cc1ccc(Nc2nccc(N(C)c3ccc4c(C)n(C)nc4c3)n2)cc1S(N)(=O)=O
REMARK SMILES IDX 6 1 7 3 11 4 10 5 25 6 9 7 8 8 12 9 13 10 14 11 24 12 15 13
REMARK SMILES IDX 23 14 16 15 22 16 17 17 20 18 18 19 21 20 19 21 5 22 4 23
REMARK SMILES IDX 26 24 3 25 27 26 2 27 1 28 28 29 30 30 31 31 29 32
REMARK H PARENT 6 2 29 33 29 34
REMARK Flexibility Score: inf
ROOT
ATOM      1  N   UNL     1      26.625  21.136  10.200  1.00  0.00    -0.324 N 
ATOM      2  H   UNL     1      27.324  20.458  10.577  1.00  0.00     0.170 HD
ENDROOT
BRANCH   1   3
ATOM      3  C   UNL     1      27.068  22.054   9.191  1.00  0.00     0.229 A 
ATOM      4  C   UNL     1      28.818  23.381   8.280  1.00  0.00     0.138 A 
ATOM      5  C   UNL     1      27.932  23.871   7.309  1.00  0.00     0.067 A 
ATOM      6  N   UNL     1      28.355  22.494   9.204  1.00  0.00    -0.195 NA
ATOM      7  C   UNL     1      26.613  23.420   7.315  1.00  0.00     0.119 A 
ATOM      8  N   UNL     1      26.206  22.528   8.252  1.00  0.00    -0.221 NA
BRANCH   4   9
ATOM      9  N   UNL     1      30.194  23.818   8.330  1.00  0.00    -0.329 N 
ATOM     10  C   UNL     1      30.660  24.589   9.487  1.00  0.00     0.152 C 
BRANCH   9  11
ATOM     11  C   UNL     1      31.093  23.582   7.225  1.00  0.00     0.044 A 
ATOM     12  C   UNL     1      32.061  24.554   6.879  1.00  0.00     0.057 A 
ATOM     13  C   UNL     1      31.002  22.382   6.469  1.00  0.00     0.027 A 
ATOM     14  C   UNL     1      32.903  24.286   5.806  1.00  0.00     0.095 A 
ATOM     15  C   UNL     1      31.867  22.147   5.383  1.00  0.00     0.014 A 
ATOM     16  N   UNL     1      33.872  25.077   5.309  1.00  0.00    -0.173 NA
ATOM     17  C   UNL     1      32.811  23.126   5.086  1.00  0.00     0.023 A 
ATOM     18  N   UNL     1      34.397  24.426   4.276  1.00  0.00    -0.272 N 
ATOM     19  C   UNL     1      33.784  23.228   4.113  1.00  0.00     0.043 A 
ATOM     20  C   UNL     1      35.481  24.960   3.459  1.00  0.00     0.174 C 
ATOM     21  C   UNL     1      34.067  22.253   3.008  1.00  0.00     0.067 C 
ENDBRANCH   9  11
ENDBRANCH   4   9
ENDBRANCH   1   3
BRANCH   1  22
ATOM     22  C   UNL     1      25.313  21.158  10.787  1.00  0.00     0.042 A 
ATOM     23  C   UNL     1      24.748  20.007  11.353  1.00  0.00     0.026 A 
ATOM     24  C   UNL     1      24.610  22.367  10.855  1.00  0.00     0.048 A 
ATOM     25  C   UNL     1      23.483  20.056  11.939  1.00  0.00     0.007 A 
ATOM     26  C   UNL     1      23.337  22.434  11.442  1.00  0.00     0.087 A 
ATOM     27  C   UNL     1      22.753  21.255  11.971  1.00  0.00    -0.031 A 
ATOM     28  C   UNL     1      21.395  21.258  12.621  1.00  0.00     0.046 C 
BRANCH  26  29
ATOM     29  S   UNL     1      22.499  23.998  11.470  1.00  0.00     0.238 S 
ATOM     30  O   UNL     1      23.322  25.029  10.748  1.00  0.00    -0.207 OA
ATOM     31  O   UNL     1      22.311  24.461  12.888  1.00  0.00    -0.207 OA
BRANCH  29  32
ATOM     32  N   UNL     1      20.963  23.868  10.684  1.00  0.00    -0.225 NA
ATOM     33  H   UNL     1      21.052  23.131   9.948  1.00  0.00     0.137 HD
ATOM     34  H   UNL     1      20.275  23.516  11.386  1.00  0.00     0.137 HD
ENDBRANCH  29  32
ENDBRANCH  26  29
ENDBRANCH   1  22
TORSDOF 6
ENDMDL
MODEL 6
REMARK VINA RESULT:    -8.538      3.848      9.032
REMARK INTER + INTRA:         -11.446
REMARK INTER:                 -10.581
REMARK INTRA:                  -0.865
REMARK UNBOUND:                -0.163
REMARK SMILES Cc1ccc(Nc2nccc(N(C)c3ccc4c(C)n(C)nc4c3)n2)cc1S(N)(=O)=O
REMARK SMILES IDX 6 1 7 3 11 4 10 5 25 6 9 7 8 8 12 9 13 10 14 11 24 12 15 13
REMARK SMILES IDX 23 14 16 15 22 16 17 17 20 18 18 19 21 20 19 21 5 22 4 23
REMARK SMILES IDX 26 24 3 25 27 26 2 27 1 28 28 29 30 30 31 31 29 32
REMARK H PARENT 6 2 29 33 29 34
REMARK Flexibility Score: inf
ROOT
ATOM      1  N   UNL     1      26.140  23.874  11.195  1.00  0.00    -0.324 N 
ATOM      2  H   UNL     1      26.035  24.232  12.170  1.00  0.00     0.170 HD
ENDROOT
BRANCH   1   3
ATOM      3  C   UNL     1      26.279  24.840  10.143  1.00  0.00     0.229 A 
ATOM      4  C   UNL     1      27.691  25.984   8.611  1.00  0.00     0.138 A 
ATOM      5  C   UNL     1      26.591  26.738   8.171  1.00  0.00     0.067 A 
ATOM      6  N   UNL     1      27.504  25.064   9.598  1.00  0.00    -0.195 NA
ATOM      7  C   UNL     1      25.344  26.505   8.748  1.00  0.00     0.119 A 
ATOM      8  N   UNL     1      25.212  25.568   9.721  1.00  0.00    -0.221 NA
BRANCH   4   9
ATOM      9  N   UNL     1      29.010  26.187   8.058  1.00  0.00    -0.329 N 
ATOM     10  C   UNL     1      29.719  27.441   8.335  1.00  0.00     0.152 C 
BRANCH   9  11
ATOM     11  C   UNL     1      29.605  25.216   7.171  1.00  0.00     0.044 A 
ATOM     12  C   UNL     1      31.012  25.105   7.084  1.00  0.00     0.057 A 
ATOM     13  C   UNL     1      28.784  24.378   6.369  1.00  0.00     0.027 A 
ATOM     14  C   UNL     1      31.542  24.159   6.214  1.00  0.00     0.095 A 
ATOM     15  C   UNL     1      29.354  23.435   5.493  1.00  0.00     0.014 A 
ATOM     16  N   UNL     1      32.842  23.905   5.973  1.00  0.00    -0.173 NA
ATOM     17  C   UNL     1      30.744  23.353   5.448  1.00  0.00     0.023 A 
ATOM     18  N   UNL     1      32.874  22.941   5.058  1.00  0.00    -0.272 N 
ATOM     19  C   UNL     1      31.615  22.570   4.719  1.00  0.00     0.043 A 
ATOM     20  C   UNL     1      34.112  22.387   4.521  1.00  0.00     0.174 C 
ATOM     21  C   UNL     1      31.263  21.559   3.669  1.00  0.00     0.067 C 
ENDBRANCH   9  11
ENDBRANCH   4   9
ENDBRANCH   1   3
BRANCH   1  22
ATOM     22  C   UNL     1      26.041  22.456  10.976  1.00  0.00     0.042 A 
ATOM     23  C   UNL     1      24.854  21.759  11.240  1.00  0.00     0.026 A 
ATOM     24  C   UNL     1      27.129  21.768  10.427  1.00  0.00     0.048 A 
ATOM     25  C   UNL     1      24.773  20.388  10.999  1.00  0.00     0.007 A 
ATOM     26  C   UNL     1      27.063  20.388  10.176  1.00  0.00     0.087 A 
ATOM     27  C   UNL     1      25.875  19.682  10.489  1.00  0.00    -0.031 A 
ATOM     28  C   UNL     1      25.733  18.204  10.239  1.00  0.00     0.046 C 
BRANCH  26  29
ATOM     29  S   UNL     1      28.492  19.581   9.499  1.00  0.00     0.238 S 
ATOM     30  O   UNL     1      29.556  20.599   9.198  1.00  0.00    -0.207 OA
ATOM     31  O   UNL     1      28.134  18.885   8.216  1.00  0.00    -0.207 OA
BRANCH  29  32
ATOM     32  N   UNL     1      29.126  18.439  10.633  1.00  0.00    -0.225 NA
ATOM     33  H   UNL     1      28.517  17.591  10.595  1.00  0.00     0.137 HD
ATOM     34  H   UNL     1      30.072  18.149  10.299  1.00  0.00     0.137 HD
ENDBRANCH  29  32
ENDBRANCH  26  29
ENDBRANCH   1  22
TORSDOF 6
ENDMDL
MODEL 7
REMARK VINA RESULT:    -8.531      4.268      9.801
REMARK INTER + INTRA:         -11.437
REMARK INTER:                 -10.740
REMARK INTRA:                  -0.697
REMARK UNBOUND:                -0.163
REMARK SMILES Cc1ccc(Nc2nccc(N(C)c3ccc4c(C)n(C)nc4c3)n2)cc1S(N)(=O)=O
REMARK SMILES IDX 6 1 7 3 11 4 10 5 25 6 9 7 8 8 12 9 13 10 14 11 24 12 15 13
REMARK SMILES IDX 23 14 16 15 22 16 17 17 20 18 18 19 21 20 19 21 5 22 4 23
REMARK SMILES IDX 26 24 3 25 27 26 2 27 1 28 28 29 30 30 31 31 29 32
REMARK H PARENT 6 2 29 33 29 34
REMARK Flexibility Score: inf
ROOT
ATOM      1  N   UNL     1      27.673  24.228  11.190  1.00  0.00    -0.324 N 
ATOM      2  H   UNL     1      28.150  24.608  12.037  1.00  0.00     0.170 HD
ENDROOT
BRANCH   1   3
ATOM      3  C   UNL     1      27.841  24.940   9.957  1.00  0.00     0.229 A 
ATOM      4  C   UNL     1      29.288  25.690   8.225  1.00  0.00     0.138 A 
ATOM      5  C   UNL     1      28.211  26.360   7.625  1.00  0.00     0.067 A 
ATOM      6  N   UNL     1      29.073  25.009   9.385  1.00  0.00    -0.195 NA
ATOM      7  C   UNL     1      26.956  26.290   8.228  1.00  0.00     0.119 A 
ATOM      8  N   UNL     1      26.795  25.589   9.378  1.00  0.00    -0.221 NA
BRANCH   4   9
ATOM      9  N   UNL     1      30.613  25.733   7.652  1.00  0.00    -0.329 N 
ATOM     10  C   UNL     1      31.502  26.851   7.985  1.00  0.00     0.152 C 
BRANCH   9  11
ATOM     11  C   UNL     1      31.045  24.744   6.694  1.00  0.00     0.044 A 
ATOM     12  C   UNL     1      32.332  24.833   6.115  1.00  0.00     0.057 A 
ATOM     13  C   UNL     1      30.177  23.684   6.315  1.00  0.00     0.027 A 
ATOM     14  C   UNL     1      32.706  23.860   5.195  1.00  0.00     0.095 A 
ATOM     15  C   UNL     1      30.585  22.720   5.374  1.00  0.00     0.014 A 
ATOM     16  N   UNL     1      33.869  23.771   4.523  1.00  0.00    -0.173 NA
ATOM     17  C   UNL     1      31.864  22.841   4.838  1.00  0.00     0.023 A 
ATOM     18  N   UNL     1      33.772  22.700   3.741  1.00  0.00    -0.272 N 
ATOM     19  C   UNL     1      32.568  22.100   3.912  1.00  0.00     0.043 A 
ATOM     20  C   UNL     1      34.835  22.266   2.842  1.00  0.00     0.174 C 
ATOM     21  C   UNL     1      32.080  20.905   3.147  1.00  0.00     0.067 C 
ENDBRANCH   9  11
ENDBRANCH   4   9
ENDBRANCH   1   3
BRANCH   1  22
ATOM     22  C   UNL     1      26.816  23.084  11.348  1.00  0.00     0.042 A 
ATOM     23  C   UNL     1      25.703  23.120  12.200  1.00  0.00     0.026 A 
ATOM     24  C   UNL     1      27.056  21.935  10.586  1.00  0.00     0.048 A 
ATOM     25  C   UNL     1      24.871  22.007  12.320  1.00  0.00     0.007 A 
ATOM     26  C   UNL     1      26.226  20.807  10.694  1.00  0.00     0.087 A 
ATOM     27  C   UNL     1      25.131  20.835  11.593  1.00  0.00    -0.031 A 
ATOM     28  C   UNL     1      24.198  19.664  11.753  1.00  0.00     0.046 C 
BRANCH  26  29
ATOM     29  S   UNL     1      26.608  19.378   9.712  1.00  0.00     0.238 S 
ATOM     30  O   UNL     1      25.436  19.035   8.836  1.00  0.00    -0.207 OA
ATOM     31  O   UNL     1      26.889  18.199  10.600  1.00  0.00    -0.207 OA
BRANCH  29  32
ATOM     32  N   UNL     1      27.977  19.697   8.703  1.00  0.00    -0.225 NA
ATOM     33  H   UNL     1      27.733  20.510   8.095  1.00  0.00     0.137 HD
ATOM     34  H   UNL     1      28.763  20.003   9.319  1.00  0.00     0.137 HD
ENDBRANCH  29  32
ENDBRANCH  26  29
ENDBRANCH   1  22
TORSDOF 6
ENDMDL
MODEL 8
REMARK VINA RESULT:    -8.487      5.110     11.031
REMARK INTER + INTRA:         -11.379
REMARK INTER:                 -10.903
REMARK INTRA:                  -0.476
REMARK UNBOUND:                -0.163
REMARK SMILES Cc1ccc(Nc2nccc(N(C)c3ccc4c(C)n(C)nc4c3)n2)cc1S(N)(=O)=O
REMARK SMILES IDX 6 1 7 3 11 4 10 5 25 6 9 7 8 8 12 9 13 10 14 11 24 12 15 13
REMARK SMILES IDX 23 14 16 15 22 16 17 17 20 18 18 19 21 20 19 21 5 22 4 23
REMARK SMILES IDX 26 24 3 25 27 26 2 27 1 28 28 29 30 30 31 31 29 32
REMARK H PARENT 6 2 29 33 29 34
REMARK Flexibility Score: inf
ROOT
ATOM      1  N   UNL     1      26.458  21.163  10.074  1.00  0.00    -0.324 N 
ATOM      2  H   UNL     1      26.772  20.169  10.012  1.00  0.00     0.170 HD
ENDROOT
BRANCH   1   3
ATOM      3  C   UNL     1      26.978  22.086   9.107  1.00  0.00     0.229 A 
ATOM      4  C   UNL     1      28.835  23.296   8.249  1.00  0.00     0.138 A 
ATOM      5  C   UNL     1      27.993  23.907   7.307  1.00  0.00     0.067 A 
ATOM      6  N   UNL     1      28.297  22.411   9.133  1.00  0.00    -0.195 NA
ATOM      7  C   UNL     1      26.640  23.573   7.299  1.00  0.00     0.119 A 
ATOM      8  N   UNL     1      26.158  22.677   8.196  1.00  0.00    -0.221 NA
BRANCH   4   9
ATOM      9  N   UNL     1      30.244  23.609   8.310  1.00  0.00    -0.329 N 
ATOM     10  C   UNL     1      30.790  24.221   9.526  1.00  0.00     0.152 C 
BRANCH   9  11
ATOM     11  C   UNL     1      31.104  23.408   7.169  1.00  0.00     0.044 A 
ATOM     12  C   UNL     1      32.111  24.354   6.866  1.00  0.00     0.057 A 
ATOM     13  C   UNL     1      30.937  22.270   6.335  1.00  0.00     0.027 A 
ATOM     14  C   UNL     1      32.915  24.123   5.755  1.00  0.00     0.095 A 
ATOM     15  C   UNL     1      31.763  22.071   5.213  1.00  0.00     0.014 A 
ATOM     16  N   UNL     1      33.910  24.899   5.288  1.00  0.00    -0.173 NA
ATOM     17  C   UNL     1      32.748  23.022   4.959  1.00  0.00     0.023 A 
ATOM     18  N   UNL     1      34.379  24.296   4.199  1.00  0.00    -0.272 N 
ATOM     19  C   UNL     1      33.702  23.144   3.971  1.00  0.00     0.043 A 
ATOM     20  C   UNL     1      35.469  24.834   3.393  1.00  0.00     0.174 C 
ATOM     21  C   UNL     1      33.911  22.236   2.794  1.00  0.00     0.067 C 
ENDBRANCH   9  11
ENDBRANCH   4   9
ENDBRANCH   1   3
BRANCH   1  22
ATOM     22  C   UNL     1      25.613  21.542  11.174  1.00  0.00     0.042 A 
ATOM     23  C   UNL     1      26.035  22.479  12.128  1.00  0.00     0.026 A 
ATOM     24  C   UNL     1      24.318  21.017  11.259  1.00  0.00     0.048 A 
ATOM     25  C   UNL     1      25.190  22.850  13.174  1.00  0.00     0.007 A 
ATOM     26  C   UNL     1      23.454  21.382  12.304  1.00  0.00     0.087 A 
ATOM     27  C   UNL     1      23.905  22.294  13.291  1.00  0.00    -0.031 A 
ATOM     28  C   UNL     1      23.029  22.733  14.433  1.00  0.00     0.046 C 
BRANCH  26  29
ATOM     29  S   UNL     1      21.835  20.656  12.356  1.00  0.00     0.238 S 
ATOM     30  O   UNL     1      21.751  19.681  13.497  1.00  0.00    -0.207 OA
ATOM     31  O   UNL     1      21.561  19.909  11.081  1.00  0.00    -0.207 OA
BRANCH  29  32
ATOM     32  N   UNL     1      20.638  21.884  12.590  1.00  0.00    -0.225 NA
ATOM     33  H   UNL     1      20.891  22.403  13.460  1.00  0.00     0.137 HD
ATOM     34  H   UNL     1      20.717  22.560  11.798  1.00  0.00     0.137 HD
ENDBRANCH  29  32
ENDBRANCH  26  29
ENDBRANCH   1  22
TORSDOF 6
ENDMDL
MODEL 9
REMARK VINA RESULT:    -8.451      2.514      4.018
REMARK INTER + INTRA:         -11.332
REMARK INTER:                 -10.939
REMARK INTRA:                  -0.394
REMARK UNBOUND:                -0.163
REMARK SMILES Cc1ccc(Nc2nccc(N(C)c3ccc4c(C)n(C)nc4c3)n2)cc1S(N)(=O)=O
REMARK SMILES IDX 6 1 7 3 11 4 10 5 25 6 9 7 8 8 12 9 13 10 14 11 24 12 15 13
REMARK SMILES IDX 23 14 16 15 22 16 17 17 20 18 18 19 21 20 19 21 5 22 4 23
REMARK SMILES IDX 26 24 3 25 27 26 2 27 1 28 28 29 30 30 31 31 29 32
REMARK H PARENT 6 2 29 33 29 34
REMARK Flexibility Score: inf
ROOT
ATOM      1  N   UNL     1      27.772  22.308   6.865  1.00  0.00    -0.324 N 
ATOM      2  H   UNL     1      27.065  22.484   6.117  1.00  0.00     0.170 HD
ENDROOT
BRANCH   1   3
ATOM      3  C   UNL     1      27.348  21.570   8.019  1.00  0.00     0.229 A 
ATOM      4  C   UNL     1      25.959  21.431   9.944  1.00  0.00     0.138 A 
ATOM      5  C   UNL     1      26.561  20.209  10.282  1.00  0.00     0.067 A 
ATOM      6  N   UNL     1      26.382  22.084   8.826  1.00  0.00    -0.195 NA
ATOM      7  C   UNL     1      27.558  19.699   9.452  1.00  0.00     0.119 A 
ATOM      8  N   UNL     1      27.934  20.386   8.344  1.00  0.00    -0.221 NA
BRANCH   4   9
ATOM      9  N   UNL     1      24.928  22.014  10.771  1.00  0.00    -0.329 N 
ATOM     10  C   UNL     1      24.706  23.463  10.727  1.00  0.00     0.152 C 
BRANCH   9  11
ATOM     11  C   UNL     1      24.170  21.208  11.698  1.00  0.00     0.044 A 
ATOM     12  C   UNL     1      24.737  20.838  12.940  1.00  0.00     0.057 A 
ATOM     13  C   UNL     1      22.861  20.768  11.366  1.00  0.00     0.027 A 
ATOM     14  C   UNL     1      23.974  20.058  13.802  1.00  0.00     0.095 A 
ATOM     15  C   UNL     1      22.119  19.973  12.258  1.00  0.00     0.014 A 
ATOM     16  N   UNL     1      24.328  19.589  15.013  1.00  0.00    -0.173 NA
ATOM     17  C   UNL     1      22.712  19.642  13.474  1.00  0.00     0.023 A 
ATOM     18  N   UNL     1      23.296  18.877  15.458  1.00  0.00    -0.272 N 
ATOM     19  C   UNL     1      22.287  18.893  14.552  1.00  0.00     0.043 A 
ATOM     20  C   UNL     1      23.292  18.191  16.745  1.00  0.00     0.174 C 
ATOM     21  C   UNL     1      20.995  18.143  14.684  1.00  0.00     0.067 C 
ENDBRANCH   9  11
ENDBRANCH   4   9
ENDBRANCH   1   3
BRANCH   1  22
ATOM     22  C   UNL     1      29.075  22.899   6.722  1.00  0.00     0.042 A 
ATOM     23  C   UNL     1      29.440  24.044   7.444  1.00  0.00     0.026 A 
ATOM     24  C   UNL     1      30.022  22.282   5.897  1.00  0.00     0.048 A 
ATOM     25  C   UNL     1      30.717  24.586   7.308  1.00  0.00     0.007 A 
ATOM     26  C   UNL     1      31.313  22.814   5.750  1.00  0.00     0.087 A 
ATOM     27  C   UNL     1      31.658  23.999   6.448  1.00  0.00    -0.031 A 
ATOM     28  C   UNL     1      33.026  24.619   6.342  1.00  0.00     0.046 C 
BRANCH  26  29
ATOM     29  S   UNL     1      32.451  21.988   4.668  1.00  0.00     0.238 S 
ATOM     30  O   UNL     1      33.570  21.385   5.470  1.00  0.00    -0.207 OA
ATOM     31  O   UNL     1      33.048  22.968   3.697  1.00  0.00    -0.207 OA
BRANCH  29  32
ATOM     32  N   UNL     1      31.644  20.722   3.807  1.00  0.00    -0.225 NA
ATOM     33  H   UNL     1      30.656  21.028   3.658  1.00  0.00     0.137 HD
ATOM     34  H   UNL     1      32.085  20.647   2.863  1.00  0.00     0.137 HD
ENDBRANCH  29  32
ENDBRANCH  26  29
ENDBRANCH   1  22
TORSDOF 6
ENDMDL
MODEL 10
REMARK VINA RESULT:    -8.432      4.058      6.964
REMARK INTER + INTRA:         -11.306
REMARK INTER:                  -9.980
REMARK INTRA:                  -1.326
REMARK UNBOUND:                -0.163
REMARK SMILES Cc1ccc(Nc2nccc(N(C)c3ccc4c(C)n(C)nc4c3)n2)cc1S(N)(=O)=O
REMARK SMILES IDX 6 1 7 3 11 4 10 5 25 6 9 7 8 8 12 9 13 10 14 11 24 12 15 13
REMARK SMILES IDX 23 14 16 15 22 16 17 17 20 18 18 19 21 20 19 21 5 22 4 23
REMARK SMILES IDX 26 24 3 25 27 26 2 27 1 28 28 29 30 30 31 31 29 32
REMARK H PARENT 6 2 29 33 29 34
REMARK Flexibility Score: inf
ROOT
ATOM      1  N   UNL     1      35.225  26.484   4.828  1.00  0.00    -0.324 N 
ATOM      2  H   UNL     1      36.208  26.449   5.182  1.00  0.00     0.170 HD
ENDROOT
BRANCH   1   3
ATOM      3  C   UNL     1      34.490  27.698   5.031  1.00  0.00     0.229 A 
ATOM      4  C   UNL     1      32.596  28.794   5.961  1.00  0.00     0.138 A 
ATOM      5  C   UNL     1      33.017  30.000   5.379  1.00  0.00     0.067 A 
ATOM      6  N   UNL     1      33.341  27.672   5.756  1.00  0.00    -0.195 NA
ATOM      7  C   UNL     1      34.191  30.010   4.627  1.00  0.00     0.119 A 
ATOM      8  N   UNL     1      34.900  28.865   4.464  1.00  0.00    -0.221 NA
BRANCH   4   9
ATOM      9  N   UNL     1      31.383  28.720   6.742  1.00  0.00    -0.329 N 
ATOM     10  C   UNL     1      30.641  29.952   7.032  1.00  0.00     0.152 C 
BRANCH   9  11
ATOM     11  C   UNL     1      30.937  27.472   7.311  1.00  0.00     0.044 A 
ATOM     12  C   UNL     1      30.070  26.628   6.577  1.00  0.00     0.057 A 
ATOM     13  C   UNL     1      31.350  27.087   8.615  1.00  0.00     0.027 A 
ATOM     14  C   UNL     1      29.663  25.436   7.165  1.00  0.00     0.095 A 
ATOM     15  C   UNL     1      30.912  25.877   9.183  1.00  0.00     0.014 A 
ATOM     16  N   UNL     1      28.836  24.509   6.647  1.00  0.00    -0.173 NA
ATOM     17  C   UNL     1      30.068  25.073   8.420  1.00  0.00     0.023 A 
ATOM     18  N   UNL     1      28.715  23.556   7.567  1.00  0.00    -0.272 N 
ATOM     19  C   UNL     1      29.459  23.859   8.659  1.00  0.00     0.043 A 
ATOM     20  C   UNL     1      27.887  22.369   7.386  1.00  0.00     0.174 C 
ATOM     21  C   UNL     1      29.513  23.050   9.921  1.00  0.00     0.067 C 
ENDBRANCH   9  11
ENDBRANCH   4   9
ENDBRANCH   1   3
BRANCH   1  22
ATOM     22  C   UNL     1      34.664  25.289   4.258  1.00  0.00     0.042 A 
ATOM     23  C   UNL     1      34.995  24.875   2.960  1.00  0.00     0.026 A 
ATOM     24  C   UNL     1      33.823  24.486   5.037  1.00  0.00     0.048 A 
ATOM     25  C   UNL     1      34.458  23.700   2.436  1.00  0.00     0.007 A 
ATOM     26  C   UNL     1      33.275  23.299   4.524  1.00  0.00     0.087 A 
ATOM     27  C   UNL     1      33.578  22.912   3.195  1.00  0.00    -0.031 A 
ATOM     28  C   UNL     1      33.031  21.649   2.586  1.00  0.00     0.046 C 
BRANCH  26  29
ATOM     29  S   UNL     1      32.199  22.346   5.565  1.00  0.00     0.238 S 
ATOM     30  O   UNL     1      32.132  22.966   6.933  1.00  0.00    -0.207 OA
ATOM     31  O   UNL     1      32.726  20.946   5.712  1.00  0.00    -0.207 OA
BRANCH  29  32
ATOM     32  N   UNL     1      30.603  22.308   4.897  1.00  0.00    -0.225 NA
ATOM     33  H   UNL     1      30.108  23.168   5.224  1.00  0.00     0.137 HD
ATOM     34  H   UNL     1      30.690  22.382   3.859  1.00  0.00     0.137 HD
ENDBRANCH  29  32
ENDBRANCH  26  29
ENDBRANCH   1  22
TORSDOF 6
ENDMDL
MODEL 11
REMARK VINA RESULT:    -8.362      5.468      8.609
REMARK INTER + INTRA:         -11.214
REMARK INTER:                 -10.732
REMARK INTRA:                  -0.483
REMARK UNBOUND:                -0.163
REMARK SMILES Cc1ccc(Nc2nccc(N(C)c3ccc4c(C)n(C)nc4c3)n2)cc1S(N)(=O)=O
REMARK SMILES IDX 6 1 7 3 11 4 10 5 25 6 9 7 8 8 12 9 13 10 14 11 24 12 15 13
REMARK SMILES IDX 23 14 16 15 22 16 17 17 20 18 18 19 21 20 19 21 5 22 4 23
REMARK SMILES IDX 26 24 3 25 27 26 2 27 1 28 28 29 30 30 31 31 29 32
REMARK H PARENT 6 2 29 33 29 34
REMARK Flexibility Score: inf
ROOT
ATOM      1  N   UNL     1      24.420  22.443  10.850  1.00  0.00    -0.324 N 
ATOM      2  H   UNL     1      24.069  23.390  10.585  1.00  0.00     0.170 HD
ENDROOT
BRANCH   1   3
ATOM      3  C   UNL     1      23.532  21.586  11.581  1.00  0.00     0.229 A 
ATOM      4  C   UNL     1      23.044  20.404  13.585  1.00  0.00     0.138 A 
ATOM      5  C   UNL     1      21.884  19.886  12.989  1.00  0.00     0.067 A 
ATOM      6  N   UNL     1      23.844  21.231  12.856  1.00  0.00    -0.195 NA
ATOM      7  C   UNL     1      21.583  20.249  11.677  1.00  0.00     0.119 A 
ATOM      8  N   UNL     1      22.410  21.085  10.999  1.00  0.00    -0.221 NA
BRANCH   4   9
ATOM      9  N   UNL     1      23.412  20.057  14.938  1.00  0.00    -0.329 N 
ATOM     10  C   UNL     1      24.780  20.314  15.398  1.00  0.00     0.152 C 
BRANCH   9  11
ATOM     11  C   UNL     1      22.483  19.386  15.815  1.00  0.00     0.044 A 
ATOM     12  C   UNL     1      22.422  17.973  15.836  1.00  0.00     0.057 A 
ATOM     13  C   UNL     1      21.613  20.137  16.651  1.00  0.00     0.027 A 
ATOM     14  C   UNL     1      21.510  17.368  16.693  1.00  0.00     0.095 A 
ATOM     15  C   UNL     1      20.696  19.492  17.502  1.00  0.00     0.014 A 
ATOM     16  N   UNL     1      21.285  16.050  16.853  1.00  0.00    -0.173 NA
ATOM     17  C   UNL     1      20.679  18.099  17.497  1.00  0.00     0.023 A 
ATOM     18  N   UNL     1      20.315  15.940  17.755  1.00  0.00    -0.272 N 
ATOM     19  C   UNL     1      19.925  17.168  18.180  1.00  0.00     0.043 A 
ATOM     20  C   UNL     1      19.775  14.660  18.199  1.00  0.00     0.174 C 
ATOM     21  C   UNL     1      18.808  17.435  19.144  1.00  0.00     0.067 C 
ENDBRANCH   9  11
ENDBRANCH   4   9
ENDBRANCH   1   3
BRANCH   1  22
ATOM     22  C   UNL     1      25.786  22.114  10.545  1.00  0.00     0.042 A 
ATOM     23  C   UNL     1      26.770  23.108  10.445  1.00  0.00     0.026 A 
ATOM     24  C   UNL     1      26.156  20.771  10.412  1.00  0.00     0.048 A 
ATOM     25  C   UNL     1      28.094  22.765  10.173  1.00  0.00     0.007 A 
ATOM     26  C   UNL     1      27.486  20.409  10.140  1.00  0.00     0.087 A 
ATOM     27  C   UNL     1      28.465  21.422   9.993  1.00  0.00    -0.031 A 
ATOM     28  C   UNL     1      29.909  21.104   9.708  1.00  0.00     0.046 C 
BRANCH  26  29
ATOM     29  S   UNL     1      27.873  18.686   9.962  1.00  0.00     0.238 S 
ATOM     30  O   UNL     1      28.133  18.369   8.515  1.00  0.00    -0.207 OA
ATOM     31  O   UNL     1      26.717  17.844  10.424  1.00  0.00    -0.207 OA
BRANCH  29  32
ATOM     32  N   UNL     1      29.290  18.295  10.876  1.00  0.00    -0.225 NA
ATOM     33  H   UNL     1      30.039  18.039  10.194  1.00  0.00     0.137 HD
ATOM     34  H   UNL     1      29.605  19.164  11.362  1.00  0.00     0.137 HD
ENDBRANCH  29  32
ENDBRANCH  26  29
ENDBRANCH   1  22
TORSDOF 6
ENDMDL
MODEL 12
REMARK VINA RESULT:    -8.350      5.118     10.888
REMARK INTER + INTRA:         -11.198
REMARK INTER:                 -10.777
REMARK INTRA:                  -0.421
REMARK UNBOUND:                -0.163
REMARK SMILES Cc1ccc(Nc2nccc(N(C)c3ccc4c(C)n(C)nc4c3)n2)cc1S(N)(=O)=O
REMARK SMILES IDX 6 1 7 3 11 4 10 5 25 6 9 7 8 8 12 9 13 10 14 11 24 12 15 13
REMARK SMILES IDX 23 14 16 15 22 16 17 17 20 18 18 19 21 20 19 21 5 22 4 23
REMARK SMILES IDX 26 24 3 25 27 26 2 27 1 28 28 29 30 30 31 31 29 32
REMARK H PARENT 6 2 29 33 29 34
REMARK Flexibility Score: inf
ROOT
ATOM      1  N   UNL     1      26.323  20.528   9.960  1.00  0.00    -0.324 N 
ATOM      2  H   UNL     1      25.944  19.726   9.409  1.00  0.00     0.170 HD
ENDROOT
BRANCH   1   3
ATOM      3  C   UNL     1      27.651  20.976   9.654  1.00  0.00     0.229 A 
ATOM      4  C   UNL     1      29.075  22.374   8.363  1.00  0.00     0.138 A 
ATOM      5  C   UNL     1      30.193  21.807   8.995  1.00  0.00     0.067 A 
ATOM      6  N   UNL     1      27.834  21.930   8.704  1.00  0.00    -0.195 NA
ATOM      7  C   UNL     1      29.991  20.821   9.959  1.00  0.00     0.119 A 
ATOM      8  N   UNL     1      28.732  20.422  10.267  1.00  0.00    -0.221 NA
BRANCH   4   9
ATOM      9  N   UNL     1      29.222  23.393   7.350  1.00  0.00    -0.329 N 
ATOM     10  C   UNL     1      28.053  24.186   6.955  1.00  0.00     0.152 C 
BRANCH   9  11
ATOM     11  C   UNL     1      30.476  23.586   6.662  1.00  0.00     0.044 A 
ATOM     12  C   UNL     1      30.811  22.769   5.557  1.00  0.00     0.057 A 
ATOM     13  C   UNL     1      31.388  24.585   7.096  1.00  0.00     0.027 A 
ATOM     14  C   UNL     1      32.030  22.987   4.926  1.00  0.00     0.095 A 
ATOM     15  C   UNL     1      32.618  24.774   6.439  1.00  0.00     0.014 A 
ATOM     16  N   UNL     1      32.541  22.316   3.877  1.00  0.00    -0.173 NA
ATOM     17  C   UNL     1      32.901  23.954   5.350  1.00  0.00     0.023 A 
ATOM     18  N   UNL     1      33.733  22.852   3.631  1.00  0.00    -0.272 N 
ATOM     19  C   UNL     1      33.985  23.860   4.502  1.00  0.00     0.043 A 
ATOM     20  C   UNL     1      34.614  22.390   2.564  1.00  0.00     0.174 C 
ATOM     21  C   UNL     1      35.259  24.648   4.568  1.00  0.00     0.067 C 
ENDBRANCH   9  11
ENDBRANCH   4   9
ENDBRANCH   1   3
BRANCH   1  22
ATOM     22  C   UNL     1      25.526  21.051  11.037  1.00  0.00     0.042 A 
ATOM     23  C   UNL     1      26.034  22.015  11.918  1.00  0.00     0.026 A 
ATOM     24  C   UNL     1      24.195  20.639  11.169  1.00  0.00     0.048 A 
ATOM     25  C   UNL     1      25.236  22.527  12.941  1.00  0.00     0.007 A 
ATOM     26  C   UNL     1      23.377  21.146  12.192  1.00  0.00     0.087 A 
ATOM     27  C   UNL     1      23.913  22.085  13.107  1.00  0.00    -0.031 A 
ATOM     28  C   UNL     1      23.090  22.674  14.222  1.00  0.00     0.046 C 
BRANCH  26  29
ATOM     29  S   UNL     1      21.706  20.558  12.309  1.00  0.00     0.238 S 
ATOM     30  O   UNL     1      21.583  19.600  13.461  1.00  0.00    -0.207 OA
ATOM     31  O   UNL     1      21.325  19.828  11.051  1.00  0.00    -0.207 OA
BRANCH  29  32
ATOM     32  N   UNL     1      20.625  21.882  12.574  1.00  0.00    -0.225 NA
ATOM     33  H   UNL     1      19.829  21.773  11.906  1.00  0.00     0.137 HD
ATOM     34  H   UNL     1      20.231  21.784  13.536  1.00  0.00     0.137 HD
ENDBRANCH  29  32
ENDBRANCH  26  29
ENDBRANCH   1  22
TORSDOF 6
ENDMDL
MODEL 13
REMARK VINA RESULT:    -8.339      4.628     10.546
REMARK INTER + INTRA:         -11.184
REMARK INTER:                 -10.799
REMARK INTRA:                  -0.385
REMARK UNBOUND:                -0.163
REMARK SMILES Cc1ccc(Nc2nccc(N(C)c3ccc4c(C)n(C)nc4c3)n2)cc1S(N)(=O)=O
REMARK SMILES IDX 6 1 7 3 11 4 10 5 25 6 9 7 8 8 12 9 13 10 14 11 24 12 15 13
REMARK SMILES IDX 23 14 16 15 22 16 17 17 20 18 18 19 21 20 19 21 5 22 4 23
REMARK SMILES IDX 26 24 3 25 27 26 2 27 1 28 28 29 30 30 31 31 29 32
REMARK H PARENT 6 2 29 33 29 34
REMARK Flexibility Score: inf
ROOT
ATOM      1  N   UNL     1      26.361  25.039  10.624  1.00  0.00    -0.324 N 
ATOM      2  H   UNL     1      26.784  25.740  11.272  1.00  0.00     0.170 HD
ENDROOT
BRANCH   1   3
ATOM      3  C   UNL     1      26.988  24.851   9.348  1.00  0.00     0.229 A 
ATOM      4  C   UNL     1      28.730  23.863   8.067  1.00  0.00     0.138 A 
ATOM      5  C   UNL     1      28.257  24.526   6.924  1.00  0.00     0.067 A 
ATOM      6  N   UNL     1      28.088  24.058   9.252  1.00  0.00    -0.195 NA
ATOM      7  C   UNL     1      27.135  25.346   7.039  1.00  0.00     0.119 A 
ATOM      8  N   UNL     1      26.527  25.496   8.242  1.00  0.00    -0.221 NA
BRANCH   4   9
ATOM      9  N   UNL     1      29.894  23.008   8.011  1.00  0.00    -0.329 N 
ATOM     10  C   UNL     1      29.986  21.863   8.922  1.00  0.00     0.152 C 
BRANCH   9  11
ATOM     11  C   UNL     1      31.000  23.310   7.135  1.00  0.00     0.044 A 
ATOM     12  C   UNL     1      31.248  22.499   6.003  1.00  0.00     0.057 A 
ATOM     13  C   UNL     1      31.856  24.410   7.411  1.00  0.00     0.027 A 
ATOM     14  C   UNL     1      32.327  22.824   5.188  1.00  0.00     0.095 A 
ATOM     15  C   UNL     1      32.944  24.706   6.569  1.00  0.00     0.014 A 
ATOM     16  N   UNL     1      32.741  22.179   4.082  1.00  0.00    -0.173 NA
ATOM     17  C   UNL     1      33.144  23.888   5.460  1.00  0.00     0.023 A 
ATOM     18  N   UNL     1      33.817  22.828   3.648  1.00  0.00    -0.272 N 
ATOM     19  C   UNL     1      34.090  23.882   4.456  1.00  0.00     0.043 A 
ATOM     20  C   UNL     1      34.570  22.429   2.463  1.00  0.00     0.174 C 
ATOM     21  C   UNL     1      35.268  24.800   4.315  1.00  0.00     0.067 C 
ENDBRANCH   9  11
ENDBRANCH   4   9
ENDBRANCH   1   3
BRANCH   1  22
ATOM     22  C   UNL     1      25.138  24.395  11.022  1.00  0.00     0.042 A 
ATOM     23  C   UNL     1      23.995  25.138  11.346  1.00  0.00     0.026 A 
ATOM     24  C   UNL     1      25.066  22.997  11.021  1.00  0.00     0.048 A 
ATOM     25  C   UNL     1      22.813  24.492  11.707  1.00  0.00     0.007 A 
ATOM     26  C   UNL     1      23.882  22.331  11.380  1.00  0.00     0.087 A 
ATOM     27  C   UNL     1      22.745  23.090  11.752  1.00  0.00    -0.031 A 
ATOM     28  C   UNL     1      21.443  22.442  12.140  1.00  0.00     0.046 C 
BRANCH  26  29
ATOM     29  S   UNL     1      23.876  20.557  11.377  1.00  0.00     0.238 S 
ATOM     30  O   UNL     1      24.821  20.046  10.325  1.00  0.00    -0.207 OA
ATOM     31  O   UNL     1      22.500  20.044  11.058  1.00  0.00    -0.207 OA
BRANCH  29  32
ATOM     32  N   UNL     1      24.387  19.955  12.917  1.00  0.00    -0.225 NA
ATOM     33  H   UNL     1      23.546  19.557  13.391  1.00  0.00     0.137 HD
ATOM     34  H   UNL     1      25.045  19.162  12.747  1.00  0.00     0.137 HD
ENDBRANCH  29  32
ENDBRANCH  26  29
ENDBRANCH   1  22
TORSDOF 6
ENDMDL
MODEL 14
REMARK VINA RESULT:    -8.287      4.260      7.227
REMARK INTER + INTRA:         -11.115
REMARK INTER:                 -10.860
REMARK INTRA:                  -0.255
REMARK UNBOUND:                -0.163
REMARK SMILES Cc1ccc(Nc2nccc(N(C)c3ccc4c(C)n(C)nc4c3)n2)cc1S(N)(=O)=O
REMARK SMILES IDX 6 1 7 3 11 4 10 5 25 6 9 7 8 8 12 9 13 10 14 11 24 12 15 13
REMARK SMILES IDX 23 14 16 15 22 16 17 17 20 18 18 19 21 20 19 21 5 22 4 23
REMARK SMILES IDX 26 24 3 25 27 26 2 27 1 28 28 29 30 30 31 31 29 32
REMARK H PARENT 6 2 29 33 29 34
REMARK Flexibility Score: inf
ROOT
ATOM      1  N   UNL     1      35.221  26.879   4.475  1.00  0.00    -0.324 N 
ATOM      2  H   UNL     1      36.233  27.137   4.430  1.00  0.00     0.170 HD
ENDROOT
BRANCH   1   3
ATOM      3  C   UNL     1      34.846  25.574   4.013  1.00  0.00     0.229 A 
ATOM      4  C   UNL     1      33.792  23.490   4.455  1.00  0.00     0.138 A 
ATOM      5  C   UNL     1      34.171  23.036   3.182  1.00  0.00     0.067 A 
ATOM      6  N   UNL     1      34.155  24.745   4.839  1.00  0.00    -0.195 NA
ATOM      7  C   UNL     1      34.891  23.893   2.350  1.00  0.00     0.119 A 
ATOM      8  N   UNL     1      35.216  25.138   2.780  1.00  0.00    -0.221 NA
BRANCH   4   9
ATOM      9  N   UNL     1      33.054  22.644   5.364  1.00  0.00    -0.329 N 
ATOM     10  C   UNL     1      33.347  21.207   5.405  1.00  0.00     0.152 C 
BRANCH   9  11
ATOM     11  C   UNL     1      31.979  23.173   6.169  1.00  0.00     0.044 A 
ATOM     12  C   UNL     1      30.665  22.676   6.010  1.00  0.00     0.057 A 
ATOM     13  C   UNL     1      32.229  24.205   7.114  1.00  0.00     0.027 A 
ATOM     14  C   UNL     1      29.659  23.216   6.804  1.00  0.00     0.095 A 
ATOM     15  C   UNL     1      31.186  24.734   7.896  1.00  0.00     0.014 A 
ATOM     16  N   UNL     1      28.352  22.898   6.799  1.00  0.00    -0.173 NA
ATOM     17  C   UNL     1      29.910  24.207   7.714  1.00  0.00     0.023 A 
ATOM     18  N   UNL     1      27.769  23.681   7.702  1.00  0.00    -0.272 N 
ATOM     19  C   UNL     1      28.688  24.488   8.289  1.00  0.00     0.043 A 
ATOM     20  C   UNL     1      26.340  23.646   7.991  1.00  0.00     0.174 C 
ATOM     21  C   UNL     1      28.386  25.549   9.305  1.00  0.00     0.067 C 
ENDBRANCH   9  11
ENDBRANCH   4   9
ENDBRANCH   1   3
BRANCH   1  22
ATOM     22  C   UNL     1      34.283  27.882   4.902  1.00  0.00     0.042 A 
ATOM     23  C   UNL     1      33.121  27.540   5.608  1.00  0.00     0.026 A 
ATOM     24  C   UNL     1      34.567  29.233   4.668  1.00  0.00     0.048 A 
ATOM     25  C   UNL     1      32.237  28.530   6.034  1.00  0.00     0.007 A 
ATOM     26  C   UNL     1      33.687  30.242   5.092  1.00  0.00     0.087 A 
ATOM     27  C   UNL     1      32.492  29.884   5.764  1.00  0.00    -0.031 A 
ATOM     28  C   UNL     1      31.509  30.916   6.251  1.00  0.00     0.046 C 
BRANCH  26  29
ATOM     29  S   UNL     1      34.104  31.931   4.738  1.00  0.00     0.238 S 
ATOM     30  O   UNL     1      34.222  32.706   6.021  1.00  0.00    -0.207 OA
ATOM     31  O   UNL     1      33.027  32.567   3.905  1.00  0.00    -0.207 OA
BRANCH  29  32
ATOM     32  N   UNL     1      35.619  32.009   3.905  1.00  0.00    -0.225 NA
ATOM     33  H   UNL     1      35.519  32.716   3.142  1.00  0.00     0.137 HD
ATOM     34  H   UNL     1      36.331  32.380   4.572  1.00  0.00     0.137 HD
ENDBRANCH  29  32
ENDBRANCH  26  29
ENDBRANCH   1  22
TORSDOF 6
ENDMDL
MODEL 15
REMARK VINA RESULT:    -8.193      5.295     10.613
REMARK INTER + INTRA:         -10.991
REMARK INTER:                 -10.394
REMARK INTRA:                  -0.596
REMARK UNBOUND:                -0.163
REMARK SMILES Cc1ccc(Nc2nccc(N(C)c3ccc4c(C)n(C)nc4c3)n2)cc1S(N)(=O)=O
REMARK SMILES IDX 6 1 7 3 11 4 10 5 25 6 9 7 8 8 12 9 13 10 14 11 24 12 15 13
REMARK SMILES IDX 23 14 16 15 22 16 17 17 20 18 18 19 21 20 19 21 5 22 4 23
REMARK SMILES IDX 26 24 3 25 27 26 2 27 1 28 28 29 30 30 31 31 29 32
REMARK H PARENT 6 2 29 33 29 34
REMARK Flexibility Score: inf
ROOT
ATOM      1  N   UNL     1      25.504  24.992  10.998  1.00  0.00    -0.324 N 
ATOM      2  H   UNL     1      25.189  25.924  11.348  1.00  0.00     0.170 HD
ENDROOT
BRANCH   1   3
ATOM      3  C   UNL     1      26.235  24.957   9.764  1.00  0.00     0.229 A 
ATOM      4  C   UNL     1      27.982  24.002   8.464  1.00  0.00     0.138 A 
ATOM      5  C   UNL     1      27.703  24.913   7.433  1.00  0.00     0.067 A 
ATOM      6  N   UNL     1      27.246  24.062   9.609  1.00  0.00    -0.195 NA
ATOM      7  C   UNL     1      26.671  25.834   7.611  1.00  0.00     0.119 A 
ATOM      8  N   UNL     1      25.963  25.842   8.767  1.00  0.00    -0.221 NA
BRANCH   4   9
ATOM      9  N   UNL     1      29.044  23.031   8.341  1.00  0.00    -0.329 N 
ATOM     10  C   UNL     1      28.978  21.793   9.125  1.00  0.00     0.152 C 
BRANCH   9  11
ATOM     11  C   UNL     1      30.206  23.295   7.528  1.00  0.00     0.044 A 
ATOM     12  C   UNL     1      30.383  22.611   6.303  1.00  0.00     0.057 A 
ATOM     13  C   UNL     1      31.186  24.230   7.956  1.00  0.00     0.027 A 
ATOM     14  C   UNL     1      31.519  22.894   5.552  1.00  0.00     0.095 A 
ATOM     15  C   UNL     1      32.329  24.487   7.175  1.00  0.00     0.014 A 
ATOM     16  N   UNL     1      31.881  22.347   4.377  1.00  0.00    -0.173 NA
ATOM     17  C   UNL     1      32.456  23.799   5.972  1.00  0.00     0.023 A 
ATOM     18  N   UNL     1      33.044  22.900   4.046  1.00  0.00    -0.272 N 
ATOM     19  C   UNL     1      33.424  23.798   4.989  1.00  0.00     0.043 A 
ATOM     20  C   UNL     1      33.776  22.561   2.830  1.00  0.00     0.174 C 
ATOM     21  C   UNL     1      34.713  24.565   4.984  1.00  0.00     0.067 C 
ENDBRANCH   9  11
ENDBRANCH   4   9
ENDBRANCH   1   3
BRANCH   1  22
ATOM     22  C   UNL     1      25.100  23.820  11.726  1.00  0.00     0.042 A 
ATOM     23  C   UNL     1      25.914  23.263  12.722  1.00  0.00     0.026 A 
ATOM     24  C   UNL     1      23.839  23.261  11.483  1.00  0.00     0.048 A 
ATOM     25  C   UNL     1      25.491  22.140  13.432  1.00  0.00     0.007 A 
ATOM     26  C   UNL     1      23.398  22.132  12.191  1.00  0.00     0.087 A 
ATOM     27  C   UNL     1      24.247  21.547  13.164  1.00  0.00    -0.031 A 
ATOM     28  C   UNL     1      23.834  20.340  13.963  1.00  0.00     0.046 C 
BRANCH  26  29
ATOM     29  S   UNL     1      21.796  21.468  11.812  1.00  0.00     0.238 S 
ATOM     30  O   UNL     1      20.981  21.353  13.070  1.00  0.00    -0.207 OA
ATOM     31  O   UNL     1      21.932  20.095  11.216  1.00  0.00    -0.207 OA
BRANCH  29  32
ATOM     32  N   UNL     1      20.965  22.510  10.708  1.00  0.00    -0.225 NA
ATOM     33  H   UNL     1      20.452  23.220  11.277  1.00  0.00     0.137 HD
ATOM     34  H   UNL     1      21.684  23.025  10.154  1.00  0.00     0.137 HD
ENDBRANCH  29  32
ENDBRANCH  26  29
ENDBRANCH   1  22
TORSDOF 6
ENDMDL
