MODEL 1
REMARK VINA RESULT:   -10.510      0.000      0.000
REMARK INTER + INTRA:         -11.354
REMARK INTER:                 -11.124
REMARK INTRA:                  -0.230
REMARK UNBOUND:                -0.230
REMARK SMILES O=c1cc(-c2ccccc2)oc2ccc3ccccc3c12
REMARK SMILES IDX 1 1 2 2 3 3 4 4 11 5 12 6 21 7 20 8 19 9 18 10 17 11 16 12
REMARK SMILES IDX 15 13 14 14 13 15 5 16 6 17 10 18 7 19 9 20 8 21
REMARK H PARENT
REMARK Flexibility Score: inf
ROOT
ATOM      1  O   UNL     1       7.458  76.630  -0.744  1.00  0.00    -0.289 OA
ATOM      2  C   UNL     1       8.418  76.306  -1.488  1.00  0.00     0.193 A 
ATOM      3  C   UNL     1       8.402  75.018  -2.026  1.00  0.00     0.100 A 
ATOM      4  C   UNL     1       9.444  74.596  -2.863  1.00  0.00     0.138 A 
ATOM      5  O   UNL     1      10.431  75.444  -3.126  1.00  0.00    -0.456 OA
ATOM      6  C   UNL     1      10.499  76.680  -2.644  1.00  0.00     0.139 A 
ATOM      7  C   UNL     1       9.489  77.195  -1.786  1.00  0.00     0.073 A 
ATOM      8  C   UNL     1       9.625  78.545  -1.297  1.00  0.00    -0.003 A 
ATOM      9  C   UNL     1       8.692  79.182  -0.436  1.00  0.00     0.009 A 
ATOM     10  C   UNL     1       8.887  80.496  -0.000  1.00  0.00     0.001 A 
ATOM     11  C   UNL     1      10.007  81.214  -0.401  1.00  0.00     0.001 A 
ATOM     12  C   UNL     1      10.942  80.625  -1.244  1.00  0.00     0.009 A 
ATOM     13  C   UNL     1      10.767  79.306  -1.694  1.00  0.00    -0.017 A 
ATOM     14  C   UNL     1      11.732  78.753  -2.539  1.00  0.00     0.012 A 
ATOM     15  C   UNL     1      11.597  77.456  -3.006  1.00  0.00     0.048 A 
ENDROOT
BRANCH   4  16
ATOM     16  C   UNL     1       9.500  73.235  -3.479  1.00  0.00     0.017 A 
ATOM     17  C   UNL     1       9.806  72.069  -2.739  1.00  0.00     0.012 A 
ATOM     18  C   UNL     1       9.237  73.095  -4.858  1.00  0.00     0.012 A 
ATOM     19  C   UNL     1       9.846  70.818  -3.363  1.00  0.00     0.001 A 
ATOM     20  C   UNL     1       9.279  71.842  -5.475  1.00  0.00     0.001 A 
ATOM     21  C   UNL     1       9.584  70.704  -4.728  1.00  0.00     0.000 A 
ENDBRANCH   4  16
TORSDOF 1
ENDMDL
MODEL 2
REMARK VINA RESULT:   -10.382      2.166      3.527
REMARK INTER + INTRA:         -11.219
REMARK INTER:                 -10.978
REMARK INTRA:                  -0.241
REMARK UNBOUND:                -0.230
REMARK SMILES O=c1cc(-c2ccccc2)oc2ccc3ccccc3c12
REMARK SMILES IDX 1 1 2 2 3 3 4 4 11 5 12 6 21 7 20 8 19 9 18 10 17 11 16 12
REMARK SMILES IDX 15 13 14 14 13 15 5 16 6 17 10 18 7 19 9 20 8 21
REMARK H PARENT
REMARK Flexibility Score: inf
ROOT
ATOM      1  O   UNL     1       9.175  77.754  -2.307  1.00  0.00    -0.289 OA
ATOM      2  C   UNL     1       8.663  76.623  -2.112  1.00  0.00     0.193 A 
ATOM      3  C   UNL     1       9.110  75.573  -2.916  1.00  0.00     0.100 A 
ATOM      4  C   UNL     1       8.578  74.288  -2.748  1.00  0.00     0.138 A 
ATOM      5  O   UNL     1       7.652  74.100  -1.816  1.00  0.00    -0.456 OA
ATOM      6  C   UNL     1       7.189  75.059  -1.023  1.00  0.00     0.139 A 
ATOM      7  C   UNL     1       7.668  76.394  -1.121  1.00  0.00     0.073 A 
ATOM      8  C   UNL     1       7.123  77.387  -0.228  1.00  0.00    -0.003 A 
ATOM      9  C   UNL     1       7.511  78.754  -0.218  1.00  0.00     0.009 A 
ATOM     10  C   UNL     1       6.940  79.663   0.676  1.00  0.00     0.001 A 
ATOM     11  C   UNL     1       5.971  79.250   1.581  1.00  0.00     0.001 A 
ATOM     12  C   UNL     1       5.565  77.920   1.603  1.00  0.00     0.009 A 
ATOM     13  C   UNL     1       6.125  76.989   0.714  1.00  0.00    -0.017 A 
ATOM     14  C   UNL     1       5.688  75.663   0.769  1.00  0.00     0.012 A 
ATOM     15  C   UNL     1       6.215  74.713  -0.090  1.00  0.00     0.048 A 
ENDROOT
BRANCH   4  16
ATOM     16  C   UNL     1       9.004  73.111  -3.568  1.00  0.00     0.017 A 
ATOM     17  C   UNL     1       9.583  71.951  -3.005  1.00  0.00     0.012 A 
ATOM     18  C   UNL     1       8.824  73.150  -4.967  1.00  0.00     0.012 A 
ATOM     19  C   UNL     1       9.965  70.877  -3.816  1.00  0.00     0.001 A 
ATOM     20  C   UNL     1       9.207  72.074  -5.772  1.00  0.00     0.001 A 
ATOM     21  C   UNL     1       9.778  70.939  -5.196  1.00  0.00     0.000 A 
ENDBRANCH   4  16
TORSDOF 1
ENDMDL
MODEL 3
REMARK VINA RESULT:   -10.147      1.883      2.795
REMARK INTER + INTRA:         -10.969
REMARK INTER:                 -10.712
REMARK INTRA:                  -0.258
REMARK UNBOUND:                -0.230
REMARK SMILES O=c1cc(-c2ccccc2)oc2ccc3ccccc3c12
REMARK SMILES IDX 1 1 2 2 3 3 4 4 11 5 12 6 21 7 20 8 19 9 18 10 17 11 16 12
REMARK SMILES IDX 15 13 14 14 13 15 5 16 6 17 10 18 7 19 9 20 8 21
REMARK H PARENT
REMARK Flexibility Score: inf
ROOT
ATOM      1  O   UNL     1       6.674  74.090  -0.430  1.00  0.00    -0.289 OA
ATOM      2  C   UNL     1       7.519  74.597  -1.211  1.00  0.00     0.193 A 
ATOM      3  C   UNL     1       8.179  73.731  -2.085  1.00  0.00     0.100 A 
ATOM      4  C   UNL     1       9.132  74.234  -2.980  1.00  0.00     0.138 A 
ATOM      5  O   UNL     1       9.385  75.538  -2.974  1.00  0.00    -0.456 OA
ATOM      6  C   UNL     1       8.789  76.408  -2.166  1.00  0.00     0.139 A 
ATOM      7  C   UNL     1       7.810  75.990  -1.224  1.00  0.00     0.073 A 
ATOM      8  C   UNL     1       7.201  76.986  -0.377  1.00  0.00    -0.003 A 
ATOM      9  C   UNL     1       6.212  76.707   0.604  1.00  0.00     0.009 A 
ATOM     10  C   UNL     1       5.665  77.724   1.391  1.00  0.00     0.001 A 
ATOM     11  C   UNL     1       6.079  79.041   1.232  1.00  0.00     0.001 A 
ATOM     12  C   UNL     1       7.044  79.354   0.283  1.00  0.00     0.009 A 
ATOM     13  C   UNL     1       7.608  78.349  -0.520  1.00  0.00    -0.017 A 
ATOM     14  C   UNL     1       8.576  78.707  -1.461  1.00  0.00     0.012 A 
ATOM     15  C   UNL     1       9.158  77.746  -2.272  1.00  0.00     0.048 A 
ENDROOT
BRANCH   4  16
ATOM     16  C   UNL     1       9.882  73.375  -3.948  1.00  0.00     0.017 A 
ATOM     17  C   UNL     1       9.302  72.255  -4.589  1.00  0.00     0.012 A 
ATOM     18  C   UNL     1      11.227  73.684  -4.240  1.00  0.00     0.012 A 
ATOM     19  C   UNL     1      10.047  71.483  -5.487  1.00  0.00     0.001 A 
ATOM     20  C   UNL     1      11.965  72.908  -5.138  1.00  0.00     0.001 A 
ATOM     21  C   UNL     1      11.375  71.808  -5.760  1.00  0.00     0.000 A 
ENDBRANCH   4  16
TORSDOF 1
ENDMDL
MODEL 4
REMARK VINA RESULT:    -9.854      3.472      6.216
REMARK INTER + INTRA:         -10.660
REMARK INTER:                 -10.424
REMARK INTRA:                  -0.236
REMARK UNBOUND:                -0.230
REMARK SMILES O=c1cc(-c2ccccc2)oc2ccc3ccccc3c12
REMARK SMILES IDX 1 1 2 2 3 3 4 4 11 5 12 6 21 7 20 8 19 9 18 10 17 11 16 12
REMARK SMILES IDX 15 13 14 14 13 15 5 16 6 17 10 18 7 19 9 20 8 21
REMARK H PARENT
REMARK Flexibility Score: inf
ROOT
ATOM      1  O   UNL     1      10.505  76.196  -2.278  1.00  0.00    -0.289 OA
ATOM      2  C   UNL     1      10.704  77.437  -2.307  1.00  0.00     0.193 A 
ATOM      3  C   UNL     1      11.826  77.886  -3.005  1.00  0.00     0.100 A 
ATOM      4  C   UNL     1      12.104  79.258  -3.075  1.00  0.00     0.138 A 
ATOM      5  O   UNL     1      11.282  80.104  -2.467  1.00  0.00    -0.456 OA
ATOM      6  C   UNL     1      10.201  79.736  -1.790  1.00  0.00     0.139 A 
ATOM      7  C   UNL     1       9.840  78.366  -1.664  1.00  0.00     0.073 A 
ATOM      8  C   UNL     1       8.653  78.034  -0.915  1.00  0.00    -0.003 A 
ATOM      9  C   UNL     1       8.178  76.711  -0.711  1.00  0.00     0.009 A 
ATOM     10  C   UNL     1       7.018  76.461   0.027  1.00  0.00     0.001 A 
ATOM     11  C   UNL     1       6.298  77.510   0.586  1.00  0.00     0.001 A 
ATOM     12  C   UNL     1       6.730  78.819   0.409  1.00  0.00     0.009 A 
ATOM     13  C   UNL     1       7.892  79.094  -0.329  1.00  0.00    -0.017 A 
ATOM     14  C   UNL     1       8.291  80.424  -0.482  1.00  0.00     0.012 A 
ATOM     15  C   UNL     1       9.432  80.737  -1.203  1.00  0.00     0.048 A 
ENDROOT
BRANCH   4  16
ATOM     16  C   UNL     1      13.284  79.819  -3.802  1.00  0.00     0.017 A 
ATOM     17  C   UNL     1      14.620  79.551  -3.422  1.00  0.00     0.012 A 
ATOM     18  C   UNL     1      13.067  80.654  -4.919  1.00  0.00     0.012 A 
ATOM     19  C   UNL     1      15.689  80.101  -4.136  1.00  0.00     0.001 A 
ATOM     20  C   UNL     1      14.141  81.200  -5.627  1.00  0.00     0.001 A 
ATOM     21  C   UNL     1      15.450  80.925  -5.236  1.00  0.00     0.000 A 
ENDBRANCH   4  16
TORSDOF 1
ENDMDL
MODEL 5
REMARK VINA RESULT:    -9.830      2.393      5.754
REMARK INTER + INTRA:         -10.634
REMARK INTER:                 -10.364
REMARK INTRA:                  -0.270
REMARK UNBOUND:                -0.230
REMARK SMILES O=c1cc(-c2ccccc2)oc2ccc3ccccc3c12
REMARK SMILES IDX 1 1 2 2 3 3 4 4 11 5 12 6 21 7 20 8 19 9 18 10 17 11 16 12
REMARK SMILES IDX 15 13 14 14 13 15 5 16 6 17 10 18 7 19 9 20 8 21
REMARK H PARENT
REMARK Flexibility Score: inf
ROOT
ATOM      1  O   UNL     1       8.832  79.275  -0.178  1.00  0.00    -0.289 OA
ATOM      2  C   UNL     1       9.368  78.504  -1.014  1.00  0.00     0.193 A 
ATOM      3  C   UNL     1      10.504  78.972  -1.676  1.00  0.00     0.100 A 
ATOM      4  C   UNL     1      11.148  78.161  -2.620  1.00  0.00     0.138 A 
ATOM      5  O   UNL     1      10.654  76.953  -2.862  1.00  0.00    -0.456 OA
ATOM      6  C   UNL     1       9.578  76.454  -2.263  1.00  0.00     0.139 A 
ATOM      7  C   UNL     1       8.859  77.205  -1.293  1.00  0.00     0.073 A 
ATOM      8  C   UNL     1       7.699  76.604  -0.680  1.00  0.00    -0.003 A 
ATOM      9  C   UNL     1       6.892  77.241   0.301  1.00  0.00     0.009 A 
ATOM     10  C   UNL     1       5.780  76.599   0.852  1.00  0.00     0.001 A 
ATOM     11  C   UNL     1       5.435  75.314   0.450  1.00  0.00     0.001 A 
ATOM     12  C   UNL     1       6.200  74.659  -0.507  1.00  0.00     0.009 A 
ATOM     13  C   UNL     1       7.322  75.284  -1.075  1.00  0.00    -0.017 A 
ATOM     14  C   UNL     1       8.063  74.589  -2.034  1.00  0.00     0.012 A 
ATOM     15  C   UNL     1       9.176  75.170  -2.619  1.00  0.00     0.048 A 
ENDROOT
BRANCH   4  16
ATOM     16  C   UNL     1      12.369  78.588  -3.371  1.00  0.00     0.017 A 
ATOM     17  C   UNL     1      12.864  79.912  -3.342  1.00  0.00     0.012 A 
ATOM     18  C   UNL     1      13.064  77.636  -4.146  1.00  0.00     0.012 A 
ATOM     19  C   UNL     1      14.011  80.261  -4.064  1.00  0.00     0.001 A 
ATOM     20  C   UNL     1      14.209  77.991  -4.864  1.00  0.00     0.001 A 
ATOM     21  C   UNL     1      14.681  79.303  -4.824  1.00  0.00     0.000 A 
ENDBRANCH   4  16
TORSDOF 1
ENDMDL
MODEL 6
REMARK VINA RESULT:    -9.583      2.600      7.110
REMARK INTER + INTRA:         -10.373
REMARK INTER:                 -10.139
REMARK INTRA:                  -0.233
REMARK UNBOUND:                -0.230
REMARK SMILES O=c1cc(-c2ccccc2)oc2ccc3ccccc3c12
REMARK SMILES IDX 1 1 2 2 3 3 4 4 11 5 12 6 21 7 20 8 19 9 18 10 17 11 16 12
REMARK SMILES IDX 15 13 14 14 13 15 5 16 6 17 10 18 7 19 9 20 8 21
REMARK H PARENT
REMARK Flexibility Score: inf
ROOT
ATOM      1  O   UNL     1      10.230  73.699  -0.734  1.00  0.00    -0.289 OA
ATOM      2  C   UNL     1       9.286  74.379  -1.210  1.00  0.00     0.193 A 
ATOM      3  C   UNL     1       8.716  75.346  -0.381  1.00  0.00     0.100 A 
ATOM      4  C   UNL     1       7.660  76.137  -0.852  1.00  0.00     0.138 A 
ATOM      5  O   UNL     1       7.225  75.944  -2.092  1.00  0.00    -0.456 OA
ATOM      6  C   UNL     1       7.729  75.041  -2.925  1.00  0.00     0.139 A 
ATOM      7  C   UNL     1       8.800  74.192  -2.534  1.00  0.00     0.073 A 
ATOM      8  C   UNL     1       9.300  73.233  -3.488  1.00  0.00    -0.003 A 
ATOM      9  C   UNL     1      10.364  72.327  -3.230  1.00  0.00     0.009 A 
ATOM     10  C   UNL     1      10.797  71.422  -4.203  1.00  0.00     0.001 A 
ATOM     11  C   UNL     1      10.193  71.386  -5.454  1.00  0.00     0.001 A 
ATOM     12  C   UNL     1       9.150  72.257  -5.744  1.00  0.00     0.009 A 
ATOM     13  C   UNL     1       8.697  73.175  -4.783  1.00  0.00    -0.017 A 
ATOM     14  C   UNL     1       7.646  74.032  -5.116  1.00  0.00     0.012 A 
ATOM     15  C   UNL     1       7.169  74.951  -4.196  1.00  0.00     0.048 A 
ENDROOT
BRANCH   4  16
ATOM     16  C   UNL     1       6.996  77.194  -0.027  1.00  0.00     0.017 A 
ATOM     17  C   UNL     1       6.204  76.898   1.106  1.00  0.00     0.012 A 
ATOM     18  C   UNL     1       7.160  78.548  -0.387  1.00  0.00     0.012 A 
ATOM     19  C   UNL     1       5.604  77.924   1.844  1.00  0.00     0.001 A 
ATOM     20  C   UNL     1       6.557  79.567   0.355  1.00  0.00     0.001 A 
ATOM     21  C   UNL     1       5.779  79.255   1.469  1.00  0.00     0.000 A 
ENDBRANCH   4  16
TORSDOF 1
ENDMDL
MODEL 7
REMARK VINA RESULT:    -9.504      4.442      7.639
REMARK INTER + INTRA:         -10.289
REMARK INTER:                 -10.017
REMARK INTRA:                  -0.272
REMARK UNBOUND:                -0.230
REMARK SMILES O=c1cc(-c2ccccc2)oc2ccc3ccccc3c12
REMARK SMILES IDX 1 1 2 2 3 3 4 4 11 5 12 6 21 7 20 8 19 9 18 10 17 11 16 12
REMARK SMILES IDX 15 13 14 14 13 15 5 16 6 17 10 18 7 19 9 20 8 21
REMARK H PARENT
REMARK Flexibility Score: inf
ROOT
ATOM      1  O   UNL     1      14.335  76.784  -5.096  1.00  0.00    -0.289 OA
ATOM      2  C   UNL     1      13.875  77.890  -4.714  1.00  0.00     0.193 A 
ATOM      3  C   UNL     1      12.789  77.859  -3.837  1.00  0.00     0.100 A 
ATOM      4  C   UNL     1      12.230  79.058  -3.375  1.00  0.00     0.138 A 
ATOM      5  O   UNL     1      12.754  80.205  -3.789  1.00  0.00    -0.456 OA
ATOM      6  C   UNL     1      13.785  80.296  -4.621  1.00  0.00     0.139 A 
ATOM      7  C   UNL     1      14.417  79.134  -5.142  1.00  0.00     0.073 A 
ATOM      8  C   UNL     1      15.532  79.303  -6.041  1.00  0.00    -0.003 A 
ATOM      9  C   UNL     1      16.253  78.231  -6.634  1.00  0.00     0.009 A 
ATOM     10  C   UNL     1      17.325  78.468  -7.498  1.00  0.00     0.001 A 
ATOM     11  C   UNL     1      17.713  79.767  -7.801  1.00  0.00     0.001 A 
ATOM     12  C   UNL     1      17.033  80.842  -7.242  1.00  0.00     0.009 A 
ATOM     13  C   UNL     1      15.953  80.628  -6.371  1.00  0.00    -0.017 A 
ATOM     14  C   UNL     1      15.297  81.737  -5.831  1.00  0.00     0.012 A 
ATOM     15  C   UNL     1      14.226  81.570  -4.968  1.00  0.00     0.048 A 
ENDROOT
BRANCH   4  16
ATOM     16  C   UNL     1      11.067  79.111  -2.435  1.00  0.00     0.017 A 
ATOM     17  C   UNL     1      10.709  80.278  -1.722  1.00  0.00     0.012 A 
ATOM     18  C   UNL     1      10.288  77.951  -2.243  1.00  0.00     0.012 A 
ATOM     19  C   UNL     1       9.612  80.275  -0.854  1.00  0.00     0.001 A 
ATOM     20  C   UNL     1       9.194  77.955  -1.374  1.00  0.00     0.001 A 
ATOM     21  C   UNL     1       8.857  79.116  -0.679  1.00  0.00     0.000 A 
ENDBRANCH   4  16
TORSDOF 1
ENDMDL
MODEL 8
REMARK VINA RESULT:    -9.331      5.323      8.625
REMARK INTER + INTRA:         -10.107
REMARK INTER:                  -9.846
REMARK INTRA:                  -0.260
REMARK UNBOUND:                -0.230
REMARK SMILES O=c1cc(-c2ccccc2)oc2ccc3ccccc3c12
REMARK SMILES IDX 1 1 2 2 3 3 4 4 11 5 12 6 21 7 20 8 19 9 18 10 17 11 16 12
REMARK SMILES IDX 15 13 14 14 13 15 5 16 6 17 10 18 7 19 9 20 8 21
REMARK H PARENT
REMARK Flexibility Score: inf
ROOT
ATOM      1  O   UNL     1      13.562  77.742  -5.775  1.00  0.00    -0.289 OA
ATOM      2  C   UNL     1      14.217  78.618  -5.155  1.00  0.00     0.193 A 
ATOM      3  C   UNL     1      15.257  79.243  -5.845  1.00  0.00     0.100 A 
ATOM      4  C   UNL     1      16.025  80.229  -5.210  1.00  0.00     0.138 A 
ATOM      5  O   UNL     1      15.738  80.546  -3.953  1.00  0.00    -0.456 OA
ATOM      6  C   UNL     1      14.761  79.987  -3.248  1.00  0.00     0.139 A 
ATOM      7  C   UNL     1      13.931  78.977  -3.808  1.00  0.00     0.073 A 
ATOM      8  C   UNL     1      12.889  78.411  -2.988  1.00  0.00    -0.003 A 
ATOM      9  C   UNL     1      11.990  77.399  -3.420  1.00  0.00     0.009 A 
ATOM     10  C   UNL     1      11.002  76.895  -2.570  1.00  0.00     0.001 A 
ATOM     11  C   UNL     1      10.875  77.375  -1.272  1.00  0.00     0.001 A 
ATOM     12  C   UNL     1      11.735  78.365  -0.812  1.00  0.00     0.009 A 
ATOM     13  C   UNL     1      12.736  78.887  -1.649  1.00  0.00    -0.017 A 
ATOM     14  C   UNL     1      13.579  79.881  -1.146  1.00  0.00     0.012 A 
ATOM     15  C   UNL     1      14.579  80.421  -1.938  1.00  0.00     0.048 A 
ENDROOT
BRANCH   4  16
ATOM     16  C   UNL     1      17.155  80.945  -5.879  1.00  0.00     0.017 A 
ATOM     17  C   UNL     1      18.331  81.331  -5.196  1.00  0.00     0.012 A 
ATOM     18  C   UNL     1      17.053  81.254  -7.252  1.00  0.00     0.012 A 
ATOM     19  C   UNL     1      19.360  81.999  -5.868  1.00  0.00     0.001 A 
ATOM     20  C   UNL     1      18.084  81.922  -7.917  1.00  0.00     0.001 A 
ATOM     21  C   UNL     1      19.236  82.295  -7.226  1.00  0.00     0.000 A 
ENDBRANCH   4  16
TORSDOF 1
ENDMDL
MODEL 9
REMARK VINA RESULT:    -9.282      0.944      2.367
REMARK INTER + INTRA:         -10.055
REMARK INTER:                  -9.822
REMARK INTRA:                  -0.233
REMARK UNBOUND:                -0.230
REMARK SMILES O=c1cc(-c2ccccc2)oc2ccc3ccccc3c12
REMARK SMILES IDX 1 1 2 2 3 3 4 4 11 5 12 6 21 7 20 8 19 9 18 10 17 11 16 12
REMARK SMILES IDX 15 13 14 14 13 15 5 16 6 17 10 18 7 19 9 20 8 21
REMARK H PARENT
REMARK Flexibility Score: inf
ROOT
ATOM      1  O   UNL     1      11.811  77.610  -3.042  1.00  0.00    -0.289 OA
ATOM      2  C   UNL     1      10.840  76.864  -2.755  1.00  0.00     0.193 A 
ATOM      3  C   UNL     1      10.856  75.569  -3.277  1.00  0.00     0.100 A 
ATOM      4  C   UNL     1       9.803  74.689  -2.994  1.00  0.00     0.138 A 
ATOM      5  O   UNL     1       8.807  75.115  -2.226  1.00  0.00    -0.456 OA
ATOM      6  C   UNL     1       8.739  76.333  -1.702  1.00  0.00     0.139 A 
ATOM      7  C   UNL     1       9.760  77.295  -1.936  1.00  0.00     0.073 A 
ATOM      8  C   UNL     1       9.625  78.600  -1.336  1.00  0.00    -0.003 A 
ATOM      9  C   UNL     1      10.568  79.652  -1.487  1.00  0.00     0.009 A 
ATOM     10  C   UNL     1      10.373  80.894  -0.877  1.00  0.00     0.001 A 
ATOM     11  C   UNL     1       9.243  81.131  -0.104  1.00  0.00     0.001 A 
ATOM     12  C   UNL     1       8.297  80.127   0.067  1.00  0.00     0.009 A 
ATOM     13  C   UNL     1       8.472  78.871  -0.536  1.00  0.00    -0.017 A 
ATOM     14  C   UNL     1       7.497  77.891  -0.338  1.00  0.00     0.012 A 
ATOM     15  C   UNL     1       7.631  76.639  -0.916  1.00  0.00     0.048 A 
ENDROOT
BRANCH   4  16
ATOM     16  C   UNL     1       9.744  73.288  -3.514  1.00  0.00     0.017 A 
ATOM     17  C   UNL     1      10.025  72.158  -2.711  1.00  0.00     0.012 A 
ATOM     18  C   UNL     1       9.395  73.072  -4.863  1.00  0.00     0.012 A 
ATOM     19  C   UNL     1       9.956  70.867  -3.245  1.00  0.00     0.001 A 
ATOM     20  C   UNL     1       9.328  71.779  -5.391  1.00  0.00     0.001 A 
ATOM     21  C   UNL     1       9.609  70.678  -4.583  1.00  0.00     0.000 A 
ENDBRANCH   4  16
TORSDOF 1
ENDMDL
MODEL 10
REMARK VINA RESULT:    -9.281      2.590      7.047
REMARK INTER + INTRA:         -10.053
REMARK INTER:                  -9.819
REMARK INTRA:                  -0.234
REMARK UNBOUND:                -0.230
REMARK SMILES O=c1cc(-c2ccccc2)oc2ccc3ccccc3c12
REMARK SMILES IDX 1 1 2 2 3 3 4 4 11 5 12 6 21 7 20 8 19 9 18 10 17 11 16 12
REMARK SMILES IDX 15 13 14 14 13 15 5 16 6 17 10 18 7 19 9 20 8 21
REMARK H PARENT
REMARK Flexibility Score: inf
ROOT
ATOM      1  O   UNL     1       6.834  75.042  -4.568  1.00  0.00    -0.289 OA
ATOM      2  C   UNL     1       7.368  75.089  -3.431  1.00  0.00     0.193 A 
ATOM      3  C   UNL     1       6.859  76.022  -2.526  1.00  0.00     0.100 A 
ATOM      4  C   UNL     1       7.411  76.124  -1.242  1.00  0.00     0.138 A 
ATOM      5  O   UNL     1       8.416  75.320  -0.917  1.00  0.00    -0.456 OA
ATOM      6  C   UNL     1       8.940  74.415  -1.734  1.00  0.00     0.139 A 
ATOM      7  C   UNL     1       8.446  74.240  -3.056  1.00  0.00     0.073 A 
ATOM      8  C   UNL     1       9.060  73.238  -3.893  1.00  0.00    -0.003 A 
ATOM      9  C   UNL     1       8.667  72.960  -5.229  1.00  0.00     0.009 A 
ATOM     10  C   UNL     1       9.307  71.973  -5.984  1.00  0.00     0.001 A 
ATOM     11  C   UNL     1      10.354  71.237  -5.441  1.00  0.00     0.001 A 
ATOM     12  C   UNL     1      10.768  71.480  -4.136  1.00  0.00     0.009 A 
ATOM     13  C   UNL     1      10.139  72.467  -3.359  1.00  0.00    -0.017 A 
ATOM     14  C   UNL     1      10.587  72.678  -2.053  1.00  0.00     0.012 A 
ATOM     15  C   UNL     1       9.993  73.642  -1.254  1.00  0.00     0.048 A 
ENDROOT
BRANCH   4  16
ATOM     16  C   UNL     1       6.923  77.097  -0.216  1.00  0.00     0.017 A 
ATOM     17  C   UNL     1       6.168  76.706   0.914  1.00  0.00     0.012 A 
ATOM     18  C   UNL     1       7.223  78.466  -0.372  1.00  0.00     0.012 A 
ATOM     19  C   UNL     1       5.735  77.655   1.846  1.00  0.00     0.001 A 
ATOM     20  C   UNL     1       6.787  79.409   0.563  1.00  0.00     0.001 A 
ATOM     21  C   UNL     1       6.043  79.004   1.670  1.00  0.00     0.000 A 
ENDBRANCH   4  16
TORSDOF 1
ENDMDL
MODEL 11
REMARK VINA RESULT:    -9.238      5.470      8.597
REMARK INTER + INTRA:         -10.008
REMARK INTER:                  -9.743
REMARK INTRA:                  -0.265
REMARK UNBOUND:                -0.230
REMARK SMILES O=c1cc(-c2ccccc2)oc2ccc3ccccc3c12
REMARK SMILES IDX 1 1 2 2 3 3 4 4 11 5 12 6 21 7 20 8 19 9 18 10 17 11 16 12
REMARK SMILES IDX 15 13 14 14 13 15 5 16 6 17 10 18 7 19 9 20 8 21
REMARK H PARENT
REMARK Flexibility Score: inf
ROOT
ATOM      1  O   UNL     1      12.381  80.831  -5.246  1.00  0.00    -0.289 OA
ATOM      2  C   UNL     1      13.529  80.633  -4.772  1.00  0.00     0.193 A 
ATOM      3  C   UNL     1      14.617  81.020  -5.555  1.00  0.00     0.100 A 
ATOM      4  C   UNL     1      15.922  80.826  -5.083  1.00  0.00     0.138 A 
ATOM      5  O   UNL     1      16.091  80.273  -3.888  1.00  0.00    -0.456 OA
ATOM      6  C   UNL     1      15.095  79.887  -3.100  1.00  0.00     0.139 A 
ATOM      7  C   UNL     1      13.738  80.042  -3.494  1.00  0.00     0.073 A 
ATOM      8  C   UNL     1      12.704  79.600  -2.590  1.00  0.00    -0.003 A 
ATOM      9  C   UNL     1      11.312  79.696  -2.858  1.00  0.00     0.009 A 
ATOM     10  C   UNL     1      10.364  79.247  -1.935  1.00  0.00     0.001 A 
ATOM     11  C   UNL     1      10.763  78.692  -0.725  1.00  0.00     0.001 A 
ATOM     12  C   UNL     1      12.116  78.581  -0.427  1.00  0.00     0.009 A 
ATOM     13  C   UNL     1      13.087  79.025  -1.339  1.00  0.00    -0.017 A 
ATOM     14  C   UNL     1      14.436  78.895  -1.000  1.00  0.00     0.012 A 
ATOM     15  C   UNL     1      15.425  79.320  -1.871  1.00  0.00     0.048 A 
ENDROOT
BRANCH   4  16
ATOM     16  C   UNL     1      17.140  81.214  -5.860  1.00  0.00     0.017 A 
ATOM     17  C   UNL     1      18.362  81.572  -5.245  1.00  0.00     0.012 A 
ATOM     18  C   UNL     1      17.079  81.226  -7.270  1.00  0.00     0.012 A 
ATOM     19  C   UNL     1      19.473  81.926  -6.018  1.00  0.00     0.001 A 
ATOM     20  C   UNL     1      18.192  81.581  -8.035  1.00  0.00     0.001 A 
ATOM     21  C   UNL     1      19.388  81.932  -7.410  1.00  0.00     0.000 A 
ENDBRANCH   4  16
TORSDOF 1
ENDMDL
MODEL 12
REMARK VINA RESULT:    -9.171      5.865      7.140
REMARK INTER + INTRA:          -9.936
REMARK INTER:                  -9.694
REMARK INTRA:                  -0.243
REMARK UNBOUND:                -0.230
REMARK SMILES O=c1cc(-c2ccccc2)oc2ccc3ccccc3c12
REMARK SMILES IDX 1 1 2 2 3 3 4 4 11 5 12 6 21 7 20 8 19 9 18 10 17 11 16 12
REMARK SMILES IDX 15 13 14 14 13 15 5 16 6 17 10 18 7 19 9 20 8 21
REMARK H PARENT
REMARK Flexibility Score: inf
ROOT
ATOM      1  O   UNL     1      11.409  80.448  -3.647  1.00  0.00    -0.289 OA
ATOM      2  C   UNL     1      12.623  80.262  -3.377  1.00  0.00     0.193 A 
ATOM      3  C   UNL     1      13.487  80.040  -4.449  1.00  0.00     0.100 A 
ATOM      4  C   UNL     1      14.852  79.825  -4.214  1.00  0.00     0.138 A 
ATOM      5  O   UNL     1      15.292  79.840  -2.962  1.00  0.00    -0.456 OA
ATOM      6  C   UNL     1      14.517  80.048  -1.903  1.00  0.00     0.139 A 
ATOM      7  C   UNL     1      13.120  80.273  -2.044  1.00  0.00     0.073 A 
ATOM      8  C   UNL     1      12.336  80.491  -0.853  1.00  0.00    -0.003 A 
ATOM      9  C   UNL     1      10.935  80.728  -0.849  1.00  0.00     0.009 A 
ATOM     10  C   UNL     1      10.237  80.932   0.344  1.00  0.00     0.001 A 
ATOM     11  C   UNL     1      10.902  80.906   1.564  1.00  0.00     0.001 A 
ATOM     12  C   UNL     1      12.273  80.677   1.602  1.00  0.00     0.009 A 
ATOM     13  C   UNL     1      12.994  80.470   0.415  1.00  0.00    -0.017 A 
ATOM     14  C   UNL     1      14.370  80.244   0.498  1.00  0.00     0.012 A 
ATOM     15  C   UNL     1      15.119  80.035  -0.648  1.00  0.00     0.048 A 
ENDROOT
BRANCH   4  16
ATOM     16  C   UNL     1      15.843  79.580  -5.307  1.00  0.00     0.017 A 
ATOM     17  C   UNL     1      15.698  78.542  -6.257  1.00  0.00     0.012 A 
ATOM     18  C   UNL     1      16.977  80.414  -5.405  1.00  0.00     0.012 A 
ATOM     19  C   UNL     1      16.654  78.354  -7.261  1.00  0.00     0.001 A 
ATOM     20  C   UNL     1      17.928  80.221  -6.410  1.00  0.00     0.001 A 
ATOM     21  C   UNL     1      17.767  79.191  -7.336  1.00  0.00     0.000 A 
ENDBRANCH   4  16
TORSDOF 1
ENDMDL
MODEL 13
REMARK VINA RESULT:    -8.687      2.819      4.860
REMARK INTER + INTRA:          -9.425
REMARK INTER:                  -9.150
REMARK INTRA:                  -0.275
REMARK UNBOUND:                -0.230
REMARK SMILES O=c1cc(-c2ccccc2)oc2ccc3ccccc3c12
REMARK SMILES IDX 1 1 2 2 3 3 4 4 11 5 12 6 21 7 20 8 19 9 18 10 17 11 16 12
REMARK SMILES IDX 15 13 14 14 13 15 5 16 6 17 10 18 7 19 9 20 8 21
REMARK H PARENT
REMARK Flexibility Score: inf
ROOT
ATOM      1  O   UNL     1      11.186  75.974  -3.545  1.00  0.00    -0.289 OA
ATOM      2  C   UNL     1      10.597  76.667  -2.678  1.00  0.00     0.193 A 
ATOM      3  C   UNL     1       9.429  76.139  -2.125  1.00  0.00     0.100 A 
ATOM      4  C   UNL     1       8.725  76.863  -1.154  1.00  0.00     0.138 A 
ATOM      5  O   UNL     1       9.195  78.047  -0.779  1.00  0.00    -0.456 OA
ATOM      6  C   UNL     1      10.299  78.599  -1.269  1.00  0.00     0.139 A 
ATOM      7  C   UNL     1      11.078  77.939  -2.259  1.00  0.00     0.073 A 
ATOM      8  C   UNL     1      12.266  78.594  -2.748  1.00  0.00    -0.003 A 
ATOM      9  C   UNL     1      13.133  78.049  -3.733  1.00  0.00     0.009 A 
ATOM     10  C   UNL     1      14.270  78.740  -4.161  1.00  0.00     0.001 A 
ATOM     11  C   UNL     1      14.580  79.986  -3.630  1.00  0.00     0.001 A 
ATOM     12  C   UNL     1      13.757  80.553  -2.664  1.00  0.00     0.009 A 
ATOM     13  C   UNL     1      12.610  79.877  -2.219  1.00  0.00    -0.017 A 
ATOM     14  C   UNL     1      11.810  80.482  -1.247  1.00  0.00     0.012 A 
ATOM     15  C   UNL     1      10.669  79.849  -0.780  1.00  0.00     0.048 A 
ENDROOT
BRANCH   4  16
ATOM     16  C   UNL     1       7.467  76.368  -0.513  1.00  0.00     0.017 A 
ATOM     17  C   UNL     1       6.750  77.115   0.450  1.00  0.00     0.012 A 
ATOM     18  C   UNL     1       6.966  75.101  -0.879  1.00  0.00     0.012 A 
ATOM     19  C   UNL     1       5.578  76.606   1.019  1.00  0.00     0.001 A 
ATOM     20  C   UNL     1       5.794  74.599  -0.306  1.00  0.00     0.001 A 
ATOM     21  C   UNL     1       5.102  75.351   0.643  1.00  0.00     0.000 A 
ENDBRANCH   4  16
TORSDOF 1
ENDMDL
MODEL 14
REMARK VINA RESULT:    -8.113      4.362      6.957
REMARK INTER + INTRA:          -8.817
REMARK INTER:                  -8.553
REMARK INTRA:                  -0.264
REMARK UNBOUND:                -0.230
REMARK SMILES O=c1cc(-c2ccccc2)oc2ccc3ccccc3c12
REMARK SMILES IDX 1 1 2 2 3 3 4 4 11 5 12 6 21 7 20 8 19 9 18 10 17 11 16 12
REMARK SMILES IDX 15 13 14 14 13 15 5 16 6 17 10 18 7 19 9 20 8 21
REMARK H PARENT
REMARK Flexibility Score: inf
ROOT
ATOM      1  O   UNL     1      14.898  80.830  -2.400  1.00  0.00    -0.289 OA
ATOM      2  C   UNL     1      14.261  79.943  -3.022  1.00  0.00     0.193 A 
ATOM      3  C   UNL     1      13.090  79.466  -2.430  1.00  0.00     0.100 A 
ATOM      4  C   UNL     1      12.334  78.477  -3.074  1.00  0.00     0.138 A 
ATOM      5  O   UNL     1      12.756  78.016  -4.245  1.00  0.00    -0.456 OA
ATOM      6  C   UNL     1      13.859  78.432  -4.855  1.00  0.00     0.139 A 
ATOM      7  C   UNL     1      14.690  79.431  -4.278  1.00  0.00     0.073 A 
ATOM      8  C   UNL     1      15.874  79.838  -4.994  1.00  0.00    -0.003 A 
ATOM      9  C   UNL     1      16.790  80.822  -4.534  1.00  0.00     0.009 A 
ATOM     10  C   UNL     1      17.919  81.168  -5.281  1.00  0.00     0.001 A 
ATOM     11  C   UNL     1      18.176  80.551  -6.499  1.00  0.00     0.001 A 
ATOM     12  C   UNL     1      17.304  79.583  -6.984  1.00  0.00     0.009 A 
ATOM     13  C   UNL     1      16.162  79.220  -6.250  1.00  0.00    -0.017 A 
ATOM     14  C   UNL     1      15.313  78.243  -6.774  1.00  0.00     0.012 A 
ATOM     15  C   UNL     1      14.177  77.855  -6.082  1.00  0.00     0.048 A 
ENDROOT
BRANCH   4  16
ATOM     16  C   UNL     1      11.070  77.913  -2.506  1.00  0.00     0.017 A 
ATOM     17  C   UNL     1      10.641  76.588  -2.752  1.00  0.00     0.012 A 
ATOM     18  C   UNL     1      10.262  78.731  -1.688  1.00  0.00     0.012 A 
ATOM     19  C   UNL     1       9.450  76.109  -2.198  1.00  0.00     0.001 A 
ATOM     20  C   UNL     1       9.073  78.245  -1.138  1.00  0.00     0.001 A 
ATOM     21  C   UNL     1       8.667  76.936  -1.393  1.00  0.00     0.000 A 
ENDBRANCH   4  16
TORSDOF 1
ENDMDL
