MODEL 1
REMARK VINA RESULT:   -10.830      0.000      0.000
REMARK INTER + INTRA:         -14.512
REMARK INTER:                 -13.995
REMARK INTRA:                  -0.517
REMARK UNBOUND:                -0.517
REMARK SMILES CNC(=O)c1ccccc1Sc1ccc2c(/C=C/c3ccccn3)n[nH]c2c1
REMARK SMILES IDX 12 1 13 2 14 3 15 4 27 5 26 6 25 7 16 8 28 9 11 11 10 12
REMARK SMILES IDX 5 13 6 14 9 15 7 16 8 17 3 18 1 19 2 20 4 22 17 23 18 24
REMARK SMILES IDX 19 25 20 26 24 27 21 28 23 29 22 30
REMARK H PARENT 26 10 2 21
REMARK Flexibility Score: inf
ROOT
ATOM      1  C   UNL     1      21.540  24.515  38.327  1.00  0.00     0.014 A 
ATOM      2  C   UNL     1      20.303  24.081  38.861  1.00  0.00     0.016 A 
ATOM      3  C   UNL     1      19.509  24.954  39.627  1.00  0.00     0.014 A 
ATOM      4  C   UNL     1      19.998  26.241  39.861  1.00  0.00     0.027 A 
ATOM      5  C   UNL     1      21.186  26.663  39.330  1.00  0.00     0.067 A 
ATOM      6  N   UNL     1      21.386  27.955  39.632  1.00  0.00    -0.277 N 
ATOM      7  N   UNL     1      20.354  28.385  40.348  1.00  0.00    -0.175 NA
ATOM      8  C   UNL     1      19.492  27.355  40.520  1.00  0.00     0.093 A 
ATOM      9  C   UNL     1      21.993  25.828  38.562  1.00  0.00     0.043 A 
ATOM     10  H   UNL     1      22.199  28.547  39.349  1.00  0.00     0.190 HD
ENDROOT
BRANCH   1  11
ATOM     11  S   UNL     1      22.534  23.392  37.345  1.00  0.00    -0.089 SA
BRANCH  11  12
ATOM     12  C   UNL     1      23.843  23.304  38.580  1.00  0.00     0.025 A 
ATOM     13  C   UNL     1      25.194  23.056  38.236  1.00  0.00     0.053 A 
ATOM     14  C   UNL     1      26.146  22.914  39.262  1.00  0.00     0.015 A 
ATOM     15  C   UNL     1      23.484  23.441  39.928  1.00  0.00     0.016 A 
ATOM     16  C   UNL     1      25.772  23.047  40.601  1.00  0.00     0.001 A 
ATOM     17  C   UNL     1      24.445  23.315  40.934  1.00  0.00     0.001 A 
BRANCH  13  18
ATOM     18  C   UNL     1      25.640  22.924  36.833  1.00  0.00     0.252 C 
ATOM     19  C   UNL     1      25.948  21.508  34.764  1.00  0.00     0.143 C 
ATOM     20  N   UNL     1      25.394  21.718  36.095  1.00  0.00    -0.355 N 
ATOM     21  H   UNL     1      24.785  20.976  36.506  1.00  0.00     0.163 HD
ATOM     22  O   UNL     1      26.206  23.900  36.270  1.00  0.00    -0.269 OA
ENDBRANCH  13  18
ENDBRANCH  11  12
ENDBRANCH   1  11
BRANCH   8  23
ATOM     23  C   UNL     1      18.225  27.492  41.261  1.00  0.00     0.033 C 
ATOM     24  C   UNL     1      17.031  27.486  40.651  1.00  0.00     0.030 C 
BRANCH  24  25
ATOM     25  C   UNL     1      15.725  27.614  41.341  1.00  0.00     0.063 A 
ATOM     26  C   UNL     1      15.282  28.803  41.958  1.00  0.00     0.028 A 
ATOM     27  N   UNL     1      14.919  26.513  41.376  1.00  0.00    -0.257 NA
ATOM     28  C   UNL     1      14.033  28.828  42.582  1.00  0.00     0.004 A 
ATOM     29  C   UNL     1      13.700  26.523  41.978  1.00  0.00     0.111 A 
ATOM     30  C   UNL     1      13.233  27.686  42.591  1.00  0.00     0.020 A 
ENDBRANCH  24  25
ENDBRANCH   8  23
TORSDOF 5
ENDMDL
MODEL 2
REMARK VINA RESULT:    -9.809      4.812     10.964
REMARK INTER + INTRA:         -13.193
REMARK INTER:                 -12.263
REMARK INTRA:                  -0.930
REMARK UNBOUND:                -0.517
REMARK SMILES CNC(=O)c1ccccc1Sc1ccc2c(/C=C/c3ccccn3)n[nH]c2c1
REMARK SMILES IDX 12 1 13 2 14 3 15 4 27 5 26 6 25 7 16 8 28 9 11 11 10 12
REMARK SMILES IDX 5 13 6 14 9 15 7 16 8 17 3 18 1 19 2 20 4 22 17 23 18 24
REMARK SMILES IDX 19 25 20 26 24 27 21 28 23 29 22 30
REMARK H PARENT 26 10 2 21
REMARK Flexibility Score: inf
ROOT
ATOM      1  C   UNL     1      14.037  27.504  41.991  1.00  0.00     0.014 A 
ATOM      2  C   UNL     1      14.292  26.183  41.554  1.00  0.00     0.016 A 
ATOM      3  C   UNL     1      15.559  25.826  41.056  1.00  0.00     0.014 A 
ATOM      4  C   UNL     1      16.533  26.825  40.982  1.00  0.00     0.027 A 
ATOM      5  C   UNL     1      16.288  28.097  41.419  1.00  0.00     0.067 A 
ATOM      6  N   UNL     1      17.404  28.836  41.317  1.00  0.00    -0.277 N 
ATOM      7  N   UNL     1      18.371  28.072  40.823  1.00  0.00    -0.175 NA
ATOM      8  C   UNL     1      17.866  26.837  40.591  1.00  0.00     0.093 A 
ATOM      9  C   UNL     1      15.049  28.482  41.925  1.00  0.00     0.043 A 
ATOM     10  H   UNL     1      17.520  29.837  41.589  1.00  0.00     0.190 HD
ENDROOT
BRANCH   1  11
ATOM     11  S   UNL     1      12.421  27.938  42.633  1.00  0.00    -0.089 SA
BRANCH  11  12
ATOM     12  C   UNL     1      11.549  27.094  41.302  1.00  0.00     0.025 A 
ATOM     13  C   UNL     1      10.826  25.893  41.509  1.00  0.00     0.053 A 
ATOM     14  C   UNL     1      10.245  25.246  40.405  1.00  0.00     0.015 A 
ATOM     15  C   UNL     1      11.639  27.635  40.011  1.00  0.00     0.016 A 
ATOM     16  C   UNL     1      10.349  25.794  39.124  1.00  0.00     0.001 A 
ATOM     17  C   UNL     1      11.040  26.989  38.928  1.00  0.00     0.001 A 
BRANCH  13  18
ATOM     18  C   UNL     1      10.676  25.285  42.848  1.00  0.00     0.252 C 
ATOM     19  C   UNL     1      11.385  23.568  44.558  1.00  0.00     0.143 C 
ATOM     20  N   UNL     1      11.595  24.285  43.307  1.00  0.00    -0.355 N 
ATOM     21  H   UNL     1      12.452  24.075  42.747  1.00  0.00     0.163 HD
ATOM     22  O   UNL     1       9.749  25.683  43.606  1.00  0.00    -0.269 OA
ENDBRANCH  13  18
ENDBRANCH  11  12
ENDBRANCH   1  11
BRANCH   8  23
ATOM     23  C   UNL     1      18.680  25.732  40.053  1.00  0.00     0.033 C 
ATOM     24  C   UNL     1      20.005  25.833  39.880  1.00  0.00     0.030 C 
BRANCH  24  25
ATOM     25  C   UNL     1      20.877  24.758  39.350  1.00  0.00     0.063 A 
ATOM     26  C   UNL     1      20.594  24.035  38.171  1.00  0.00     0.028 A 
ATOM     27  N   UNL     1      22.008  24.459  40.051  1.00  0.00    -0.257 NA
ATOM     28  C   UNL     1      21.478  23.039  37.748  1.00  0.00     0.004 A 
ATOM     29  C   UNL     1      22.879  23.494  39.650  1.00  0.00     0.111 A 
ATOM     30  C   UNL     1      22.629  22.767  38.487  1.00  0.00     0.020 A 
ENDBRANCH  24  25
ENDBRANCH   8  23
TORSDOF 5
ENDMDL
MODEL 3
REMARK VINA RESULT:    -9.556      4.549     10.783
REMARK INTER + INTRA:         -12.865
REMARK INTER:                 -12.356
REMARK INTRA:                  -0.509
REMARK UNBOUND:                -0.517
REMARK SMILES CNC(=O)c1ccccc1Sc1ccc2c(/C=C/c3ccccn3)n[nH]c2c1
REMARK SMILES IDX 12 1 13 2 14 3 15 4 27 5 26 6 25 7 16 8 28 9 11 11 10 12
REMARK SMILES IDX 5 13 6 14 9 15 7 16 8 17 3 18 1 19 2 20 4 22 17 23 18 24
REMARK SMILES IDX 19 25 20 26 24 27 21 28 23 29 22 30
REMARK H PARENT 26 10 2 21
REMARK Flexibility Score: inf
ROOT
ATOM      1  C   UNL     1      13.828  27.461  41.537  1.00  0.00     0.014 A 
ATOM      2  C   UNL     1      14.123  26.147  41.102  1.00  0.00     0.016 A 
ATOM      3  C   UNL     1      15.448  25.767  40.820  1.00  0.00     0.014 A 
ATOM      4  C   UNL     1      16.445  26.736  40.956  1.00  0.00     0.027 A 
ATOM      5  C   UNL     1      16.159  28.001  41.391  1.00  0.00     0.067 A 
ATOM      6  N   UNL     1      17.293  28.707  41.514  1.00  0.00    -0.277 N 
ATOM      7  N   UNL     1      18.313  27.929  41.169  1.00  0.00    -0.175 NA
ATOM      8  C   UNL     1      17.826  26.719  40.806  1.00  0.00     0.093 A 
ATOM      9  C   UNL     1      14.860  28.408  41.686  1.00  0.00     0.043 A 
ATOM     10  H   UNL     1      17.385  29.695  41.840  1.00  0.00     0.190 HD
ENDROOT
BRANCH   1  11
ATOM     11  S   UNL     1      12.135  27.925  41.900  1.00  0.00    -0.089 SA
BRANCH  11  12
ATOM     12  C   UNL     1      11.506  26.261  41.614  1.00  0.00     0.025 A 
ATOM     13  C   UNL     1      10.868  25.889  40.405  1.00  0.00     0.053 A 
ATOM     14  C   UNL     1      10.325  24.597  40.289  1.00  0.00     0.015 A 
ATOM     15  C   UNL     1      11.620  25.328  42.654  1.00  0.00     0.016 A 
ATOM     16  C   UNL     1      10.441  23.681  41.336  1.00  0.00     0.001 A 
ATOM     17  C   UNL     1      11.092  24.043  42.515  1.00  0.00     0.001 A 
BRANCH  13  18
ATOM     18  C   UNL     1      10.737  26.819  39.264  1.00  0.00     0.252 C 
ATOM     19  C   UNL     1       9.410  28.565  38.013  1.00  0.00     0.143 C 
ATOM     20  N   UNL     1       9.642  27.742  39.192  1.00  0.00    -0.355 N 
ATOM     21  H   UNL     1       9.003  27.850  40.011  1.00  0.00     0.163 HD
ATOM     22  O   UNL     1      11.622  26.823  38.366  1.00  0.00    -0.269 OA
ENDBRANCH  13  18
ENDBRANCH  11  12
ENDBRANCH   1  11
BRANCH   8  23
ATOM     23  C   UNL     1      18.694  25.607  40.378  1.00  0.00     0.033 C 
ATOM     24  C   UNL     1      19.838  25.804  39.707  1.00  0.00     0.030 C 
BRANCH  24  25
ATOM     25  C   UNL     1      20.754  24.730  39.256  1.00  0.00     0.063 A 
ATOM     26  C   UNL     1      20.549  23.972  38.084  1.00  0.00     0.028 A 
ATOM     27  N   UNL     1      21.848  24.468  40.027  1.00  0.00    -0.257 NA
ATOM     28  C   UNL     1      21.470  22.980  37.738  1.00  0.00     0.004 A 
ATOM     29  C   UNL     1      22.755  23.507  39.702  1.00  0.00     0.111 A 
ATOM     30  C   UNL     1      22.581  22.746  38.547  1.00  0.00     0.020 A 
ENDBRANCH  24  25
ENDBRANCH   8  23
TORSDOF 5
ENDMDL
MODEL 4
REMARK VINA RESULT:    -9.531      4.811     11.065
REMARK INTER + INTRA:         -12.834
REMARK INTER:                 -11.956
REMARK INTRA:                  -0.878
REMARK UNBOUND:                -0.517
REMARK SMILES CNC(=O)c1ccccc1Sc1ccc2c(/C=C/c3ccccn3)n[nH]c2c1
REMARK SMILES IDX 12 1 13 2 14 3 15 4 27 5 26 6 25 7 16 8 28 9 11 11 10 12
REMARK SMILES IDX 5 13 6 14 9 15 7 16 8 17 3 18 1 19 2 20 4 22 17 23 18 24
REMARK SMILES IDX 19 25 20 26 24 27 21 28 23 29 22 30
REMARK H PARENT 26 10 2 21
REMARK Flexibility Score: inf
ROOT
ATOM      1  C   UNL     1      13.684  27.232  41.364  1.00  0.00     0.014 A 
ATOM      2  C   UNL     1      14.105  25.929  41.008  1.00  0.00     0.016 A 
ATOM      3  C   UNL     1      15.472  25.637  40.848  1.00  0.00     0.014 A 
ATOM      4  C   UNL     1      16.384  26.681  41.022  1.00  0.00     0.027 A 
ATOM      5  C   UNL     1      15.976  27.936  41.382  1.00  0.00     0.067 A 
ATOM      6  N   UNL     1      17.044  28.727  41.566  1.00  0.00    -0.277 N 
ATOM      7  N   UNL     1      18.140  28.014  41.334  1.00  0.00    -0.175 NA
ATOM      8  C   UNL     1      17.771  26.759  40.983  1.00  0.00     0.093 A 
ATOM      9  C   UNL     1      14.632  28.257  41.556  1.00  0.00     0.043 A 
ATOM     10  H   UNL     1      17.039  29.730  41.857  1.00  0.00     0.190 HD
ENDROOT
BRANCH   1  11
ATOM     11  S   UNL     1      11.939  27.583  41.573  1.00  0.00    -0.089 SA
BRANCH  11  12
ATOM     12  C   UNL     1      11.899  26.923  43.249  1.00  0.00     0.025 A 
ATOM     13  C   UNL     1      11.898  27.758  44.393  1.00  0.00     0.053 A 
ATOM     14  C   UNL     1      11.954  27.169  45.669  1.00  0.00     0.015 A 
ATOM     15  C   UNL     1      11.916  25.530  43.406  1.00  0.00     0.016 A 
ATOM     16  C   UNL     1      11.978  25.780  45.809  1.00  0.00     0.001 A 
ATOM     17  C   UNL     1      11.954  24.961  44.681  1.00  0.00     0.001 A 
BRANCH  13  18
ATOM     18  C   UNL     1      11.857  29.232  44.294  1.00  0.00     0.252 C 
ATOM     19  C   UNL     1      13.049  31.458  44.353  1.00  0.00     0.143 C 
ATOM     20  N   UNL     1      13.067  30.002  44.303  1.00  0.00    -0.355 N 
ATOM     21  H   UNL     1      13.990  29.515  44.250  1.00  0.00     0.163 HD
ATOM     22  O   UNL     1      10.745  29.811  44.161  1.00  0.00    -0.269 OA
ENDBRANCH  13  18
ENDBRANCH  11  12
ENDBRANCH   1  11
BRANCH   8  23
ATOM     23  C   UNL     1      18.747  25.700  40.671  1.00  0.00     0.033 C 
ATOM     24  C   UNL     1      19.648  25.820  39.686  1.00  0.00     0.030 C 
BRANCH  24  25
ATOM     25  C   UNL     1      20.657  24.794  39.329  1.00  0.00     0.063 A 
ATOM     26  C   UNL     1      20.578  23.994  38.169  1.00  0.00     0.028 A 
ATOM     27  N   UNL     1      21.711  24.622  40.178  1.00  0.00    -0.257 NA
ATOM     28  C   UNL     1      21.580  23.054  37.914  1.00  0.00     0.004 A 
ATOM     29  C   UNL     1      22.694  23.713  39.942  1.00  0.00     0.111 A 
ATOM     30  C   UNL     1      22.646  22.912  38.802  1.00  0.00     0.020 A 
ENDBRANCH  24  25
ENDBRANCH   8  23
TORSDOF 5
ENDMDL
MODEL 5
REMARK VINA RESULT:    -9.501      2.944     10.206
REMARK INTER + INTRA:         -12.795
REMARK INTER:                 -12.917
REMARK INTRA:                   0.122
REMARK UNBOUND:                -0.517
REMARK SMILES CNC(=O)c1ccccc1Sc1ccc2c(/C=C/c3ccccn3)n[nH]c2c1
REMARK SMILES IDX 12 1 13 2 14 3 15 4 27 5 26 6 25 7 16 8 28 9 11 11 10 12
REMARK SMILES IDX 5 13 6 14 9 15 7 16 8 17 3 18 1 19 2 20 4 22 17 23 18 24
REMARK SMILES IDX 19 25 20 26 24 27 21 28 23 29 22 30
REMARK H PARENT 26 10 2 21
REMARK Flexibility Score: inf
ROOT
ATOM      1  C   UNL     1      21.472  23.645  38.947  1.00  0.00     0.014 A 
ATOM      2  C   UNL     1      21.590  23.650  37.537  1.00  0.00     0.016 A 
ATOM      3  C   UNL     1      22.847  23.499  36.923  1.00  0.00     0.014 A 
ATOM      4  C   UNL     1      23.965  23.377  37.753  1.00  0.00     0.027 A 
ATOM      5  C   UNL     1      23.846  23.357  39.115  1.00  0.00     0.067 A 
ATOM      6  N   UNL     1      25.048  23.148  39.674  1.00  0.00    -0.277 N 
ATOM      7  N   UNL     1      25.948  23.030  38.704  1.00  0.00    -0.175 NA
ATOM      8  C   UNL     1      25.319  23.181  37.514  1.00  0.00     0.093 A 
ATOM      9  C   UNL     1      22.617  23.496  39.755  1.00  0.00     0.043 A 
ATOM     10  H   UNL     1      25.261  23.070  40.693  1.00  0.00     0.190 HD
ENDROOT
BRANCH   1  11
ATOM     11  S   UNL     1      19.861  23.828  39.711  1.00  0.00    -0.089 SA
BRANCH  11  12
ATOM     12  C   UNL     1      20.026  25.615  39.877  1.00  0.00     0.025 A 
ATOM     13  C   UNL     1      18.935  26.447  40.229  1.00  0.00     0.053 A 
ATOM     14  C   UNL     1      19.120  27.841  40.254  1.00  0.00     0.015 A 
ATOM     15  C   UNL     1      21.275  26.188  39.598  1.00  0.00     0.016 A 
ATOM     16  C   UNL     1      20.369  28.398  39.967  1.00  0.00     0.001 A 
ATOM     17  C   UNL     1      21.446  27.573  39.644  1.00  0.00     0.001 A 
BRANCH  13  18
ATOM     18  C   UNL     1      17.601  25.903  40.557  1.00  0.00     0.252 C 
ATOM     19  C   UNL     1      15.084  26.079  40.445  1.00  0.00     0.143 C 
ATOM     20  N   UNL     1      16.413  26.504  40.024  1.00  0.00    -0.355 N 
ATOM     21  H   UNL     1      16.492  27.250  39.297  1.00  0.00     0.163 HD
ATOM     22  O   UNL     1      17.514  24.875  41.282  1.00  0.00    -0.269 OA
ENDBRANCH  13  18
ENDBRANCH  11  12
ENDBRANCH   1  11
BRANCH   8  23
ATOM     23  C   UNL     1      26.026  23.092  36.223  1.00  0.00     0.033 C 
ATOM     24  C   UNL     1      25.817  22.092  35.356  1.00  0.00     0.030 C 
BRANCH  24  25
ATOM     25  C   UNL     1      26.491  21.951  34.043  1.00  0.00     0.063 A 
ATOM     26  C   UNL     1      27.679  21.215  33.852  1.00  0.00     0.028 A 
ATOM     27  N   UNL     1      25.923  22.576  32.972  1.00  0.00    -0.257 NA
ATOM     28  C   UNL     1      28.240  21.136  32.575  1.00  0.00     0.004 A 
ATOM     29  C   UNL     1      26.456  22.507  31.723  1.00  0.00     0.111 A 
ATOM     30  C   UNL     1      27.626  21.782  31.502  1.00  0.00     0.020 A 
ENDBRANCH  24  25
ENDBRANCH   8  23
TORSDOF 5
ENDMDL
MODEL 6
REMARK VINA RESULT:    -9.387      4.902     11.104
REMARK INTER + INTRA:         -12.648
REMARK INTER:                 -12.142
REMARK INTRA:                  -0.506
REMARK UNBOUND:                -0.517
REMARK SMILES CNC(=O)c1ccccc1Sc1ccc2c(/C=C/c3ccccn3)n[nH]c2c1
REMARK SMILES IDX 12 1 13 2 14 3 15 4 27 5 26 6 25 7 16 8 28 9 11 11 10 12
REMARK SMILES IDX 5 13 6 14 9 15 7 16 8 17 3 18 1 19 2 20 4 22 17 23 18 24
REMARK SMILES IDX 19 25 20 26 24 27 21 28 23 29 22 30
REMARK H PARENT 26 10 2 21
REMARK Flexibility Score: inf
ROOT
ATOM      1  C   UNL     1      13.544  27.454  41.907  1.00  0.00     0.014 A 
ATOM      2  C   UNL     1      13.882  26.124  41.564  1.00  0.00     0.016 A 
ATOM      3  C   UNL     1      15.201  25.791  41.202  1.00  0.00     0.014 A 
ATOM      4  C   UNL     1      16.143  26.822  41.164  1.00  0.00     0.027 A 
ATOM      5  C   UNL     1      15.817  28.103  41.511  1.00  0.00     0.067 A 
ATOM      6  N   UNL     1      16.912  28.878  41.472  1.00  0.00    -0.277 N 
ATOM      7  N   UNL     1      17.945  28.129  41.108  1.00  0.00    -0.175 NA
ATOM      8  C   UNL     1      17.506  26.865  40.896  1.00  0.00     0.093 A 
ATOM      9  C   UNL     1      14.524  28.465  41.882  1.00  0.00     0.043 A 
ATOM     10  H   UNL     1      16.969  29.896  41.701  1.00  0.00     0.190 HD
ENDROOT
BRANCH   1  11
ATOM     11  S   UNL     1      11.861  27.857  42.376  1.00  0.00    -0.089 SA
BRANCH  11  12
ATOM     12  C   UNL     1      12.328  28.326  44.051  1.00  0.00     0.025 A 
ATOM     13  C   UNL     1      12.008  27.530  45.179  1.00  0.00     0.053 A 
ATOM     14  C   UNL     1      12.329  28.005  46.463  1.00  0.00     0.015 A 
ATOM     15  C   UNL     1      12.990  29.549  44.230  1.00  0.00     0.016 A 
ATOM     16  C   UNL     1      12.982  29.229  46.626  1.00  0.00     0.001 A 
ATOM     17  C   UNL     1      13.317  29.998  45.512  1.00  0.00     0.001 A 
BRANCH  13  18
ATOM     18  C   UNL     1      11.333  26.222  45.055  1.00  0.00     0.252 C 
ATOM     19  C   UNL     1      11.456  23.730  44.667  1.00  0.00     0.143 C 
ATOM     20  N   UNL     1      12.093  25.012  44.935  1.00  0.00    -0.355 N 
ATOM     21  H   UNL     1      13.129  25.038  45.065  1.00  0.00     0.163 HD
ATOM     22  O   UNL     1      10.073  26.171  45.095  1.00  0.00    -0.269 OA
ENDBRANCH  13  18
ENDBRANCH  11  12
ENDBRANCH   1  11
BRANCH   8  23
ATOM     23  C   UNL     1      18.403  25.767  40.492  1.00  0.00     0.033 C 
ATOM     24  C   UNL     1      19.625  25.986  39.989  1.00  0.00     0.030 C 
BRANCH  24  25
ATOM     25  C   UNL     1      20.574  24.925  39.571  1.00  0.00     0.063 A 
ATOM     26  C   UNL     1      20.374  24.101  38.443  1.00  0.00     0.028 A 
ATOM     27  N   UNL     1      21.694  24.745  40.329  1.00  0.00    -0.257 NA
ATOM     28  C   UNL     1      21.326  23.129  38.126  1.00  0.00     0.004 A 
ATOM     29  C   UNL     1      22.630  23.805  40.032  1.00  0.00     0.111 A 
ATOM     30  C   UNL     1      22.463  22.980  38.920  1.00  0.00     0.020 A 
ENDBRANCH  24  25
ENDBRANCH   8  23
TORSDOF 5
ENDMDL
MODEL 7
REMARK VINA RESULT:    -9.136      4.968     11.381
REMARK INTER + INTRA:         -12.323
REMARK INTER:                 -12.033
REMARK INTRA:                  -0.290
REMARK UNBOUND:                -0.517
REMARK SMILES CNC(=O)c1ccccc1Sc1ccc2c(/C=C/c3ccccn3)n[nH]c2c1
REMARK SMILES IDX 12 1 13 2 14 3 15 4 27 5 26 6 25 7 16 8 28 9 11 11 10 12
REMARK SMILES IDX 5 13 6 14 9 15 7 16 8 17 3 18 1 19 2 20 4 22 17 23 18 24
REMARK SMILES IDX 19 25 20 26 24 27 21 28 23 29 22 30
REMARK H PARENT 26 10 2 21
REMARK Flexibility Score: inf
ROOT
ATOM      1  C   UNL     1      14.145  27.266  41.974  1.00  0.00     0.014 A 
ATOM      2  C   UNL     1      14.448  25.973  41.485  1.00  0.00     0.016 A 
ATOM      3  C   UNL     1      15.706  25.700  40.917  1.00  0.00     0.014 A 
ATOM      4  C   UNL     1      16.621  26.752  40.828  1.00  0.00     0.027 A 
ATOM      5  C   UNL     1      16.331  27.996  41.317  1.00  0.00     0.067 A 
ATOM      6  N   UNL     1      17.400  28.797  41.186  1.00  0.00    -0.277 N 
ATOM      7  N   UNL     1      18.381  28.101  40.623  1.00  0.00    -0.175 NA
ATOM      8  C   UNL     1      17.931  26.847  40.377  1.00  0.00     0.093 A 
ATOM      9  C   UNL     1      15.099  28.298  41.892  1.00  0.00     0.043 A 
ATOM     10  H   UNL     1      17.476  29.795  41.484  1.00  0.00     0.190 HD
ENDROOT
BRANCH   1  11
ATOM     11  S   UNL     1      12.541  27.592  42.704  1.00  0.00    -0.089 SA
BRANCH  11  12
ATOM     12  C   UNL     1      11.711  27.666  41.107  1.00  0.00     0.025 A 
ATOM     13  C   UNL     1      10.731  28.643  40.805  1.00  0.00     0.053 A 
ATOM     14  C   UNL     1      10.065  28.584  39.568  1.00  0.00     0.015 A 
ATOM     15  C   UNL     1      12.027  26.684  40.157  1.00  0.00     0.016 A 
ATOM     16  C   UNL     1      10.385  27.595  38.635  1.00  0.00     0.001 A 
ATOM     17  C   UNL     1      11.368  26.650  38.926  1.00  0.00     0.001 A 
BRANCH  13  18
ATOM     18  C   UNL     1      10.371  29.718  41.754  1.00  0.00     0.252 C 
ATOM     19  C   UNL     1      10.772  32.028  42.691  1.00  0.00     0.143 C 
ATOM     20  N   UNL     1      11.003  31.003  41.682  1.00  0.00    -0.355 N 
ATOM     21  H   UNL     1      11.628  31.226  40.875  1.00  0.00     0.163 HD
ATOM     22  O   UNL     1       9.468  29.509  42.610  1.00  0.00    -0.269 OA
ENDBRANCH  13  18
ENDBRANCH  11  12
ENDBRANCH   1  11
BRANCH   8  23
ATOM     23  C   UNL     1      18.776  25.805  39.766  1.00  0.00     0.033 C 
ATOM     24  C   UNL     1      20.043  25.591  40.147  1.00  0.00     0.030 C 
BRANCH  24  25
ATOM     25  C   UNL     1      20.938  24.557  39.577  1.00  0.00     0.063 A 
ATOM     26  C   UNL     1      20.640  23.826  38.407  1.00  0.00     0.028 A 
ATOM     27  N   UNL     1      22.109  24.304  40.230  1.00  0.00    -0.257 NA
ATOM     28  C   UNL     1      21.548  22.871  37.943  1.00  0.00     0.004 A 
ATOM     29  C   UNL     1      23.004  23.380  39.790  1.00  0.00     0.111 A 
ATOM     30  C   UNL     1      22.738  22.647  38.634  1.00  0.00     0.020 A 
ENDBRANCH  24  25
ENDBRANCH   8  23
TORSDOF 5
ENDMDL
MODEL 8
REMARK VINA RESULT:    -9.124      4.506     11.014
REMARK INTER + INTRA:         -12.307
REMARK INTER:                 -11.216
REMARK INTRA:                  -1.091
REMARK UNBOUND:                -0.517
REMARK SMILES CNC(=O)c1ccccc1Sc1ccc2c(/C=C/c3ccccn3)n[nH]c2c1
REMARK SMILES IDX 12 1 13 2 14 3 15 4 27 5 26 6 25 7 16 8 28 9 11 11 10 12
REMARK SMILES IDX 5 13 6 14 9 15 7 16 8 17 3 18 1 19 2 20 4 22 17 23 18 24
REMARK SMILES IDX 19 25 20 26 24 27 21 28 23 29 22 30
REMARK H PARENT 26 10 2 21
REMARK Flexibility Score: inf
ROOT
ATOM      1  C   UNL     1      13.804  26.426  40.834  1.00  0.00     0.014 A 
ATOM      2  C   UNL     1      14.507  25.252  40.474  1.00  0.00     0.016 A 
ATOM      3  C   UNL     1      15.914  25.228  40.491  1.00  0.00     0.014 A 
ATOM      4  C   UNL     1      16.580  26.405  40.843  1.00  0.00     0.027 A 
ATOM      5  C   UNL     1      15.898  27.533  41.205  1.00  0.00     0.067 A 
ATOM      6  N   UNL     1      16.763  28.490  41.574  1.00  0.00    -0.277 N 
ATOM      7  N   UNL     1      17.995  28.009  41.461  1.00  0.00    -0.175 NA
ATOM      8  C   UNL     1      17.920  26.738  41.000  1.00  0.00     0.093 A 
ATOM      9  C   UNL     1      14.506  27.589  41.207  1.00  0.00     0.043 A 
ATOM     10  H   UNL     1      16.529  29.450  41.912  1.00  0.00     0.190 HD
ENDROOT
BRANCH   1  11
ATOM     11  S   UNL     1      12.012  26.435  40.817  1.00  0.00    -0.089 SA
BRANCH  11  12
ATOM     12  C   UNL     1      11.890  26.625  42.604  1.00  0.00     0.025 A 
ATOM     13  C   UNL     1      11.550  27.857  43.215  1.00  0.00     0.053 A 
ATOM     14  C   UNL     1      11.560  27.950  44.618  1.00  0.00     0.015 A 
ATOM     15  C   UNL     1      12.191  25.514  43.404  1.00  0.00     0.016 A 
ATOM     16  C   UNL     1      11.869  26.836  45.401  1.00  0.00     0.001 A 
ATOM     17  C   UNL     1      12.179  25.618  44.797  1.00  0.00     0.001 A 
BRANCH  13  18
ATOM     18  C   UNL     1      11.200  29.057  42.427  1.00  0.00     0.252 C 
ATOM     19  C   UNL     1       9.507  30.380  41.099  1.00  0.00     0.143 C 
ATOM     20  N   UNL     1       9.851  29.284  41.995  1.00  0.00    -0.355 N 
ATOM     21  H   UNL     1       9.086  28.666  42.346  1.00  0.00     0.163 HD
ATOM     22  O   UNL     1      12.093  29.909  42.169  1.00  0.00    -0.269 OA
ENDBRANCH  13  18
ENDBRANCH  11  12
ENDBRANCH   1  11
BRANCH   8  23
ATOM     23  C   UNL     1      19.112  25.901  40.773  1.00  0.00     0.033 C 
ATOM     24  C   UNL     1      19.383  25.342  39.585  1.00  0.00     0.030 C 
BRANCH  24  25
ATOM     25  C   UNL     1      20.566  24.497  39.295  1.00  0.00     0.063 A 
ATOM     26  C   UNL     1      20.670  23.665  38.160  1.00  0.00     0.028 A 
ATOM     27  N   UNL     1      21.602  24.534  40.182  1.00  0.00    -0.257 NA
ATOM     28  C   UNL     1      21.828  22.907  37.968  1.00  0.00     0.004 A 
ATOM     29  C   UNL     1      22.736  23.803  40.008  1.00  0.00     0.111 A 
ATOM     30  C   UNL     1      22.869  22.976  38.893  1.00  0.00     0.020 A 
ENDBRANCH  24  25
ENDBRANCH   8  23
TORSDOF 5
ENDMDL
MODEL 9
REMARK VINA RESULT:    -9.051      4.758     10.746
REMARK INTER + INTRA:         -12.213
REMARK INTER:                 -11.232
REMARK INTRA:                  -0.981
REMARK UNBOUND:                -0.517
REMARK SMILES CNC(=O)c1ccccc1Sc1ccc2c(/C=C/c3ccccn3)n[nH]c2c1
REMARK SMILES IDX 12 1 13 2 14 3 15 4 27 5 26 6 25 7 16 8 28 9 11 11 10 12
REMARK SMILES IDX 5 13 6 14 9 15 7 16 8 17 3 18 1 19 2 20 4 22 17 23 18 24
REMARK SMILES IDX 19 25 20 26 24 27 21 28 23 29 22 30
REMARK H PARENT 26 10 2 21
REMARK Flexibility Score: inf
ROOT
ATOM      1  C   UNL     1      13.673  27.340  41.536  1.00  0.00     0.014 A 
ATOM      2  C   UNL     1      14.023  26.022  41.157  1.00  0.00     0.016 A 
ATOM      3  C   UNL     1      15.367  25.680  40.915  1.00  0.00     0.014 A 
ATOM      4  C   UNL     1      16.325  26.689  41.033  1.00  0.00     0.027 A 
ATOM      5  C   UNL     1      15.986  27.958  41.415  1.00  0.00     0.067 A 
ATOM      6  N   UNL     1      17.091  28.709  41.533  1.00  0.00    -0.277 N 
ATOM      7  N   UNL     1      18.145  27.957  41.237  1.00  0.00    -0.175 NA
ATOM      8  C   UNL     1      17.709  26.717  40.911  1.00  0.00     0.093 A 
ATOM      9  C   UNL     1      14.667  28.328  41.669  1.00  0.00     0.043 A 
ATOM     10  H   UNL     1      17.141  29.711  41.823  1.00  0.00     0.190 HD
ENDROOT
BRANCH   1  11
ATOM     11  S   UNL     1      11.958  27.754  41.849  1.00  0.00    -0.089 SA
BRANCH  11  12
ATOM     12  C   UNL     1      11.766  26.473  43.101  1.00  0.00     0.025 A 
ATOM     13  C   UNL     1      11.031  25.286  42.864  1.00  0.00     0.053 A 
ATOM     14  C   UNL     1      10.852  24.372  43.918  1.00  0.00     0.015 A 
ATOM     15  C   UNL     1      12.332  26.699  44.363  1.00  0.00     0.016 A 
ATOM     16  C   UNL     1      11.416  24.614  45.173  1.00  0.00     0.001 A 
ATOM     17  C   UNL     1      12.160  25.773  45.394  1.00  0.00     0.001 A 
BRANCH  13  18
ATOM     18  C   UNL     1      10.430  24.979  41.550  1.00  0.00     0.252 C 
ATOM     19  C   UNL     1      10.559  23.829  39.305  1.00  0.00     0.143 C 
ATOM     20  N   UNL     1      11.050  24.041  40.660  1.00  0.00    -0.355 N 
ATOM     21  H   UNL     1      11.862  23.473  40.992  1.00  0.00     0.163 HD
ATOM     22  O   UNL     1       9.337  25.521  41.229  1.00  0.00    -0.269 OA
ENDBRANCH  13  18
ENDBRANCH  11  12
ENDBRANCH   1  11
BRANCH   8  23
ATOM     23  C   UNL     1      18.625  25.622  40.542  1.00  0.00     0.033 C 
ATOM     24  C   UNL     1      19.697  25.814  39.761  1.00  0.00     0.030 C 
BRANCH  24  25
ATOM     25  C   UNL     1      20.656  24.757  39.361  1.00  0.00     0.063 A 
ATOM     26  C   UNL     1      20.515  23.978  38.192  1.00  0.00     0.028 A 
ATOM     27  N   UNL     1      21.726  24.533  40.177  1.00  0.00    -0.257 NA
ATOM     28  C   UNL     1      21.473  23.005  37.896  1.00  0.00     0.004 A 
ATOM     29  C   UNL     1      22.667  23.591  39.901  1.00  0.00     0.111 A 
ATOM     30  C   UNL     1      22.558  22.810  38.751  1.00  0.00     0.020 A 
ENDBRANCH  24  25
ENDBRANCH   8  23
TORSDOF 5
ENDMDL
MODEL 10
REMARK VINA RESULT:    -8.924      7.218     10.719
REMARK INTER + INTRA:         -12.050
REMARK INTER:                 -10.991
REMARK INTRA:                  -1.059
REMARK UNBOUND:                -0.517
REMARK SMILES CNC(=O)c1ccccc1Sc1ccc2c(/C=C/c3ccccn3)n[nH]c2c1
REMARK SMILES IDX 12 1 13 2 14 3 15 4 27 5 26 6 25 7 16 8 28 9 11 11 10 12
REMARK SMILES IDX 5 13 6 14 9 15 7 16 8 17 3 18 1 19 2 20 4 22 17 23 18 24
REMARK SMILES IDX 19 25 20 26 24 27 21 28 23 29 22 30
REMARK H PARENT 26 10 2 21
REMARK Flexibility Score: inf
ROOT
ATOM      1  C   UNL     1      11.539  21.649  39.073  1.00  0.00     0.014 A 
ATOM      2  C   UNL     1      12.895  21.633  38.668  1.00  0.00     0.016 A 
ATOM      3  C   UNL     1      13.710  22.765  38.852  1.00  0.00     0.014 A 
ATOM      4  C   UNL     1      13.126  23.902  39.414  1.00  0.00     0.027 A 
ATOM      5  C   UNL     1      11.819  23.910  39.818  1.00  0.00     0.067 A 
ATOM      6  N   UNL     1      11.529  25.086  40.397  1.00  0.00    -0.277 N 
ATOM      7  N   UNL     1      12.619  25.844  40.379  1.00  0.00    -0.175 NA
ATOM      8  C   UNL     1      13.612  25.154  39.769  1.00  0.00     0.093 A 
ATOM      9  C   UNL     1      10.987  22.805  39.659  1.00  0.00     0.043 A 
ATOM     10  H   UNL     1      10.615  25.371  40.812  1.00  0.00     0.190 HD
ENDROOT
BRANCH   1  11
ATOM     11  S   UNL     1      10.518  20.194  38.840  1.00  0.00    -0.089 SA
BRANCH  11  12
ATOM     12  C   UNL     1      10.798  20.153  37.061  1.00  0.00     0.025 A 
ATOM     13  C   UNL     1      11.555  19.132  36.436  1.00  0.00     0.053 A 
ATOM     14  C   UNL     1      11.803  19.214  35.054  1.00  0.00     0.015 A 
ATOM     15  C   UNL     1      10.278  21.202  36.290  1.00  0.00     0.016 A 
ATOM     16  C   UNL     1      11.285  20.270  34.301  1.00  0.00     0.001 A 
ATOM     17  C   UNL     1      10.519  21.259  34.916  1.00  0.00     0.001 A 
BRANCH  13  18
ATOM     18  C   UNL     1      12.110  17.988  37.189  1.00  0.00     0.252 C 
ATOM     19  C   UNL     1      11.880  15.628  38.058  1.00  0.00     0.143 C 
ATOM     20  N   UNL     1      11.432  16.725  37.209  1.00  0.00    -0.355 N 
ATOM     21  H   UNL     1      10.609  16.570  36.585  1.00  0.00     0.163 HD
ATOM     22  O   UNL     1      13.213  18.119  37.786  1.00  0.00    -0.269 OA
ENDBRANCH  13  18
ENDBRANCH  11  12
ENDBRANCH   1  11
BRANCH   8  23
ATOM     23  C   UNL     1      14.970  25.701  39.593  1.00  0.00     0.033 C 
ATOM     24  C   UNL     1      15.810  25.886  40.621  1.00  0.00     0.030 C 
BRANCH  24  25
ATOM     25  C   UNL     1      17.186  26.425  40.507  1.00  0.00     0.063 A 
ATOM     26  C   UNL     1      18.335  25.613  40.401  1.00  0.00     0.028 A 
ATOM     27  N   UNL     1      17.335  27.781  40.508  1.00  0.00    -0.257 NA
ATOM     28  C   UNL     1      19.592  26.212  40.295  1.00  0.00     0.004 A 
ATOM     29  C   UNL     1      18.552  28.379  40.402  1.00  0.00     0.111 A 
ATOM     30  C   UNL     1      19.705  27.603  40.292  1.00  0.00     0.020 A 
ENDBRANCH  24  25
ENDBRANCH   8  23
TORSDOF 5
ENDMDL
MODEL 11
REMARK VINA RESULT:    -8.857      6.687     10.043
REMARK INTER + INTRA:         -11.963
REMARK INTER:                 -11.002
REMARK INTRA:                  -0.962
REMARK UNBOUND:                -0.517
REMARK SMILES CNC(=O)c1ccccc1Sc1ccc2c(/C=C/c3ccccn3)n[nH]c2c1
REMARK SMILES IDX 12 1 13 2 14 3 15 4 27 5 26 6 25 7 16 8 28 9 11 11 10 12
REMARK SMILES IDX 5 13 6 14 9 15 7 16 8 17 3 18 1 19 2 20 4 22 17 23 18 24
REMARK SMILES IDX 19 25 20 26 24 27 21 28 23 29 22 30
REMARK H PARENT 26 10 2 21
REMARK Flexibility Score: inf
ROOT
ATOM      1  C   UNL     1      11.804  22.266  38.915  1.00  0.00     0.014 A 
ATOM      2  C   UNL     1      13.023  22.384  38.207  1.00  0.00     0.016 A 
ATOM      3  C   UNL     1      13.955  23.381  38.550  1.00  0.00     0.014 A 
ATOM      4  C   UNL     1      13.618  24.258  39.585  1.00  0.00     0.027 A 
ATOM      5  C   UNL     1      12.446  24.131  40.277  1.00  0.00     0.067 A 
ATOM      6  N   UNL     1      12.401  25.036  41.267  1.00  0.00    -0.277 N 
ATOM      7  N   UNL     1      13.520  25.750  41.234  1.00  0.00    -0.175 NA
ATOM      8  C   UNL     1      14.281  25.309  40.205  1.00  0.00     0.093 A 
ATOM      9  C   UNL     1      11.505  23.151  39.969  1.00  0.00     0.043 A 
ATOM     10  H   UNL     1      11.635  25.164  41.965  1.00  0.00     0.190 HD
ENDROOT
BRANCH   1  11
ATOM     11  S   UNL     1      10.633  20.983  38.470  1.00  0.00    -0.089 SA
BRANCH  11  12
ATOM     12  C   UNL     1      11.797  19.653  38.817  1.00  0.00     0.025 A 
ATOM     13  C   UNL     1      12.458  18.936  37.790  1.00  0.00     0.053 A 
ATOM     14  C   UNL     1      13.286  17.853  38.136  1.00  0.00     0.015 A 
ATOM     15  C   UNL     1      12.007  19.297  40.157  1.00  0.00     0.016 A 
ATOM     16  C   UNL     1      13.480  17.506  39.474  1.00  0.00     0.001 A 
ATOM     17  C   UNL     1      12.846  18.230  40.485  1.00  0.00     0.001 A 
BRANCH  13  18
ATOM     18  C   UNL     1      12.297  19.277  36.361  1.00  0.00     0.252 C 
ATOM     19  C   UNL     1      10.981  19.108  34.212  1.00  0.00     0.143 C 
ATOM     20  N   UNL     1      11.105  18.913  35.650  1.00  0.00    -0.355 N 
ATOM     21  H   UNL     1      10.291  18.520  36.174  1.00  0.00     0.163 HD
ATOM     22  O   UNL     1      13.203  19.929  35.775  1.00  0.00    -0.269 OA
ENDBRANCH  13  18
ENDBRANCH  11  12
ENDBRANCH   1  11
BRANCH   8  23
ATOM     23  C   UNL     1      15.605  25.878  39.893  1.00  0.00     0.033 C 
ATOM     24  C   UNL     1      16.663  25.724  40.700  1.00  0.00     0.030 C 
BRANCH  24  25
ATOM     25  C   UNL     1      18.018  26.266  40.438  1.00  0.00     0.063 A 
ATOM     26  C   UNL     1      19.099  25.478  39.988  1.00  0.00     0.028 A 
ATOM     27  N   UNL     1      18.217  27.599  40.650  1.00  0.00    -0.257 NA
ATOM     28  C   UNL     1      20.340  26.080  39.765  1.00  0.00     0.004 A 
ATOM     29  C   UNL     1      19.418  28.199  40.435  1.00  0.00     0.111 A 
ATOM     30  C   UNL     1      20.503  27.447  39.986  1.00  0.00     0.020 A 
ENDBRANCH  24  25
ENDBRANCH   8  23
TORSDOF 5
ENDMDL
MODEL 12
REMARK VINA RESULT:    -8.456      6.256     12.952
REMARK INTER + INTRA:         -11.444
REMARK INTER:                 -10.393
REMARK INTRA:                  -1.051
REMARK UNBOUND:                -0.517
REMARK SMILES CNC(=O)c1ccccc1Sc1ccc2c(/C=C/c3ccccn3)n[nH]c2c1
REMARK SMILES IDX 12 1 13 2 14 3 15 4 27 5 26 6 25 7 16 8 28 9 11 11 10 12
REMARK SMILES IDX 5 13 6 14 9 15 7 16 8 17 3 18 1 19 2 20 4 22 17 23 18 24
REMARK SMILES IDX 19 25 20 26 24 27 21 28 23 29 22 30
REMARK H PARENT 26 10 2 21
REMARK Flexibility Score: inf
ROOT
ATOM      1  C   UNL     1      10.989  28.933  42.120  1.00  0.00     0.014 A 
ATOM      2  C   UNL     1      12.092  29.753  41.783  1.00  0.00     0.016 A 
ATOM      3  C   UNL     1      13.365  29.190  41.575  1.00  0.00     0.014 A 
ATOM      4  C   UNL     1      13.500  27.810  41.744  1.00  0.00     0.027 A 
ATOM      5  C   UNL     1      12.430  27.019  42.055  1.00  0.00     0.067 A 
ATOM      6  N   UNL     1      12.807  25.731  42.077  1.00  0.00    -0.277 N 
ATOM      7  N   UNL     1      14.101  25.667  41.787  1.00  0.00    -0.175 NA
ATOM      8  C   UNL     1      14.561  26.926  41.592  1.00  0.00     0.093 A 
ATOM      9  C   UNL     1      11.155  27.542  42.259  1.00  0.00     0.043 A 
ATOM     10  H   UNL     1      12.201  24.903  42.271  1.00  0.00     0.190 HD
ENDROOT
BRANCH   1  11
ATOM     11  S   UNL     1       9.373  29.667  42.371  1.00  0.00    -0.089 SA
BRANCH  11  12
ATOM     12  C   UNL     1       9.133  29.998  40.617  1.00  0.00     0.025 A 
ATOM     13  C   UNL     1       9.049  31.314  40.098  1.00  0.00     0.053 A 
ATOM     14  C   UNL     1       8.774  31.493  38.731  1.00  0.00     0.015 A 
ATOM     15  C   UNL     1       8.980  28.902  39.757  1.00  0.00     0.016 A 
ATOM     16  C   UNL     1       8.617  30.391  37.887  1.00  0.00     0.001 A 
ATOM     17  C   UNL     1       8.725  29.097  38.397  1.00  0.00     0.001 A 
BRANCH  13  18
ATOM     18  C   UNL     1       9.224  32.510  40.949  1.00  0.00     0.252 C 
ATOM     19  C   UNL     1      10.744  34.166  42.100  1.00  0.00     0.143 C 
ATOM     20  N   UNL     1      10.524  33.079  41.155  1.00  0.00    -0.355 N 
ATOM     21  H   UNL     1      11.336  32.728  40.599  1.00  0.00     0.163 HD
ATOM     22  O   UNL     1       8.211  33.054  41.465  1.00  0.00    -0.269 OA
ENDBRANCH  13  18
ENDBRANCH  11  12
ENDBRANCH   1  11
BRANCH   8  23
ATOM     23  C   UNL     1      15.961  27.216  41.237  1.00  0.00     0.033 C 
ATOM     24  C   UNL     1      16.819  26.260  40.854  1.00  0.00     0.030 C 
BRANCH  24  25
ATOM     25  C   UNL     1      18.235  26.490  40.479  1.00  0.00     0.063 A 
ATOM     26  C   UNL     1      19.127  25.453  40.131  1.00  0.00     0.028 A 
ATOM     27  N   UNL     1      18.687  27.777  40.477  1.00  0.00    -0.257 NA
ATOM     28  C   UNL     1      20.445  25.768  39.788  1.00  0.00     0.004 A 
ATOM     29  C   UNL     1      19.965  28.099  40.144  1.00  0.00     0.111 A 
ATOM     30  C   UNL     1      20.868  27.097  39.791  1.00  0.00     0.020 A 
ENDBRANCH  24  25
ENDBRANCH   8  23
TORSDOF 5
ENDMDL
MODEL 13
REMARK VINA RESULT:    -8.329      6.066     12.828
REMARK INTER + INTRA:         -11.281
REMARK INTER:                 -10.209
REMARK INTRA:                  -1.072
REMARK UNBOUND:                -0.517
REMARK SMILES CNC(=O)c1ccccc1Sc1ccc2c(/C=C/c3ccccn3)n[nH]c2c1
REMARK SMILES IDX 12 1 13 2 14 3 15 4 27 5 26 6 25 7 16 8 28 9 11 11 10 12
REMARK SMILES IDX 5 13 6 14 9 15 7 16 8 17 3 18 1 19 2 20 4 22 17 23 18 24
REMARK SMILES IDX 19 25 20 26 24 27 21 28 23 29 22 30
REMARK H PARENT 26 10 2 21
REMARK Flexibility Score: inf
ROOT
ATOM      1  C   UNL     1      11.712  29.068  42.971  1.00  0.00     0.014 A 
ATOM      2  C   UNL     1      12.876  29.846  42.771  1.00  0.00     0.016 A 
ATOM      3  C   UNL     1      14.057  29.256  42.284  1.00  0.00     0.014 A 
ATOM      4  C   UNL     1      14.043  27.880  42.039  1.00  0.00     0.027 A 
ATOM      5  C   UNL     1      12.911  27.133  42.219  1.00  0.00     0.067 A 
ATOM      6  N   UNL     1      13.136  25.867  41.836  1.00  0.00    -0.277 N 
ATOM      7  N   UNL     1      14.391  25.773  41.411  1.00  0.00    -0.175 NA
ATOM      8  C   UNL     1      14.979  26.986  41.537  1.00  0.00     0.093 A 
ATOM      9  C   UNL     1      11.724  27.687  42.691  1.00  0.00     0.043 A 
ATOM     10  H   UNL     1      12.453  25.078  41.847  1.00  0.00     0.190 HD
ENDROOT
BRANCH   1  11
ATOM     11  S   UNL     1      10.214  29.839  43.582  1.00  0.00    -0.089 SA
BRANCH  11  12
ATOM     12  C   UNL     1       9.956  30.782  42.069  1.00  0.00     0.025 A 
ATOM     13  C   UNL     1      10.093  32.191  42.021  1.00  0.00     0.053 A 
ATOM     14  C   UNL     1       9.790  32.866  40.825  1.00  0.00     0.015 A 
ATOM     15  C   UNL     1       9.560  30.083  40.920  1.00  0.00     0.016 A 
ATOM     16  C   UNL     1       9.390  32.157  39.690  1.00  0.00     0.001 A 
ATOM     17  C   UNL     1       9.280  30.767  39.735  1.00  0.00     0.001 A 
BRANCH  13  18
ATOM     18  C   UNL     1      10.528  32.982  43.190  1.00  0.00     0.252 C 
ATOM     19  C   UNL     1      12.384  33.904  44.634  1.00  0.00     0.143 C 
ATOM     20  N   UNL     1      11.918  33.253  43.417  1.00  0.00    -0.355 N 
ATOM     21  H   UNL     1      12.619  33.002  42.684  1.00  0.00     0.163 HD
ATOM     22  O   UNL     1       9.661  33.455  43.974  1.00  0.00    -0.269 OA
ENDBRANCH  13  18
ENDBRANCH  11  12
ENDBRANCH   1  11
BRANCH   8  23
ATOM     23  C   UNL     1      16.376  27.239  41.139  1.00  0.00     0.033 C 
ATOM     24  C   UNL     1      17.211  26.254  40.780  1.00  0.00     0.030 C 
BRANCH  24  25
ATOM     25  C   UNL     1      18.621  26.445  40.365  1.00  0.00     0.063 A 
ATOM     26  C   UNL     1      19.476  25.384  39.998  1.00  0.00     0.028 A 
ATOM     27  N   UNL     1      19.106  27.720  40.344  1.00  0.00    -0.257 NA
ATOM     28  C   UNL     1      20.792  25.663  39.617  1.00  0.00     0.004 A 
ATOM     29  C   UNL     1      20.383  28.007  39.974  1.00  0.00     0.111 A 
ATOM     30  C   UNL     1      21.250  26.980  39.601  1.00  0.00     0.020 A 
ENDBRANCH  24  25
ENDBRANCH   8  23
TORSDOF 5
ENDMDL
MODEL 14
REMARK VINA RESULT:    -8.216      8.289     11.719
REMARK INTER + INTRA:         -11.134
REMARK INTER:                 -10.199
REMARK INTRA:                  -0.936
REMARK UNBOUND:                -0.517
REMARK SMILES CNC(=O)c1ccccc1Sc1ccc2c(/C=C/c3ccccn3)n[nH]c2c1
REMARK SMILES IDX 12 1 13 2 14 3 15 4 27 5 26 6 25 7 16 8 28 9 11 11 10 12
REMARK SMILES IDX 5 13 6 14 9 15 7 16 8 17 3 18 1 19 2 20 4 22 17 23 18 24
REMARK SMILES IDX 19 25 20 26 24 27 21 28 23 29 22 30
REMARK H PARENT 26 10 2 21
REMARK Flexibility Score: inf
ROOT
ATOM      1  C   UNL     1      12.490  20.380  37.515  1.00  0.00     0.014 A 
ATOM      2  C   UNL     1      13.712  21.031  37.221  1.00  0.00     0.016 A 
ATOM      3  C   UNL     1      14.046  22.244  37.850  1.00  0.00     0.014 A 
ATOM      4  C   UNL     1      13.120  22.789  38.743  1.00  0.00     0.027 A 
ATOM      5  C   UNL     1      11.947  22.150  39.038  1.00  0.00     0.067 A 
ATOM      6  N   UNL     1      11.279  22.835  39.978  1.00  0.00    -0.277 N 
ATOM      7  N   UNL     1      11.992  23.907  40.304  1.00  0.00    -0.175 NA
ATOM      8  C   UNL     1      13.119  23.917  39.554  1.00  0.00     0.093 A 
ATOM      9  C   UNL     1      11.589  20.945  38.439  1.00  0.00     0.043 A 
ATOM     10  H   UNL     1      10.362  22.579  40.408  1.00  0.00     0.190 HD
ENDROOT
BRANCH   1  11
ATOM     11  S   UNL     1      12.086  18.830  36.711  1.00  0.00    -0.089 SA
BRANCH  11  12
ATOM     12  C   UNL     1      10.895  19.595  35.598  1.00  0.00     0.025 A 
ATOM     13  C   UNL     1       9.559  19.137  35.485  1.00  0.00     0.053 A 
ATOM     14  C   UNL     1       8.712  19.729  34.531  1.00  0.00     0.015 A 
ATOM     15  C   UNL     1      11.337  20.651  34.789  1.00  0.00     0.016 A 
ATOM     16  C   UNL     1       9.170  20.775  33.727  1.00  0.00     0.001 A 
ATOM     17  C   UNL     1      10.478  21.240  33.858  1.00  0.00     0.001 A 
BRANCH  13  18
ATOM     18  C   UNL     1       9.026  18.044  36.325  1.00  0.00     0.252 C 
ATOM     19  C   UNL     1       8.478  15.599  36.636  1.00  0.00     0.143 C 
ATOM     20  N   UNL     1       9.121  16.678  35.899  1.00  0.00    -0.355 N 
ATOM     21  H   UNL     1       9.684  16.439  35.052  1.00  0.00     0.163 HD
ATOM     22  O   UNL     1       8.518  18.319  37.446  1.00  0.00    -0.269 OA
ENDBRANCH  13  18
ENDBRANCH  11  12
ENDBRANCH   1  11
BRANCH   8  23
ATOM     23  C   UNL     1      14.146  24.968  39.674  1.00  0.00     0.033 C 
ATOM     24  C   UNL     1      15.018  25.009  40.692  1.00  0.00     0.030 C 
BRANCH  24  25
ATOM     25  C   UNL     1      16.074  26.034  40.864  1.00  0.00     0.063 A 
ATOM     26  C   UNL     1      17.435  25.810  40.564  1.00  0.00     0.028 A 
ATOM     27  N   UNL     1      15.698  27.255  41.342  1.00  0.00    -0.257 NA
ATOM     28  C   UNL     1      18.359  26.839  40.756  1.00  0.00     0.004 A 
ATOM     29  C   UNL     1      16.586  28.267  41.533  1.00  0.00     0.111 A 
ATOM     30  C   UNL     1      17.936  28.077  41.240  1.00  0.00     0.020 A 
ENDBRANCH  24  25
ENDBRANCH   8  23
TORSDOF 5
ENDMDL
MODEL 15
REMARK VINA RESULT:    -8.101      5.629     12.058
REMARK INTER + INTRA:         -10.985
REMARK INTER:                  -9.981
REMARK INTRA:                  -1.004
REMARK UNBOUND:                -0.517
REMARK SMILES CNC(=O)c1ccccc1Sc1ccc2c(/C=C/c3ccccn3)n[nH]c2c1
REMARK SMILES IDX 12 1 13 2 14 3 15 4 27 5 26 6 25 7 16 8 28 9 11 11 10 12
REMARK SMILES IDX 5 13 6 14 9 15 7 16 8 17 3 18 1 19 2 20 4 22 17 23 18 24
REMARK SMILES IDX 19 25 20 26 24 27 21 28 23 29 22 30
REMARK H PARENT 26 10 2 21
REMARK Flexibility Score: inf
ROOT
ATOM      1  C   UNL     1      12.411  28.782  42.733  1.00  0.00     0.014 A 
ATOM      2  C   UNL     1      13.633  29.474  42.556  1.00  0.00     0.016 A 
ATOM      3  C   UNL     1      14.755  28.816  42.019  1.00  0.00     0.014 A 
ATOM      4  C   UNL     1      14.625  27.462  41.701  1.00  0.00     0.027 A 
ATOM      5  C   UNL     1      13.439  26.801  41.860  1.00  0.00     0.067 A 
ATOM      6  N   UNL     1      13.555  25.543  41.407  1.00  0.00    -0.277 N 
ATOM      7  N   UNL     1      14.792  25.370  40.957  1.00  0.00    -0.175 NA
ATOM      8  C   UNL     1      15.479  26.524  41.136  1.00  0.00     0.093 A 
ATOM      9  C   UNL     1      12.307  27.422  42.381  1.00  0.00     0.043 A 
ATOM     10  H   UNL     1      12.810  24.812  41.388  1.00  0.00     0.190 HD
ENDROOT
BRANCH   1  11
ATOM     11  S   UNL     1      10.989  29.638  43.409  1.00  0.00    -0.089 SA
BRANCH  11  12
ATOM     12  C   UNL     1      11.583  29.507  45.105  1.00  0.00     0.025 A 
ATOM     13  C   UNL     1      12.072  30.624  45.826  1.00  0.00     0.053 A 
ATOM     14  C   UNL     1      12.600  30.427  47.115  1.00  0.00     0.015 A 
ATOM     15  C   UNL     1      11.597  28.237  45.699  1.00  0.00     0.016 A 
ATOM     16  C   UNL     1      12.613  29.155  47.691  1.00  0.00     0.001 A 
ATOM     17  C   UNL     1      12.108  28.062  46.987  1.00  0.00     0.001 A 
BRANCH  13  18
ATOM     18  C   UNL     1      12.063  31.991  45.265  1.00  0.00     0.252 C 
ATOM     19  C   UNL     1      13.285  33.906  44.162  1.00  0.00     0.143 C 
ATOM     20  N   UNL     1      13.217  32.517  44.596  1.00  0.00    -0.355 N 
ATOM     21  H   UNL     1      14.025  31.888  44.388  1.00  0.00     0.163 HD
ATOM     22  O   UNL     1      11.012  32.684  45.343  1.00  0.00    -0.269 OA
ENDBRANCH  13  18
ENDBRANCH  11  12
ENDBRANCH   1  11
BRANCH   8  23
ATOM     23  C   UNL     1      16.887  26.683  40.729  1.00  0.00     0.033 C 
ATOM     24  C   UNL     1      17.705  25.638  40.540  1.00  0.00     0.030 C 
BRANCH  24  25
ATOM     25  C   UNL     1      19.125  25.734  40.126  1.00  0.00     0.063 A 
ATOM     26  C   UNL     1      19.894  24.625  39.717  1.00  0.00     0.028 A 
ATOM     27  N   UNL     1      19.707  26.968  40.149  1.00  0.00    -0.257 NA
ATOM     28  C   UNL     1      21.226  24.814  39.341  1.00  0.00     0.004 A 
ATOM     29  C   UNL     1      21.001  27.168  39.783  1.00  0.00     0.111 A 
ATOM     30  C   UNL     1      21.785  26.092  39.370  1.00  0.00     0.020 A 
ENDBRANCH  24  25
ENDBRANCH   8  23
TORSDOF 5
ENDMDL
