MODEL 1
REMARK VINA RESULT:    -7.538      0.000      0.000
REMARK INTER + INTRA:         -11.596
REMARK INTER:                 -10.183
REMARK INTRA:                  -1.414
REMARK UNBOUND:                -1.414
REMARK SMILES CC[C@H](c1ccc(O)cc1)[C@@H](CC)c1ccc(O)cc1
REMARK SMILES IDX 11 1 12 2 13 3 14 4 15 5 20 6 16 7 19 8 17 9 18 10 3 12 2 13
REMARK SMILES IDX 1 14 4 15 5 16 10 17 6 18 9 19 7 20 8 21
REMARK H PARENT 18 11 8 22
REMARK Flexibility Score: inf
ROOT
ATOM      1  C   UNL     1      11.545  78.949  -1.603  1.00  0.00     0.026 C 
ENDROOT
BRANCH   1   2
ATOM      2  C   UNL     1      11.921  77.792  -0.637  1.00  0.00     0.005 C 
ATOM      3  C   UNL     1      13.092  78.161   0.274  1.00  0.00     0.004 C 
ENDBRANCH   1   2
BRANCH   1   4
ATOM      4  C   UNL     1      12.397  78.907  -2.868  1.00  0.00    -0.044 A 
ATOM      5  C   UNL     1      12.860  80.087  -3.483  1.00  0.00     0.008 A 
ATOM      6  C   UNL     1      12.768  77.666  -3.420  1.00  0.00     0.008 A 
ATOM      7  C   UNL     1      13.659  80.025  -4.628  1.00  0.00     0.046 A 
ATOM      8  C   UNL     1      13.566  77.608  -4.566  1.00  0.00     0.046 A 
ATOM      9  C   UNL     1      14.013  78.788  -5.174  1.00  0.00     0.115 A 
BRANCH   9  10
ATOM     10  O   UNL     1      14.810  78.742  -6.315  1.00  0.00    -0.508 OA
ATOM     11  H   UNL     1      14.441  78.983  -7.228  1.00  0.00     0.293 HD
ENDBRANCH   9  10
ENDBRANCH   1   4
BRANCH   1  12
ATOM     12  C   UNL     1      10.023  79.043  -1.971  1.00  0.00     0.026 C 
BRANCH  12  13
ATOM     13  C   UNL     1       9.271  80.297  -1.431  1.00  0.00     0.005 C 
ATOM     14  C   UNL     1       9.765  80.903  -0.114  1.00  0.00     0.004 C 
ENDBRANCH  12  13
BRANCH  12  15
ATOM     15  C   UNL     1       9.235  77.744  -1.805  1.00  0.00    -0.044 A 
ATOM     16  C   UNL     1       8.323  77.619  -0.736  1.00  0.00     0.008 A 
ATOM     17  C   UNL     1       9.385  76.654  -2.684  1.00  0.00     0.008 A 
ATOM     18  C   UNL     1       7.586  76.445  -0.556  1.00  0.00     0.046 A 
ATOM     19  C   UNL     1       8.646  75.481  -2.502  1.00  0.00     0.046 A 
ATOM     20  C   UNL     1       7.746  75.373  -1.440  1.00  0.00     0.115 A 
BRANCH  20  21
ATOM     21  O   UNL     1       7.016  74.199  -1.273  1.00  0.00    -0.508 OA
ATOM     22  H   UNL     1       6.138  74.189  -0.766  1.00  0.00     0.293 HD
ENDBRANCH  20  21
ENDBRANCH  12  15
ENDBRANCH   1  12
TORSDOF 7
ENDMDL
MODEL 2
REMARK VINA RESULT:    -7.523      2.328      4.275
REMARK INTER + INTRA:         -11.575
REMARK INTER:                 -10.408
REMARK INTRA:                  -1.168
REMARK UNBOUND:                -1.414
REMARK SMILES CC[C@H](c1ccc(O)cc1)[C@@H](CC)c1ccc(O)cc1
REMARK SMILES IDX 11 1 12 2 13 3 14 4 15 5 20 6 16 7 19 8 17 9 18 10 3 12 2 13
REMARK SMILES IDX 1 14 4 15 5 16 10 17 6 18 9 19 7 20 8 21
REMARK H PARENT 18 11 8 22
REMARK Flexibility Score: inf
ROOT
ATOM      1  C   UNL     1      14.431  78.974  -3.907  1.00  0.00     0.026 C 
ENDROOT
BRANCH   1   2
ATOM      2  C   UNL     1      13.416  78.010  -4.581  1.00  0.00     0.005 C 
ATOM      3  C   UNL     1      14.103  76.795  -5.204  1.00  0.00     0.004 C 
ENDBRANCH   1   2
BRANCH   1   4
ATOM      4  C   UNL     1      14.952  80.006  -4.903  1.00  0.00    -0.044 A 
ATOM      5  C   UNL     1      16.044  79.727  -5.749  1.00  0.00     0.008 A 
ATOM      6  C   UNL     1      14.311  81.254  -5.016  1.00  0.00     0.008 A 
ATOM      7  C   UNL     1      16.490  80.678  -6.669  1.00  0.00     0.046 A 
ATOM      8  C   UNL     1      14.761  82.203  -5.938  1.00  0.00     0.046 A 
ATOM      9  C   UNL     1      15.852  81.918  -6.767  1.00  0.00     0.115 A 
BRANCH   9  10
ATOM     10  O   UNL     1      16.309  82.856  -7.690  1.00  0.00    -0.508 OA
ATOM     11  H   UNL     1      16.417  83.833  -7.443  1.00  0.00     0.293 HD
ENDBRANCH   9  10
ENDBRANCH   1   4
BRANCH   1  12
ATOM     12  C   UNL     1      13.916  79.681  -2.605  1.00  0.00     0.026 C 
BRANCH  12  13
ATOM     13  C   UNL     1      14.945  79.786  -1.439  1.00  0.00     0.005 C 
ATOM     14  C   UNL     1      14.556  80.638  -0.228  1.00  0.00     0.004 C 
ENDBRANCH  12  13
BRANCH  12  15
ATOM     15  C   UNL     1      12.520  79.258  -2.146  1.00  0.00    -0.044 A 
ATOM     16  C   UNL     1      12.364  78.063  -1.415  1.00  0.00     0.008 A 
ATOM     17  C   UNL     1      11.371  80.022  -2.431  1.00  0.00     0.008 A 
ATOM     18  C   UNL     1      11.102  77.649  -0.980  1.00  0.00     0.046 A 
ATOM     19  C   UNL     1      10.110  79.605  -1.995  1.00  0.00     0.046 A 
ATOM     20  C   UNL     1       9.971  78.420  -1.270  1.00  0.00     0.115 A 
BRANCH  20  21
ATOM     21  O   UNL     1       8.708  78.018  -0.840  1.00  0.00    -0.508 OA
ATOM     22  H   UNL     1       8.565  77.613   0.077  1.00  0.00     0.293 HD
ENDBRANCH  20  21
ENDBRANCH  12  15
ENDBRANCH   1  12
TORSDOF 7
ENDMDL
MODEL 3
REMARK VINA RESULT:    -7.468      0.533      1.313
REMARK INTER + INTRA:         -11.502
REMARK INTER:                 -10.259
REMARK INTRA:                  -1.243
REMARK UNBOUND:                -1.414
REMARK SMILES CC[C@H](c1ccc(O)cc1)[C@@H](CC)c1ccc(O)cc1
REMARK SMILES IDX 11 1 12 2 13 3 14 4 15 5 20 6 16 7 19 8 17 9 18 10 3 12 2 13
REMARK SMILES IDX 1 14 4 15 5 16 10 17 6 18 9 19 7 20 8 21
REMARK H PARENT 18 11 8 22
REMARK Flexibility Score: inf
ROOT
ATOM      1  C   UNL     1      11.492  78.825  -1.434  1.00  0.00     0.026 C 
ENDROOT
BRANCH   1   2
ATOM      2  C   UNL     1      11.805  77.617  -0.510  1.00  0.00     0.005 C 
ATOM      3  C   UNL     1      13.106  77.810   0.270  1.00  0.00     0.004 C 
ENDBRANCH   1   2
BRANCH   1   4
ATOM      4  C   UNL     1      12.464  78.883  -2.610  1.00  0.00    -0.044 A 
ATOM      5  C   UNL     1      13.240  80.031  -2.866  1.00  0.00     0.008 A 
ATOM      6  C   UNL     1      12.624  77.758  -3.440  1.00  0.00     0.008 A 
ATOM      7  C   UNL     1      14.141  80.054  -3.934  1.00  0.00     0.046 A 
ATOM      8  C   UNL     1      13.525  77.786  -4.507  1.00  0.00     0.046 A 
ATOM      9  C   UNL     1      14.286  78.934  -4.758  1.00  0.00     0.115 A 
BRANCH   9  10
ATOM     10  O   UNL     1      15.188  78.972  -5.819  1.00  0.00    -0.508 OA
ATOM     11  H   UNL     1      16.168  79.185  -5.672  1.00  0.00     0.293 HD
ENDBRANCH   9  10
ENDBRANCH   1   4
BRANCH   1  12
ATOM     12  C   UNL     1      10.011  78.911  -1.943  1.00  0.00     0.026 C 
BRANCH  12  13
ATOM     13  C   UNL     1       9.261  80.240  -1.626  1.00  0.00     0.005 C 
ATOM     14  C   UNL     1       7.945  80.500  -2.363  1.00  0.00     0.004 C 
ENDBRANCH  12  13
BRANCH  12  15
ATOM     15  C   UNL     1       9.166  77.662  -1.692  1.00  0.00    -0.044 A 
ATOM     16  C   UNL     1       9.188  76.611  -2.632  1.00  0.00     0.008 A 
ATOM     17  C   UNL     1       8.356  77.518  -0.548  1.00  0.00     0.008 A 
ATOM     18  C   UNL     1       8.428  75.455  -2.432  1.00  0.00     0.046 A 
ATOM     19  C   UNL     1       7.598  76.360  -0.351  1.00  0.00     0.046 A 
ATOM     20  C   UNL     1       7.631  75.327  -1.290  1.00  0.00     0.115 A 
BRANCH  20  21
ATOM     21  O   UNL     1       6.871  74.179  -1.078  1.00  0.00    -0.508 OA
ATOM     22  H   UNL     1       7.009  73.343  -1.634  1.00  0.00     0.293 HD
ENDBRANCH  20  21
ENDBRANCH  12  15
ENDBRANCH   1  12
TORSDOF 7
ENDMDL
MODEL 4
REMARK VINA RESULT:    -7.427      2.448      3.705
REMARK INTER + INTRA:         -11.445
REMARK INTER:                 -10.246
REMARK INTRA:                  -1.200
REMARK UNBOUND:                -1.414
REMARK SMILES CC[C@H](c1ccc(O)cc1)[C@@H](CC)c1ccc(O)cc1
REMARK SMILES IDX 11 1 12 2 13 3 14 4 15 5 20 6 16 7 19 8 17 9 18 10 3 12 2 13
REMARK SMILES IDX 1 14 4 15 5 16 10 17 6 18 9 19 7 20 8 21
REMARK H PARENT 18 11 8 22
REMARK Flexibility Score: inf
ROOT
ATOM      1  C   UNL     1      13.346  79.127  -2.710  1.00  0.00     0.026 C 
ENDROOT
BRANCH   1   2
ATOM      2  C   UNL     1      12.489  77.990  -3.331  1.00  0.00     0.005 C 
ATOM      3  C   UNL     1      13.252  77.216  -4.406  1.00  0.00     0.004 C 
ENDBRANCH   1   2
BRANCH   1   4
ATOM      4  C   UNL     1      14.033  79.952  -3.795  1.00  0.00    -0.044 A 
ATOM      5  C   UNL     1      13.293  80.751  -4.690  1.00  0.00     0.008 A 
ATOM      6  C   UNL     1      15.437  79.954  -3.888  1.00  0.00     0.008 A 
ATOM      7  C   UNL     1      13.944  81.517  -5.660  1.00  0.00     0.046 A 
ATOM      8  C   UNL     1      16.083  80.721  -4.861  1.00  0.00     0.046 A 
ATOM      9  C   UNL     1      15.338  81.504  -5.751  1.00  0.00     0.115 A 
BRANCH   9  10
ATOM     10  O   UNL     1      15.972  82.274  -6.724  1.00  0.00    -0.508 OA
ATOM     11  H   UNL     1      16.893  82.666  -6.571  1.00  0.00     0.293 HD
ENDBRANCH   9  10
ENDBRANCH   1   4
BRANCH   1  12
ATOM     12  C   UNL     1      12.587  80.064  -1.707  1.00  0.00     0.026 C 
BRANCH  12  13
ATOM     13  C   UNL     1      13.140  80.086  -0.250  1.00  0.00     0.005 C 
ATOM     14  C   UNL     1      14.614  80.452  -0.059  1.00  0.00     0.004 C 
ENDBRANCH  12  13
BRANCH  12  15
ATOM     15  C   UNL     1      11.062  79.988  -1.777  1.00  0.00    -0.044 A 
ATOM     16  C   UNL     1      10.359  80.910  -2.580  1.00  0.00     0.008 A 
ATOM     17  C   UNL     1      10.322  79.026  -1.062  1.00  0.00     0.008 A 
ATOM     18  C   UNL     1       8.965  80.867  -2.668  1.00  0.00     0.046 A 
ATOM     19  C   UNL     1       8.927  78.986  -1.151  1.00  0.00     0.046 A 
ATOM     20  C   UNL     1       8.245  79.904  -1.952  1.00  0.00     0.115 A 
BRANCH  20  21
ATOM     21  O   UNL     1       6.856  79.850  -2.033  1.00  0.00    -0.508 OA
ATOM     22  H   UNL     1       6.273  79.976  -1.213  1.00  0.00     0.293 HD
ENDBRANCH  20  21
ENDBRANCH  12  15
ENDBRANCH   1  12
TORSDOF 7
ENDMDL
MODEL 5
REMARK VINA RESULT:    -7.420      1.586      2.699
REMARK INTER + INTRA:         -11.437
REMARK INTER:                 -10.020
REMARK INTRA:                  -1.417
REMARK UNBOUND:                -1.414
REMARK SMILES CC[C@H](c1ccc(O)cc1)[C@@H](CC)c1ccc(O)cc1
REMARK SMILES IDX 11 1 12 2 13 3 14 4 15 5 20 6 16 7 19 8 17 9 18 10 3 12 2 13
REMARK SMILES IDX 1 14 4 15 5 16 10 17 6 18 9 19 7 20 8 21
REMARK H PARENT 18 11 8 22
REMARK Flexibility Score: inf
ROOT
ATOM      1  C   UNL     1      11.895  80.231  -1.323  1.00  0.00     0.026 C 
ENDROOT
BRANCH   1   2
ATOM      2  C   UNL     1      12.318  81.256  -0.236  1.00  0.00     0.005 C 
ATOM      3  C   UNL     1      11.211  81.496   0.791  1.00  0.00     0.004 C 
ENDBRANCH   1   2
BRANCH   1   4
ATOM      4  C   UNL     1      12.995  80.051  -2.366  1.00  0.00    -0.044 A 
ATOM      5  C   UNL     1      14.358  80.051  -2.007  1.00  0.00     0.008 A 
ATOM      6  C   UNL     1      12.650  79.842  -3.715  1.00  0.00     0.008 A 
ATOM      7  C   UNL     1      15.346  79.862  -2.975  1.00  0.00     0.046 A 
ATOM      8  C   UNL     1      13.644  79.654  -4.680  1.00  0.00     0.046 A 
ATOM      9  C   UNL     1      14.995  79.665  -4.314  1.00  0.00     0.115 A 
BRANCH   9  10
ATOM     10  O   UNL     1      15.993  79.477  -5.267  1.00  0.00    -0.508 OA
ATOM     11  H   UNL     1      16.491  78.598  -5.345  1.00  0.00     0.293 HD
ENDBRANCH   9  10
ENDBRANCH   1   4
BRANCH   1  12
ATOM     12  C   UNL     1      11.424  78.837  -0.779  1.00  0.00     0.026 C 
BRANCH  12  13
ATOM     13  C   UNL     1      12.557  77.820  -0.446  1.00  0.00     0.005 C 
ATOM     14  C   UNL     1      13.295  77.996   0.883  1.00  0.00     0.004 C 
ENDBRANCH  12  13
BRANCH  12  15
ATOM     15  C   UNL     1      10.249  78.212  -1.531  1.00  0.00    -0.044 A 
ATOM     16  C   UNL     1      10.442  77.008  -2.239  1.00  0.00     0.008 A 
ATOM     17  C   UNL     1       8.968  78.798  -1.548  1.00  0.00     0.008 A 
ATOM     18  C   UNL     1       9.388  76.409  -2.936  1.00  0.00     0.046 A 
ATOM     19  C   UNL     1       7.917  78.197  -2.246  1.00  0.00     0.046 A 
ATOM     20  C   UNL     1       8.122  77.004  -2.941  1.00  0.00     0.115 A 
BRANCH  20  21
ATOM     21  O   UNL     1       7.064  76.416  -3.630  1.00  0.00    -0.508 OA
ATOM     22  H   UNL     1       6.530  75.652  -3.229  1.00  0.00     0.293 HD
ENDBRANCH  20  21
ENDBRANCH  12  15
ENDBRANCH   1  12
TORSDOF 7
ENDMDL
MODEL 6
REMARK VINA RESULT:    -7.416      2.924      4.195
REMARK INTER + INTRA:         -11.431
REMARK INTER:                 -10.008
REMARK INTRA:                  -1.423
REMARK UNBOUND:                -1.414
REMARK SMILES CC[C@H](c1ccc(O)cc1)[C@@H](CC)c1ccc(O)cc1
REMARK SMILES IDX 11 1 12 2 13 3 14 4 15 5 20 6 16 7 19 8 17 9 18 10 3 12 2 13
REMARK SMILES IDX 1 14 4 15 5 16 10 17 6 18 9 19 7 20 8 21
REMARK H PARENT 18 11 8 22
REMARK Flexibility Score: inf
ROOT
ATOM      1  C   UNL     1      10.806  79.433  -2.007  1.00  0.00     0.026 C 
ENDROOT
BRANCH   1   2
ATOM      2  C   UNL     1       9.813  80.478  -2.585  1.00  0.00     0.005 C 
ATOM      3  C   UNL     1       8.398  80.295  -2.036  1.00  0.00     0.004 C 
ENDBRANCH   1   2
BRANCH   1   4
ATOM      4  C   UNL     1      11.994  79.228  -2.943  1.00  0.00    -0.044 A 
ATOM      5  C   UNL     1      12.383  77.941  -3.367  1.00  0.00     0.008 A 
ATOM      6  C   UNL     1      12.701  80.344  -3.429  1.00  0.00     0.008 A 
ATOM      7  C   UNL     1      13.460  77.779  -4.242  1.00  0.00     0.046 A 
ATOM      8  C   UNL     1      13.779  80.176  -4.303  1.00  0.00     0.046 A 
ATOM      9  C   UNL     1      14.162  78.893  -4.712  1.00  0.00     0.115 A 
BRANCH   9  10
ATOM     10  O   UNL     1      15.233  78.713  -5.584  1.00  0.00    -0.508 OA
ATOM     11  H   UNL     1      15.457  77.802  -5.966  1.00  0.00     0.293 HD
ENDBRANCH   9  10
ENDBRANCH   1   4
BRANCH   1  12
ATOM     12  C   UNL     1      11.301  79.719  -0.547  1.00  0.00     0.026 C 
BRANCH  12  13
ATOM     13  C   UNL     1      11.726  81.188  -0.250  1.00  0.00     0.005 C 
ATOM     14  C   UNL     1      10.960  81.938   0.842  1.00  0.00     0.004 C 
ENDBRANCH  12  13
BRANCH  12  15
ATOM     15  C   UNL     1      12.266  78.680   0.025  1.00  0.00    -0.044 A 
ATOM     16  C   UNL     1      13.506  79.101   0.547  1.00  0.00     0.008 A 
ATOM     17  C   UNL     1      11.964  77.304   0.048  1.00  0.00     0.008 A 
ATOM     18  C   UNL     1      14.411  78.178   1.079  1.00  0.00     0.046 A 
ATOM     19  C   UNL     1      12.871  76.383   0.581  1.00  0.00     0.046 A 
ATOM     20  C   UNL     1      14.095  76.815   1.096  1.00  0.00     0.115 A 
BRANCH  20  21
ATOM     21  O   UNL     1      14.987  75.885   1.625  1.00  0.00    -0.508 OA
ATOM     22  H   UNL     1      14.670  74.992   1.983  1.00  0.00     0.293 HD
ENDBRANCH  20  21
ENDBRANCH  12  15
ENDBRANCH   1  12
TORSDOF 7
ENDMDL
MODEL 7
REMARK VINA RESULT:    -7.415      1.532      6.005
REMARK INTER + INTRA:         -11.429
REMARK INTER:                 -10.143
REMARK INTRA:                  -1.286
REMARK UNBOUND:                -1.414
REMARK SMILES CC[C@H](c1ccc(O)cc1)[C@@H](CC)c1ccc(O)cc1
REMARK SMILES IDX 11 1 12 2 13 3 14 4 15 5 20 6 16 7 19 8 17 9 18 10 3 12 2 13
REMARK SMILES IDX 1 14 4 15 5 16 10 17 6 18 9 19 7 20 8 21
REMARK H PARENT 18 11 8 22
REMARK Flexibility Score: inf
ROOT
ATOM      1  C   UNL     1      11.590  78.974  -0.822  1.00  0.00     0.026 C 
ENDROOT
BRANCH   1   2
ATOM      2  C   UNL     1      11.593  80.506  -1.081  1.00  0.00     0.005 C 
ATOM      3  C   UNL     1      11.359  81.307   0.200  1.00  0.00     0.004 C 
ENDBRANCH   1   2
BRANCH   1   4
ATOM      4  C   UNL     1      10.405  78.303  -1.509  1.00  0.00    -0.044 A 
ATOM      5  C   UNL     1       9.174  78.969  -1.670  1.00  0.00     0.008 A 
ATOM      6  C   UNL     1      10.545  77.004  -2.033  1.00  0.00     0.008 A 
ATOM      7  C   UNL     1       8.109  78.344  -2.324  1.00  0.00     0.046 A 
ATOM      8  C   UNL     1       9.477  76.382  -2.685  1.00  0.00     0.046 A 
ATOM      9  C   UNL     1       8.255  77.050  -2.832  1.00  0.00     0.115 A 
BRANCH   9  10
ATOM     10  O   UNL     1       7.184  76.440  -3.481  1.00  0.00    -0.508 OA
ATOM     11  H   UNL     1       6.253  76.442  -3.081  1.00  0.00     0.293 HD
ENDBRANCH   9  10
ENDBRANCH   1   4
BRANCH   1  12
ATOM     12  C   UNL     1      12.925  78.234  -1.183  1.00  0.00     0.026 C 
BRANCH  12  13
ATOM     13  C   UNL     1      13.907  77.989   0.002  1.00  0.00     0.005 C 
ATOM     14  C   UNL     1      13.550  76.883   0.998  1.00  0.00     0.004 C 
ENDBRANCH  12  13
BRANCH  12  15
ATOM     15  C   UNL     1      13.617  78.728  -2.453  1.00  0.00    -0.044 A 
ATOM     16  C   UNL     1      14.709  79.613  -2.347  1.00  0.00     0.008 A 
ATOM     17  C   UNL     1      13.200  78.334  -3.740  1.00  0.00     0.008 A 
ATOM     18  C   UNL     1      15.365  80.083  -3.489  1.00  0.00     0.046 A 
ATOM     19  C   UNL     1      13.858  78.806  -4.880  1.00  0.00     0.046 A 
ATOM     20  C   UNL     1      14.940  79.680  -4.759  1.00  0.00     0.115 A 
BRANCH  20  21
ATOM     21  O   UNL     1      15.586  80.140  -5.904  1.00  0.00    -0.508 OA
ATOM     22  H   UNL     1      16.388  80.758  -5.847  1.00  0.00     0.293 HD
ENDBRANCH  20  21
ENDBRANCH  12  15
ENDBRANCH   1  12
TORSDOF 7
ENDMDL
MODEL 8
REMARK VINA RESULT:    -7.412      2.354      3.242
REMARK INTER + INTRA:         -11.426
REMARK INTER:                 -10.694
REMARK INTRA:                  -0.731
REMARK UNBOUND:                -1.414
REMARK SMILES CC[C@H](c1ccc(O)cc1)[C@@H](CC)c1ccc(O)cc1
REMARK SMILES IDX 11 1 12 2 13 3 14 4 15 5 20 6 16 7 19 8 17 9 18 10 3 12 2 13
REMARK SMILES IDX 1 14 4 15 5 16 10 17 6 18 9 19 7 20 8 21
REMARK H PARENT 18 11 8 22
REMARK Flexibility Score: inf
ROOT
ATOM      1  C   UNL     1      11.031  80.762  -0.927  1.00  0.00     0.026 C 
ENDROOT
BRANCH   1   2
ATOM      2  C   UNL     1      10.328  80.800   0.457  1.00  0.00     0.005 C 
ATOM      3  C   UNL     1      10.884  81.906   1.355  1.00  0.00     0.004 C 
ENDBRANCH   1   2
BRANCH   1   4
ATOM      4  C   UNL     1      12.432  80.168  -0.815  1.00  0.00    -0.044 A 
ATOM      5  C   UNL     1      13.432  80.455  -1.766  1.00  0.00     0.008 A 
ATOM      6  C   UNL     1      12.756  79.344   0.280  1.00  0.00     0.008 A 
ATOM      7  C   UNL     1      14.715  79.919  -1.631  1.00  0.00     0.046 A 
ATOM      8  C   UNL     1      14.041  78.809   0.410  1.00  0.00     0.046 A 
ATOM      9  C   UNL     1      15.024  79.094  -0.545  1.00  0.00     0.115 A 
BRANCH   9  10
ATOM     10  O   UNL     1      16.308  78.568  -0.425  1.00  0.00    -0.508 OA
ATOM     11  H   UNL     1      16.736  78.421   0.482  1.00  0.00     0.293 HD
ENDBRANCH   9  10
ENDBRANCH   1   4
BRANCH   1  12
ATOM     12  C   UNL     1      10.223  80.048  -2.066  1.00  0.00     0.026 C 
BRANCH  12  13
ATOM     13  C   UNL     1       9.001  80.836  -2.627  1.00  0.00     0.005 C 
ATOM     14  C   UNL     1       7.608  80.396  -2.168  1.00  0.00     0.004 C 
ENDBRANCH  12  13
BRANCH  12  15
ATOM     15  C   UNL     1       9.932  78.567  -1.825  1.00  0.00    -0.044 A 
ATOM     16  C   UNL     1      10.564  77.597  -2.630  1.00  0.00     0.008 A 
ATOM     17  C   UNL     1       9.047  78.127  -0.821  1.00  0.00     0.008 A 
ATOM     18  C   UNL     1      10.322  76.234  -2.434  1.00  0.00     0.046 A 
ATOM     19  C   UNL     1       8.806  76.764  -0.629  1.00  0.00     0.046 A 
ATOM     20  C   UNL     1       9.441  75.815  -1.432  1.00  0.00     0.115 A 
BRANCH  20  21
ATOM     21  O   UNL     1       9.192  74.459  -1.227  1.00  0.00    -0.508 OA
ATOM     22  H   UNL     1       9.265  74.042  -0.306  1.00  0.00     0.293 HD
ENDBRANCH  20  21
ENDBRANCH  12  15
ENDBRANCH   1  12
TORSDOF 7
ENDMDL
MODEL 9
REMARK VINA RESULT:    -7.389      2.282      4.014
REMARK INTER + INTRA:         -11.395
REMARK INTER:                 -10.123
REMARK INTRA:                  -1.272
REMARK UNBOUND:                -1.414
REMARK SMILES CC[C@H](c1ccc(O)cc1)[C@@H](CC)c1ccc(O)cc1
REMARK SMILES IDX 11 1 12 2 13 3 14 4 15 5 20 6 16 7 19 8 17 9 18 10 3 12 2 13
REMARK SMILES IDX 1 14 4 15 5 16 10 17 6 18 9 19 7 20 8 21
REMARK H PARENT 18 11 8 22
REMARK Flexibility Score: inf
ROOT
ATOM      1  C   UNL     1      14.228  79.684  -2.918  1.00  0.00     0.026 C 
ENDROOT
BRANCH   1   2
ATOM      2  C   UNL     1      15.378  79.336  -1.934  1.00  0.00     0.005 C 
ATOM      3  C   UNL     1      14.997  79.618  -0.480  1.00  0.00     0.004 C 
ENDBRANCH   1   2
BRANCH   1   4
ATOM      4  C   UNL     1      14.755  80.439  -4.135  1.00  0.00    -0.044 A 
ATOM      5  C   UNL     1      13.962  81.384  -4.816  1.00  0.00     0.008 A 
ATOM      6  C   UNL     1      16.076  80.223  -4.573  1.00  0.00     0.008 A 
ATOM      7  C   UNL     1      14.473  82.081  -5.913  1.00  0.00     0.046 A 
ATOM      8  C   UNL     1      16.582  80.922  -5.672  1.00  0.00     0.046 A 
ATOM      9  C   UNL     1      15.782  81.852  -6.346  1.00  0.00     0.115 A 
BRANCH   9  10
ATOM     10  O   UNL     1      16.278  82.555  -7.442  1.00  0.00    -0.508 OA
ATOM     11  H   UNL     1      16.253  83.567  -7.476  1.00  0.00     0.293 HD
ENDBRANCH   9  10
ENDBRANCH   1   4
BRANCH   1  12
ATOM     12  C   UNL     1      13.344  78.469  -3.368  1.00  0.00     0.026 C 
BRANCH  12  13
ATOM     13  C   UNL     1      13.482  78.046  -4.862  1.00  0.00     0.005 C 
ATOM     14  C   UNL     1      14.219  76.737  -5.159  1.00  0.00     0.004 C 
ENDBRANCH  12  13
BRANCH  12  15
ATOM     15  C   UNL     1      11.896  78.505  -2.879  1.00  0.00    -0.044 A 
ATOM     16  C   UNL     1      11.345  79.725  -2.436  1.00  0.00     0.008 A 
ATOM     17  C   UNL     1      11.081  77.356  -2.850  1.00  0.00     0.008 A 
ATOM     18  C   UNL     1      10.024  79.793  -1.984  1.00  0.00     0.046 A 
ATOM     19  C   UNL     1       9.761  77.427  -2.397  1.00  0.00     0.046 A 
ATOM     20  C   UNL     1       9.229  78.643  -1.963  1.00  0.00     0.115 A 
BRANCH  20  21
ATOM     21  O   UNL     1       7.910  78.698  -1.516  1.00  0.00    -0.508 OA
ATOM     22  H   UNL     1       7.688  78.830  -0.536  1.00  0.00     0.293 HD
ENDBRANCH  20  21
ENDBRANCH  12  15
ENDBRANCH   1  12
TORSDOF 7
ENDMDL
MODEL 10
REMARK VINA RESULT:    -7.382      3.311      6.943
REMARK INTER + INTRA:         -11.384
REMARK INTER:                 -10.628
REMARK INTRA:                  -0.756
REMARK UNBOUND:                -1.414
REMARK SMILES CC[C@H](c1ccc(O)cc1)[C@@H](CC)c1ccc(O)cc1
REMARK SMILES IDX 11 1 12 2 13 3 14 4 15 5 20 6 16 7 19 8 17 9 18 10 3 12 2 13
REMARK SMILES IDX 1 14 4 15 5 16 10 17 6 18 9 19 7 20 8 21
REMARK H PARENT 18 11 8 22
REMARK Flexibility Score: inf
ROOT
ATOM      1  C   UNL     1      12.445  80.015  -2.127  1.00  0.00     0.026 C 
ENDROOT
BRANCH   1   2
ATOM      2  C   UNL     1      10.947  80.340  -1.877  1.00  0.00     0.005 C 
ATOM      3  C   UNL     1      10.743  81.182  -0.618  1.00  0.00     0.004 C 
ENDBRANCH   1   2
BRANCH   1   4
ATOM      4  C   UNL     1      13.000  79.105  -1.033  1.00  0.00    -0.044 A 
ATOM      5  C   UNL     1      12.302  77.958  -0.607  1.00  0.00     0.008 A 
ATOM      6  C   UNL     1      14.253  79.388  -0.458  1.00  0.00     0.008 A 
ATOM      7  C   UNL     1      12.839  77.126   0.379  1.00  0.00     0.046 A 
ATOM      8  C   UNL     1      14.786  78.554   0.528  1.00  0.00     0.046 A 
ATOM      9  C   UNL     1      14.080  77.421   0.950  1.00  0.00     0.115 A 
BRANCH   9  10
ATOM     10  O   UNL     1      14.602  76.582   1.932  1.00  0.00    -0.508 OA
ATOM     11  H   UNL     1      15.529  76.181   1.847  1.00  0.00     0.293 HD
ENDBRANCH   9  10
ENDBRANCH   1   4
BRANCH   1  12
ATOM     12  C   UNL     1      12.775  79.430  -3.544  1.00  0.00     0.026 C 
BRANCH  12  13
ATOM     13  C   UNL     1      12.807  77.876  -3.646  1.00  0.00     0.005 C 
ATOM     14  C   UNL     1      13.575  77.261  -4.819  1.00  0.00     0.004 C 
ENDBRANCH  12  13
BRANCH  12  15
ATOM     15  C   UNL     1      13.934  80.111  -4.272  1.00  0.00    -0.044 A 
ATOM     16  C   UNL     1      15.260  79.795  -3.910  1.00  0.00     0.008 A 
ATOM     17  C   UNL     1      13.730  81.054  -5.299  1.00  0.00     0.008 A 
ATOM     18  C   UNL     1      16.343  80.397  -4.556  1.00  0.00     0.046 A 
ATOM     19  C   UNL     1      14.815  81.655  -5.943  1.00  0.00     0.046 A 
ATOM     20  C   UNL     1      16.122  81.330  -5.575  1.00  0.00     0.115 A 
BRANCH  20  21
ATOM     21  O   UNL     1      17.193  81.937  -6.228  1.00  0.00    -0.508 OA
ATOM     22  H   UNL     1      17.413  82.916  -6.087  1.00  0.00     0.293 HD
ENDBRANCH  20  21
ENDBRANCH  12  15
ENDBRANCH   1  12
TORSDOF 7
ENDMDL
MODEL 11
REMARK VINA RESULT:    -7.349      2.926      4.100
REMARK INTER + INTRA:         -11.340
REMARK INTER:                  -9.876
REMARK INTRA:                  -1.465
REMARK UNBOUND:                -1.414
REMARK SMILES CC[C@H](c1ccc(O)cc1)[C@@H](CC)c1ccc(O)cc1
REMARK SMILES IDX 11 1 12 2 13 3 14 4 15 5 20 6 16 7 19 8 17 9 18 10 3 12 2 13
REMARK SMILES IDX 1 14 4 15 5 16 10 17 6 18 9 19 7 20 8 21
REMARK H PARENT 18 11 8 22
REMARK Flexibility Score: inf
ROOT
ATOM      1  C   UNL     1      10.817  79.435  -2.032  1.00  0.00     0.026 C 
ENDROOT
BRANCH   1   2
ATOM      2  C   UNL     1       9.782  80.438  -2.611  1.00  0.00     0.005 C 
ATOM      3  C   UNL     1       8.367  80.164  -2.099  1.00  0.00     0.004 C 
ENDBRANCH   1   2
BRANCH   1   4
ATOM      4  C   UNL     1      12.008  79.270  -2.972  1.00  0.00    -0.044 A 
ATOM      5  C   UNL     1      12.746  80.382  -3.427  1.00  0.00     0.008 A 
ATOM      6  C   UNL     1      12.411  77.982  -3.370  1.00  0.00     0.008 A 
ATOM      7  C   UNL     1      13.846  80.206  -4.269  1.00  0.00     0.046 A 
ATOM      8  C   UNL     1      13.512  77.811  -4.213  1.00  0.00     0.046 A 
ATOM      9  C   UNL     1      14.233  78.923  -4.666  1.00  0.00     0.115 A 
BRANCH   9  10
ATOM     10  O   UNL     1      15.333  78.764  -5.506  1.00  0.00    -0.508 OA
ATOM     11  H   UNL     1      15.231  78.410  -6.450  1.00  0.00     0.293 HD
ENDBRANCH   9  10
ENDBRANCH   1   4
BRANCH   1  12
ATOM     12  C   UNL     1      11.309  79.749  -0.576  1.00  0.00     0.026 C 
BRANCH  12  13
ATOM     13  C   UNL     1      11.667  81.238  -0.287  1.00  0.00     0.005 C 
ATOM     14  C   UNL     1      10.876  81.955   0.810  1.00  0.00     0.004 C 
ENDBRANCH  12  13
BRANCH  12  15
ATOM     15  C   UNL     1      12.326  78.759  -0.007  1.00  0.00    -0.044 A 
ATOM     16  C   UNL     1      11.983  77.395   0.092  1.00  0.00     0.008 A 
ATOM     17  C   UNL     1      13.604  79.159   0.429  1.00  0.00     0.008 A 
ATOM     18  C   UNL     1      12.890  76.463   0.605  1.00  0.00     0.046 A 
ATOM     19  C   UNL     1      14.508  78.225   0.942  1.00  0.00     0.046 A 
ATOM     20  C   UNL     1      14.156  76.878   1.033  1.00  0.00     0.115 A 
BRANCH  20  21
ATOM     21  O   UNL     1      15.069  75.958   1.545  1.00  0.00    -0.508 OA
ATOM     22  H   UNL     1      14.829  75.348   2.317  1.00  0.00     0.293 HD
ENDBRANCH  20  21
ENDBRANCH  12  15
ENDBRANCH   1  12
TORSDOF 7
ENDMDL
MODEL 12
REMARK VINA RESULT:    -7.297      1.298      6.106
REMARK INTER + INTRA:         -11.270
REMARK INTER:                  -9.759
REMARK INTRA:                  -1.511
REMARK UNBOUND:                -1.414
REMARK SMILES CC[C@H](c1ccc(O)cc1)[C@@H](CC)c1ccc(O)cc1
REMARK SMILES IDX 11 1 12 2 13 3 14 4 15 5 20 6 16 7 19 8 17 9 18 10 3 12 2 13
REMARK SMILES IDX 1 14 4 15 5 16 10 17 6 18 9 19 7 20 8 21
REMARK H PARENT 18 11 8 22
REMARK Flexibility Score: inf
ROOT
ATOM      1  C   UNL     1      11.338  78.514  -1.281  1.00  0.00     0.026 C 
ENDROOT
BRANCH   1   2
ATOM      2  C   UNL     1      10.834  79.620  -2.248  1.00  0.00     0.005 C 
ATOM      3  C   UNL     1      10.135  80.760  -1.505  1.00  0.00     0.004 C 
ENDBRANCH   1   2
BRANCH   1   4
ATOM      4  C   UNL     1      10.528  77.231  -1.444  1.00  0.00    -0.044 A 
ATOM      5  C   UNL     1       9.626  77.061  -2.513  1.00  0.00     0.008 A 
ATOM      6  C   UNL     1      10.706  76.172  -0.533  1.00  0.00     0.008 A 
ATOM      7  C   UNL     1       8.912  75.869  -2.656  1.00  0.00     0.046 A 
ATOM      8  C   UNL     1       9.989  74.982  -0.680  1.00  0.00     0.046 A 
ATOM      9  C   UNL     1       9.089  74.827  -1.741  1.00  0.00     0.115 A 
BRANCH   9  10
ATOM     10  O   UNL     1       8.370  73.645  -1.898  1.00  0.00    -0.508 OA
ATOM     11  H   UNL     1       8.160  73.045  -1.109  1.00  0.00     0.293 HD
ENDBRANCH   9  10
ENDBRANCH   1   4
BRANCH   1  12
ATOM     12  C   UNL     1      12.874  78.206  -1.361  1.00  0.00     0.026 C 
BRANCH  12  13
ATOM     13  C   UNL     1      13.712  78.601  -0.108  1.00  0.00     0.005 C 
ATOM     14  C   UNL     1      13.117  79.649   0.837  1.00  0.00     0.004 C 
ENDBRANCH  12  13
BRANCH  12  15
ATOM     15  C   UNL     1      13.542  78.586  -2.683  1.00  0.00    -0.044 A 
ATOM     16  C   UNL     1      14.432  79.679  -2.720  1.00  0.00     0.008 A 
ATOM     17  C   UNL     1      13.300  77.882  -3.879  1.00  0.00     0.008 A 
ATOM     18  C   UNL     1      15.061  80.052  -3.911  1.00  0.00     0.046 A 
ATOM     19  C   UNL     1      13.930  78.258  -5.069  1.00  0.00     0.046 A 
ATOM     20  C   UNL     1      14.811  79.341  -5.090  1.00  0.00     0.115 A 
BRANCH  20  21
ATOM     21  O   UNL     1      15.433  79.701  -6.283  1.00  0.00    -0.508 OA
ATOM     22  H   UNL     1      14.965  79.599  -7.176  1.00  0.00     0.293 HD
ENDBRANCH  20  21
ENDBRANCH  12  15
ENDBRANCH   1  12
TORSDOF 7
ENDMDL
MODEL 13
REMARK VINA RESULT:    -7.215      2.711      7.220
REMARK INTER + INTRA:         -11.159
REMARK INTER:                  -9.971
REMARK INTRA:                  -1.188
REMARK UNBOUND:                -1.414
REMARK SMILES CC[C@H](c1ccc(O)cc1)[C@@H](CC)c1ccc(O)cc1
REMARK SMILES IDX 11 1 12 2 13 3 14 4 15 5 20 6 16 7 19 8 17 9 18 10 3 12 2 13
REMARK SMILES IDX 1 14 4 15 5 16 10 17 6 18 9 19 7 20 8 21
REMARK H PARENT 18 11 8 22
REMARK Flexibility Score: inf
ROOT
ATOM      1  C   UNL     1      12.968  78.852  -3.768  1.00  0.00     0.026 C 
ENDROOT
BRANCH   1   2
ATOM      2  C   UNL     1      13.092  77.327  -4.035  1.00  0.00     0.005 C 
ATOM      3  C   UNL     1      13.923  77.027  -5.283  1.00  0.00     0.004 C 
ENDBRANCH   1   2
BRANCH   1   4
ATOM      4  C   UNL     1      11.918  79.138  -2.697  1.00  0.00    -0.044 A 
ATOM      5  C   UNL     1      11.138  80.312  -2.727  1.00  0.00     0.008 A 
ATOM      6  C   UNL     1      11.689  78.198  -1.675  1.00  0.00     0.008 A 
ATOM      7  C   UNL     1      10.167  80.542  -1.749  1.00  0.00     0.046 A 
ATOM      8  C   UNL     1      10.716  78.434  -0.699  1.00  0.00     0.046 A 
ATOM      9  C   UNL     1       9.953  79.607  -0.733  1.00  0.00     0.115 A 
BRANCH   9  10
ATOM     10  O   UNL     1       8.981  79.852   0.234  1.00  0.00    -0.508 OA
ATOM     11  H   UNL     1       9.200  79.825   1.223  1.00  0.00     0.293 HD
ENDBRANCH   9  10
ENDBRANCH   1   4
BRANCH   1  12
ATOM     12  C   UNL     1      14.313  79.581  -3.425  1.00  0.00     0.026 C 
BRANCH  12  13
ATOM     13  C   UNL     1      14.358  80.310  -2.048  1.00  0.00     0.005 C 
ATOM     14  C   UNL     1      15.070  79.599  -0.895  1.00  0.00     0.004 C 
ENDBRANCH  12  13
BRANCH  12  15
ATOM     15  C   UNL     1      14.915  80.401  -4.566  1.00  0.00    -0.044 A 
ATOM     16  C   UNL     1      14.238  81.550  -5.025  1.00  0.00     0.008 A 
ATOM     17  C   UNL     1      16.130  80.050  -5.187  1.00  0.00     0.008 A 
ATOM     18  C   UNL     1      14.762  82.323  -6.065  1.00  0.00     0.046 A 
ATOM     19  C   UNL     1      16.651  80.825  -6.227  1.00  0.00     0.046 A 
ATOM     20  C   UNL     1      15.970  81.961  -6.669  1.00  0.00     0.115 A 
BRANCH  20  21
ATOM     21  O   UNL     1      16.503  82.724  -7.706  1.00  0.00    -0.508 OA
ATOM     22  H   UNL     1      17.456  82.591  -8.025  1.00  0.00     0.293 HD
ENDBRANCH  20  21
ENDBRANCH  12  15
ENDBRANCH   1  12
TORSDOF 7
ENDMDL
MODEL 14
REMARK VINA RESULT:    -7.114      1.276      2.565
REMARK INTER + INTRA:         -11.023
REMARK INTER:                  -9.564
REMARK INTRA:                  -1.459
REMARK UNBOUND:                -1.414
REMARK SMILES CC[C@H](c1ccc(O)cc1)[C@@H](CC)c1ccc(O)cc1
REMARK SMILES IDX 11 1 12 2 13 3 14 4 15 5 20 6 16 7 19 8 17 9 18 10 3 12 2 13
REMARK SMILES IDX 1 14 4 15 5 16 10 17 6 18 9 19 7 20 8 21
REMARK H PARENT 18 11 8 22
REMARK Flexibility Score: inf
ROOT
ATOM      1  C   UNL     1      11.090  79.142  -2.237  1.00  0.00     0.026 C 
ENDROOT
BRANCH   1   2
ATOM      2  C   UNL     1      10.716  80.592  -1.827  1.00  0.00     0.005 C 
ATOM      3  C   UNL     1       9.721  80.625  -0.667  1.00  0.00     0.004 C 
ENDBRANCH   1   2
BRANCH   1   4
ATOM      4  C   UNL     1      12.333  79.123  -3.121  1.00  0.00    -0.044 A 
ATOM      5  C   UNL     1      12.736  77.956  -3.801  1.00  0.00     0.008 A 
ATOM      6  C   UNL     1      13.081  80.303  -3.301  1.00  0.00     0.008 A 
ATOM      7  C   UNL     1      13.864  77.968  -4.624  1.00  0.00     0.046 A 
ATOM      8  C   UNL     1      14.210  80.309  -4.125  1.00  0.00     0.046 A 
ATOM      9  C   UNL     1      14.605  79.142  -4.788  1.00  0.00     0.115 A 
BRANCH   9  10
ATOM     10  O   UNL     1      15.728  79.137  -5.612  1.00  0.00    -0.508 OA
ATOM     11  H   UNL     1      16.598  79.569  -5.324  1.00  0.00     0.293 HD
ENDBRANCH   9  10
ENDBRANCH   1   4
BRANCH   1  12
ATOM     12  C   UNL     1      11.249  78.132  -1.047  1.00  0.00     0.026 C 
BRANCH  12  13
ATOM     13  C   UNL     1      12.676  78.033  -0.428  1.00  0.00     0.005 C 
ATOM     14  C   UNL     1      13.065  79.080   0.619  1.00  0.00     0.004 C 
ENDBRANCH  12  13
BRANCH  12  15
ATOM     15  C   UNL     1      10.582  76.773  -1.257  1.00  0.00    -0.044 A 
ATOM     16  C   UNL     1       9.755  76.574  -2.381  1.00  0.00     0.008 A 
ATOM     17  C   UNL     1      10.761  75.700  -0.362  1.00  0.00     0.008 A 
ATOM     18  C   UNL     1       9.131  75.343  -2.604  1.00  0.00     0.046 A 
ATOM     19  C   UNL     1      10.136  74.470  -0.587  1.00  0.00     0.046 A 
ATOM     20  C   UNL     1       9.321  74.287  -1.706  1.00  0.00     0.115 A 
BRANCH  20  21
ATOM     21  O   UNL     1       8.706  73.055  -1.918  1.00  0.00    -0.508 OA
ATOM     22  H   UNL     1       8.816  72.289  -1.263  1.00  0.00     0.293 HD
ENDBRANCH  20  21
ENDBRANCH  12  15
ENDBRANCH   1  12
TORSDOF 7
ENDMDL
MODEL 15
REMARK VINA RESULT:    -7.042      1.122      5.960
REMARK INTER + INTRA:         -10.925
REMARK INTER:                  -9.698
REMARK INTRA:                  -1.227
REMARK UNBOUND:                -1.414
REMARK SMILES CC[C@H](c1ccc(O)cc1)[C@@H](CC)c1ccc(O)cc1
REMARK SMILES IDX 11 1 12 2 13 3 14 4 15 5 20 6 16 7 19 8 17 9 18 10 3 12 2 13
REMARK SMILES IDX 1 14 4 15 5 16 10 17 6 18 9 19 7 20 8 21
REMARK H PARENT 18 11 8 22
REMARK Flexibility Score: inf
ROOT
ATOM      1  C   UNL     1       9.715  79.538  -1.167  1.00  0.00     0.026 C 
ENDROOT
BRANCH   1   2
ATOM      2  C   UNL     1       9.542  80.444  -2.416  1.00  0.00     0.005 C 
ATOM      3  C   UNL     1       8.125  81.006  -2.528  1.00  0.00     0.004 C 
ENDBRANCH   1   2
BRANCH   1   4
ATOM      4  C   UNL     1       8.969  78.217  -1.338  1.00  0.00    -0.044 A 
ATOM      5  C   UNL     1       8.173  77.683  -0.305  1.00  0.00     0.008 A 
ATOM      6  C   UNL     1       9.040  77.529  -2.564  1.00  0.00     0.008 A 
ATOM      7  C   UNL     1       7.480  76.484  -0.492  1.00  0.00     0.046 A 
ATOM      8  C   UNL     1       8.345  76.330  -2.745  1.00  0.00     0.046 A 
ATOM      9  C   UNL     1       7.564  75.803  -1.710  1.00  0.00     0.115 A 
BRANCH   9  10
ATOM     10  O   UNL     1       6.867  74.610  -1.880  1.00  0.00    -0.508 OA
ATOM     11  H   UNL     1       6.596  74.282  -2.800  1.00  0.00     0.293 HD
ENDBRANCH   9  10
ENDBRANCH   1   4
BRANCH   1  12
ATOM     12  C   UNL     1      11.199  79.276  -0.732  1.00  0.00     0.026 C 
BRANCH  12  13
ATOM     13  C   UNL     1      11.712  80.120   0.474  1.00  0.00     0.005 C 
ATOM     14  C   UNL     1      10.793  81.223   1.005  1.00  0.00     0.004 C 
ENDBRANCH  12  13
BRANCH  12  15
ATOM     15  C   UNL     1      12.204  79.185  -1.880  1.00  0.00    -0.044 A 
ATOM     16  C   UNL     1      13.133  80.229  -2.072  1.00  0.00     0.008 A 
ATOM     17  C   UNL     1      12.239  78.090  -2.767  1.00  0.00     0.008 A 
ATOM     18  C   UNL     1      14.066  80.176  -3.112  1.00  0.00     0.046 A 
ATOM     19  C   UNL     1      13.173  78.041  -3.805  1.00  0.00     0.046 A 
ATOM     20  C   UNL     1      14.087  79.081  -3.982  1.00  0.00     0.115 A 
BRANCH  20  21
ATOM     21  O   UNL     1      15.014  79.016  -5.020  1.00  0.00    -0.508 OA
ATOM     22  H   UNL     1      15.089  79.755  -5.709  1.00  0.00     0.293 HD
ENDBRANCH  20  21
ENDBRANCH  12  15
ENDBRANCH   1  12
TORSDOF 7
ENDMDL
