MODEL 1
REMARK VINA RESULT:   -10.651      0.000      0.000
REMARK INTER + INTRA:         -15.857
REMARK INTER:                 -15.633
REMARK INTRA:                  -0.225
REMARK UNBOUND:                -0.225
REMARK SMILES COc1cc2nccc(Oc3ccc(NC(=O)C4(C(=O)Nc5ccc(F)cc5)CC4)cc3)c2cc1OC
REMARK SMILES IDX 11 1 12 2 13 3 14 4 31 5 32 6 10 7 9 8 3 9 4 10 35 11 5 12
REMARK SMILES IDX 34 13 33 14 6 15 7 16 8 17 2 18 1 19 36 20 37 21 15 22 16 23
REMARK SMILES IDX 17 25 18 26 29 27 30 28 19 29 20 30 21 31 22 33 23 34 28 35
REMARK SMILES IDX 24 36 27 37 25 38 26 39
REMARK H PARENT 15 24 21 32
REMARK Flexibility Score: inf
ROOT
ATOM      1  C   UNL     1      26.886   8.822   9.603  1.00  0.00     0.127 A 
ATOM      2  C   UNL     1      27.469   8.360  10.786  1.00  0.00     0.049 A 
ATOM      3  C   UNL     1      28.857   8.366  10.945  1.00  0.00     0.030 A 
ATOM      4  C   UNL     1      29.687   8.818   9.904  1.00  0.00     0.041 A 
ATOM      5  C   UNL     1      29.105   9.272   8.713  1.00  0.00     0.030 A 
ATOM      6  C   UNL     1      27.716   9.265   8.556  1.00  0.00     0.049 A 
ENDROOT
BRANCH   1   7
ATOM      7  O   UNL     1      25.486   8.823   9.502  1.00  0.00    -0.457 OA
BRANCH   7   8
ATOM      8  C   UNL     1      24.635   9.595  10.300  1.00  0.00     0.138 A 
ATOM      9  C   UNL     1      25.361  13.659  11.220  1.00  0.00     0.162 A 
ATOM     10  C   UNL     1      24.197  13.010  11.672  1.00  0.00     0.079 A 
ATOM     11  C   UNL     1      26.312  12.943  10.480  1.00  0.00     0.161 A 
ATOM     12  C   UNL     1      23.973  11.666  11.377  1.00  0.00     0.078 A 
ATOM     13  C   UNL     1      26.097  11.579  10.198  1.00  0.00     0.064 A 
ATOM     14  C   UNL     1      24.915  10.942  10.613  1.00  0.00     0.047 A 
ATOM     15  N   UNL     1      22.845  11.057  11.827  1.00  0.00    -0.256 NA
ATOM     16  C   UNL     1      22.581   9.754  11.561  1.00  0.00     0.115 A 
ATOM     17  C   UNL     1      23.473   9.003  10.799  1.00  0.00     0.068 A 
BRANCH   9  18
ATOM     18  O   UNL     1      25.606  15.016  11.490  1.00  0.00    -0.493 OA
ATOM     19  C   UNL     1      24.619  15.937  11.949  1.00  0.00     0.278 C 
ENDBRANCH   9  18
BRANCH  11  20
ATOM     20  O   UNL     1      27.457  13.625  10.035  1.00  0.00    -0.493 OA
ATOM     21  C   UNL     1      28.730  13.570  10.674  1.00  0.00     0.278 C 
ENDBRANCH  11  20
ENDBRANCH   7   8
ENDBRANCH   1   7
BRANCH   4  22
ATOM     22  N   UNL     1      31.114   8.878  10.066  1.00  0.00    -0.325 N 
ATOM     23  C   UNL     1      31.838  10.120  10.146  1.00  0.00     0.240 C 
ATOM     24  H   UNL     1      31.633   7.978  10.197  1.00  0.00     0.169 HD
ATOM     25  O   UNL     1      31.297  11.116  10.704  1.00  0.00    -0.274 OA
BRANCH  23  26
ATOM     26  C   UNL     1      33.233  10.272   9.590  1.00  0.00     0.128 C 
ATOM     27  C   UNL     1      34.205  11.122  10.396  1.00  0.00     0.028 C 
ATOM     28  C   UNL     1      33.652  11.650   9.085  1.00  0.00     0.028 C 
BRANCH  26  29
ATOM     29  C   UNL     1      33.876   9.054   8.998  1.00  0.00     0.240 C 
ATOM     30  O   UNL     1      35.018   8.710   9.409  1.00  0.00    -0.274 OA
ATOM     31  N   UNL     1      33.209   8.276   7.990  1.00  0.00    -0.325 N 
ATOM     32  H   UNL     1      32.496   8.735   7.397  1.00  0.00     0.169 HD
BRANCH  31  33
ATOM     33  C   UNL     1      33.575   6.925   7.687  1.00  0.00     0.041 A 
ATOM     34  C   UNL     1      33.101   5.858   8.468  1.00  0.00     0.029 A 
ATOM     35  C   UNL     1      34.385   6.655   6.573  1.00  0.00     0.029 A 
ATOM     36  C   UNL     1      33.469   4.541   8.164  1.00  0.00     0.041 A 
ATOM     37  C   UNL     1      34.750   5.346   6.267  1.00  0.00     0.041 A 
ATOM     38  C   UNL     1      34.295   4.287   7.064  1.00  0.00     0.123 A 
ATOM     39  F   UNL     1      34.659   3.011   6.781  1.00  0.00    -0.207 F 
ENDBRANCH  31  33
ENDBRANCH  26  29
ENDBRANCH  23  26
ENDBRANCH   4  22
TORSDOF 8
ENDMDL
MODEL 2
REMARK VINA RESULT:   -10.482      4.241     11.504
REMARK INTER + INTRA:         -15.609
REMARK INTER:                 -14.980
REMARK INTRA:                  -0.629
REMARK UNBOUND:                -0.225
REMARK SMILES COc1cc2nccc(Oc3ccc(NC(=O)C4(C(=O)Nc5ccc(F)cc5)CC4)cc3)c2cc1OC
REMARK SMILES IDX 11 1 12 2 13 3 14 4 31 5 32 6 10 7 9 8 3 9 4 10 35 11 5 12
REMARK SMILES IDX 34 13 33 14 6 15 7 16 8 17 2 18 1 19 36 20 37 21 15 22 16 23
REMARK SMILES IDX 17 25 18 26 29 27 30 28 19 29 20 30 21 31 22 33 23 34 28 35
REMARK SMILES IDX 24 36 27 37 25 38 26 39
REMARK H PARENT 15 24 21 32
REMARK Flexibility Score: inf
ROOT
ATOM      1  C   UNL     1      34.528   6.610   7.946  1.00  0.00     0.127 A 
ATOM      2  C   UNL     1      34.738   7.945   8.302  1.00  0.00     0.049 A 
ATOM      3  C   UNL     1      33.739   8.674   8.952  1.00  0.00     0.030 A 
ATOM      4  C   UNL     1      32.499   8.076   9.238  1.00  0.00     0.041 A 
ATOM      5  C   UNL     1      32.282   6.741   8.872  1.00  0.00     0.030 A 
ATOM      6  C   UNL     1      33.283   6.014   8.221  1.00  0.00     0.049 A 
ENDROOT
BRANCH   1   7
ATOM      7  O   UNL     1      35.571   5.912   7.319  1.00  0.00    -0.457 OA
BRANCH   7   8
ATOM      8  C   UNL     1      35.495   4.577   6.905  1.00  0.00     0.138 A 
ATOM      9  C   UNL     1      35.421   3.403   2.843  1.00  0.00     0.162 A 
ATOM     10  C   UNL     1      35.418   2.446   3.875  1.00  0.00     0.079 A 
ATOM     11  C   UNL     1      35.414   4.769   3.163  1.00  0.00     0.161 A 
ATOM     12  C   UNL     1      35.427   2.843   5.211  1.00  0.00     0.078 A 
ATOM     13  C   UNL     1      35.404   5.170   4.513  1.00  0.00     0.064 A 
ATOM     14  C   UNL     1      35.444   4.215   5.543  1.00  0.00     0.047 A 
ATOM     15  N   UNL     1      35.420   1.902   6.192  1.00  0.00    -0.256 NA
ATOM     16  C   UNL     1      35.435   2.238   7.505  1.00  0.00     0.115 A 
ATOM     17  C   UNL     1      35.467   3.579   7.881  1.00  0.00     0.068 A 
BRANCH   9  18
ATOM     18  O   UNL     1      35.425   3.034   1.487  1.00  0.00    -0.493 OA
ATOM     19  C   UNL     1      35.045   1.748   1.002  1.00  0.00     0.278 C 
ENDBRANCH   9  18
BRANCH  11  20
ATOM     20  O   UNL     1      35.428   5.697   2.108  1.00  0.00    -0.493 OA
ATOM     21  C   UNL     1      36.515   6.572   1.818  1.00  0.00     0.278 C 
ENDBRANCH  11  20
ENDBRANCH   7   8
ENDBRANCH   1   7
BRANCH   4  22
ATOM     22  N   UNL     1      31.476   8.794   9.950  1.00  0.00    -0.325 N 
ATOM     23  C   UNL     1      30.501   9.622   9.290  1.00  0.00     0.240 C 
ATOM     24  H   UNL     1      31.404   8.649  10.985  1.00  0.00     0.169 HD
ATOM     25  O   UNL     1      30.080   9.289   8.148  1.00  0.00    -0.274 OA
BRANCH  23  26
ATOM     26  C   UNL     1      29.957  10.879   9.925  1.00  0.00     0.128 C 
ATOM     27  C   UNL     1      30.175  12.181   9.166  1.00  0.00     0.028 C 
ATOM     28  C   UNL     1      30.959  11.909  10.437  1.00  0.00     0.028 C 
BRANCH  26  29
ATOM     29  C   UNL     1      28.604  10.798  10.566  1.00  0.00     0.240 C 
ATOM     30  O   UNL     1      28.490  11.109  11.783  1.00  0.00    -0.274 OA
ATOM     31  N   UNL     1      27.449  10.386   9.817  1.00  0.00    -0.325 N 
ATOM     32  H   UNL     1      27.582   9.787   8.983  1.00  0.00     0.169 HD
BRANCH  31  33
ATOM     33  C   UNL     1      26.111  10.666  10.241  1.00  0.00     0.041 A 
ATOM     34  C   UNL     1      25.714  11.976  10.558  1.00  0.00     0.029 A 
ATOM     35  C   UNL     1      25.168   9.628  10.306  1.00  0.00     0.029 A 
ATOM     36  C   UNL     1      24.403  12.237  10.976  1.00  0.00     0.041 A 
ATOM     37  C   UNL     1      23.863   9.885  10.720  1.00  0.00     0.041 A 
ATOM     38  C   UNL     1      23.479  11.190  11.059  1.00  0.00     0.123 A 
ATOM     39  F   UNL     1      22.214  11.444  11.476  1.00  0.00    -0.207 F 
ENDBRANCH  31  33
ENDBRANCH  26  29
ENDBRANCH  23  26
ENDBRANCH   4  22
TORSDOF 8
ENDMDL
MODEL 3
REMARK VINA RESULT:   -10.132      5.149     12.747
REMARK INTER + INTRA:         -15.096
REMARK INTER:                 -14.459
REMARK INTRA:                  -0.637
REMARK UNBOUND:                -0.225
REMARK SMILES COc1cc2nccc(Oc3ccc(NC(=O)C4(C(=O)Nc5ccc(F)cc5)CC4)cc3)c2cc1OC
REMARK SMILES IDX 11 1 12 2 13 3 14 4 31 5 32 6 10 7 9 8 3 9 4 10 35 11 5 12
REMARK SMILES IDX 34 13 33 14 6 15 7 16 8 17 2 18 1 19 36 20 37 21 15 22 16 23
REMARK SMILES IDX 17 25 18 26 29 27 30 28 19 29 20 30 21 31 22 33 23 34 28 35
REMARK SMILES IDX 24 36 27 37 25 38 26 39
REMARK H PARENT 15 24 21 32
REMARK Flexibility Score: inf
ROOT
ATOM      1  C   UNL     1      34.456   4.519   6.593  1.00  0.00     0.127 A 
ATOM      2  C   UNL     1      33.838   4.385   7.840  1.00  0.00     0.049 A 
ATOM      3  C   UNL     1      33.413   5.512   8.547  1.00  0.00     0.030 A 
ATOM      4  C   UNL     1      33.622   6.799   8.021  1.00  0.00     0.041 A 
ATOM      5  C   UNL     1      34.251   6.936   6.776  1.00  0.00     0.030 A 
ATOM      6  C   UNL     1      34.676   5.806   6.069  1.00  0.00     0.049 A 
ENDROOT
BRANCH   1   7
ATOM      7  O   UNL     1      34.840   3.356   5.908  1.00  0.00    -0.457 OA
BRANCH   7   8
ATOM      8  C   UNL     1      36.161   3.025   5.587  1.00  0.00     0.138 A 
ATOM      9  C   UNL     1      37.197   0.286   2.535  1.00  0.00     0.162 A 
ATOM     10  C   UNL     1      38.188   0.966   3.267  1.00  0.00     0.079 A 
ATOM     11  C   UNL     1      35.844   0.493   2.841  1.00  0.00     0.161 A 
ATOM     12  C   UNL     1      37.838   1.855   4.282  1.00  0.00     0.078 A 
ATOM     13  C   UNL     1      35.490   1.377   3.880  1.00  0.00     0.064 A 
ATOM     14  C   UNL     1      36.478   2.087   4.582  1.00  0.00     0.047 A 
ATOM     15  N   UNL     1      38.811   2.498   4.978  1.00  0.00    -0.256 NA
ATOM     16  C   UNL     1      38.521   3.376   5.969  1.00  0.00     0.115 A 
ATOM     17  C   UNL     1      37.193   3.648   6.292  1.00  0.00     0.068 A 
BRANCH   9  18
ATOM     18  O   UNL     1      37.520  -0.605   1.498  1.00  0.00    -0.493 OA
ATOM     19  C   UNL     1      38.687  -1.425   1.475  1.00  0.00     0.278 C 
ENDBRANCH   9  18
BRANCH  11  20
ATOM     20  O   UNL     1      34.880  -0.194   2.083  1.00  0.00    -0.493 OA
ATOM     21  C   UNL     1      34.197   0.356   0.960  1.00  0.00     0.278 C 
ENDBRANCH  11  20
ENDBRANCH   7   8
ENDBRANCH   1   7
BRANCH   4  22
ATOM     22  N   UNL     1      33.148   7.969   8.710  1.00  0.00    -0.325 N 
ATOM     23  C   UNL     1      31.758   8.181   9.019  1.00  0.00     0.240 C 
ATOM     24  H   UNL     1      33.857   8.656   9.057  1.00  0.00     0.169 HD
ATOM     25  O   UNL     1      31.028   7.189   9.297  1.00  0.00    -0.274 OA
BRANCH  23  26
ATOM     26  C   UNL     1      31.141   9.559   9.028  1.00  0.00     0.128 C 
ATOM     27  C   UNL     1      31.852  10.636   8.220  1.00  0.00     0.028 C 
ATOM     28  C   UNL     1      31.902  10.675   9.736  1.00  0.00     0.028 C 
BRANCH  26  29
ATOM     29  C   UNL     1      29.647   9.646   8.928  1.00  0.00     0.240 C 
ATOM     30  O   UNL     1      29.121   9.752   7.787  1.00  0.00    -0.274 OA
ATOM     31  N   UNL     1      28.820   9.599  10.101  1.00  0.00    -0.325 N 
ATOM     32  H   UNL     1      29.222   9.893  11.009  1.00  0.00     0.169 HD
BRANCH  31  33
ATOM     33  C   UNL     1      27.425   9.280  10.053  1.00  0.00     0.041 A 
ATOM     34  C   UNL     1      26.992   7.944  10.023  1.00  0.00     0.029 A 
ATOM     35  C   UNL     1      26.472  10.310  10.074  1.00  0.00     0.029 A 
ATOM     36  C   UNL     1      25.624   7.643   9.971  1.00  0.00     0.041 A 
ATOM     37  C   UNL     1      25.111  10.014  10.024  1.00  0.00     0.041 A 
ATOM     38  C   UNL     1      24.685   8.680   9.969  1.00  0.00     0.123 A 
ATOM     39  F   UNL     1      23.363   8.385   9.906  1.00  0.00    -0.207 F 
ENDBRANCH  31  33
ENDBRANCH  26  29
ENDBRANCH  23  26
ENDBRANCH   4  22
TORSDOF 8
ENDMDL
MODEL 4
REMARK VINA RESULT:    -9.908      3.744     10.826
REMARK INTER + INTRA:         -14.766
REMARK INTER:                 -13.671
REMARK INTRA:                  -1.095
REMARK UNBOUND:                -0.225
REMARK SMILES COc1cc2nccc(Oc3ccc(NC(=O)C4(C(=O)Nc5ccc(F)cc5)CC4)cc3)c2cc1OC
REMARK SMILES IDX 11 1 12 2 13 3 14 4 31 5 32 6 10 7 9 8 3 9 4 10 35 11 5 12
REMARK SMILES IDX 34 13 33 14 6 15 7 16 8 17 2 18 1 19 36 20 37 21 15 22 16 23
REMARK SMILES IDX 17 25 18 26 29 27 30 28 19 29 20 30 21 31 22 33 23 34 28 35
REMARK SMILES IDX 24 36 27 37 25 38 26 39
REMARK H PARENT 15 24 21 32
REMARK Flexibility Score: inf
ROOT
ATOM      1  C   UNL     1      35.410   7.602   7.751  1.00  0.00     0.127 A 
ATOM      2  C   UNL     1      34.103   7.284   8.130  1.00  0.00     0.049 A 
ATOM      3  C   UNL     1      33.210   8.288   8.514  1.00  0.00     0.030 A 
ATOM      4  C   UNL     1      33.625   9.632   8.543  1.00  0.00     0.041 A 
ATOM      5  C   UNL     1      34.938   9.951   8.173  1.00  0.00     0.030 A 
ATOM      6  C   UNL     1      35.830   8.945   7.790  1.00  0.00     0.049 A 
ENDROOT
BRANCH   1   7
ATOM      7  O   UNL     1      36.261   6.562   7.346  1.00  0.00    -0.457 OA
BRANCH   7   8
ATOM      8  C   UNL     1      35.824   5.311   6.897  1.00  0.00     0.138 A 
ATOM      9  C   UNL     1      35.231   4.384   2.813  1.00  0.00     0.162 A 
ATOM     10  C   UNL     1      35.041   3.412   3.812  1.00  0.00     0.079 A 
ATOM     11  C   UNL     1      35.590   5.690   3.175  1.00  0.00     0.161 A 
ATOM     12  C   UNL     1      35.223   3.730   5.157  1.00  0.00     0.078 A 
ATOM     13  C   UNL     1      35.756   6.018   4.535  1.00  0.00     0.064 A 
ATOM     14  C   UNL     1      35.608   5.037   5.530  1.00  0.00     0.047 A 
ATOM     15  N   UNL     1      35.031   2.777   6.106  1.00  0.00    -0.256 NA
ATOM     16  C   UNL     1      35.202   3.037   7.426  1.00  0.00     0.115 A 
ATOM     17  C   UNL     1      35.596   4.307   7.841  1.00  0.00     0.068 A 
BRANCH   9  18
ATOM     18  O   UNL     1      35.067   4.089   1.449  1.00  0.00    -0.493 OA
ATOM     19  C   UNL     1      34.993   2.769   0.914  1.00  0.00     0.278 C 
ENDBRANCH   9  18
BRANCH  11  20
ATOM     20  O   UNL     1      35.783   6.633   2.151  1.00  0.00    -0.493 OA
ATOM     21  C   UNL     1      36.621   7.780   2.257  1.00  0.00     0.278 C 
ENDBRANCH  11  20
ENDBRANCH   7   8
ENDBRANCH   1   7
BRANCH   4  22
ATOM     22  N   UNL     1      32.707  10.684   8.887  1.00  0.00    -0.325 N 
ATOM     23  C   UNL     1      31.993  10.718  10.136  1.00  0.00     0.240 C 
ATOM     24  H   UNL     1      32.611  11.489   8.224  1.00  0.00     0.169 HD
ATOM     25  O   UNL     1      32.550  10.272  11.178  1.00  0.00    -0.274 OA
BRANCH  23  26
ATOM     26  C   UNL     1      30.596  11.279  10.246  1.00  0.00     0.128 C 
ATOM     27  C   UNL     1      30.233  12.410   9.293  1.00  0.00     0.028 C 
ATOM     28  C   UNL     1      30.440  12.704  10.767  1.00  0.00     0.028 C 
BRANCH  26  29
ATOM     29  C   UNL     1      29.475  10.304  10.447  1.00  0.00     0.240 C 
ATOM     30  O   UNL     1      29.358   9.738  11.568  1.00  0.00    -0.274 OA
ATOM     31  N   UNL     1      28.539  10.020   9.395  1.00  0.00    -0.325 N 
ATOM     32  H   UNL     1      28.833  10.162   8.413  1.00  0.00     0.169 HD
BRANCH  31  33
ATOM     33  C   UNL     1      27.256   9.431   9.638  1.00  0.00     0.041 A 
ATOM     34  C   UNL     1      26.152  10.227   9.987  1.00  0.00     0.029 A 
ATOM     35  C   UNL     1      27.085   8.046   9.490  1.00  0.00     0.029 A 
ATOM     36  C   UNL     1      24.903   9.640  10.227  1.00  0.00     0.041 A 
ATOM     37  C   UNL     1      25.843   7.459   9.726  1.00  0.00     0.041 A 
ATOM     38  C   UNL     1      24.751   8.255  10.098  1.00  0.00     0.123 A 
ATOM     39  F   UNL     1      23.544   7.689  10.343  1.00  0.00    -0.207 F 
ENDBRANCH  31  33
ENDBRANCH  26  29
ENDBRANCH  23  26
ENDBRANCH   4  22
TORSDOF 8
ENDMDL
MODEL 5
REMARK VINA RESULT:    -9.905      3.586      5.547
REMARK INTER + INTRA:         -14.761
REMARK INTER:                 -13.993
REMARK INTRA:                  -0.769
REMARK UNBOUND:                -0.225
REMARK SMILES COc1cc2nccc(Oc3ccc(NC(=O)C4(C(=O)Nc5ccc(F)cc5)CC4)cc3)c2cc1OC
REMARK SMILES IDX 11 1 12 2 13 3 14 4 31 5 32 6 10 7 9 8 3 9 4 10 35 11 5 12
REMARK SMILES IDX 34 13 33 14 6 15 7 16 8 17 2 18 1 19 36 20 37 21 15 22 16 23
REMARK SMILES IDX 17 25 18 26 29 27 30 28 19 29 20 30 21 31 22 33 23 34 28 35
REMARK SMILES IDX 24 36 27 37 25 38 26 39
REMARK H PARENT 15 24 21 32
REMARK Flexibility Score: inf
ROOT
ATOM      1  C   UNL     1      27.318   9.062   9.537  1.00  0.00     0.127 A 
ATOM      2  C   UNL     1      27.866   8.629  10.748  1.00  0.00     0.049 A 
ATOM      3  C   UNL     1      29.239   8.730  10.982  1.00  0.00     0.030 A 
ATOM      4  C   UNL     1      30.092   9.248   9.991  1.00  0.00     0.041 A 
ATOM      5  C   UNL     1      29.545   9.672   8.773  1.00  0.00     0.030 A 
ATOM      6  C   UNL     1      28.170   9.570   8.539  1.00  0.00     0.049 A 
ENDROOT
BRANCH   1   7
ATOM      7  O   UNL     1      25.929   8.967   9.359  1.00  0.00    -0.457 OA
BRANCH   7   8
ATOM      8  C   UNL     1      24.983   9.651  10.129  1.00  0.00     0.138 A 
ATOM      9  C   UNL     1      25.331  13.742  11.144  1.00  0.00     0.162 A 
ATOM     10  C   UNL     1      24.206  12.991  11.533  1.00  0.00     0.079 A 
ATOM     11  C   UNL     1      26.370  13.120  10.438  1.00  0.00     0.161 A 
ATOM     12  C   UNL     1      24.107  11.639  11.208  1.00  0.00     0.078 A 
ATOM     13  C   UNL     1      26.279  11.749  10.125  1.00  0.00     0.064 A 
ATOM     14  C   UNL     1      25.137  11.010  10.476  1.00  0.00     0.047 A 
ATOM     15  N   UNL     1      23.014  10.932  11.597  1.00  0.00    -0.256 NA
ATOM     16  C   UNL     1      22.869   9.618  11.299  1.00  0.00     0.115 A 
ATOM     17  C   UNL     1      23.853   8.957  10.567  1.00  0.00     0.068 A 
BRANCH   9  18
ATOM     18  O   UNL     1      25.452  15.109  11.446  1.00  0.00    -0.493 OA
ATOM     19  C   UNL     1      24.510  15.849  12.221  1.00  0.00     0.278 C 
ENDBRANCH   9  18
BRANCH  11  20
ATOM     20  O   UNL     1      27.473  13.902  10.055  1.00  0.00    -0.493 OA
ATOM     21  C   UNL     1      28.819  13.645  10.446  1.00  0.00     0.278 C 
ENDBRANCH  11  20
ENDBRANCH   7   8
ENDBRANCH   1   7
BRANCH   4  22
ATOM     22  N   UNL     1      31.500   9.405  10.232  1.00  0.00    -0.325 N 
ATOM     23  C   UNL     1      32.115  10.688  10.456  1.00  0.00     0.240 C 
ATOM     24  H   UNL     1      32.085   8.540  10.313  1.00  0.00     0.169 HD
ATOM     25  O   UNL     1      31.468  11.584  11.067  1.00  0.00    -0.274 OA
BRANCH  23  26
ATOM     26  C   UNL     1      33.516  10.998   9.988  1.00  0.00     0.128 C 
ATOM     27  C   UNL     1      33.902  10.502   8.601  1.00  0.00     0.028 C 
ATOM     28  C   UNL     1      34.488   9.833   9.831  1.00  0.00     0.028 C 
BRANCH  26  29
ATOM     29  C   UNL     1      34.058  12.363  10.291  1.00  0.00     0.240 C 
ATOM     30  O   UNL     1      34.588  13.026   9.359  1.00  0.00    -0.274 OA
ATOM     31  N   UNL     1      33.971  12.921  11.613  1.00  0.00    -0.325 N 
ATOM     32  H   UNL     1      33.904  12.279  12.422  1.00  0.00     0.169 HD
BRANCH  31  33
ATOM     33  C   UNL     1      34.096  14.323  11.871  1.00  0.00     0.041 A 
ATOM     34  C   UNL     1      35.352  14.902  12.118  1.00  0.00     0.029 A 
ATOM     35  C   UNL     1      32.956  15.143  11.840  1.00  0.00     0.029 A 
ATOM     36  C   UNL     1      35.461  16.275  12.374  1.00  0.00     0.041 A 
ATOM     37  C   UNL     1      33.063  16.509  12.092  1.00  0.00     0.041 A 
ATOM     38  C   UNL     1      34.315  17.076  12.362  1.00  0.00     0.123 A 
ATOM     39  F   UNL     1      34.424  18.403  12.623  1.00  0.00    -0.207 F 
ENDBRANCH  31  33
ENDBRANCH  26  29
ENDBRANCH  23  26
ENDBRANCH   4  22
TORSDOF 8
ENDMDL
MODEL 6
REMARK VINA RESULT:    -9.900      4.118     11.650
REMARK INTER + INTRA:         -14.755
REMARK INTER:                 -13.888
REMARK INTRA:                  -0.867
REMARK UNBOUND:                -0.225
REMARK SMILES COc1cc2nccc(Oc3ccc(NC(=O)C4(C(=O)Nc5ccc(F)cc5)CC4)cc3)c2cc1OC
REMARK SMILES IDX 11 1 12 2 13 3 14 4 31 5 32 6 10 7 9 8 3 9 4 10 35 11 5 12
REMARK SMILES IDX 34 13 33 14 6 15 7 16 8 17 2 18 1 19 36 20 37 21 15 22 16 23
REMARK SMILES IDX 17 25 18 26 29 27 30 28 19 29 20 30 21 31 22 33 23 34 28 35
REMARK SMILES IDX 24 36 27 37 25 38 26 39
REMARK H PARENT 15 24 21 32
REMARK Flexibility Score: inf
ROOT
ATOM      1  C   UNL     1      35.211   7.493   7.422  1.00  0.00     0.127 A 
ATOM      2  C   UNL     1      34.213   6.608   7.840  1.00  0.00     0.049 A 
ATOM      3  C   UNL     1      33.155   7.054   8.635  1.00  0.00     0.030 A 
ATOM      4  C   UNL     1      33.093   8.398   9.044  1.00  0.00     0.041 A 
ATOM      5  C   UNL     1      34.098   9.284   8.635  1.00  0.00     0.030 A 
ATOM      6  C   UNL     1      35.157   8.836   7.839  1.00  0.00     0.049 A 
ENDROOT
BRANCH   1   7
ATOM      7  O   UNL     1      36.238   7.004   6.600  1.00  0.00    -0.457 OA
BRANCH   7   8
ATOM      8  C   UNL     1      36.071   6.622   5.265  1.00  0.00     0.138 A 
ATOM      9  C   UNL     1      35.423   2.622   4.054  1.00  0.00     0.162 A 
ATOM     10  C   UNL     1      35.434   3.671   3.116  1.00  0.00     0.079 A 
ATOM     11  C   UNL     1      35.663   2.899   5.407  1.00  0.00     0.161 A 
ATOM     12  C   UNL     1      35.664   4.985   3.522  1.00  0.00     0.078 A 
ATOM     13  C   UNL     1      35.914   4.223   5.816  1.00  0.00     0.064 A 
ATOM     14  C   UNL     1      35.883   5.276   4.886  1.00  0.00     0.047 A 
ATOM     15  N   UNL     1      35.674   5.982   2.599  1.00  0.00    -0.256 NA
ATOM     16  C   UNL     1      35.886   7.275   2.946  1.00  0.00     0.115 A 
ATOM     17  C   UNL     1      36.093   7.614   4.282  1.00  0.00     0.068 A 
BRANCH   9  18
ATOM     18  O   UNL     1      35.181   1.290   3.676  1.00  0.00    -0.493 OA
ATOM     19  C   UNL     1      35.452   0.759   2.380  1.00  0.00     0.278 C 
ENDBRANCH   9  18
BRANCH  11  20
ATOM     20  O   UNL     1      35.634   1.829   6.318  1.00  0.00    -0.493 OA
ATOM     21  C   UNL     1      35.421   1.969   7.721  1.00  0.00     0.278 C 
ENDBRANCH  11  20
ENDBRANCH   7   8
ENDBRANCH   1   7
BRANCH   4  22
ATOM     22  N   UNL     1      31.986   8.887   9.821  1.00  0.00    -0.325 N 
ATOM     23  C   UNL     1      30.703   9.190   9.245  1.00  0.00     0.240 C 
ATOM     24  H   UNL     1      32.108   8.959  10.859  1.00  0.00     0.169 HD
ATOM     25  O   UNL     1      30.280   8.495   8.279  1.00  0.00    -0.274 OA
BRANCH  23  26
ATOM     26  C   UNL     1      29.836  10.312   9.763  1.00  0.00     0.128 C 
ATOM     27  C   UNL     1      29.939  11.649   9.040  1.00  0.00     0.028 C 
ATOM     28  C   UNL     1      30.529  11.496  10.430  1.00  0.00     0.028 C 
BRANCH  26  29
ATOM     29  C   UNL     1      28.431   9.971  10.161  1.00  0.00     0.240 C 
ATOM     30  O   UNL     1      28.249   9.137  11.088  1.00  0.00    -0.274 OA
ATOM     31  N   UNL     1      27.305  10.586   9.514  1.00  0.00    -0.325 N 
ATOM     32  H   UNL     1      27.419  10.948   8.551  1.00  0.00     0.169 HD
BRANCH  31  33
ATOM     33  C   UNL     1      25.997  10.612  10.096  1.00  0.00     0.041 A 
ATOM     34  C   UNL     1      25.509  11.772  10.720  1.00  0.00     0.029 A 
ATOM     35  C   UNL     1      25.173   9.479  10.011  1.00  0.00     0.029 A 
ATOM     36  C   UNL     1      24.229  11.784  11.290  1.00  0.00     0.041 A 
ATOM     37  C   UNL     1      23.899   9.489  10.575  1.00  0.00     0.041 A 
ATOM     38  C   UNL     1      23.426  10.641  11.218  1.00  0.00     0.123 A 
ATOM     39  F   UNL     1      22.193  10.653  11.782  1.00  0.00    -0.207 F 
ENDBRANCH  31  33
ENDBRANCH  26  29
ENDBRANCH  23  26
ENDBRANCH   4  22
TORSDOF 8
ENDMDL
MODEL 7
REMARK VINA RESULT:    -9.804      4.004     11.180
REMARK INTER + INTRA:         -14.613
REMARK INTER:                 -13.420
REMARK INTRA:                  -1.193
REMARK UNBOUND:                -0.225
REMARK SMILES COc1cc2nccc(Oc3ccc(NC(=O)C4(C(=O)Nc5ccc(F)cc5)CC4)cc3)c2cc1OC
REMARK SMILES IDX 11 1 12 2 13 3 14 4 31 5 32 6 10 7 9 8 3 9 4 10 35 11 5 12
REMARK SMILES IDX 34 13 33 14 6 15 7 16 8 17 2 18 1 19 36 20 37 21 15 22 16 23
REMARK SMILES IDX 17 25 18 26 29 27 30 28 19 29 20 30 21 31 22 33 23 34 28 35
REMARK SMILES IDX 24 36 27 37 25 38 26 39
REMARK H PARENT 15 24 21 32
REMARK Flexibility Score: inf
ROOT
ATOM      1  C   UNL     1      33.605   7.880   8.694  1.00  0.00     0.127 A 
ATOM      2  C   UNL     1      32.949   6.655   8.543  1.00  0.00     0.049 A 
ATOM      3  C   UNL     1      31.588   6.538   8.834  1.00  0.00     0.030 A 
ATOM      4  C   UNL     1      30.865   7.649   9.305  1.00  0.00     0.041 A 
ATOM      5  C   UNL     1      31.524   8.875   9.467  1.00  0.00     0.030 A 
ATOM      6  C   UNL     1      32.887   8.990   9.175  1.00  0.00     0.049 A 
ENDROOT
BRANCH   1   7
ATOM      7  O   UNL     1      34.967   7.955   8.362  1.00  0.00    -0.457 OA
BRANCH   7   8
ATOM      8  C   UNL     1      35.470   8.579   7.215  1.00  0.00     0.138 A 
ATOM      9  C   UNL     1      35.748   6.659   3.456  1.00  0.00     0.162 A 
ATOM     10  C   UNL     1      36.120   8.007   3.612  1.00  0.00     0.079 A 
ATOM     11  C   UNL     1      35.309   5.928   4.569  1.00  0.00     0.161 A 
ATOM     12  C   UNL     1      36.040   8.627   4.858  1.00  0.00     0.078 A 
ATOM     13  C   UNL     1      35.245   6.548   5.832  1.00  0.00     0.064 A 
ATOM     14  C   UNL     1      35.577   7.906   5.979  1.00  0.00     0.047 A 
ATOM     15  N   UNL     1      36.409   9.929   4.986  1.00  0.00    -0.256 NA
ATOM     16  C   UNL     1      36.342  10.577   6.175  1.00  0.00     0.115 A 
ATOM     17  C   UNL     1      35.878   9.911   7.307  1.00  0.00     0.068 A 
BRANCH   9  18
ATOM     18  O   UNL     1      35.806   6.012   2.211  1.00  0.00    -0.493 OA
ATOM     19  C   UNL     1      37.013   5.727   1.506  1.00  0.00     0.278 C 
ENDBRANCH   9  18
BRANCH  11  20
ATOM     20  O   UNL     1      34.934   4.587   4.376  1.00  0.00    -0.493 OA
ATOM     21  C   UNL     1      35.823   3.478   4.475  1.00  0.00     0.278 C 
ENDBRANCH  11  20
ENDBRANCH   7   8
ENDBRANCH   1   7
BRANCH   4  22
ATOM     22  N   UNL     1      29.453   7.562   9.562  1.00  0.00    -0.325 N 
ATOM     23  C   UNL     1      28.480   8.343   8.846  1.00  0.00     0.240 C 
ATOM     24  H   UNL     1      29.123   6.849  10.255  1.00  0.00     0.169 HD
ATOM     25  O   UNL     1      28.682   8.617   7.629  1.00  0.00    -0.274 OA
BRANCH  23  26
ATOM     26  C   UNL     1      27.215   8.845   9.500  1.00  0.00     0.128 C 
ATOM     27  C   UNL     1      26.786   8.151  10.785  1.00  0.00     0.028 C 
ATOM     28  C   UNL     1      26.003   7.920   9.506  1.00  0.00     0.028 C 
BRANCH  26  29
ATOM     29  C   UNL     1      27.000  10.329   9.538  1.00  0.00     0.240 C 
ATOM     30  O   UNL     1      26.774  10.936   8.456  1.00  0.00    -0.274 OA
ATOM     31  N   UNL     1      27.036  11.054  10.777  1.00  0.00    -0.325 N 
ATOM     32  H   UNL     1      27.576  10.663  11.569  1.00  0.00     0.169 HD
BRANCH  31  33
ATOM     33  C   UNL     1      26.458  12.355  10.930  1.00  0.00     0.041 A 
ATOM     34  C   UNL     1      25.138  12.508  11.383  1.00  0.00     0.029 A 
ATOM     35  C   UNL     1      27.230  13.497  10.662  1.00  0.00     0.029 A 
ATOM     36  C   UNL     1      24.581  13.787  11.525  1.00  0.00     0.041 A 
ATOM     37  C   UNL     1      26.680  14.769  10.803  1.00  0.00     0.041 A 
ATOM     38  C   UNL     1      25.354  14.916  11.232  1.00  0.00     0.123 A 
ATOM     39  F   UNL     1      24.808  16.151  11.358  1.00  0.00    -0.207 F 
ENDBRANCH  31  33
ENDBRANCH  26  29
ENDBRANCH  23  26
ENDBRANCH   4  22
TORSDOF 8
ENDMDL
MODEL 8
REMARK VINA RESULT:    -9.763      4.209     11.332
REMARK INTER + INTRA:         -14.554
REMARK INTER:                 -13.659
REMARK INTRA:                  -0.895
REMARK UNBOUND:                -0.225
REMARK SMILES COc1cc2nccc(Oc3ccc(NC(=O)C4(C(=O)Nc5ccc(F)cc5)CC4)cc3)c2cc1OC
REMARK SMILES IDX 11 1 12 2 13 3 14 4 31 5 32 6 10 7 9 8 3 9 4 10 35 11 5 12
REMARK SMILES IDX 34 13 33 14 6 15 7 16 8 17 2 18 1 19 36 20 37 21 15 22 16 23
REMARK SMILES IDX 17 25 18 26 29 27 30 28 19 29 20 30 21 31 22 33 23 34 28 35
REMARK SMILES IDX 24 36 27 37 25 38 26 39
REMARK H PARENT 15 24 21 32
REMARK Flexibility Score: inf
ROOT
ATOM      1  C   UNL     1      34.555   5.918   7.691  1.00  0.00     0.127 A 
ATOM      2  C   UNL     1      34.505   7.293   7.935  1.00  0.00     0.049 A 
ATOM      3  C   UNL     1      33.411   7.858   8.595  1.00  0.00     0.030 A 
ATOM      4  C   UNL     1      32.335   7.050   9.004  1.00  0.00     0.041 A 
ATOM      5  C   UNL     1      32.379   5.672   8.750  1.00  0.00     0.030 A 
ATOM      6  C   UNL     1      33.475   5.109   8.089  1.00  0.00     0.049 A 
ENDROOT
BRANCH   1   7
ATOM      7  O   UNL     1      35.688   5.394   7.049  1.00  0.00    -0.457 OA
BRANCH   7   8
ATOM      8  C   UNL     1      35.674   4.783   5.790  1.00  0.00     0.138 A 
ATOM      9  C   UNL     1      36.314   6.889   2.178  1.00  0.00     0.162 A 
ATOM     10  C   UNL     1      36.119   5.495   2.181  1.00  0.00     0.079 A 
ATOM     11  C   UNL     1      36.264   7.598   3.387  1.00  0.00     0.161 A 
ATOM     12  C   UNL     1      35.892   4.811   3.374  1.00  0.00     0.078 A 
ATOM     13  C   UNL     1      36.017   6.911   4.591  1.00  0.00     0.064 A 
ATOM     14  C   UNL     1      35.864   5.514   4.599  1.00  0.00     0.047 A 
ATOM     15  N   UNL     1      35.702   3.466   3.354  1.00  0.00    -0.256 NA
ATOM     16  C   UNL     1      35.485   2.757   4.488  1.00  0.00     0.115 A 
ATOM     17  C   UNL     1      35.462   3.405   5.722  1.00  0.00     0.068 A 
BRANCH   9  18
ATOM     18  O   UNL     1      36.557   7.602   0.993  1.00  0.00    -0.493 OA
ATOM     19  C   UNL     1      37.813   7.636   0.316  1.00  0.00     0.278 C 
ENDBRANCH   9  18
BRANCH  11  20
ATOM     20  O   UNL     1      36.475   8.987   3.349  1.00  0.00    -0.493 OA
ATOM     21  C   UNL     1      36.009   9.902   4.337  1.00  0.00     0.278 C 
ENDBRANCH  11  20
ENDBRANCH   7   8
ENDBRANCH   1   7
BRANCH   4  22
ATOM     22  N   UNL     1      31.223   7.604   9.728  1.00  0.00    -0.325 N 
ATOM     23  C   UNL     1      30.214   8.419   9.103  1.00  0.00     0.240 C 
ATOM     24  H   UNL     1      31.115   7.344  10.737  1.00  0.00     0.169 HD
ATOM     25  O   UNL     1      29.876   8.178   7.911  1.00  0.00    -0.274 OA
BRANCH  23  26
ATOM     26  C   UNL     1      29.537   9.555   9.832  1.00  0.00     0.128 C 
ATOM     27  C   UNL     1      29.913  10.966   9.403  1.00  0.00     0.028 C 
ATOM     28  C   UNL     1      30.395  10.431  10.739  1.00  0.00     0.028 C 
BRANCH  26  29
ATOM     29  C   UNL     1      28.076   9.406  10.134  1.00  0.00     0.240 C 
ATOM     30  O   UNL     1      27.702   8.449  10.865  1.00  0.00    -0.274 OA
ATOM     31  N   UNL     1      27.111  10.336   9.616  1.00  0.00    -0.325 N 
ATOM     32  H   UNL     1      27.335  10.858   8.750  1.00  0.00     0.169 HD
BRANCH  31  33
ATOM     33  C   UNL     1      25.801  10.485  10.175  1.00  0.00     0.041 A 
ATOM     34  C   UNL     1      25.398  11.702  10.750  1.00  0.00     0.029 A 
ATOM     35  C   UNL     1      24.892   9.418  10.115  1.00  0.00     0.029 A 
ATOM     36  C   UNL     1      24.115  11.834  11.298  1.00  0.00     0.041 A 
ATOM     37  C   UNL     1      23.615   9.548  10.657  1.00  0.00     0.041 A 
ATOM     38  C   UNL     1      23.226  10.756  11.252  1.00  0.00     0.123 A 
ATOM     39  F   UNL     1      21.989  10.884  11.795  1.00  0.00    -0.207 F 
ENDBRANCH  31  33
ENDBRANCH  26  29
ENDBRANCH  23  26
ENDBRANCH   4  22
TORSDOF 8
ENDMDL
MODEL 9
REMARK VINA RESULT:    -9.721      3.965      7.022
REMARK INTER + INTRA:         -14.492
REMARK INTER:                 -13.095
REMARK INTRA:                  -1.398
REMARK UNBOUND:                -0.225
REMARK SMILES COc1cc2nccc(Oc3ccc(NC(=O)C4(C(=O)Nc5ccc(F)cc5)CC4)cc3)c2cc1OC
REMARK SMILES IDX 11 1 12 2 13 3 14 4 31 5 32 6 10 7 9 8 3 9 4 10 35 11 5 12
REMARK SMILES IDX 34 13 33 14 6 15 7 16 8 17 2 18 1 19 36 20 37 21 15 22 16 23
REMARK SMILES IDX 17 25 18 26 29 27 30 28 19 29 20 30 21 31 22 33 23 34 28 35
REMARK SMILES IDX 24 36 27 37 25 38 26 39
REMARK H PARENT 15 24 21 32
REMARK Flexibility Score: inf
ROOT
ATOM      1  C   UNL     1      32.823   8.252   9.310  1.00  0.00     0.127 A 
ATOM      2  C   UNL     1      33.919   8.564   8.501  1.00  0.00     0.049 A 
ATOM      3  C   UNL     1      34.423   7.629   7.595  1.00  0.00     0.030 A 
ATOM      4  C   UNL     1      33.846   6.350   7.501  1.00  0.00     0.041 A 
ATOM      5  C   UNL     1      32.753   6.031   8.319  1.00  0.00     0.030 A 
ATOM      6  C   UNL     1      32.250   6.969   9.226  1.00  0.00     0.049 A 
ENDROOT
BRANCH   1   7
ATOM      7  O   UNL     1      32.334   9.234  10.185  1.00  0.00    -0.457 OA
BRANCH   7   8
ATOM      8  C   UNL     1      31.614  10.365   9.784  1.00  0.00     0.138 A 
ATOM      9  C   UNL     1      27.390  10.486   9.599  1.00  0.00     0.162 A 
ATOM     10  C   UNL     1      28.162  11.623   9.299  1.00  0.00     0.079 A 
ATOM     11  C   UNL     1      28.028   9.283   9.933  1.00  0.00     0.161 A 
ATOM     12  C   UNL     1      29.554  11.570   9.347  1.00  0.00     0.078 A 
ATOM     13  C   UNL     1      29.435   9.223   9.963  1.00  0.00     0.064 A 
ATOM     14  C   UNL     1      30.205  10.369   9.705  1.00  0.00     0.047 A 
ATOM     15  N   UNL     1      30.281  12.679   9.049  1.00  0.00    -0.256 NA
ATOM     16  C   UNL     1      31.636  12.678   9.088  1.00  0.00     0.115 A 
ATOM     17  C   UNL     1      32.322  11.521   9.450  1.00  0.00     0.068 A 
BRANCH   9  18
ATOM     18  O   UNL     1      25.985  10.513   9.572  1.00  0.00    -0.493 OA
ATOM     19  C   UNL     1      25.173  11.143  10.561  1.00  0.00     0.278 C 
ENDBRANCH   9  18
BRANCH  11  20
ATOM     20  O   UNL     1      27.226   8.169  10.239  1.00  0.00    -0.493 OA
ATOM     21  C   UNL     1      26.751   7.230   9.279  1.00  0.00     0.278 C 
ENDBRANCH  11  20
ENDBRANCH   7   8
ENDBRANCH   1   7
BRANCH   4  22
ATOM     22  N   UNL     1      34.319   5.391   6.540  1.00  0.00    -0.325 N 
ATOM     23  C   UNL     1      35.542   4.652   6.713  1.00  0.00     0.240 C 
ATOM     24  H   UNL     1      33.709   5.179   5.716  1.00  0.00     0.169 HD
ATOM     25  O   UNL     1      35.899   4.312   7.876  1.00  0.00    -0.274 OA
BRANCH  23  26
ATOM     26  C   UNL     1      36.415   4.262   5.545  1.00  0.00     0.128 C 
ATOM     27  C   UNL     1      37.857   3.888   5.860  1.00  0.00     0.028 C 
ATOM     28  C   UNL     1      37.554   5.201   5.163  1.00  0.00     0.028 C 
BRANCH  26  29
ATOM     29  C   UNL     1      35.804   3.390   4.489  1.00  0.00     0.240 C 
ATOM     30  O   UNL     1      34.722   3.755   3.953  1.00  0.00    -0.274 OA
ATOM     31  N   UNL     1      36.435   2.167   4.077  1.00  0.00    -0.325 N 
ATOM     32  H   UNL     1      37.069   1.685   4.738  1.00  0.00     0.169 HD
BRANCH  31  33
ATOM     33  C   UNL     1      36.131   1.518   2.837  1.00  0.00     0.041 A 
ATOM     34  C   UNL     1      36.559   2.063   1.615  1.00  0.00     0.029 A 
ATOM     35  C   UNL     1      35.431   0.302   2.840  1.00  0.00     0.029 A 
ATOM     36  C   UNL     1      36.252   1.422   0.408  1.00  0.00     0.041 A 
ATOM     37  C   UNL     1      35.126  -0.339   1.641  1.00  0.00     0.041 A 
ATOM     38  C   UNL     1      35.534   0.222   0.422  1.00  0.00     0.123 A 
ATOM     39  F   UNL     1      35.228  -0.390  -0.749  1.00  0.00    -0.207 F 
ENDBRANCH  31  33
ENDBRANCH  26  29
ENDBRANCH  23  26
ENDBRANCH   4  22
TORSDOF 8
ENDMDL
MODEL 10
REMARK VINA RESULT:    -9.657      2.821      3.847
REMARK INTER + INTRA:         -14.398
REMARK INTER:                 -13.837
REMARK INTRA:                  -0.561
REMARK UNBOUND:                -0.225
REMARK SMILES COc1cc2nccc(Oc3ccc(NC(=O)C4(C(=O)Nc5ccc(F)cc5)CC4)cc3)c2cc1OC
REMARK SMILES IDX 11 1 12 2 13 3 14 4 31 5 32 6 10 7 9 8 3 9 4 10 35 11 5 12
REMARK SMILES IDX 34 13 33 14 6 15 7 16 8 17 2 18 1 19 36 20 37 21 15 22 16 23
REMARK SMILES IDX 17 25 18 26 29 27 30 28 19 29 20 30 21 31 22 33 23 34 28 35
REMARK SMILES IDX 24 36 27 37 25 38 26 39
REMARK H PARENT 15 24 21 32
REMARK Flexibility Score: inf
ROOT
ATOM      1  C   UNL     1      26.961   9.021   9.648  1.00  0.00     0.127 A 
ATOM      2  C   UNL     1      27.567   8.587  10.830  1.00  0.00     0.049 A 
ATOM      3  C   UNL     1      28.955   8.636  10.976  1.00  0.00     0.030 A 
ATOM      4  C   UNL     1      29.763   9.105   9.924  1.00  0.00     0.041 A 
ATOM      5  C   UNL     1      29.157   9.530   8.735  1.00  0.00     0.030 A 
ATOM      6  C   UNL     1      27.767   9.480   8.590  1.00  0.00     0.049 A 
ENDROOT
BRANCH   1   7
ATOM      7  O   UNL     1      25.561   8.979   9.559  1.00  0.00    -0.457 OA
BRANCH   7   8
ATOM      8  C   UNL     1      24.694   9.761  10.330  1.00  0.00     0.138 A 
ATOM      9  C   UNL     1      25.381  13.847  11.178  1.00  0.00     0.162 A 
ATOM     10  C   UNL     1      24.216  13.199  11.627  1.00  0.00     0.079 A 
ATOM     11  C   UNL     1      26.347  13.122  10.466  1.00  0.00     0.161 A 
ATOM     12  C   UNL     1      24.005  11.847  11.357  1.00  0.00     0.078 A 
ATOM     13  C   UNL     1      26.144  11.752  10.208  1.00  0.00     0.064 A 
ATOM     14  C   UNL     1      24.961  11.115  10.620  1.00  0.00     0.047 A 
ATOM     15  N   UNL     1      22.875  11.240  11.804  1.00  0.00    -0.256 NA
ATOM     16  C   UNL     1      22.622   9.931  11.561  1.00  0.00     0.115 A 
ATOM     17  C   UNL     1      23.529   9.171  10.826  1.00  0.00     0.068 A 
BRANCH   9  18
ATOM     18  O   UNL     1      25.614  15.211  11.424  1.00  0.00    -0.493 OA
ATOM     19  C   UNL     1      24.799  16.028  12.262  1.00  0.00     0.278 C 
ENDBRANCH   9  18
BRANCH  11  20
ATOM     20  O   UNL     1      27.493  13.804  10.022  1.00  0.00    -0.493 OA
ATOM     21  C   UNL     1      28.712  13.896  10.755  1.00  0.00     0.278 C 
ENDBRANCH  11  20
ENDBRANCH   7   8
ENDBRANCH   1   7
BRANCH   4  22
ATOM     22  N   UNL     1      31.189   9.210  10.074  1.00  0.00    -0.325 N 
ATOM     23  C   UNL     1      31.882  10.472  10.080  1.00  0.00     0.240 C 
ATOM     24  H   UNL     1      31.731   8.331  10.252  1.00  0.00     0.169 HD
ATOM     25  O   UNL     1      31.318  11.483  10.584  1.00  0.00    -0.274 OA
BRANCH  23  26
ATOM     26  C   UNL     1      33.269  10.628   9.507  1.00  0.00     0.128 C 
ATOM     27  C   UNL     1      34.083   9.354   9.323  1.00  0.00     0.028 C 
ATOM     28  C   UNL     1      34.454  10.333  10.421  1.00  0.00     0.028 C 
BRANCH  26  29
ATOM     29  C   UNL     1      33.444  11.600   8.378  1.00  0.00     0.240 C 
ATOM     30  O   UNL     1      33.759  12.791   8.647  1.00  0.00    -0.274 OA
ATOM     31  N   UNL     1      33.271  11.192   7.012  1.00  0.00    -0.325 N 
ATOM     32  H   UNL     1      32.667  10.377   6.806  1.00  0.00     0.169 HD
BRANCH  31  33
ATOM     33  C   UNL     1      33.800  11.936   5.909  1.00  0.00     0.041 A 
ATOM     34  C   UNL     1      33.076  12.999   5.343  1.00  0.00     0.029 A 
ATOM     35  C   UNL     1      35.074  11.629   5.406  1.00  0.00     0.029 A 
ATOM     36  C   UNL     1      33.601  13.717   4.261  1.00  0.00     0.041 A 
ATOM     37  C   UNL     1      35.599  12.343   4.331  1.00  0.00     0.041 A 
ATOM     38  C   UNL     1      34.862  13.386   3.755  1.00  0.00     0.123 A 
ATOM     39  F   UNL     1      35.361  14.075   2.699  1.00  0.00    -0.207 F 
ENDBRANCH  31  33
ENDBRANCH  26  29
ENDBRANCH  23  26
ENDBRANCH   4  22
TORSDOF 8
ENDMDL
MODEL 11
REMARK VINA RESULT:    -9.627      1.558      3.533
REMARK INTER + INTRA:         -14.354
REMARK INTER:                 -14.682
REMARK INTRA:                   0.328
REMARK UNBOUND:                -0.225
REMARK SMILES COc1cc2nccc(Oc3ccc(NC(=O)C4(C(=O)Nc5ccc(F)cc5)CC4)cc3)c2cc1OC
REMARK SMILES IDX 11 1 12 2 13 3 14 4 31 5 32 6 10 7 9 8 3 9 4 10 35 11 5 12
REMARK SMILES IDX 34 13 33 14 6 15 7 16 8 17 2 18 1 19 36 20 37 21 15 22 16 23
REMARK SMILES IDX 17 25 18 26 29 27 30 28 19 29 20 30 21 31 22 33 23 34 28 35
REMARK SMILES IDX 24 36 27 37 25 38 26 39
REMARK H PARENT 15 24 21 32
REMARK Flexibility Score: inf
ROOT
ATOM      1  C   UNL     1      27.968  11.798  10.082  1.00  0.00     0.127 A 
ATOM      2  C   UNL     1      28.627  11.136  11.122  1.00  0.00     0.049 A 
ATOM      3  C   UNL     1      29.663  10.240  10.851  1.00  0.00     0.030 A 
ATOM      4  C   UNL     1      30.041   9.974   9.522  1.00  0.00     0.041 A 
ATOM      5  C   UNL     1      29.375  10.628   8.478  1.00  0.00     0.030 A 
ATOM      6  C   UNL     1      28.338  11.526   8.751  1.00  0.00     0.049 A 
ENDROOT
BRANCH   1   7
ATOM      7  O   UNL     1      26.953  12.711  10.406  1.00  0.00    -0.457 OA
BRANCH   7   8
ATOM      8  C   UNL     1      25.660  12.350  10.802  1.00  0.00     0.138 A 
ATOM      9  C   UNL     1      24.062   8.470  10.271  1.00  0.00     0.162 A 
ATOM     10  C   UNL     1      23.321   9.478  10.915  1.00  0.00     0.079 A 
ATOM     11  C   UNL     1      25.338   8.762   9.767  1.00  0.00     0.161 A 
ATOM     12  C   UNL     1      23.849  10.759  11.071  1.00  0.00     0.078 A 
ATOM     13  C   UNL     1      25.865  10.061   9.908  1.00  0.00     0.064 A 
ATOM     14  C   UNL     1      25.142  11.055  10.588  1.00  0.00     0.047 A 
ATOM     15  N   UNL     1      23.115  11.719  11.693  1.00  0.00    -0.256 NA
ATOM     16  C   UNL     1      23.587  12.976  11.874  1.00  0.00     0.115 A 
ATOM     17  C   UNL     1      24.864  13.312  11.427  1.00  0.00     0.068 A 
BRANCH   9  18
ATOM     18  O   UNL     1      23.561   7.168  10.111  1.00  0.00    -0.493 OA
ATOM     19  C   UNL     1      23.021   6.377  11.168  1.00  0.00     0.278 C 
ENDBRANCH   9  18
BRANCH  11  20
ATOM     20  O   UNL     1      26.055   7.728   9.140  1.00  0.00    -0.493 OA
ATOM     21  C   UNL     1      27.464   7.543   9.249  1.00  0.00     0.278 C 
ENDBRANCH  11  20
ENDBRANCH   7   8
ENDBRANCH   1   7
BRANCH   4  22
ATOM     22  N   UNL     1      31.137   9.092   9.225  1.00  0.00    -0.325 N 
ATOM     23  C   UNL     1      32.495   9.380   9.607  1.00  0.00     0.240 C 
ATOM     24  H   UNL     1      30.921   8.174   8.771  1.00  0.00     0.169 HD
ATOM     25  O   UNL     1      32.715   9.996  10.688  1.00  0.00    -0.274 OA
BRANCH  23  26
ATOM     26  C   UNL     1      33.672   8.963   8.759  1.00  0.00     0.128 C 
ATOM     27  C   UNL     1      35.039   9.489   9.175  1.00  0.00     0.028 C 
ATOM     28  C   UNL     1      34.367  10.038   7.930  1.00  0.00     0.028 C 
BRANCH  26  29
ATOM     29  C   UNL     1      33.713   7.540   8.288  1.00  0.00     0.240 C 
ATOM     30  O   UNL     1      32.651   6.861   8.318  1.00  0.00    -0.274 OA
ATOM     31  N   UNL     1      34.929   6.954   7.799  1.00  0.00    -0.325 N 
ATOM     32  H   UNL     1      35.835   7.343   8.116  1.00  0.00     0.169 HD
BRANCH  31  33
ATOM     33  C   UNL     1      34.949   5.775   6.986  1.00  0.00     0.041 A 
ATOM     34  C   UNL     1      34.903   4.497   7.568  1.00  0.00     0.029 A 
ATOM     35  C   UNL     1      34.974   5.893   5.587  1.00  0.00     0.029 A 
ATOM     36  C   UNL     1      34.927   3.351   6.762  1.00  0.00     0.041 A 
ATOM     37  C   UNL     1      34.997   4.754   4.784  1.00  0.00     0.041 A 
ATOM     38  C   UNL     1      34.976   3.482   5.371  1.00  0.00     0.123 A 
ATOM     39  F   UNL     1      35.012   2.370   4.595  1.00  0.00    -0.207 F 
ENDBRANCH  31  33
ENDBRANCH  26  29
ENDBRANCH  23  26
ENDBRANCH   4  22
TORSDOF 8
ENDMDL
MODEL 12
REMARK VINA RESULT:    -9.387      3.224      5.146
REMARK INTER + INTRA:         -14.002
REMARK INTER:                 -13.969
REMARK INTRA:                  -0.033
REMARK UNBOUND:                -0.225
REMARK SMILES COc1cc2nccc(Oc3ccc(NC(=O)C4(C(=O)Nc5ccc(F)cc5)CC4)cc3)c2cc1OC
REMARK SMILES IDX 11 1 12 2 13 3 14 4 31 5 32 6 10 7 9 8 3 9 4 10 35 11 5 12
REMARK SMILES IDX 34 13 33 14 6 15 7 16 8 17 2 18 1 19 36 20 37 21 15 22 16 23
REMARK SMILES IDX 17 25 18 26 29 27 30 28 19 29 20 30 21 31 22 33 23 34 28 35
REMARK SMILES IDX 24 36 27 37 25 38 26 39
REMARK H PARENT 15 24 21 32
REMARK Flexibility Score: inf
ROOT
ATOM      1  C   UNL     1      31.067   9.151   9.124  1.00  0.00     0.127 A 
ATOM      2  C   UNL     1      32.154   9.904   8.672  1.00  0.00     0.049 A 
ATOM      3  C   UNL     1      33.359   9.283   8.336  1.00  0.00     0.030 A 
ATOM      4  C   UNL     1      33.500   7.890   8.470  1.00  0.00     0.041 A 
ATOM      5  C   UNL     1      32.414   7.134   8.933  1.00  0.00     0.030 A 
ATOM      6  C   UNL     1      31.209   7.758   9.270  1.00  0.00     0.049 A 
ENDROOT
BRANCH   1   7
ATOM      7  O   UNL     1      29.868   9.817   9.423  1.00  0.00    -0.457 OA
BRANCH   7   8
ATOM      8  C   UNL     1      28.605   9.215   9.419  1.00  0.00     0.138 A 
ATOM      9  C   UNL     1      25.074  11.212  10.615  1.00  0.00     0.162 A 
ATOM     10  C   UNL     1      25.033   9.890  10.135  1.00  0.00     0.079 A 
ATOM     11  C   UNL     1      26.307  11.870  10.731  1.00  0.00     0.161 A 
ATOM     12  C   UNL     1      26.203   9.234   9.758  1.00  0.00     0.078 A 
ATOM     13  C   UNL     1      27.493  11.201  10.368  1.00  0.00     0.064 A 
ATOM     14  C   UNL     1      27.447   9.896   9.849  1.00  0.00     0.047 A 
ATOM     15  N   UNL     1      26.141   7.956   9.301  1.00  0.00    -0.256 NA
ATOM     16  C   UNL     1      27.251   7.279   8.917  1.00  0.00     0.115 A 
ATOM     17  C   UNL     1      28.499   7.896   8.975  1.00  0.00     0.068 A 
BRANCH   9  18
ATOM     18  O   UNL     1      23.910  11.903  10.990  1.00  0.00    -0.493 OA
ATOM     19  C   UNL     1      22.770  11.293  11.591  1.00  0.00     0.278 C 
ENDBRANCH   9  18
BRANCH  11  20
ATOM     20  O   UNL     1      26.311  13.194  11.202  1.00  0.00    -0.493 OA
ATOM     21  C   UNL     1      26.806  14.311  10.468  1.00  0.00     0.278 C 
ENDBRANCH  11  20
ENDBRANCH   7   8
ENDBRANCH   1   7
BRANCH   4  22
ATOM     22  N   UNL     1      34.715   7.226   8.083  1.00  0.00    -0.325 N 
ATOM     23  C   UNL     1      34.899   6.634   6.783  1.00  0.00     0.240 C 
ATOM     24  H   UNL     1      35.517   7.236   8.755  1.00  0.00     0.169 HD
ATOM     25  O   UNL     1      34.361   7.173   5.777  1.00  0.00    -0.274 OA
BRANCH  23  26
ATOM     26  C   UNL     1      35.725   5.386   6.581  1.00  0.00     0.128 C 
ATOM     27  C   UNL     1      35.563   4.281   7.615  1.00  0.00     0.028 C 
ATOM     28  C   UNL     1      36.840   5.101   7.582  1.00  0.00     0.028 C 
BRANCH  26  29
ATOM     29  C   UNL     1      35.852   4.863   5.182  1.00  0.00     0.240 C 
ATOM     30  O   UNL     1      36.953   4.993   4.582  1.00  0.00    -0.274 OA
ATOM     31  N   UNL     1      34.750   4.212   4.529  1.00  0.00    -0.325 N 
ATOM     32  H   UNL     1      33.786   4.434   4.835  1.00  0.00     0.169 HD
BRANCH  31  33
ATOM     33  C   UNL     1      34.918   3.360   3.391  1.00  0.00     0.041 A 
ATOM     34  C   UNL     1      35.362   2.035   3.541  1.00  0.00     0.029 A 
ATOM     35  C   UNL     1      34.599   3.836   2.109  1.00  0.00     0.029 A 
ATOM     36  C   UNL     1      35.527   1.212   2.419  1.00  0.00     0.041 A 
ATOM     37  C   UNL     1      34.760   3.019   0.992  1.00  0.00     0.041 A 
ATOM     38  C   UNL     1      35.228   1.706   1.146  1.00  0.00     0.123 A 
ATOM     39  F   UNL     1      35.401   0.911   0.061  1.00  0.00    -0.207 F 
ENDBRANCH  31  33
ENDBRANCH  26  29
ENDBRANCH  23  26
ENDBRANCH   4  22
TORSDOF 8
ENDMDL
MODEL 13
REMARK VINA RESULT:    -9.363      1.662      2.062
REMARK INTER + INTRA:         -13.966
REMARK INTER:                 -13.270
REMARK INTRA:                  -0.697
REMARK UNBOUND:                -0.225
REMARK SMILES COc1cc2nccc(Oc3ccc(NC(=O)C4(C(=O)Nc5ccc(F)cc5)CC4)cc3)c2cc1OC
REMARK SMILES IDX 11 1 12 2 13 3 14 4 31 5 32 6 10 7 9 8 3 9 4 10 35 11 5 12
REMARK SMILES IDX 34 13 33 14 6 15 7 16 8 17 2 18 1 19 36 20 37 21 15 22 16 23
REMARK SMILES IDX 17 25 18 26 29 27 30 28 19 29 20 30 21 31 22 33 23 34 28 35
REMARK SMILES IDX 24 36 27 37 25 38 26 39
REMARK H PARENT 15 24 21 32
REMARK Flexibility Score: inf
ROOT
ATOM      1  C   UNL     1      27.327   9.104   9.500  1.00  0.00     0.127 A 
ATOM      2  C   UNL     1      28.163   9.603   8.497  1.00  0.00     0.049 A 
ATOM      3  C   UNL     1      29.550   9.587   8.656  1.00  0.00     0.030 A 
ATOM      4  C   UNL     1      30.123   9.089   9.840  1.00  0.00     0.041 A 
ATOM      5  C   UNL     1      29.286   8.599  10.851  1.00  0.00     0.030 A 
ATOM      6  C   UNL     1      27.897   8.615  10.690  1.00  0.00     0.049 A 
ENDROOT
BRANCH   1   7
ATOM      7  O   UNL     1      25.940   9.115   9.283  1.00  0.00    -0.457 OA
BRANCH   7   8
ATOM      8  C   UNL     1      25.019   9.803  10.080  1.00  0.00     0.138 A 
ATOM      9  C   UNL     1      25.455  13.870  11.156  1.00  0.00     0.162 A 
ATOM     10  C   UNL     1      24.323  13.133  11.550  1.00  0.00     0.079 A 
ATOM     11  C   UNL     1      26.471  13.242  10.422  1.00  0.00     0.161 A 
ATOM     12  C   UNL     1      24.195  11.788  11.205  1.00  0.00     0.078 A 
ATOM     13  C   UNL     1      26.352  11.878  10.089  1.00  0.00     0.064 A 
ATOM     14  C   UNL     1      25.203  11.153  10.446  1.00  0.00     0.047 A 
ATOM     15  N   UNL     1      23.096  11.094  11.599  1.00  0.00    -0.256 NA
ATOM     16  C   UNL     1      22.924   9.787  11.282  1.00  0.00     0.115 A 
ATOM     17  C   UNL     1      23.884   9.121  10.523  1.00  0.00     0.068 A 
BRANCH   9  18
ATOM     18  O   UNL     1      25.605  15.229  11.478  1.00  0.00    -0.493 OA
ATOM     19  C   UNL     1      24.653  15.991  12.218  1.00  0.00     0.278 C 
ENDBRANCH   9  18
BRANCH  11  20
ATOM     20  O   UNL     1      27.582  14.011  10.035  1.00  0.00    -0.493 OA
ATOM     21  C   UNL     1      28.827  14.037  10.727  1.00  0.00     0.278 C 
ENDBRANCH  11  20
ENDBRANCH   7   8
ENDBRANCH   1   7
BRANCH   4  22
ATOM     22  N   UNL     1      31.550   9.019  10.002  1.00  0.00    -0.325 N 
ATOM     23  C   UNL     1      32.349  10.158  10.371  1.00  0.00     0.240 C 
ATOM     24  H   UNL     1      32.010   8.083   9.911  1.00  0.00     0.169 HD
ATOM     25  O   UNL     1      31.867  11.024  11.153  1.00  0.00    -0.274 OA
BRANCH  23  26
ATOM     26  C   UNL     1      33.756  10.351   9.857  1.00  0.00     0.128 C 
ATOM     27  C   UNL     1      34.805  10.779  10.873  1.00  0.00     0.028 C 
ATOM     28  C   UNL     1      34.316  11.769   9.832  1.00  0.00     0.028 C 
BRANCH  26  29
ATOM     29  C   UNL     1      34.273   9.345   8.872  1.00  0.00     0.240 C 
ATOM     30  O   UNL     1      33.524   8.983   7.925  1.00  0.00    -0.274 OA
ATOM     31  N   UNL     1      35.601   8.807   8.987  1.00  0.00    -0.325 N 
ATOM     32  H   UNL     1      36.055   8.793   9.917  1.00  0.00     0.169 HD
BRANCH  31  33
ATOM     33  C   UNL     1      36.278   8.177   7.894  1.00  0.00     0.041 A 
ATOM     34  C   UNL     1      36.245   6.782   7.734  1.00  0.00     0.029 A 
ATOM     35  C   UNL     1      36.953   8.962   6.946  1.00  0.00     0.029 A 
ATOM     36  C   UNL     1      36.915   6.176   6.663  1.00  0.00     0.041 A 
ATOM     37  C   UNL     1      37.619   8.362   5.879  1.00  0.00     0.041 A 
ATOM     38  C   UNL     1      37.603   6.967   5.738  1.00  0.00     0.123 A 
ATOM     39  F   UNL     1      38.262   6.376   4.710  1.00  0.00    -0.207 F 
ENDBRANCH  31  33
ENDBRANCH  26  29
ENDBRANCH  23  26
ENDBRANCH   4  22
TORSDOF 8
ENDMDL
MODEL 14
REMARK VINA RESULT:    -9.352      3.268      5.609
REMARK INTER + INTRA:         -13.951
REMARK INTER:                 -13.906
REMARK INTRA:                  -0.045
REMARK UNBOUND:                -0.225
REMARK SMILES COc1cc2nccc(Oc3ccc(NC(=O)C4(C(=O)Nc5ccc(F)cc5)CC4)cc3)c2cc1OC
REMARK SMILES IDX 11 1 12 2 13 3 14 4 31 5 32 6 10 7 9 8 3 9 4 10 35 11 5 12
REMARK SMILES IDX 34 13 33 14 6 15 7 16 8 17 2 18 1 19 36 20 37 21 15 22 16 23
REMARK SMILES IDX 17 25 18 26 29 27 30 28 19 29 20 30 21 31 22 33 23 34 28 35
REMARK SMILES IDX 24 36 27 37 25 38 26 39
REMARK H PARENT 15 24 21 32
REMARK Flexibility Score: inf
ROOT
ATOM      1  C   UNL     1      31.308   8.433   9.360  1.00  0.00     0.127 A 
ATOM      2  C   UNL     1      31.658   7.087   9.221  1.00  0.00     0.049 A 
ATOM      3  C   UNL     1      32.898   6.726   8.687  1.00  0.00     0.030 A 
ATOM      4  C   UNL     1      33.801   7.717   8.261  1.00  0.00     0.041 A 
ATOM      5  C   UNL     1      33.447   9.066   8.390  1.00  0.00     0.030 A 
ATOM      6  C   UNL     1      32.206   9.425   8.925  1.00  0.00     0.049 A 
ENDROOT
BRANCH   1   7
ATOM      7  O   UNL     1      30.063   8.745   9.928  1.00  0.00    -0.457 OA
BRANCH   7   8
ATOM      8  C   UNL     1      29.630  10.043  10.222  1.00  0.00     0.138 A 
ATOM      9  C   UNL     1      25.551  11.149  10.395  1.00  0.00     0.162 A 
ATOM     10  C   UNL     1      26.568  12.078  10.684  1.00  0.00     0.079 A 
ATOM     11  C   UNL     1      25.893   9.844  10.011  1.00  0.00     0.161 A 
ATOM     12  C   UNL     1      27.910  11.709  10.609  1.00  0.00     0.078 A 
ATOM     13  C   UNL     1      27.249   9.476   9.917  1.00  0.00     0.064 A 
ATOM     14  C   UNL     1      28.263  10.391  10.246  1.00  0.00     0.047 A 
ATOM     15  N   UNL     1      28.876  12.623  10.888  1.00  0.00    -0.256 NA
ATOM     16  C   UNL     1      30.194  12.310  10.835  1.00  0.00     0.115 A 
ATOM     17  C   UNL     1      30.590  11.019  10.496  1.00  0.00     0.068 A 
BRANCH   9  18
ATOM     18  O   UNL     1      24.190  11.488  10.475  1.00  0.00    -0.493 OA
ATOM     19  C   UNL     1      23.616  12.273  11.519  1.00  0.00     0.278 C 
ENDBRANCH   9  18
BRANCH  11  20
ATOM     20  O   UNL     1      24.852   8.939   9.742  1.00  0.00    -0.493 OA
ATOM     21  C   UNL     1      24.742   7.641  10.319  1.00  0.00     0.278 C 
ENDBRANCH  11  20
ENDBRANCH   7   8
ENDBRANCH   1   7
BRANCH   4  22
ATOM     22  N   UNL     1      35.101   7.367   7.755  1.00  0.00    -0.325 N 
ATOM     23  C   UNL     1      35.305   6.831   6.435  1.00  0.00     0.240 C 
ATOM     24  H   UNL     1      35.934   7.577   8.354  1.00  0.00     0.169 HD
ATOM     25  O   UNL     1      34.562   7.218   5.490  1.00  0.00    -0.274 OA
BRANCH  23  26
ATOM     26  C   UNL     1      36.388   5.822   6.138  1.00  0.00     0.128 C 
ATOM     27  C   UNL     1      36.815   4.916   7.285  1.00  0.00     0.028 C 
ATOM     28  C   UNL     1      37.744   6.017   6.808  1.00  0.00     0.028 C 
BRANCH  26  29
ATOM     29  C   UNL     1      36.321   5.106   4.823  1.00  0.00     0.240 C 
ATOM     30  O   UNL     1      37.367   5.023   4.123  1.00  0.00    -0.274 OA
ATOM     31  N   UNL     1      35.098   4.509   4.362  1.00  0.00    -0.325 N 
ATOM     32  H   UNL     1      34.198   4.883   4.711  1.00  0.00     0.169 HD
BRANCH  31  33
ATOM     33  C   UNL     1      35.062   3.499   3.348  1.00  0.00     0.041 A 
ATOM     34  C   UNL     1      34.745   3.824   2.018  1.00  0.00     0.029 A 
ATOM     35  C   UNL     1      35.386   2.172   3.672  1.00  0.00     0.029 A 
ATOM     36  C   UNL     1      34.709   2.827   1.035  1.00  0.00     0.041 A 
ATOM     37  C   UNL     1      35.352   1.179   2.696  1.00  0.00     0.041 A 
ATOM     38  C   UNL     1      35.011   1.505   1.376  1.00  0.00     0.123 A 
ATOM     39  F   UNL     1      34.963   0.540   0.424  1.00  0.00    -0.207 F 
ENDBRANCH  31  33
ENDBRANCH  26  29
ENDBRANCH  23  26
ENDBRANCH   4  22
TORSDOF 8
ENDMDL
MODEL 15
REMARK VINA RESULT:    -9.266      3.440     10.779
REMARK INTER + INTRA:         -13.824
REMARK INTER:                 -12.803
REMARK INTRA:                  -1.021
REMARK UNBOUND:                -0.225
REMARK SMILES COc1cc2nccc(Oc3ccc(NC(=O)C4(C(=O)Nc5ccc(F)cc5)CC4)cc3)c2cc1OC
REMARK SMILES IDX 11 1 12 2 13 3 14 4 31 5 32 6 10 7 9 8 3 9 4 10 35 11 5 12
REMARK SMILES IDX 34 13 33 14 6 15 7 16 8 17 2 18 1 19 36 20 37 21 15 22 16 23
REMARK SMILES IDX 17 25 18 26 29 27 30 28 19 29 20 30 21 31 22 33 23 34 28 35
REMARK SMILES IDX 24 36 27 37 25 38 26 39
REMARK H PARENT 15 24 21 32
REMARK Flexibility Score: inf
ROOT
ATOM      1  C   UNL     1      34.462   9.996   8.095  1.00  0.00     0.127 A 
ATOM      2  C   UNL     1      33.202   9.572   8.525  1.00  0.00     0.049 A 
ATOM      3  C   UNL     1      32.224  10.502   8.885  1.00  0.00     0.030 A 
ATOM      4  C   UNL     1      32.504  11.879   8.839  1.00  0.00     0.041 A 
ATOM      5  C   UNL     1      33.771  12.306   8.418  1.00  0.00     0.030 A 
ATOM      6  C   UNL     1      34.749  11.373   8.058  1.00  0.00     0.049 A 
ENDROOT
BRANCH   1   7
ATOM      7  O   UNL     1      35.402   9.025   7.717  1.00  0.00    -0.457 OA
BRANCH   7   8
ATOM      8  C   UNL     1      35.499   8.473   6.435  1.00  0.00     0.138 A 
ATOM      9  C   UNL     1      35.149   4.330   5.654  1.00  0.00     0.162 A 
ATOM     10  C   UNL     1      35.325   5.254   4.607  1.00  0.00     0.079 A 
ATOM     11  C   UNL     1      35.122   4.783   6.981  1.00  0.00     0.161 A 
ATOM     12  C   UNL     1      35.456   6.616   4.874  1.00  0.00     0.078 A 
ATOM     13  C   UNL     1      35.272   6.157   7.254  1.00  0.00     0.064 A 
ATOM     14  C   UNL     1      35.406   7.084   6.206  1.00  0.00     0.047 A 
ATOM     15  N   UNL     1      35.629   7.489   3.848  1.00  0.00    -0.256 NA
ATOM     16  C   UNL     1      35.754   8.823   4.058  1.00  0.00     0.115 A 
ATOM     17  C   UNL     1      35.696   9.333   5.353  1.00  0.00     0.068 A 
BRANCH   9  18
ATOM     18  O   UNL     1      35.002   2.954   5.414  1.00  0.00    -0.493 OA
ATOM     19  C   UNL     1      35.576   2.264   4.305  1.00  0.00     0.278 C 
ENDBRANCH   9  18
BRANCH  11  20
ATOM     20  O   UNL     1      34.932   3.836   8.001  1.00  0.00    -0.493 OA
ATOM     21  C   UNL     1      33.671   3.517   8.582  1.00  0.00     0.278 C 
ENDBRANCH  11  20
ENDBRANCH   7   8
ENDBRANCH   1   7
BRANCH   4  22
ATOM     22  N   UNL     1      31.495  12.853   9.158  1.00  0.00    -0.325 N 
ATOM     23  C   UNL     1      31.116  13.168  10.511  1.00  0.00     0.240 C 
ATOM     24  H   UNL     1      31.071  13.398   8.371  1.00  0.00     0.169 HD
ATOM     25  O   UNL     1      31.992  13.138  11.420  1.00  0.00    -0.274 OA
BRANCH  23  26
ATOM     26  C   UNL     1      29.702  13.543  10.880  1.00  0.00     0.128 C 
ATOM     27  C   UNL     1      29.163  14.845  10.302  1.00  0.00     0.028 C 
ATOM     28  C   UNL     1      29.499  14.758  11.780  1.00  0.00     0.028 C 
BRANCH  26  29
ATOM     29  C   UNL     1      28.680  12.446  10.897  1.00  0.00     0.240 C 
ATOM     30  O   UNL     1      28.877  11.445  11.639  1.00  0.00    -0.274 OA
ATOM     31  N   UNL     1      27.489  12.526  10.098  1.00  0.00    -0.325 N 
ATOM     32  H   UNL     1      27.499  13.110   9.243  1.00  0.00     0.169 HD
BRANCH  31  33
ATOM     33  C   UNL     1      26.323  11.738  10.363  1.00  0.00     0.041 A 
ATOM     34  C   UNL     1      26.233  10.411   9.910  1.00  0.00     0.029 A 
ATOM     35  C   UNL     1      25.271  12.280  11.118  1.00  0.00     0.029 A 
ATOM     36  C   UNL     1      25.085   9.650  10.171  1.00  0.00     0.041 A 
ATOM     37  C   UNL     1      24.130  11.525  11.381  1.00  0.00     0.041 A 
ATOM     38  C   UNL     1      24.034  10.210  10.905  1.00  0.00     0.123 A 
ATOM     39  F   UNL     1      22.920   9.474  11.146  1.00  0.00    -0.207 F 
ENDBRANCH  31  33
ENDBRANCH  26  29
ENDBRANCH  23  26
ENDBRANCH   4  22
TORSDOF 8
ENDMDL
