MODEL 1
REMARK VINA RESULT:    -8.576      0.000      0.000
REMARK INTER + INTRA:         -11.327
REMARK INTER:                 -10.582
REMARK INTRA:                  -0.745
REMARK UNBOUND:                -0.745
REMARK SMILES COC[C@H]1OC(=O)c2coc3c2[C@@]1(C)C1=C(C3=O)[C@@H]2CCC(=O)[C@@]2(C)C[C@H]1OC(C)=O
REMARK SMILES IDX 19 1 20 2 21 3 22 4 23 5 24 6 25 7 26 8 27 9 15 10 16 11
REMARK SMILES IDX 17 12 18 13 11 14 12 15 8 16 9 17 10 18 6 19 7 20 5 21 4 22
REMARK SMILES IDX 13 23 14 24 28 25 29 26 30 27 31 28 3 29 2 30 1 31
REMARK H PARENT
REMARK Flexibility Score: inf
ROOT
ATOM      1  C   UNL     1      11.160  11.941  15.451  1.00  0.00     0.037 C 
ATOM      2  C   UNL     1      11.287  11.646  13.950  1.00  0.00     0.017 C 
ATOM      3  C   UNL     1      10.760  12.925  13.280  1.00  0.00     0.077 C 
ATOM      4  C   UNL     1      10.917  13.967  14.340  1.00  0.00     0.139 C 
ATOM      5  O   UNL     1      10.633  15.144  14.177  1.00  0.00    -0.299 OA
ATOM      6  C   UNL     1      11.522  13.418  15.588  1.00  0.00     0.037 C 
ATOM      7  C   UNL     1      13.046  13.710  15.552  1.00  0.00     0.020 C 
ATOM      8  C   UNL     1      10.894  13.893  16.898  1.00  0.00     0.065 C 
ATOM      9  C   UNL     1      11.419  13.059  18.106  1.00  0.00     0.205 C 
ATOM     10  C   UNL     1      11.873  11.599  17.803  1.00  0.00    -0.008 C 
ATOM     11  C   UNL     1      11.861  11.113  16.505  1.00  0.00     0.011 C 
ATOM     12  C   UNL     1      12.385   9.751  16.173  1.00  0.00     0.224 C 
ATOM     13  O   UNL     1      12.341   9.275  15.008  1.00  0.00    -0.285 OA
ATOM     14  C   UNL     1      12.902   8.942  17.253  1.00  0.00     0.179 A 
ATOM     15  C   UNL     1      13.005   9.445  18.501  1.00  0.00     0.030 A 
ATOM     16  C   UNL     1      13.272   8.390  19.316  1.00  0.00     0.103 A 
ATOM     17  C   UNL     1      13.395   7.280  18.499  1.00  0.00     0.212 A 
ATOM     18  O   UNL     1      13.174   7.653  17.250  1.00  0.00    -0.460 OA
ATOM     19  C   UNL     1      12.980   8.504  20.738  1.00  0.00     0.342 C 
ATOM     20  O   UNL     1      13.314   7.609  21.558  1.00  0.00    -0.246 OA
ATOM     21  O   UNL     1      12.306   9.662  21.163  1.00  0.00    -0.455 OA
ATOM     22  C   UNL     1      11.652  10.555  20.228  1.00  0.00     0.217 C 
ATOM     23  C   UNL     1      12.561  10.806  18.962  1.00  0.00     0.062 C 
ATOM     24  C   UNL     1      13.836  11.563  19.401  1.00  0.00     0.026 C 
ENDROOT
BRANCH   9  25
ATOM     25  O   UNL     1      10.428  13.067  19.133  1.00  0.00    -0.458 OA
BRANCH  25  26
ATOM     26  C   UNL     1       9.072  13.313  18.892  1.00  0.00     0.303 C 
ATOM     27  C   UNL     1       8.263  12.310  18.143  1.00  0.00     0.139 C 
ATOM     28  O   UNL     1       8.514  14.352  19.338  1.00  0.00    -0.253 OA
ENDBRANCH  25  26
ENDBRANCH   9  25
BRANCH  22  29
ATOM     29  C   UNL     1      10.272   9.959  19.854  1.00  0.00     0.206 C 
BRANCH  29  30
ATOM     30  O   UNL     1       9.401   9.958  20.972  1.00  0.00    -0.381 OA
ATOM     31  C   UNL     1       8.114   9.525  20.595  1.00  0.00     0.195 C 
ENDBRANCH  29  30
ENDBRANCH  22  29
TORSDOF 4
ENDMDL
MODEL 2
REMARK VINA RESULT:    -8.505      2.078      4.344
REMARK INTER + INTRA:         -11.239
REMARK INTER:                 -10.788
REMARK INTRA:                  -0.451
REMARK UNBOUND:                -0.745
REMARK SMILES COC[C@H]1OC(=O)c2coc3c2[C@@]1(C)C1=C(C3=O)[C@@H]2CCC(=O)[C@@]2(C)C[C@H]1OC(C)=O
REMARK SMILES IDX 19 1 20 2 21 3 22 4 23 5 24 6 25 7 26 8 27 9 15 10 16 11
REMARK SMILES IDX 17 12 18 13 11 14 12 15 8 16 9 17 10 18 6 19 7 20 5 21 4 22
REMARK SMILES IDX 13 23 14 24 28 25 29 26 30 27 31 28 3 29 2 30 1 31
REMARK H PARENT
REMARK Flexibility Score: inf
ROOT
ATOM      1  C   UNL     1      12.735  12.193  16.415  1.00  0.00     0.037 C 
ATOM      2  C   UNL     1      13.178  13.523  15.792  1.00  0.00     0.017 C 
ATOM      3  C   UNL     1      12.705  13.419  14.334  1.00  0.00     0.077 C 
ATOM      4  C   UNL     1      11.617  12.397  14.390  1.00  0.00     0.139 C 
ATOM      5  O   UNL     1      10.959  12.056  13.418  1.00  0.00    -0.299 OA
ATOM      6  C   UNL     1      11.381  11.896  15.775  1.00  0.00     0.037 C 
ATOM      7  C   UNL     1      10.197  12.696  16.381  1.00  0.00     0.020 C 
ATOM      8  C   UNL     1      11.164  10.389  15.911  1.00  0.00     0.065 C 
ATOM      9  C   UNL     1      11.199   9.950  17.407  1.00  0.00     0.205 C 
ATOM     10  C   UNL     1      12.052  10.828  18.373  1.00  0.00    -0.008 C 
ATOM     11  C   UNL     1      12.685  11.971  17.911  1.00  0.00     0.011 C 
ATOM     12  C   UNL     1      13.426  12.885  18.836  1.00  0.00     0.224 C 
ATOM     13  O   UNL     1      14.045  13.903  18.430  1.00  0.00    -0.285 OA
ATOM     14  C   UNL     1      13.474  12.536  20.238  1.00  0.00     0.179 A 
ATOM     15  C   UNL     1      12.782  11.478  20.708  1.00  0.00     0.030 A 
ATOM     16  C   UNL     1      13.225  11.264  21.975  1.00  0.00     0.103 A 
ATOM     17  C   UNL     1      14.136  12.268  22.250  1.00  0.00     0.212 A 
ATOM     18  O   UNL     1      14.256  13.031  21.176  1.00  0.00    -0.460 OA
ATOM     19  C   UNL     1      13.038   9.951  22.577  1.00  0.00     0.342 C 
ATOM     20  O   UNL     1      13.320   9.728  23.783  1.00  0.00    -0.246 OA
ATOM     21  O   UNL     1      12.525   8.935  21.753  1.00  0.00    -0.455 OA
ATOM     22  C   UNL     1      12.473   9.071  20.311  1.00  0.00     0.217 C 
ATOM     23  C   UNL     1      11.963  10.508  19.901  1.00  0.00     0.062 C 
ATOM     24  C   UNL     1      10.497  10.672  20.364  1.00  0.00     0.026 C 
ENDROOT
BRANCH   9  25
ATOM     25  O   UNL     1      11.618   8.588  17.475  1.00  0.00    -0.458 OA
BRANCH  25  26
ATOM     26  C   UNL     1      12.332   7.950  16.454  1.00  0.00     0.303 C 
ATOM     27  C   UNL     1      13.701   8.425  16.104  1.00  0.00     0.139 C 
ATOM     28  O   UNL     1      11.850   6.951  15.854  1.00  0.00    -0.253 OA
ENDBRANCH  25  26
ENDBRANCH   9  25
BRANCH  22  29
ATOM     29  C   UNL     1      13.873   8.754  19.731  1.00  0.00     0.206 C 
BRANCH  29  30
ATOM     30  O   UNL     1      14.203   7.390  19.920  1.00  0.00    -0.381 OA
ATOM     31  C   UNL     1      14.967   7.223  21.093  1.00  0.00     0.195 C 
ENDBRANCH  29  30
ENDBRANCH  22  29
TORSDOF 4
ENDMDL
MODEL 3
REMARK VINA RESULT:    -8.228      2.546      4.761
REMARK INTER + INTRA:         -10.898
REMARK INTER:                 -10.038
REMARK INTRA:                  -0.860
REMARK UNBOUND:                -0.745
REMARK SMILES COC[C@H]1OC(=O)c2coc3c2[C@@]1(C)C1=C(C3=O)[C@@H]2CCC(=O)[C@@]2(C)C[C@H]1OC(C)=O
REMARK SMILES IDX 19 1 20 2 21 3 22 4 23 5 24 6 25 7 26 8 27 9 15 10 16 11
REMARK SMILES IDX 17 12 18 13 11 14 12 15 8 16 9 17 10 18 6 19 7 20 5 21 4 22
REMARK SMILES IDX 13 23 14 24 28 25 29 26 30 27 31 28 3 29 2 30 1 31
REMARK H PARENT
REMARK Flexibility Score: inf
ROOT
ATOM      1  C   UNL     1      14.241  13.831  18.941  1.00  0.00     0.037 C 
ATOM      2  C   UNL     1      14.720  14.988  18.054  1.00  0.00     0.017 C 
ATOM      3  C   UNL     1      15.406  15.945  19.041  1.00  0.00     0.077 C 
ATOM      4  C   UNL     1      15.753  15.067  20.198  1.00  0.00     0.139 C 
ATOM      5  O   UNL     1      16.350  15.459  21.189  1.00  0.00    -0.299 OA
ATOM      6  C   UNL     1      15.351  13.648  19.973  1.00  0.00     0.037 C 
ATOM      7  C   UNL     1      16.590  12.874  19.450  1.00  0.00     0.020 C 
ATOM      8  C   UNL     1      14.713  12.939  21.167  1.00  0.00     0.065 C 
ATOM      9  C   UNL     1      14.094  11.572  20.742  1.00  0.00     0.205 C 
ATOM     10  C   UNL     1      13.618  11.450  19.262  1.00  0.00    -0.008 C 
ATOM     11  C   UNL     1      13.805  12.498  18.374  1.00  0.00     0.011 C 
ATOM     12  C   UNL     1      13.448  12.371  16.926  1.00  0.00     0.224 C 
ATOM     13  O   UNL     1      13.569  13.325  16.114  1.00  0.00    -0.285 OA
ATOM     14  C   UNL     1      12.889  11.117  16.474  1.00  0.00     0.179 A 
ATOM     15  C   UNL     1      12.793  10.064  17.311  1.00  0.00     0.030 A 
ATOM     16  C   UNL     1      12.012   9.147  16.682  1.00  0.00     0.103 A 
ATOM     17  C   UNL     1      11.721   9.665  15.433  1.00  0.00     0.212 A 
ATOM     18  O   UNL     1      12.278  10.860  15.335  1.00  0.00    -0.460 OA
ATOM     19  C   UNL     1      11.337   8.129  17.477  1.00  0.00     0.342 C 
ATOM     20  O   UNL     1      10.698   7.186  16.942  1.00  0.00    -0.246 OA
ATOM     21  O   UNL     1      11.429   8.242  18.875  1.00  0.00    -0.455 OA
ATOM     22  C   UNL     1      11.891   9.457  19.517  1.00  0.00     0.217 C 
ATOM     23  C   UNL     1      13.155  10.040  18.771  1.00  0.00     0.062 C 
ATOM     24  C   UNL     1      14.330   9.046  18.919  1.00  0.00     0.026 C 
ENDROOT
BRANCH   9  25
ATOM     25  O   UNL     1      13.027  11.255  21.634  1.00  0.00    -0.458 OA
BRANCH  25  26
ATOM     26  C   UNL     1      13.211  10.581  22.847  1.00  0.00     0.303 C 
ATOM     27  C   UNL     1      13.262   9.092  22.863  1.00  0.00     0.139 C 
ATOM     28  O   UNL     1      13.378  11.219  23.922  1.00  0.00    -0.253 OA
ENDBRANCH  25  26
ENDBRANCH   9  25
BRANCH  22  29
ATOM     29  C   UNL     1      10.719  10.468  19.571  1.00  0.00     0.206 C 
BRANCH  29  30
ATOM     30  O   UNL     1       9.923  10.260  20.724  1.00  0.00    -0.381 OA
ATOM     31  C   UNL     1       8.617   9.874  20.361  1.00  0.00     0.195 C 
ENDBRANCH  29  30
ENDBRANCH  22  29
TORSDOF 4
ENDMDL
MODEL 4
REMARK VINA RESULT:    -8.149      1.846      6.171
REMARK INTER + INTRA:         -10.800
REMARK INTER:                 -10.069
REMARK INTRA:                  -0.731
REMARK UNBOUND:                -0.745
REMARK SMILES COC[C@H]1OC(=O)c2coc3c2[C@@]1(C)C1=C(C3=O)[C@@H]2CCC(=O)[C@@]2(C)C[C@H]1OC(C)=O
REMARK SMILES IDX 19 1 20 2 21 3 22 4 23 5 24 6 25 7 26 8 27 9 15 10 16 11
REMARK SMILES IDX 17 12 18 13 11 14 12 15 8 16 9 17 10 18 6 19 7 20 5 21 4 22
REMARK SMILES IDX 13 23 14 24 28 25 29 26 30 27 31 28 3 29 2 30 1 31
REMARK H PARENT
REMARK Flexibility Score: inf
ROOT
ATOM      1  C   UNL     1      13.124  11.074  19.072  1.00  0.00     0.037 C 
ATOM      2  C   UNL     1      14.476  11.027  19.795  1.00  0.00     0.017 C 
ATOM      3  C   UNL     1      14.311   9.880  20.804  1.00  0.00     0.077 C 
ATOM      4  C   UNL     1      13.204   9.060  20.227  1.00  0.00     0.139 C 
ATOM      5  O   UNL     1      12.795   8.025  20.731  1.00  0.00    -0.299 OA
ATOM      6  C   UNL     1      12.707   9.612  18.933  1.00  0.00     0.037 C 
ATOM      7  C   UNL     1      13.416   8.850  17.781  1.00  0.00     0.020 C 
ATOM      8  C   UNL     1      11.189   9.614  18.749  1.00  0.00     0.065 C 
ATOM      9  C   UNL     1      10.778  10.449  17.498  1.00  0.00     0.205 C 
ATOM     10  C   UNL     1      11.737  11.606  17.083  1.00  0.00    -0.008 C 
ATOM     11  C   UNL     1      12.922  11.818  17.770  1.00  0.00     0.011 C 
ATOM     12  C   UNL     1      13.907  12.856  17.332  1.00  0.00     0.224 C 
ATOM     13  O   UNL     1      14.967  13.095  17.969  1.00  0.00    -0.285 OA
ATOM     14  C   UNL     1      13.584  13.647  16.165  1.00  0.00     0.179 A 
ATOM     15  C   UNL     1      12.481  13.380  15.437  1.00  0.00     0.030 A 
ATOM     16  C   UNL     1      12.323  14.428  14.586  1.00  0.00     0.103 A 
ATOM     17  C   UNL     1      13.403  15.268  14.789  1.00  0.00     0.212 A 
ATOM     18  O   UNL     1      14.156  14.758  15.749  1.00  0.00    -0.460 OA
ATOM     19  C   UNL     1      11.009  14.681  14.012  1.00  0.00     0.342 C 
ATOM     20  O   UNL     1      10.828  15.561  13.130  1.00  0.00    -0.246 OA
ATOM     21  O   UNL     1       9.941  13.898  14.485  1.00  0.00    -0.455 OA
ATOM     22  C   UNL     1      10.051  13.101  15.690  1.00  0.00     0.217 C 
ATOM     23  C   UNL     1      11.435  12.341  15.737  1.00  0.00     0.062 C 
ATOM     24  C   UNL     1      11.485  11.316  14.581  1.00  0.00     0.026 C 
ENDROOT
BRANCH   9  25
ATOM     25  O   UNL     1       9.456  10.949  17.695  1.00  0.00    -0.458 OA
BRANCH  25  26
ATOM     26  C   UNL     1       8.387  10.151  18.121  1.00  0.00     0.303 C 
ATOM     27  C   UNL     1       7.617  10.540  19.337  1.00  0.00     0.139 C 
ATOM     28  O   UNL     1       8.040   9.131  17.467  1.00  0.00    -0.253 OA
ENDBRANCH  25  26
ENDBRANCH   9  25
BRANCH  22  29
ATOM     29  C   UNL     1       9.841  14.022  16.917  1.00  0.00     0.206 C 
BRANCH  29  30
ATOM     30  O   UNL     1       8.478  14.052  17.301  1.00  0.00    -0.381 OA
ATOM     31  C   UNL     1       8.361  14.205  18.698  1.00  0.00     0.195 C 
ENDBRANCH  29  30
ENDBRANCH  22  29
TORSDOF 4
ENDMDL
MODEL 5
REMARK VINA RESULT:    -7.872      2.528      5.866
REMARK INTER + INTRA:         -10.458
REMARK INTER:                  -9.677
REMARK INTRA:                  -0.781
REMARK UNBOUND:                -0.745
REMARK SMILES COC[C@H]1OC(=O)c2coc3c2[C@@]1(C)C1=C(C3=O)[C@@H]2CCC(=O)[C@@]2(C)C[C@H]1OC(C)=O
REMARK SMILES IDX 19 1 20 2 21 3 22 4 23 5 24 6 25 7 26 8 27 9 15 10 16 11
REMARK SMILES IDX 17 12 18 13 11 14 12 15 8 16 9 17 10 18 6 19 7 20 5 21 4 22
REMARK SMILES IDX 13 23 14 24 28 25 29 26 30 27 31 28 3 29 2 30 1 31
REMARK H PARENT
REMARK Flexibility Score: inf
ROOT
ATOM      1  C   UNL     1      13.515  13.752  20.639  1.00  0.00     0.037 C 
ATOM      2  C   UNL     1      13.607  15.283  20.683  1.00  0.00     0.017 C 
ATOM      3  C   UNL     1      13.953  15.587  22.149  1.00  0.00     0.077 C 
ATOM      4  C   UNL     1      14.556  14.311  22.638  1.00  0.00     0.139 C 
ATOM      5  O   UNL     1      14.996  14.162  23.768  1.00  0.00    -0.299 OA
ATOM      6  C   UNL     1      14.623  13.270  21.572  1.00  0.00     0.037 C 
ATOM      7  C   UNL     1      16.045  13.308  20.950  1.00  0.00     0.020 C 
ATOM      8  C   UNL     1      14.238  11.854  21.998  1.00  0.00     0.065 C 
ATOM      9  C   UNL     1      14.084  10.918  20.760  1.00  0.00     0.205 C 
ATOM     10  C   UNL     1      13.674  11.597  19.418  1.00  0.00    -0.008 C 
ATOM     11  C   UNL     1      13.524  12.973  19.342  1.00  0.00     0.011 C 
ATOM     12  C   UNL     1      13.229  13.659  18.045  1.00  0.00     0.224 C 
ATOM     13  O   UNL     1      13.045  14.902  17.964  1.00  0.00    -0.285 OA
ATOM     14  C   UNL     1      13.095  12.840  16.861  1.00  0.00     0.179 A 
ATOM     15  C   UNL     1      13.334  11.514  16.911  1.00  0.00     0.030 A 
ATOM     16  C   UNL     1      12.884  11.001  15.736  1.00  0.00     0.103 A 
ATOM     17  C   UNL     1      12.448  12.073  14.977  1.00  0.00     0.212 A 
ATOM     18  O   UNL     1      12.600  13.178  15.688  1.00  0.00    -0.460 OA
ATOM     19  C   UNL     1      12.563   9.582  15.660  1.00  0.00     0.342 C 
ATOM     20  O   UNL     1      12.256   9.029  14.572  1.00  0.00    -0.246 OA
ATOM     21  O   UNL     1      12.610   8.850  16.858  1.00  0.00    -0.455 OA
ATOM     22  C   UNL     1      12.664   9.500  18.153  1.00  0.00     0.217 C 
ATOM     23  C   UNL     1      13.682  10.708  18.132  1.00  0.00     0.062 C 
ATOM     24  C   UNL     1      15.109  10.158  17.909  1.00  0.00     0.026 C 
ENDROOT
BRANCH   9  25
ATOM     25  O   UNL     1      13.168   9.873  21.087  1.00  0.00    -0.458 OA
BRANCH  25  26
ATOM     26  C   UNL     1      13.550   8.685  21.720  1.00  0.00     0.303 C 
ATOM     27  C   UNL     1      14.375   7.688  20.980  1.00  0.00     0.139 C 
ATOM     28  O   UNL     1      13.242   8.465  22.923  1.00  0.00    -0.253 OA
ENDBRANCH  25  26
ENDBRANCH   9  25
BRANCH  22  29
ATOM     29  C   UNL     1      11.233   9.941  18.547  1.00  0.00     0.206 C 
BRANCH  29  30
ATOM     30  O   UNL     1      10.260   9.136  17.905  1.00  0.00    -0.381 OA
ATOM     31  C   UNL     1       8.975   9.696  18.059  1.00  0.00     0.195 C 
ENDBRANCH  29  30
ENDBRANCH  22  29
TORSDOF 4
ENDMDL
MODEL 6
REMARK VINA RESULT:    -7.854      2.276      4.837
REMARK INTER + INTRA:         -10.436
REMARK INTER:                  -9.550
REMARK INTRA:                  -0.886
REMARK UNBOUND:                -0.745
REMARK SMILES COC[C@H]1OC(=O)c2coc3c2[C@@]1(C)C1=C(C3=O)[C@@H]2CCC(=O)[C@@]2(C)C[C@H]1OC(C)=O
REMARK SMILES IDX 19 1 20 2 21 3 22 4 23 5 24 6 25 7 26 8 27 9 15 10 16 11
REMARK SMILES IDX 17 12 18 13 11 14 12 15 8 16 9 17 10 18 6 19 7 20 5 21 4 22
REMARK SMILES IDX 13 23 14 24 28 25 29 26 30 27 31 28 3 29 2 30 1 31
REMARK H PARENT
REMARK Flexibility Score: inf
ROOT
ATOM      1  C   UNL     1       9.224  14.295  17.703  1.00  0.00     0.037 C 
ATOM      2  C   UNL     1       7.918  14.415  18.500  1.00  0.00     0.017 C 
ATOM      3  C   UNL     1       7.524  15.891  18.339  1.00  0.00     0.077 C 
ATOM      4  C   UNL     1       8.242  16.312  17.098  1.00  0.00     0.139 C 
ATOM      5  O   UNL     1       8.154  17.430  16.612  1.00  0.00    -0.299 OA
ATOM      6  C   UNL     1       9.018  15.194  16.486  1.00  0.00     0.037 C 
ATOM      7  C   UNL     1       8.151  14.564  15.363  1.00  0.00     0.020 C 
ATOM      8  C   UNL     1      10.414  15.553  15.977  1.00  0.00     0.065 C 
ATOM      9  C   UNL     1      11.224  14.271  15.613  1.00  0.00     0.205 C 
ATOM     10  C   UNL     1      10.854  12.968  16.383  1.00  0.00    -0.008 C 
ATOM     11  C   UNL     1       9.810  12.962  17.295  1.00  0.00     0.011 C 
ATOM     12  C   UNL     1       9.369  11.703  17.974  1.00  0.00     0.224 C 
ATOM     13  O   UNL     1       8.454  11.685  18.838  1.00  0.00    -0.285 OA
ATOM     14  C   UNL     1      10.074  10.481  17.658  1.00  0.00     0.179 A 
ATOM     15  C   UNL     1      11.025  10.462  16.703  1.00  0.00     0.030 A 
ATOM     16  C   UNL     1      11.660   9.266  16.820  1.00  0.00     0.103 A 
ATOM     17  C   UNL     1      11.004   8.566  17.816  1.00  0.00     0.212 A 
ATOM     18  O   UNL     1      10.037   9.329  18.298  1.00  0.00    -0.460 OA
ATOM     19  C   UNL     1      13.003   9.122  16.275  1.00  0.00     0.342 C 
ATOM     20  O   UNL     1      13.593   8.011  16.248  1.00  0.00    -0.246 OA
ATOM     21  O   UNL     1      13.620  10.283  15.776  1.00  0.00    -0.455 OA
ATOM     22  C   UNL     1      13.103  11.607  16.058  1.00  0.00     0.217 C 
ATOM     23  C   UNL     1      11.531  11.639  15.914  1.00  0.00     0.062 C 
ATOM     24  C   UNL     1      11.156  11.378  14.437  1.00  0.00     0.026 C 
ENDROOT
BRANCH   9  25
ATOM     25  O   UNL     1      12.616  14.552  15.755  1.00  0.00    -0.458 OA
BRANCH  25  26
ATOM     26  C   UNL     1      13.445  14.897  14.681  1.00  0.00     0.303 C 
ATOM     27  C   UNL     1      13.218  14.277  13.346  1.00  0.00     0.139 C 
ATOM     28  O   UNL     1      14.356  15.759  14.819  1.00  0.00    -0.253 OA
ENDBRANCH  25  26
ENDBRANCH   9  25
BRANCH  22  29
ATOM     29  C   UNL     1      13.576  12.034  17.469  1.00  0.00     0.206 C 
BRANCH  29  30
ATOM     30  O   UNL     1      14.920  11.646  17.693  1.00  0.00    -0.381 OA
ATOM     31  C   UNL     1      15.063  11.077  18.975  1.00  0.00     0.195 C 
ENDBRANCH  29  30
ENDBRANCH  22  29
TORSDOF 4
ENDMDL
MODEL 7
REMARK VINA RESULT:    -7.818      2.199      3.315
REMARK INTER + INTRA:         -10.392
REMARK INTER:                  -9.487
REMARK INTRA:                  -0.904
REMARK UNBOUND:                -0.745
REMARK SMILES COC[C@H]1OC(=O)c2coc3c2[C@@]1(C)C1=C(C3=O)[C@@H]2CCC(=O)[C@@]2(C)C[C@H]1OC(C)=O
REMARK SMILES IDX 19 1 20 2 21 3 22 4 23 5 24 6 25 7 26 8 27 9 15 10 16 11
REMARK SMILES IDX 17 12 18 13 11 14 12 15 8 16 9 17 10 18 6 19 7 20 5 21 4 22
REMARK SMILES IDX 13 23 14 24 28 25 29 26 30 27 31 28 3 29 2 30 1 31
REMARK H PARENT
REMARK Flexibility Score: inf
ROOT
ATOM      1  C   UNL     1       9.935  13.123  17.190  1.00  0.00     0.037 C 
ATOM      2  C   UNL     1       8.506  13.107  16.632  1.00  0.00     0.017 C 
ATOM      3  C   UNL     1       8.253  14.569  16.233  1.00  0.00     0.077 C 
ATOM      4  C   UNL     1       9.627  15.129  16.059  1.00  0.00     0.139 C 
ATOM      5  O   UNL     1       9.849  16.277  15.705  1.00  0.00    -0.299 OA
ATOM      6  C   UNL     1      10.688  14.108  16.299  1.00  0.00     0.037 C 
ATOM      7  C   UNL     1      11.118  13.529  14.924  1.00  0.00     0.020 C 
ATOM      8  C   UNL     1      11.896  14.581  17.107  1.00  0.00     0.065 C 
ATOM      9  C   UNL     1      12.798  13.378  17.522  1.00  0.00     0.205 C 
ATOM     10  C   UNL     1      12.092  11.997  17.682  1.00  0.00    -0.008 C 
ATOM     11  C   UNL     1      10.742  11.861  17.400  1.00  0.00     0.011 C 
ATOM     12  C   UNL     1      10.062  10.528  17.448  1.00  0.00     0.224 C 
ATOM     13  O   UNL     1       8.828  10.390  17.240  1.00  0.00    -0.285 OA
ATOM     14  C   UNL     1      10.856   9.375  17.809  1.00  0.00     0.179 A 
ATOM     15  C   UNL     1      12.188   9.486  17.990  1.00  0.00     0.030 A 
ATOM     16  C   UNL     1      12.594   8.320  18.557  1.00  0.00     0.103 A 
ATOM     17  C   UNL     1      11.478   7.506  18.629  1.00  0.00     0.212 A 
ATOM     18  O   UNL     1      10.440   8.174  18.156  1.00  0.00    -0.460 OA
ATOM     19  C   UNL     1      13.848   8.292  19.297  1.00  0.00     0.342 C 
ATOM     20  O   UNL     1      14.333   7.219  19.742  1.00  0.00    -0.246 OA
ATOM     21  O   UNL     1      14.501   9.521  19.497  1.00  0.00    -0.455 OA
ATOM     22  C   UNL     1      13.837  10.789  19.267  1.00  0.00     0.217 C 
ATOM     23  C   UNL     1      13.002  10.750  17.927  1.00  0.00     0.062 C 
ATOM     24  C   UNL     1      13.972  10.593  16.734  1.00  0.00     0.026 C 
ENDROOT
BRANCH   9  25
ATOM     25  O   UNL     1      13.495  13.719  18.720  1.00  0.00    -0.458 OA
BRANCH  25  26
ATOM     26  C   UNL     1      14.788  14.254  18.732  1.00  0.00     0.303 C 
ATOM     27  C   UNL     1      15.777  13.815  17.707  1.00  0.00     0.139 C 
ATOM     28  O   UNL     1      15.116  15.134  19.574  1.00  0.00    -0.253 OA
ENDBRANCH  25  26
ENDBRANCH   9  25
BRANCH  22  29
ATOM     29  C   UNL     1      12.960  11.121  20.499  1.00  0.00     0.206 C 
BRANCH  29  30
ATOM     30  O   UNL     1      13.657  10.857  21.704  1.00  0.00    -0.381 OA
ATOM     31  C   UNL     1      12.876  10.058  22.563  1.00  0.00     0.195 C 
ENDBRANCH  29  30
ENDBRANCH  22  29
TORSDOF 4
ENDMDL
MODEL 8
REMARK VINA RESULT:    -7.817      2.158      4.157
REMARK INTER + INTRA:         -10.390
REMARK INTER:                  -9.776
REMARK INTRA:                  -0.614
REMARK UNBOUND:                -0.745
REMARK SMILES COC[C@H]1OC(=O)c2coc3c2[C@@]1(C)C1=C(C3=O)[C@@H]2CCC(=O)[C@@]2(C)C[C@H]1OC(C)=O
REMARK SMILES IDX 19 1 20 2 21 3 22 4 23 5 24 6 25 7 26 8 27 9 15 10 16 11
REMARK SMILES IDX 17 12 18 13 11 14 12 15 8 16 9 17 10 18 6 19 7 20 5 21 4 22
REMARK SMILES IDX 13 23 14 24 28 25 29 26 30 27 31 28 3 29 2 30 1 31
REMARK H PARENT
REMARK Flexibility Score: inf
ROOT
ATOM      1  C   UNL     1      12.826  12.904  15.274  1.00  0.00     0.037 C 
ATOM      2  C   UNL     1      13.246  14.177  14.526  1.00  0.00     0.017 C 
ATOM      3  C   UNL     1      12.826  13.903  13.074  1.00  0.00     0.077 C 
ATOM      4  C   UNL     1      11.770  12.854  13.206  1.00  0.00     0.139 C 
ATOM      5  O   UNL     1      11.157  12.390  12.257  1.00  0.00    -0.299 OA
ATOM      6  C   UNL     1      11.505  12.493  14.629  1.00  0.00     0.037 C 
ATOM      7  C   UNL     1      10.276  13.309  15.111  1.00  0.00     0.020 C 
ATOM      8  C   UNL     1      11.333  11.002  14.917  1.00  0.00     0.065 C 
ATOM      9  C   UNL     1      11.333  10.724  16.451  1.00  0.00     0.205 C 
ATOM     10  C   UNL     1      12.124  11.728  17.344  1.00  0.00    -0.008 C 
ATOM     11  C   UNL     1      12.734  12.839  16.782  1.00  0.00     0.011 C 
ATOM     12  C   UNL     1      13.414  13.870  17.627  1.00  0.00     0.224 C 
ATOM     13  O   UNL     1      14.012  14.862  17.134  1.00  0.00    -0.285 OA
ATOM     14  C   UNL     1      13.427  13.672  19.059  1.00  0.00     0.179 A 
ATOM     15  C   UNL     1      12.754  12.645  19.618  1.00  0.00     0.030 A 
ATOM     16  C   UNL     1      13.162  12.580  20.912  1.00  0.00     0.103 A 
ATOM     17  C   UNL     1      14.030  13.640  21.106  1.00  0.00     0.212 A 
ATOM     18  O   UNL     1      14.160  14.290  19.962  1.00  0.00    -0.460 OA
ATOM     19  C   UNL     1      12.997  11.332  21.645  1.00  0.00     0.342 C 
ATOM     20  O   UNL     1      13.247  11.247  22.875  1.00  0.00    -0.246 OA
ATOM     21  O   UNL     1      12.546  10.217  20.917  1.00  0.00    -0.455 OA
ATOM     22  C   UNL     1      12.537  10.200  19.468  1.00  0.00     0.217 C 
ATOM     23  C   UNL     1      11.994  11.567  18.893  1.00  0.00     0.062 C 
ATOM     24  C   UNL     1      10.510  11.726  19.293  1.00  0.00     0.026 C 
ENDROOT
BRANCH   9  25
ATOM     25  O   UNL     1      11.793   9.392  16.676  1.00  0.00    -0.458 OA
BRANCH  25  26
ATOM     26  C   UNL     1      10.958   8.349  17.093  1.00  0.00     0.303 C 
ATOM     27  C   UNL     1      11.407   6.937  16.934  1.00  0.00     0.139 C 
ATOM     28  O   UNL     1       9.849   8.589  17.643  1.00  0.00    -0.253 OA
ENDBRANCH  25  26
ENDBRANCH   9  25
BRANCH  22  29
ATOM     29  C   UNL     1      13.966   9.874  18.966  1.00  0.00     0.206 C 
BRANCH  29  30
ATOM     30  O   UNL     1      14.551   8.842  19.739  1.00  0.00    -0.381 OA
ATOM     31  C   UNL     1      13.877   7.622  19.528  1.00  0.00     0.195 C 
ENDBRANCH  29  30
ENDBRANCH  22  29
TORSDOF 4
ENDMDL
MODEL 9
REMARK VINA RESULT:    -7.746      2.603      7.126
REMARK INTER + INTRA:         -10.303
REMARK INTER:                  -9.617
REMARK INTRA:                  -0.686
REMARK UNBOUND:                -0.745
REMARK SMILES COC[C@H]1OC(=O)c2coc3c2[C@@]1(C)C1=C(C3=O)[C@@H]2CCC(=O)[C@@]2(C)C[C@H]1OC(C)=O
REMARK SMILES IDX 19 1 20 2 21 3 22 4 23 5 24 6 25 7 26 8 27 9 15 10 16 11
REMARK SMILES IDX 17 12 18 13 11 14 12 15 8 16 9 17 10 18 6 19 7 20 5 21 4 22
REMARK SMILES IDX 13 23 14 24 28 25 29 26 30 27 31 28 3 29 2 30 1 31
REMARK H PARENT
REMARK Flexibility Score: inf
ROOT
ATOM      1  C   UNL     1      10.586  10.867  16.265  1.00  0.00     0.037 C 
ATOM      2  C   UNL     1      10.627   9.791  17.359  1.00  0.00     0.017 C 
ATOM      3  C   UNL     1      11.461   8.664  16.730  1.00  0.00     0.077 C 
ATOM      4  C   UNL     1      12.249   9.359  15.669  1.00  0.00     0.139 C 
ATOM      5  O   UNL     1      13.068   8.797  14.957  1.00  0.00    -0.299 OA
ATOM      6  C   UNL     1      11.972  10.825  15.626  1.00  0.00     0.037 C 
ATOM      7  C   UNL     1      13.077  11.547  16.444  1.00  0.00     0.020 C 
ATOM      8  C   UNL     1      11.821  11.434  14.233  1.00  0.00     0.065 C 
ATOM      9  C   UNL     1      11.272  12.892  14.316  1.00  0.00     0.205 C 
ATOM     10  C   UNL     1      10.385  13.236  15.550  1.00  0.00    -0.008 C 
ATOM     11  C   UNL     1      10.163  12.293  16.542  1.00  0.00     0.011 C 
ATOM     12  C   UNL     1       9.399  12.628  17.785  1.00  0.00     0.224 C 
ATOM     13  O   UNL     1       9.149  11.774  18.676  1.00  0.00    -0.285 OA
ATOM     14  C   UNL     1       8.884  13.972  17.922  1.00  0.00     0.179 A 
ATOM     15  C   UNL     1       9.177  14.918  17.007  1.00  0.00     0.030 A 
ATOM     16  C   UNL     1       8.359  15.970  17.270  1.00  0.00     0.103 A 
ATOM     17  C   UNL     1       7.639  15.637  18.404  1.00  0.00     0.212 A 
ATOM     18  O   UNL     1       7.991  14.419  18.781  1.00  0.00    -0.460 OA
ATOM     19  C   UNL     1       8.088  16.937  16.215  1.00  0.00     0.342 C 
ATOM     20  O   UNL     1       7.435  17.991  16.433  1.00  0.00    -0.246 OA
ATOM     21  O   UNL     1       8.588  16.645  14.935  1.00  0.00    -0.455 OA
ATOM     22  C   UNL     1       9.073  15.325  14.584  1.00  0.00     0.217 C 
ATOM     23  C   UNL     1       9.969  14.731  15.741  1.00  0.00     0.062 C 
ATOM     24  C   UNL     1      11.243  15.593  15.884  1.00  0.00     0.026 C 
ENDROOT
BRANCH   9  25
ATOM     25  O   UNL     1      10.574  13.188  13.106  1.00  0.00    -0.458 OA
BRANCH  25  26
ATOM     26  C   UNL     1      11.190  13.215  11.849  1.00  0.00     0.303 C 
ATOM     27  C   UNL     1      12.608  13.660  11.732  1.00  0.00     0.139 C 
ATOM     28  O   UNL     1      10.575  12.827  10.820  1.00  0.00    -0.253 OA
ENDBRANCH  25  26
ENDBRANCH   9  25
BRANCH  22  29
ATOM     29  C   UNL     1       7.860  14.421  14.253  1.00  0.00     0.206 C 
BRANCH  29  30
ATOM     30  O   UNL     1       7.056  15.002  13.241  1.00  0.00    -0.381 OA
ATOM     31  C   UNL     1       7.717  14.957  11.997  1.00  0.00     0.195 C 
ENDBRANCH  29  30
ENDBRANCH  22  29
TORSDOF 4
ENDMDL
MODEL 10
REMARK VINA RESULT:    -7.664      2.031      6.050
REMARK INTER + INTRA:         -10.201
REMARK INTER:                  -9.468
REMARK INTRA:                  -0.733
REMARK UNBOUND:                -0.745
REMARK SMILES COC[C@H]1OC(=O)c2coc3c2[C@@]1(C)C1=C(C3=O)[C@@H]2CCC(=O)[C@@]2(C)C[C@H]1OC(C)=O
REMARK SMILES IDX 19 1 20 2 21 3 22 4 23 5 24 6 25 7 26 8 27 9 15 10 16 11
REMARK SMILES IDX 17 12 18 13 11 14 12 15 8 16 9 17 10 18 6 19 7 20 5 21 4 22
REMARK SMILES IDX 13 23 14 24 28 25 29 26 30 27 31 28 3 29 2 30 1 31
REMARK H PARENT
REMARK Flexibility Score: inf
ROOT
ATOM      1  C   UNL     1      13.144   9.882  18.567  1.00  0.00     0.037 C 
ATOM      2  C   UNL     1      14.352   9.398  19.380  1.00  0.00     0.017 C 
ATOM      3  C   UNL     1      13.966   7.969  19.793  1.00  0.00     0.077 C 
ATOM      4  C   UNL     1      12.935   7.579  18.784  1.00  0.00     0.139 C 
ATOM      5  O   UNL     1      12.398   6.482  18.756  1.00  0.00    -0.299 OA
ATOM      6  C   UNL     1      12.688   8.655  17.781  1.00  0.00     0.037 C 
ATOM      7  C   UNL     1      13.544   8.346  16.524  1.00  0.00     0.020 C 
ATOM      8  C   UNL     1      11.225   8.901  17.413  1.00  0.00     0.065 C 
ATOM      9  C   UNL     1      11.070  10.209  16.577  1.00  0.00     0.205 C 
ATOM     10  C   UNL     1      12.139  11.319  16.811  1.00  0.00    -0.008 C 
ATOM     11  C   UNL     1      13.199  11.104  17.677  1.00  0.00     0.011 C 
ATOM     12  C   UNL     1      14.292  12.113  17.844  1.00  0.00     0.224 C 
ATOM     13  O   UNL     1      15.240  11.956  18.658  1.00  0.00    -0.285 OA
ATOM     14  C   UNL     1      14.208  13.336  17.077  1.00  0.00     0.179 A 
ATOM     15  C   UNL     1      13.231  13.509  16.163  1.00  0.00     0.030 A 
ATOM     16  C   UNL     1      13.269  14.821  15.810  1.00  0.00     0.103 A 
ATOM     17  C   UNL     1      14.338  15.382  16.485  1.00  0.00     0.212 A 
ATOM     18  O   UNL     1      14.894  14.449  17.239  1.00  0.00    -0.460 OA
ATOM     19  C   UNL     1      12.083  15.429  15.221  1.00  0.00     0.342 C 
ATOM     20  O   UNL     1      12.095  16.602  14.767  1.00  0.00    -0.246 OA
ATOM     21  O   UNL     1      10.916  14.647  15.180  1.00  0.00    -0.455 OA
ATOM     22  C   UNL     1      10.783  13.426  15.949  1.00  0.00     0.217 C 
ATOM     23  C   UNL     1      12.102  12.562  15.863  1.00  0.00     0.062 C 
ATOM     24  C   UNL     1      12.298  12.088  14.405  1.00  0.00     0.026 C 
ENDROOT
BRANCH   9  25
ATOM     25  O   UNL     1       9.759  10.732  16.784  1.00  0.00    -0.458 OA
BRANCH  25  26
ATOM     26  C   UNL     1       8.919  10.316  17.824  1.00  0.00     0.303 C 
ATOM     27  C   UNL     1       9.106  10.878  19.191  1.00  0.00     0.139 C 
ATOM     28  O   UNL     1       7.979   9.503  17.610  1.00  0.00    -0.253 OA
ENDBRANCH  25  26
ENDBRANCH   9  25
BRANCH  22  29
ATOM     29  C   UNL     1      10.414  13.795  17.407  1.00  0.00     0.206 C 
BRANCH  29  30
ATOM     30  O   UNL     1       9.383  14.766  17.439  1.00  0.00    -0.381 OA
ATOM     31  C   UNL     1       8.363  14.376  18.330  1.00  0.00     0.195 C 
ENDBRANCH  29  30
ENDBRANCH  22  29
TORSDOF 4
ENDMDL
MODEL 11
REMARK VINA RESULT:    -7.632      2.189      3.286
REMARK INTER + INTRA:         -10.162
REMARK INTER:                  -9.458
REMARK INTRA:                  -0.703
REMARK UNBOUND:                -0.745
REMARK SMILES COC[C@H]1OC(=O)c2coc3c2[C@@]1(C)C1=C(C3=O)[C@@H]2CCC(=O)[C@@]2(C)C[C@H]1OC(C)=O
REMARK SMILES IDX 19 1 20 2 21 3 22 4 23 5 24 6 25 7 26 8 27 9 15 10 16 11
REMARK SMILES IDX 17 12 18 13 11 14 12 15 8 16 9 17 10 18 6 19 7 20 5 21 4 22
REMARK SMILES IDX 13 23 14 24 28 25 29 26 30 27 31 28 3 29 2 30 1 31
REMARK H PARENT
REMARK Flexibility Score: inf
ROOT
ATOM      1  C   UNL     1       9.894  12.801  18.170  1.00  0.00     0.037 C 
ATOM      2  C   UNL     1       8.666  12.788  17.248  1.00  0.00     0.017 C 
ATOM      3  C   UNL     1       8.242  14.264  17.184  1.00  0.00     0.077 C 
ATOM      4  C   UNL     1       9.487  15.003  17.552  1.00  0.00     0.139 C 
ATOM      5  O   UNL     1       9.566  16.221  17.582  1.00  0.00    -0.299 OA
ATOM      6  C   UNL     1      10.635  14.086  17.810  1.00  0.00     0.037 C 
ATOM      7  C   UNL     1      11.480  13.995  16.510  1.00  0.00     0.020 C 
ATOM      8  C   UNL     1      11.506  14.431  19.018  1.00  0.00     0.065 C 
ATOM      9  C   UNL     1      12.495  13.270  19.346  1.00  0.00     0.205 C 
ATOM     10  C   UNL     1      12.046  11.834  18.941  1.00  0.00    -0.008 C 
ATOM     11  C   UNL     1      10.851  11.634  18.266  1.00  0.00     0.011 C 
ATOM     12  C   UNL     1      10.444  10.279  17.778  1.00  0.00     0.224 C 
ATOM     13  O   UNL     1       9.343  10.069  17.204  1.00  0.00    -0.285 OA
ATOM     14  C   UNL     1      11.334   9.169  18.038  1.00  0.00     0.179 A 
ATOM     15  C   UNL     1      12.539   9.373  18.608  1.00  0.00     0.030 A 
ATOM     16  C   UNL     1      13.013   8.145  18.947  1.00  0.00     0.103 A 
ATOM     17  C   UNL     1      12.086   7.224  18.492  1.00  0.00     0.212 A 
ATOM     18  O   UNL     1      11.083   7.880  17.935  1.00  0.00    -0.460 OA
ATOM     19  C   UNL     1      14.038   8.042  19.976  1.00  0.00     0.342 C 
ATOM     20  O   UNL     1      14.598   6.948  20.249  1.00  0.00    -0.246 OA
ATOM     21  O   UNL     1      14.381   9.222  20.660  1.00  0.00    -0.455 OA
ATOM     22  C   UNL     1      13.562  10.416  20.586  1.00  0.00     0.217 C 
ATOM     23  C   UNL     1      13.091  10.682  19.103  1.00  0.00     0.062 C 
ATOM     24  C   UNL     1      14.328  11.000  18.231  1.00  0.00     0.026 C 
ENDROOT
BRANCH   9  25
ATOM     25  O   UNL     1      12.811  13.317  20.736  1.00  0.00    -0.458 OA
BRANCH  25  26
ATOM     26  C   UNL     1      13.905  14.020  21.254  1.00  0.00     0.303 C 
ATOM     27  C   UNL     1      15.270  13.759  20.715  1.00  0.00     0.139 C 
ATOM     28  O   UNL     1      13.747  14.901  22.141  1.00  0.00    -0.253 OA
ENDBRANCH  25  26
ENDBRANCH   9  25
BRANCH  22  29
ATOM     29  C   UNL     1      12.372  10.264  21.565  1.00  0.00     0.206 C 
BRANCH  29  30
ATOM     30  O   UNL     1      12.592   9.195  22.468  1.00  0.00    -0.381 OA
ATOM     31  C   UNL     1      12.870   9.686  23.759  1.00  0.00     0.195 C 
ENDBRANCH  29  30
ENDBRANCH  22  29
TORSDOF 4
ENDMDL
MODEL 12
REMARK VINA RESULT:    -7.560      1.862      5.935
REMARK INTER + INTRA:         -10.074
REMARK INTER:                  -9.337
REMARK INTRA:                  -0.736
REMARK UNBOUND:                -0.745
REMARK SMILES COC[C@H]1OC(=O)c2coc3c2[C@@]1(C)C1=C(C3=O)[C@@H]2CCC(=O)[C@@]2(C)C[C@H]1OC(C)=O
REMARK SMILES IDX 19 1 20 2 21 3 22 4 23 5 24 6 25 7 26 8 27 9 15 10 16 11
REMARK SMILES IDX 17 12 18 13 11 14 12 15 8 16 9 17 10 18 6 19 7 20 5 21 4 22
REMARK SMILES IDX 13 23 14 24 28 25 29 26 30 27 31 28 3 29 2 30 1 31
REMARK H PARENT
REMARK Flexibility Score: inf
ROOT
ATOM      1  C   UNL     1      12.309  10.506  16.725  1.00  0.00     0.037 C 
ATOM      2  C   UNL     1      12.835   9.901  15.416  1.00  0.00     0.017 C 
ATOM      3  C   UNL     1      13.776   8.780  15.885  1.00  0.00     0.077 C 
ATOM      4  C   UNL     1      13.299   8.476  17.267  1.00  0.00     0.139 C 
ATOM      5  O   UNL     1      13.782   7.603  17.972  1.00  0.00    -0.299 OA
ATOM      6  C   UNL     1      12.127   9.312  17.659  1.00  0.00     0.037 C 
ATOM      7  C   UNL     1      10.839   8.485  17.399  1.00  0.00     0.020 C 
ATOM      8  C   UNL     1      12.152   9.872  19.081  1.00  0.00     0.065 C 
ATOM      9  C   UNL     1      11.030  10.935  19.284  1.00  0.00     0.205 C 
ATOM     10  C   UNL     1      10.569  11.717  18.017  1.00  0.00    -0.008 C 
ATOM     11  C   UNL     1      11.102  11.417  16.773  1.00  0.00     0.011 C 
ATOM     12  C   UNL     1      10.606  12.082  15.527  1.00  0.00     0.224 C 
ATOM     13  O   UNL     1      11.107  11.856  14.394  1.00  0.00    -0.285 OA
ATOM     14  C   UNL     1       9.552  13.063  15.656  1.00  0.00     0.179 A 
ATOM     15  C   UNL     1       8.965  13.289  16.849  1.00  0.00     0.030 A 
ATOM     16  C   UNL     1       8.218  14.414  16.699  1.00  0.00     0.103 A 
ATOM     17  C   UNL     1       8.330  14.789  15.372  1.00  0.00     0.212 A 
ATOM     18  O   UNL     1       9.140  13.940  14.763  1.00  0.00    -0.460 OA
ATOM     19  C   UNL     1       7.848  15.180  17.882  1.00  0.00     0.342 C 
ATOM     20  O   UNL     1       7.062  16.161  17.818  1.00  0.00    -0.246 OA
ATOM     21  O   UNL     1       8.406  14.777  19.107  1.00  0.00    -0.455 OA
ATOM     22  C   UNL     1       9.527  13.860  19.174  1.00  0.00     0.217 C 
ATOM     23  C   UNL     1       9.332  12.660  18.166  1.00  0.00     0.062 C 
ATOM     24  C   UNL     1       8.112  11.822  18.612  1.00  0.00     0.026 C 
ENDROOT
BRANCH   9  25
ATOM     25  O   UNL     1      11.440  11.844  20.305  1.00  0.00    -0.458 OA
BRANCH  25  26
ATOM     26  C   UNL     1      12.764  11.964  20.743  1.00  0.00     0.303 C 
ATOM     27  C   UNL     1      13.773  12.624  19.866  1.00  0.00     0.139 C 
ATOM     28  O   UNL     1      13.106  11.560  21.887  1.00  0.00    -0.253 OA
ENDBRANCH  25  26
ENDBRANCH   9  25
BRANCH  22  29
ATOM     29  C   UNL     1      10.832  14.650  18.906  1.00  0.00     0.206 C 
BRANCH  29  30
ATOM     30  O   UNL     1      10.866  15.845  19.665  1.00  0.00    -0.381 OA
ATOM     31  C   UNL     1      12.152  16.052  20.203  1.00  0.00     0.195 C 
ENDBRANCH  29  30
ENDBRANCH  22  29
TORSDOF 4
ENDMDL
MODEL 13
REMARK VINA RESULT:    -7.544      2.477      5.223
REMARK INTER + INTRA:         -10.053
REMARK INTER:                  -9.461
REMARK INTRA:                  -0.592
REMARK UNBOUND:                -0.745
REMARK SMILES COC[C@H]1OC(=O)c2coc3c2[C@@]1(C)C1=C(C3=O)[C@@H]2CCC(=O)[C@@]2(C)C[C@H]1OC(C)=O
REMARK SMILES IDX 19 1 20 2 21 3 22 4 23 5 24 6 25 7 26 8 27 9 15 10 16 11
REMARK SMILES IDX 17 12 18 13 11 14 12 15 8 16 9 17 10 18 6 19 7 20 5 21 4 22
REMARK SMILES IDX 13 23 14 24 28 25 29 26 30 27 31 28 3 29 2 30 1 31
REMARK H PARENT
REMARK Flexibility Score: inf
ROOT
ATOM      1  C   UNL     1      14.666  14.649  16.465  1.00  0.00     0.037 C 
ATOM      2  C   UNL     1      15.536  15.437  17.453  1.00  0.00     0.017 C 
ATOM      3  C   UNL     1      16.149  16.552  16.591  1.00  0.00     0.077 C 
ATOM      4  C   UNL     1      15.210  16.658  15.434  1.00  0.00     0.139 C 
ATOM      5  O   UNL     1      15.340  17.470  14.531  1.00  0.00    -0.299 OA
ATOM      6  C   UNL     1      14.064  15.709  15.546  1.00  0.00     0.037 C 
ATOM      7  C   UNL     1      12.861  16.477  16.156  1.00  0.00     0.020 C 
ATOM      8  C   UNL     1      13.670  14.986  14.258  1.00  0.00     0.065 C 
ATOM      9  C   UNL     1      12.656  13.837  14.549  1.00  0.00     0.205 C 
ATOM     10  C   UNL     1      12.725  13.185  15.963  1.00  0.00    -0.008 C 
ATOM     11  C   UNL     1      13.610  13.664  16.916  1.00  0.00     0.011 C 
ATOM     12  C   UNL     1      13.627  13.122  18.311  1.00  0.00     0.224 C 
ATOM     13  O   UNL     1      14.452  13.512  19.179  1.00  0.00    -0.285 OA
ATOM     14  C   UNL     1      12.694  12.068  18.641  1.00  0.00     0.179 A 
ATOM     15  C   UNL     1      11.768  11.665  17.747  1.00  0.00     0.030 A 
ATOM     16  C   UNL     1      11.231  10.520  18.245  1.00  0.00     0.103 A 
ATOM     17  C   UNL     1      11.815  10.314  19.481  1.00  0.00     0.212 A 
ATOM     18  O   UNL     1      12.693  11.280  19.696  1.00  0.00    -0.460 OA
ATOM     19  C   UNL     1      10.565   9.598  17.335  1.00  0.00     0.342 C 
ATOM     20  O   UNL     1       9.948   8.583  17.753  1.00  0.00    -0.246 OA
ATOM     21  O   UNL     1      10.640   9.886  15.962  1.00  0.00    -0.455 OA
ATOM     22  C   UNL     1      11.576  10.857  15.432  1.00  0.00     0.217 C 
ATOM     23  C   UNL     1      11.609  12.154  16.333  1.00  0.00     0.062 C 
ATOM     24  C   UNL     1      10.233  12.854  16.258  1.00  0.00     0.026 C 
ENDROOT
BRANCH   9  25
ATOM     25  O   UNL     1      12.790  12.841  13.536  1.00  0.00    -0.458 OA
BRANCH  25  26
ATOM     26  C   UNL     1      12.325  13.007  12.226  1.00  0.00     0.303 C 
ATOM     27  C   UNL     1      13.302  13.161  11.111  1.00  0.00     0.139 C 
ATOM     28  O   UNL     1      11.091  12.986  11.970  1.00  0.00    -0.253 OA
ENDBRANCH  25  26
ENDBRANCH   9  25
BRANCH  22  29
ATOM     29  C   UNL     1      12.968  10.189  15.307  1.00  0.00     0.206 C 
BRANCH  29  30
ATOM     30  O   UNL     1      12.855   8.777  15.323  1.00  0.00    -0.381 OA
ATOM     31  C   UNL     1      13.715   8.223  16.293  1.00  0.00     0.195 C 
ENDBRANCH  29  30
ENDBRANCH  22  29
TORSDOF 4
ENDMDL
MODEL 14
REMARK VINA RESULT:    -7.493      1.798      2.610
REMARK INTER + INTRA:          -9.990
REMARK INTER:                  -9.160
REMARK INTRA:                  -0.831
REMARK UNBOUND:                -0.745
REMARK SMILES COC[C@H]1OC(=O)c2coc3c2[C@@]1(C)C1=C(C3=O)[C@@H]2CCC(=O)[C@@]2(C)C[C@H]1OC(C)=O
REMARK SMILES IDX 19 1 20 2 21 3 22 4 23 5 24 6 25 7 26 8 27 9 15 10 16 11
REMARK SMILES IDX 17 12 18 13 11 14 12 15 8 16 9 17 10 18 6 19 7 20 5 21 4 22
REMARK SMILES IDX 13 23 14 24 28 25 29 26 30 27 31 28 3 29 2 30 1 31
REMARK H PARENT
REMARK Flexibility Score: inf
ROOT
ATOM      1  C   UNL     1      11.291  13.805  15.259  1.00  0.00     0.037 C 
ATOM      2  C   UNL     1      10.743  14.018  13.841  1.00  0.00     0.017 C 
ATOM      3  C   UNL     1      10.599  15.544  13.731  1.00  0.00     0.077 C 
ATOM      4  C   UNL     1      11.541  16.062  14.768  1.00  0.00     0.139 C 
ATOM      5  O   UNL     1      11.738  17.251  14.969  1.00  0.00    -0.299 OA
ATOM      6  C   UNL     1      12.260  14.965  15.479  1.00  0.00     0.037 C 
ATOM      7  C   UNL     1      13.644  14.779  14.802  1.00  0.00     0.020 C 
ATOM      8  C   UNL     1      12.396  15.128  16.992  1.00  0.00     0.065 C 
ATOM      9  C   UNL     1      12.915  13.814  17.653  1.00  0.00     0.205 C 
ATOM     10  C   UNL     1      12.578  12.481  16.918  1.00  0.00    -0.008 C 
ATOM     11  C   UNL     1      11.905  12.497  15.706  1.00  0.00     0.011 C 
ATOM     12  C   UNL     1      11.656  11.241  14.931  1.00  0.00     0.224 C 
ATOM     13  O   UNL     1      11.008  11.228  13.852  1.00  0.00    -0.285 OA
ATOM     14  C   UNL     1      12.133   9.995  15.489  1.00  0.00     0.179 A 
ATOM     15  C   UNL     1      12.871   9.985  16.618  1.00  0.00     0.030 A 
ATOM     16  C   UNL     1      12.943   8.687  17.014  1.00  0.00     0.103 A 
ATOM     17  C   UNL     1      12.292   7.941  16.048  1.00  0.00     0.212 A 
ATOM     18  O   UNL     1      11.821   8.767  15.128  1.00  0.00    -0.460 OA
ATOM     19  C   UNL     1      13.249   8.389  18.407  1.00  0.00     0.342 C 
ATOM     20  O   UNL     1      13.444   7.211  18.806  1.00  0.00    -0.246 OA
ATOM     21  O   UNL     1      13.319   9.476  19.295  1.00  0.00    -0.455 OA
ATOM     22  C   UNL     1      12.814  10.788  18.941  1.00  0.00     0.217 C 
ATOM     23  C   UNL     1      13.232  11.172  17.468  1.00  0.00     0.062 C 
ATOM     24  C   UNL     1      14.770  11.313  17.402  1.00  0.00     0.026 C 
ENDROOT
BRANCH   9  25
ATOM     25  O   UNL     1      12.453  13.766  19.002  1.00  0.00    -0.458 OA
BRANCH  25  26
ATOM     26  C   UNL     1      13.166  14.305  20.080  1.00  0.00     0.303 C 
ATOM     27  C   UNL     1      14.389  13.613  20.574  1.00  0.00     0.139 C 
ATOM     28  O   UNL     1      12.810  15.392  20.611  1.00  0.00    -0.253 OA
ENDBRANCH  25  26
ENDBRANCH   9  25
BRANCH  22  29
ATOM     29  C   UNL     1      11.278  10.799  19.141  1.00  0.00     0.206 C 
BRANCH  29  30
ATOM     30  O   UNL     1      10.940  10.501  20.484  1.00  0.00    -0.381 OA
ATOM     31  C   UNL     1       9.593  10.094  20.576  1.00  0.00     0.195 C 
ENDBRANCH  29  30
ENDBRANCH  22  29
TORSDOF 4
ENDMDL
MODEL 15
REMARK VINA RESULT:    -7.398      2.699      4.999
REMARK INTER + INTRA:          -9.873
REMARK INTER:                  -9.341
REMARK INTRA:                  -0.533
REMARK UNBOUND:                -0.745
REMARK SMILES COC[C@H]1OC(=O)c2coc3c2[C@@]1(C)C1=C(C3=O)[C@@H]2CCC(=O)[C@@]2(C)C[C@H]1OC(C)=O
REMARK SMILES IDX 19 1 20 2 21 3 22 4 23 5 24 6 25 7 26 8 27 9 15 10 16 11
REMARK SMILES IDX 17 12 18 13 11 14 12 15 8 16 9 17 10 18 6 19 7 20 5 21 4 22
REMARK SMILES IDX 13 23 14 24 28 25 29 26 30 27 31 28 3 29 2 30 1 31
REMARK H PARENT
REMARK Flexibility Score: inf
ROOT
ATOM      1  C   UNL     1      15.669  12.818  17.829  1.00  0.00     0.037 C 
ATOM      2  C   UNL     1      16.903  12.496  18.682  1.00  0.00     0.017 C 
ATOM      3  C   UNL     1      17.921  13.571  18.273  1.00  0.00     0.077 C 
ATOM      4  C   UNL     1      17.071  14.666  17.717  1.00  0.00     0.139 C 
ATOM      5  O   UNL     1      17.518  15.727  17.308  1.00  0.00    -0.299 OA
ATOM      6  C   UNL     1      15.616  14.343  17.783  1.00  0.00     0.037 C 
ATOM      7  C   UNL     1      15.035  15.003  19.063  1.00  0.00     0.020 C 
ATOM      8  C   UNL     1      14.795  14.707  16.546  1.00  0.00     0.065 C 
ATOM      9  C   UNL     1      13.367  14.086  16.619  1.00  0.00     0.205 C 
ATOM     10  C   UNL     1      13.217  12.772  17.444  1.00  0.00    -0.008 C 
ATOM     11  C   UNL     1      14.302  12.240  18.123  1.00  0.00     0.011 C 
ATOM     12  C   UNL     1      14.163  11.037  19.002  1.00  0.00     0.224 C 
ATOM     13  O   UNL     1      15.144  10.511  19.591  1.00  0.00    -0.285 OA
ATOM     14  C   UNL     1      12.855  10.432  19.121  1.00  0.00     0.179 A 
ATOM     15  C   UNL     1      11.778  11.001  18.541  1.00  0.00     0.030 A 
ATOM     16  C   UNL     1      10.778  10.085  18.614  1.00  0.00     0.103 A 
ATOM     17  C   UNL     1      11.281   9.004  19.315  1.00  0.00     0.212 A 
ATOM     18  O   UNL     1      12.544   9.252  19.618  1.00  0.00    -0.460 OA
ATOM     19  C   UNL     1       9.656  10.188  17.690  1.00  0.00     0.342 C 
ATOM     20  O   UNL     1       8.647   9.442  17.786  1.00  0.00    -0.246 OA
ATOM     21  O   UNL     1       9.746  11.160  16.678  1.00  0.00    -0.455 OA
ATOM     22  C   UNL     1      10.997  11.818  16.358  1.00  0.00     0.217 C 
ATOM     23  C   UNL     1      11.769  12.229  17.673  1.00  0.00     0.062 C 
ATOM     24  C   UNL     1      10.944  13.298  18.426  1.00  0.00     0.026 C 
ENDROOT
BRANCH   9  25
ATOM     25  O   UNL     1      12.882  13.894  15.290  1.00  0.00    -0.458 OA
BRANCH  25  26
ATOM     26  C   UNL     1      12.168  14.869  14.583  1.00  0.00     0.303 C 
ATOM     27  C   UNL     1      10.871  15.367  15.122  1.00  0.00     0.139 C 
ATOM     28  O   UNL     1      12.628  15.362  13.518  1.00  0.00    -0.253 OA
ENDBRANCH  25  26
ENDBRANCH   9  25
BRANCH  22  29
ATOM     29  C   UNL     1      11.834  10.882  15.451  1.00  0.00     0.206 C 
BRANCH  29  30
ATOM     30  O   UNL     1      11.275   9.581  15.414  1.00  0.00    -0.381 OA
ATOM     31  C   UNL     1      12.262   8.611  15.682  1.00  0.00     0.195 C 
ENDBRANCH  29  30
ENDBRANCH  22  29
TORSDOF 4
ENDMDL
