MODEL 1
REMARK VINA RESULT:   -12.205      0.000      0.000
REMARK INTER + INTRA:         -16.946
REMARK INTER:                 -17.200
REMARK INTRA:                   0.254
REMARK UNBOUND:                 0.254
REMARK SMILES Cc1ccc(C(=O)Nc2ccc(CN3CCN(C)CC3)c(C(F)(F)F)c2)cc1C#Cc1cnc2cccnn12
REMARK SMILES IDX 8 1 6 2 7 3 9 5 12 6 11 7 21 8 10 9 26 10 13 11 14 12 18 13
REMARK SMILES IDX 17 14 16 15 19 16 15 17 20 18 22 19 23 20 24 21 25 22 5 23
REMARK SMILES IDX 27 24 4 25 28 26 3 27 2 28 1 29 29 30 30 31 31 32 32 33
REMARK SMILES IDX 39 34 33 35 34 36 38 37 35 38 37 39 36 40
REMARK H PARENT 8 4
REMARK Flexibility Score: inf
ROOT
ATOM      1  N   UNL     1      25.930  22.026  36.123  1.00  0.00    -0.322 N 
ATOM      2  C   UNL     1      24.868  22.953  36.403  1.00  0.00     0.255 C 
ATOM      3  O   UNL     1      24.248  23.499  35.449  1.00  0.00    -0.269 OA
ATOM      4  H   UNL     1      26.143  21.288  36.833  1.00  0.00     0.170 HD
ENDROOT
BRANCH   1   5
ATOM      5  C   UNL     1      26.604  21.945  34.855  1.00  0.00     0.042 A 
ATOM      6  C   UNL     1      27.856  21.769  32.329  1.00  0.00    -0.022 A 
ATOM      7  C   UNL     1      28.216  20.903  33.379  1.00  0.00     0.008 A 
ATOM      8  C   UNL     1      26.838  22.741  32.547  1.00  0.00     0.062 A 
ATOM      9  C   UNL     1      27.600  20.989  34.625  1.00  0.00     0.026 A 
ATOM     10  C   UNL     1      26.214  22.794  33.812  1.00  0.00     0.039 A 
BRANCH   6  11
ATOM     11  C   UNL     1      28.563  21.595  30.997  1.00  0.00     0.120 C 
BRANCH  11  12
ATOM     12  N   UNL     1      27.785  20.752  30.060  1.00  0.00    -0.297 NA
ATOM     13  C   UNL     1      30.453  17.548  30.342  1.00  0.00     0.105 C 
ATOM     14  N   UNL     1      29.589  18.735  30.282  1.00  0.00    -0.304 NA
ATOM     15  C   UNL     1      28.344  18.508  31.046  1.00  0.00     0.099 C 
ATOM     16  C   UNL     1      29.290  19.089  28.885  1.00  0.00     0.099 C 
ATOM     17  C   UNL     1      27.242  19.525  30.681  1.00  0.00     0.100 C 
ATOM     18  C   UNL     1      28.544  20.440  28.824  1.00  0.00     0.100 C 
ENDBRANCH  11  12
ENDBRANCH   6  11
BRANCH   8  19
ATOM     19  C   UNL     1      26.370  23.685  31.451  1.00  0.00     0.416 C 
ATOM     20  F   UNL     1      27.420  24.093  30.645  1.00  0.00    -0.166 F 
ATOM     21  F   UNL     1      25.443  23.061  30.636  1.00  0.00    -0.166 F 
ATOM     22  F   UNL     1      25.803  24.812  32.013  1.00  0.00    -0.166 F 
ENDBRANCH   8  19
ENDBRANCH   1   5
BRANCH   2  23
ATOM     23  C   UNL     1      24.448  23.227  37.799  1.00  0.00     0.041 A 
ATOM     24  C   UNL     1      23.379  24.103  38.059  1.00  0.00     0.031 A 
ATOM     25  C   UNL     1      25.107  22.622  38.881  1.00  0.00     0.014 A 
ATOM     26  C   UNL     1      22.961  24.355  39.373  1.00  0.00     0.029 A 
ATOM     27  C   UNL     1      24.700  22.875  40.193  1.00  0.00     0.005 A 
ATOM     28  C   UNL     1      23.628  23.740  40.454  1.00  0.00    -0.035 A 
ATOM     29  C   UNL     1      23.190  23.977  41.875  1.00  0.00     0.045 C 
BRANCH  26  30
ATOM     30  C   UNL     1      21.839  25.237  39.594  1.00  0.00    -0.060 C 
ATOM     31  C   UNL     1      20.908  25.977  39.788  1.00  0.00    -0.040 C 
BRANCH  31  32
ATOM     32  C   UNL     1      19.801  26.862  40.029  1.00  0.00     0.135 A 
ATOM     33  C   UNL     1      19.800  28.243  39.929  1.00  0.00     0.151 A 
ATOM     34  N   UNL     1      18.570  26.490  40.390  1.00  0.00    -0.205 N 
ATOM     35  N   UNL     1      18.565  28.725  40.230  1.00  0.00    -0.234 NA
ATOM     36  C   UNL     1      17.852  27.613  40.504  1.00  0.00     0.154 A 
ATOM     37  N   UNL     1      18.086  25.269  40.611  1.00  0.00    -0.174 NA
ATOM     38  C   UNL     1      16.513  27.554  40.875  1.00  0.00     0.051 A 
ATOM     39  C   UNL     1      16.779  25.136  40.979  1.00  0.00     0.134 A 
ATOM     40  C   UNL     1      15.969  26.282  41.118  1.00  0.00     0.026 A 
ENDBRANCH  31  32
ENDBRANCH  26  30
ENDBRANCH   2  23
TORSDOF 7
ENDMDL
MODEL 2
REMARK VINA RESULT:   -11.810      7.323     13.406
REMARK INTER + INTRA:         -16.389
REMARK INTER:                 -15.470
REMARK INTRA:                  -0.919
REMARK UNBOUND:                 0.254
REMARK SMILES Cc1ccc(C(=O)Nc2ccc(CN3CCN(C)CC3)c(C(F)(F)F)c2)cc1C#Cc1cnc2cccnn12
REMARK SMILES IDX 8 1 6 2 7 3 9 5 12 6 11 7 21 8 10 9 26 10 13 11 14 12 18 13
REMARK SMILES IDX 17 14 16 15 19 16 15 17 20 18 22 19 23 20 24 21 25 22 5 23
REMARK SMILES IDX 27 24 4 25 28 26 3 27 2 28 1 29 29 30 30 31 31 32 32 33
REMARK SMILES IDX 39 34 33 35 34 36 38 37 35 38 37 39 36 40
REMARK H PARENT 8 4
REMARK Flexibility Score: inf
ROOT
ATOM      1  N   UNL     1      14.035  23.760  40.009  1.00  0.00    -0.322 N 
ATOM      2  C   UNL     1      14.220  25.153  39.704  1.00  0.00     0.255 C 
ATOM      3  O   UNL     1      13.327  25.776  39.064  1.00  0.00    -0.269 OA
ATOM      4  H   UNL     1      14.518  23.370  40.851  1.00  0.00     0.170 HD
ENDROOT
BRANCH   1   5
ATOM      5  C   UNL     1      13.094  22.913  39.327  1.00  0.00     0.042 A 
ATOM      6  C   UNL     1      11.274  21.278  37.916  1.00  0.00    -0.022 A 
ATOM      7  C   UNL     1      10.819  22.279  38.795  1.00  0.00     0.008 A 
ATOM      8  C   UNL     1      12.675  21.097  37.732  1.00  0.00     0.062 A 
ATOM      9  C   UNL     1      11.715  23.085  39.491  1.00  0.00     0.026 A 
ATOM     10  C   UNL     1      13.562  21.942  38.433  1.00  0.00     0.039 A 
BRANCH   6  11
ATOM     11  C   UNL     1      10.230  20.456  37.181  1.00  0.00     0.120 C 
BRANCH  11  12
ATOM     12  N   UNL     1       9.450  21.274  36.224  1.00  0.00    -0.297 NA
ATOM     13  C   UNL     1       8.575  18.007  33.768  1.00  0.00     0.105 C 
ATOM     14  N   UNL     1       8.959  19.100  34.674  1.00  0.00    -0.304 NA
ATOM     15  C   UNL     1       7.806  19.512  35.503  1.00  0.00     0.099 C 
ATOM     16  C   UNL     1       9.493  20.241  33.913  1.00  0.00     0.099 C 
ATOM     17  C   UNL     1       8.021  20.896  36.153  1.00  0.00     0.100 C 
ATOM     18  C   UNL     1      10.067  21.304  34.876  1.00  0.00     0.100 C 
ENDBRANCH  11  12
ENDBRANCH   6  11
BRANCH   8  19
ATOM     19  C   UNL     1      13.240  20.063  36.772  1.00  0.00     0.416 C 
ATOM     20  F   UNL     1      12.660  18.820  36.959  1.00  0.00    -0.166 F 
ATOM     21  F   UNL     1      13.004  20.436  35.462  1.00  0.00    -0.166 F 
ATOM     22  F   UNL     1      14.601  19.932  36.974  1.00  0.00    -0.166 F 
ENDBRANCH   8  19
ENDBRANCH   1   5
BRANCH   2  23
ATOM     23  C   UNL     1      15.416  25.885  40.188  1.00  0.00     0.041 A 
ATOM     24  C   UNL     1      16.702  25.487  39.782  1.00  0.00     0.031 A 
ATOM     25  C   UNL     1      15.287  26.980  41.057  1.00  0.00     0.014 A 
ATOM     26  C   UNL     1      17.838  26.183  40.218  1.00  0.00     0.029 A 
ATOM     27  C   UNL     1      16.415  27.673  41.500  1.00  0.00     0.005 A 
ATOM     28  C   UNL     1      17.699  27.285  41.089  1.00  0.00    -0.035 A 
ATOM     29  C   UNL     1      18.899  28.063  41.558  1.00  0.00     0.045 C 
BRANCH  26  30
ATOM     30  C   UNL     1      19.139  25.761  39.752  1.00  0.00    -0.060 C 
ATOM     31  C   UNL     1      20.218  25.400  39.357  1.00  0.00    -0.040 C 
BRANCH  31  32
ATOM     32  C   UNL     1      21.502  24.962  38.881  1.00  0.00     0.135 A 
ATOM     33  C   UNL     1      21.976  25.020  37.582  1.00  0.00     0.151 A 
ATOM     34  N   UNL     1      22.467  24.420  39.631  1.00  0.00    -0.205 N 
ATOM     35  N   UNL     1      23.235  24.513  37.527  1.00  0.00    -0.234 NA
ATOM     36  C   UNL     1      23.488  24.162  38.806  1.00  0.00     0.154 A 
ATOM     37  N   UNL     1      22.480  24.162  40.937  1.00  0.00    -0.174 NA
ATOM     38  C   UNL     1      24.655  23.585  39.295  1.00  0.00     0.051 A 
ATOM     39  C   UNL     1      23.593  23.596  41.485  1.00  0.00     0.134 A 
ATOM     40  C   UNL     1      24.703  23.297  40.668  1.00  0.00     0.026 A 
ENDBRANCH  31  32
ENDBRANCH  26  30
ENDBRANCH   2  23
TORSDOF 7
ENDMDL
MODEL 3
REMARK VINA RESULT:   -11.779      7.168     13.284
REMARK INTER + INTRA:         -16.346
REMARK INTER:                 -15.321
REMARK INTRA:                  -1.025
REMARK UNBOUND:                 0.254
REMARK SMILES Cc1ccc(C(=O)Nc2ccc(CN3CCN(C)CC3)c(C(F)(F)F)c2)cc1C#Cc1cnc2cccnn12
REMARK SMILES IDX 8 1 6 2 7 3 9 5 12 6 11 7 21 8 10 9 26 10 13 11 14 12 18 13
REMARK SMILES IDX 17 14 16 15 19 16 15 17 20 18 22 19 23 20 24 21 25 22 5 23
REMARK SMILES IDX 27 24 4 25 28 26 3 27 2 28 1 29 29 30 30 31 31 32 32 33
REMARK SMILES IDX 39 34 33 35 34 36 38 37 35 38 37 39 36 40
REMARK H PARENT 8 4
REMARK Flexibility Score: inf
ROOT
ATOM      1  N   UNL     1      14.286  23.917  40.081  1.00  0.00    -0.322 N 
ATOM      2  C   UNL     1      14.518  25.275  39.670  1.00  0.00     0.255 C 
ATOM      3  O   UNL     1      13.679  25.852  38.923  1.00  0.00    -0.269 OA
ATOM      4  H   UNL     1      14.708  23.594  40.983  1.00  0.00     0.170 HD
ENDROOT
BRANCH   1   5
ATOM      5  C   UNL     1      13.373  23.027  39.416  1.00  0.00     0.042 A 
ATOM      6  C   UNL     1      11.604  21.309  38.038  1.00  0.00    -0.022 A 
ATOM      7  C   UNL     1      11.119  22.294  38.919  1.00  0.00     0.008 A 
ATOM      8  C   UNL     1      13.009  21.188  37.835  1.00  0.00     0.062 A 
ATOM      9  C   UNL     1      11.990  23.141  39.599  1.00  0.00     0.026 A 
ATOM     10  C   UNL     1      13.869  22.072  38.520  1.00  0.00     0.039 A 
BRANCH   6  11
ATOM     11  C   UNL     1      10.586  20.441  37.321  1.00  0.00     0.120 C 
BRANCH  11  12
ATOM     12  N   UNL     1       9.734  21.226  36.399  1.00  0.00    -0.297 NA
ATOM     13  C   UNL     1       8.672  17.876  34.136  1.00  0.00     0.105 C 
ATOM     14  N   UNL     1       9.125  18.999  34.970  1.00  0.00    -0.304 NA
ATOM     15  C   UNL     1       8.040  19.445  35.870  1.00  0.00     0.099 C 
ATOM     16  C   UNL     1       9.599  20.110  34.130  1.00  0.00     0.099 C 
ATOM     17  C   UNL     1       8.305  20.851  36.451  1.00  0.00     0.100 C 
ATOM     18  C   UNL     1      10.246  21.205  35.006  1.00  0.00     0.100 C 
ENDBRANCH  11  12
ENDBRANCH   6  11
BRANCH   8  19
ATOM     19  C   UNL     1      13.604  20.174  36.871  1.00  0.00     0.416 C 
ATOM     20  F   UNL     1      13.087  18.906  37.078  1.00  0.00    -0.166 F 
ATOM     21  F   UNL     1      13.324  20.525  35.563  1.00  0.00    -0.166 F 
ATOM     22  F   UNL     1      14.973  20.109  37.046  1.00  0.00    -0.166 F 
ENDBRANCH   8  19
ENDBRANCH   1   5
BRANCH   2  23
ATOM     23  C   UNL     1      15.696  26.028  40.164  1.00  0.00     0.041 A 
ATOM     24  C   UNL     1      16.982  25.464  40.086  1.00  0.00     0.031 A 
ATOM     25  C   UNL     1      15.550  27.310  40.718  1.00  0.00     0.014 A 
ATOM     26  C   UNL     1      18.104  26.175  40.533  1.00  0.00     0.029 A 
ATOM     27  C   UNL     1      16.664  28.020  41.171  1.00  0.00     0.005 A 
ATOM     28  C   UNL     1      17.948  27.464  41.085  1.00  0.00    -0.035 A 
ATOM     29  C   UNL     1      19.138  28.259  41.555  1.00  0.00     0.045 C 
BRANCH  26  30
ATOM     30  C   UNL     1      19.410  25.572  40.405  1.00  0.00    -0.060 C 
ATOM     31  C   UNL     1      20.500  25.066  40.310  1.00  0.00    -0.040 C 
BRANCH  31  32
ATOM     32  C   UNL     1      21.800  24.461  40.208  1.00  0.00     0.135 A 
ATOM     33  C   UNL     1      22.657  24.141  41.247  1.00  0.00     0.151 A 
ATOM     34  N   UNL     1      22.403  24.098  39.072  1.00  0.00    -0.205 N 
ATOM     35  N   UNL     1      23.792  23.580  40.753  1.00  0.00    -0.234 NA
ATOM     36  C   UNL     1      23.585  23.577  39.419  1.00  0.00     0.154 A 
ATOM     37  N   UNL     1      21.975  24.204  37.815  1.00  0.00    -0.174 NA
ATOM     38  C   UNL     1      24.457  23.105  38.444  1.00  0.00     0.051 A 
ATOM     39  C   UNL     1      22.779  23.761  36.806  1.00  0.00     0.134 A 
ATOM     40  C   UNL     1      24.038  23.203  37.107  1.00  0.00     0.026 A 
ENDBRANCH  31  32
ENDBRANCH  26  30
ENDBRANCH   2  23
TORSDOF 7
ENDMDL
MODEL 4
REMARK VINA RESULT:   -11.671      4.447     13.029
REMARK INTER + INTRA:         -16.193
REMARK INTER:                 -15.574
REMARK INTRA:                  -0.619
REMARK UNBOUND:                 0.254
REMARK SMILES Cc1ccc(C(=O)Nc2ccc(CN3CCN(C)CC3)c(C(F)(F)F)c2)cc1C#Cc1cnc2cccnn12
REMARK SMILES IDX 8 1 6 2 7 3 9 5 12 6 11 7 21 8 10 9 26 10 13 11 14 12 18 13
REMARK SMILES IDX 17 14 16 15 19 16 15 17 20 18 22 19 23 20 24 21 25 22 5 23
REMARK SMILES IDX 27 24 4 25 28 26 3 27 2 28 1 29 29 30 30 31 31 32 32 33
REMARK SMILES IDX 39 34 33 35 34 36 38 37 35 38 37 39 36 40
REMARK H PARENT 8 4
REMARK Flexibility Score: inf
ROOT
ATOM      1  N   UNL     1      20.972  25.091  39.971  1.00  0.00    -0.322 N 
ATOM      2  C   UNL     1      21.405  24.127  38.996  1.00  0.00     0.255 C 
ATOM      3  O   UNL     1      20.585  23.696  38.137  1.00  0.00    -0.269 OA
ATOM      4  H   UNL     1      21.686  25.738  40.377  1.00  0.00     0.170 HD
ENDROOT
BRANCH   1   5
ATOM      5  C   UNL     1      19.592  25.332  40.295  1.00  0.00     0.042 A 
ATOM      6  C   UNL     1      16.904  25.842  41.000  1.00  0.00    -0.022 A 
ATOM      7  C   UNL     1      17.380  24.524  40.861  1.00  0.00     0.008 A 
ATOM      8  C   UNL     1      17.798  26.930  40.790  1.00  0.00     0.062 A 
ATOM      9  C   UNL     1      18.704  24.272  40.513  1.00  0.00     0.026 A 
ATOM     10  C   UNL     1      19.141  26.647  40.459  1.00  0.00     0.039 A 
BRANCH   6  11
ATOM     11  C   UNL     1      15.452  26.029  41.401  1.00  0.00     0.120 C 
BRANCH  11  12
ATOM     12  N   UNL     1      14.612  26.469  40.264  1.00  0.00    -0.297 NA
ATOM     13  C   UNL     1      11.298  24.267  41.543  1.00  0.00     0.105 C 
ATOM     14  N   UNL     1      12.522  24.983  41.155  1.00  0.00    -0.304 NA
ATOM     15  C   UNL     1      12.383  26.430  41.427  1.00  0.00     0.099 C 
ATOM     16  C   UNL     1      12.836  24.743  39.738  1.00  0.00     0.099 C 
ATOM     17  C   UNL     1      13.437  27.269  40.672  1.00  0.00     0.100 C 
ATOM     18  C   UNL     1      14.217  25.339  39.387  1.00  0.00     0.100 C 
ENDBRANCH  11  12
ENDBRANCH   6  11
BRANCH   8  19
ATOM     19  C   UNL     1      17.367  28.378  40.959  1.00  0.00     0.416 C 
ATOM     20  F   UNL     1      16.420  28.516  41.959  1.00  0.00    -0.166 F 
ATOM     21  F   UNL     1      18.448  29.170  41.301  1.00  0.00    -0.166 F 
ATOM     22  F   UNL     1      16.813  28.843  39.781  1.00  0.00    -0.166 F 
ENDBRANCH   8  19
ENDBRANCH   1   5
BRANCH   2  23
ATOM     23  C   UNL     1      22.818  23.680  38.945  1.00  0.00     0.041 A 
ATOM     24  C   UNL     1      23.415  23.353  37.715  1.00  0.00     0.031 A 
ATOM     25  C   UNL     1      23.581  23.573  40.119  1.00  0.00     0.014 A 
ATOM     26  C   UNL     1      24.755  22.948  37.654  1.00  0.00     0.029 A 
ATOM     27  C   UNL     1      24.915  23.163  40.065  1.00  0.00     0.005 A 
ATOM     28  C   UNL     1      25.516  22.846  38.838  1.00  0.00    -0.035 A 
ATOM     29  C   UNL     1      26.963  22.431  38.802  1.00  0.00     0.045 C 
BRANCH  26  30
ATOM     30  C   UNL     1      25.339  22.652  36.366  1.00  0.00    -0.060 C 
ATOM     31  C   UNL     1      25.834  22.398  35.297  1.00  0.00    -0.040 C 
BRANCH  31  32
ATOM     32  C   UNL     1      26.432  22.090  34.027  1.00  0.00     0.135 A 
ATOM     33  C   UNL     1      26.970  20.878  33.628  1.00  0.00     0.151 A 
ATOM     34  N   UNL     1      26.565  22.938  33.002  1.00  0.00    -0.205 N 
ATOM     35  N   UNL     1      27.437  20.977  32.356  1.00  0.00    -0.234 NA
ATOM     36  C   UNL     1      27.164  22.256  32.020  1.00  0.00     0.154 A 
ATOM     37  N   UNL     1      26.199  24.215  32.907  1.00  0.00    -0.174 NA
ATOM     38  C   UNL     1      27.446  22.875  30.807  1.00  0.00     0.051 A 
ATOM     39  C   UNL     1      26.444  24.886  31.745  1.00  0.00     0.134 A 
ATOM     40  C   UNL     1      27.075  24.223  30.673  1.00  0.00     0.026 A 
ENDBRANCH  31  32
ENDBRANCH  26  30
ENDBRANCH   2  23
TORSDOF 7
ENDMDL
MODEL 5
REMARK VINA RESULT:   -11.588      4.509     13.583
REMARK INTER + INTRA:         -16.076
REMARK INTER:                 -15.766
REMARK INTRA:                  -0.310
REMARK UNBOUND:                 0.254
REMARK SMILES Cc1ccc(C(=O)Nc2ccc(CN3CCN(C)CC3)c(C(F)(F)F)c2)cc1C#Cc1cnc2cccnn12
REMARK SMILES IDX 8 1 6 2 7 3 9 5 12 6 11 7 21 8 10 9 26 10 13 11 14 12 18 13
REMARK SMILES IDX 17 14 16 15 19 16 15 17 20 18 22 19 23 20 24 21 25 22 5 23
REMARK SMILES IDX 27 24 4 25 28 26 3 27 2 28 1 29 29 30 30 31 31 32 32 33
REMARK SMILES IDX 39 34 33 35 34 36 38 37 35 38 37 39 36 40
REMARK H PARENT 8 4
REMARK Flexibility Score: inf
ROOT
ATOM      1  N   UNL     1      20.690  26.077  40.033  1.00  0.00    -0.322 N 
ATOM      2  C   UNL     1      21.048  25.054  39.089  1.00  0.00     0.255 C 
ATOM      3  O   UNL     1      20.253  24.762  38.153  1.00  0.00    -0.269 OA
ATOM      4  H   UNL     1      21.460  26.599  40.513  1.00  0.00     0.170 HD
ENDROOT
BRANCH   1   5
ATOM      5  C   UNL     1      19.344  26.543  40.231  1.00  0.00     0.042 A 
ATOM      6  C   UNL     1      16.678  27.420  40.551  1.00  0.00    -0.022 A 
ATOM      7  C   UNL     1      17.724  28.340  40.353  1.00  0.00     0.008 A 
ATOM      8  C   UNL     1      16.972  26.026  40.581  1.00  0.00     0.062 A 
ATOM      9  C   UNL     1      19.039  27.909  40.195  1.00  0.00     0.026 A 
ATOM     10  C   UNL     1      18.309  25.615  40.397  1.00  0.00     0.039 A 
BRANCH   6  11
ATOM     11  C   UNL     1      15.270  27.971  40.694  1.00  0.00     0.120 C 
BRANCH  11  12
ATOM     12  N   UNL     1      14.934  28.280  42.103  1.00  0.00    -0.297 NA
ATOM     13  C   UNL     1      11.048  29.499  41.162  1.00  0.00     0.105 C 
ATOM     14  N   UNL     1      12.439  29.082  41.393  1.00  0.00    -0.304 NA
ATOM     15  C   UNL     1      12.479  27.740  42.012  1.00  0.00     0.099 C 
ATOM     16  C   UNL     1      13.144  30.067  42.228  1.00  0.00     0.099 C 
ATOM     17  C   UNL     1      13.851  27.434  42.650  1.00  0.00     0.100 C 
ATOM     18  C   UNL     1      14.647  29.721  42.309  1.00  0.00     0.100 C 
ENDBRANCH  11  12
ENDBRANCH   6  11
BRANCH   8  19
ATOM     19  C   UNL     1      15.890  24.972  40.754  1.00  0.00     0.416 C 
ATOM     20  F   UNL     1      15.049  25.272  41.812  1.00  0.00    -0.166 F 
ATOM     21  F   UNL     1      15.109  24.888  39.616  1.00  0.00    -0.166 F 
ATOM     22  F   UNL     1      16.469  23.743  41.005  1.00  0.00    -0.166 F 
ENDBRANCH   8  19
ENDBRANCH   1   5
BRANCH   2  23
ATOM     23  C   UNL     1      22.367  24.379  39.164  1.00  0.00     0.041 A 
ATOM     24  C   UNL     1      23.008  23.943  37.991  1.00  0.00     0.031 A 
ATOM     25  C   UNL     1      22.995  24.163  40.401  1.00  0.00     0.014 A 
ATOM     26  C   UNL     1      24.263  23.321  38.049  1.00  0.00     0.029 A 
ATOM     27  C   UNL     1      24.242  23.538  40.465  1.00  0.00     0.005 A 
ATOM     28  C   UNL     1      24.888  23.111  39.296  1.00  0.00    -0.035 A 
ATOM     29  C   UNL     1      26.245  22.464  39.388  1.00  0.00     0.045 C 
BRANCH  26  30
ATOM     30  C   UNL     1      24.901  22.917  36.817  1.00  0.00    -0.060 C 
ATOM     31  C   UNL     1      25.435  22.569  35.795  1.00  0.00    -0.040 C 
BRANCH  31  32
ATOM     32  C   UNL     1      26.077  22.145  34.580  1.00  0.00     0.135 A 
ATOM     33  C   UNL     1      26.521  20.871  34.271  1.00  0.00     0.151 A 
ATOM     34  N   UNL     1      26.350  22.926  33.530  1.00  0.00    -0.205 N 
ATOM     35  N   UNL     1      27.070  20.864  33.028  1.00  0.00    -0.234 NA
ATOM     36  C   UNL     1      26.940  22.144  32.620  1.00  0.00     0.154 A 
ATOM     37  N   UNL     1      26.112  24.224  33.357  1.00  0.00    -0.174 NA
ATOM     38  C   UNL     1      27.350  22.673  31.401  1.00  0.00     0.051 A 
ATOM     39  C   UNL     1      26.489  24.812  32.185  1.00  0.00     0.134 A 
ATOM     40  C   UNL     1      27.117  24.041  31.185  1.00  0.00     0.026 A 
ENDBRANCH  31  32
ENDBRANCH  26  30
ENDBRANCH   2  23
TORSDOF 7
ENDMDL
MODEL 6
REMARK VINA RESULT:   -11.579      7.292     13.608
REMARK INTER + INTRA:         -16.063
REMARK INTER:                 -14.982
REMARK INTRA:                  -1.081
REMARK UNBOUND:                 0.254
REMARK SMILES Cc1ccc(C(=O)Nc2ccc(CN3CCN(C)CC3)c(C(F)(F)F)c2)cc1C#Cc1cnc2cccnn12
REMARK SMILES IDX 8 1 6 2 7 3 9 5 12 6 11 7 21 8 10 9 26 10 13 11 14 12 18 13
REMARK SMILES IDX 17 14 16 15 19 16 15 17 20 18 22 19 23 20 24 21 25 22 5 23
REMARK SMILES IDX 27 24 4 25 28 26 3 27 2 28 1 29 29 30 30 31 31 32 32 33
REMARK SMILES IDX 39 34 33 35 34 36 38 37 35 38 37 39 36 40
REMARK H PARENT 8 4
REMARK Flexibility Score: inf
ROOT
ATOM      1  N   UNL     1      14.220  23.750  40.052  1.00  0.00    -0.322 N 
ATOM      2  C   UNL     1      14.206  25.187  40.078  1.00  0.00     0.255 C 
ATOM      3  O   UNL     1      13.130  25.806  39.846  1.00  0.00    -0.269 OA
ATOM      4  H   UNL     1      14.937  23.252  40.628  1.00  0.00     0.170 HD
ENDROOT
BRANCH   1   5
ATOM      5  C   UNL     1      13.204  22.955  39.416  1.00  0.00     0.042 A 
ATOM      6  C   UNL     1      11.207  21.446  38.106  1.00  0.00    -0.022 A 
ATOM      7  C   UNL     1      10.967  22.029  39.365  1.00  0.00     0.008 A 
ATOM      8  C   UNL     1      12.475  21.631  37.484  1.00  0.00     0.062 A 
ATOM      9  C   UNL     1      11.951  22.772  40.011  1.00  0.00     0.026 A 
ATOM     10  C   UNL     1      13.448  22.407  38.151  1.00  0.00     0.039 A 
BRANCH   6  11
ATOM     11  C   UNL     1      10.075  20.668  37.460  1.00  0.00     0.120 C 
BRANCH  11  12
ATOM     12  N   UNL     1       9.542  19.615  38.355  1.00  0.00    -0.297 NA
ATOM     13  C   UNL     1       8.365  17.171  35.175  1.00  0.00     0.105 C 
ATOM     14  N   UNL     1       8.784  18.109  36.227  1.00  0.00    -0.304 NA
ATOM     15  C   UNL     1      10.015  17.627  36.889  1.00  0.00     0.099 C 
ATOM     16  C   UNL     1       7.704  18.306  37.206  1.00  0.00     0.099 C 
ATOM     17  C   UNL     1      10.260  18.327  38.243  1.00  0.00     0.100 C 
ATOM     18  C   UNL     1       8.078  19.431  38.196  1.00  0.00     0.100 C 
ENDBRANCH  11  12
ENDBRANCH   6  11
BRANCH   8  19
ATOM     19  C   UNL     1      12.795  21.065  36.110  1.00  0.00     0.416 C 
ATOM     20  F   UNL     1      11.869  21.468  35.163  1.00  0.00    -0.166 F 
ATOM     21  F   UNL     1      14.037  21.497  35.683  1.00  0.00    -0.166 F 
ATOM     22  F   UNL     1      12.781  19.684  36.158  1.00  0.00    -0.166 F 
ENDBRANCH   8  19
ENDBRANCH   1   5
BRANCH   2  23
ATOM     23  C   UNL     1      15.425  25.952  40.438  1.00  0.00     0.041 A 
ATOM     24  C   UNL     1      16.690  25.515  40.007  1.00  0.00     0.031 A 
ATOM     25  C   UNL     1      15.339  27.120  41.214  1.00  0.00     0.014 A 
ATOM     26  C   UNL     1      17.846  26.240  40.325  1.00  0.00     0.029 A 
ATOM     27  C   UNL     1      16.488  27.843  41.540  1.00  0.00     0.005 A 
ATOM     28  C   UNL     1      17.750  27.414  41.103  1.00  0.00    -0.035 A 
ATOM     29  C   UNL     1      18.972  28.225  41.444  1.00  0.00     0.045 C 
BRANCH  26  30
ATOM     30  C   UNL     1      19.122  25.774  39.836  1.00  0.00    -0.060 C 
ATOM     31  C   UNL     1      20.182  25.384  39.415  1.00  0.00    -0.040 C 
BRANCH  31  32
ATOM     32  C   UNL     1      21.443  24.917  38.905  1.00  0.00     0.135 A 
ATOM     33  C   UNL     1      21.863  24.921  37.586  1.00  0.00     0.151 A 
ATOM     34  N   UNL     1      22.435  24.398  39.635  1.00  0.00    -0.205 N 
ATOM     35  N   UNL     1      23.116  24.403  37.500  1.00  0.00    -0.234 NA
ATOM     36  C   UNL     1      23.419  24.100  38.780  1.00  0.00     0.154 A 
ATOM     37  N   UNL     1      22.499  24.190  40.948  1.00  0.00    -0.174 NA
ATOM     38  C   UNL     1      24.601  23.533  39.242  1.00  0.00     0.051 A 
ATOM     39  C   UNL     1      23.631  23.636  41.472  1.00  0.00     0.134 A 
ATOM     40  C   UNL     1      24.704  23.298  40.623  1.00  0.00     0.026 A 
ENDBRANCH  31  32
ENDBRANCH  26  30
ENDBRANCH   2  23
TORSDOF 7
ENDMDL
MODEL 7
REMARK VINA RESULT:   -11.482      4.423     13.238
REMARK INTER + INTRA:         -15.927
REMARK INTER:                 -15.123
REMARK INTRA:                  -0.804
REMARK UNBOUND:                 0.254
REMARK SMILES Cc1ccc(C(=O)Nc2ccc(CN3CCN(C)CC3)c(C(F)(F)F)c2)cc1C#Cc1cnc2cccnn12
REMARK SMILES IDX 8 1 6 2 7 3 9 5 12 6 11 7 21 8 10 9 26 10 13 11 14 12 18 13
REMARK SMILES IDX 17 14 16 15 19 16 15 17 20 18 22 19 23 20 24 21 25 22 5 23
REMARK SMILES IDX 27 24 4 25 28 26 3 27 2 28 1 29 29 30 30 31 31 32 32 33
REMARK SMILES IDX 39 34 33 35 34 36 38 37 35 38 37 39 36 40
REMARK H PARENT 8 4
REMARK Flexibility Score: inf
ROOT
ATOM      1  N   UNL     1      20.701  25.160  40.117  1.00  0.00    -0.322 N 
ATOM      2  C   UNL     1      21.142  24.389  38.987  1.00  0.00     0.255 C 
ATOM      3  O   UNL     1      20.343  24.164  38.035  1.00  0.00    -0.269 OA
ATOM      4  H   UNL     1      21.418  25.690  40.665  1.00  0.00     0.170 HD
ENDROOT
BRANCH   1   5
ATOM      5  C   UNL     1      19.317  25.384  40.439  1.00  0.00     0.042 A 
ATOM      6  C   UNL     1      16.622  25.858  41.139  1.00  0.00    -0.022 A 
ATOM      7  C   UNL     1      17.107  24.547  40.968  1.00  0.00     0.008 A 
ATOM      8  C   UNL     1      17.511  26.957  40.964  1.00  0.00     0.062 A 
ATOM      9  C   UNL     1      18.435  24.313  40.622  1.00  0.00     0.026 A 
ATOM     10  C   UNL     1      18.857  26.691  40.635  1.00  0.00     0.039 A 
BRANCH   6  11
ATOM     11  C   UNL     1      15.166  26.025  41.536  1.00  0.00     0.120 C 
BRANCH  11  12
ATOM     12  N   UNL     1      14.324  26.455  40.396  1.00  0.00    -0.297 NA
ATOM     13  C   UNL     1      11.013  24.262  41.701  1.00  0.00     0.105 C 
ATOM     14  N   UNL     1      12.236  24.975  41.304  1.00  0.00    -0.304 NA
ATOM     15  C   UNL     1      12.097  26.424  41.564  1.00  0.00     0.099 C 
ATOM     16  C   UNL     1      12.548  24.723  39.889  1.00  0.00     0.099 C 
ATOM     17  C   UNL     1      13.149  27.257  40.799  1.00  0.00     0.100 C 
ATOM     18  C   UNL     1      13.928  25.316  39.530  1.00  0.00     0.100 C 
ENDBRANCH  11  12
ENDBRANCH   6  11
BRANCH   8  19
ATOM     19  C   UNL     1      17.069  28.397  41.170  1.00  0.00     0.416 C 
ATOM     20  F   UNL     1      16.189  28.516  42.232  1.00  0.00    -0.166 F 
ATOM     21  F   UNL     1      18.157  29.205  41.443  1.00  0.00    -0.166 F 
ATOM     22  F   UNL     1      16.430  28.858  40.034  1.00  0.00    -0.166 F 
ENDBRANCH   8  19
ENDBRANCH   1   5
BRANCH   2  23
ATOM     23  C   UNL     1      22.542  23.909  38.894  1.00  0.00     0.041 A 
ATOM     24  C   UNL     1      23.157  23.752  37.639  1.00  0.00     0.031 A 
ATOM     25  C   UNL     1      23.276  23.603  40.051  1.00  0.00     0.014 A 
ATOM     26  C   UNL     1      24.485  23.317  37.541  1.00  0.00     0.029 A 
ATOM     27  C   UNL     1      24.598  23.163  39.959  1.00  0.00     0.005 A 
ATOM     28  C   UNL     1      25.216  23.015  38.710  1.00  0.00    -0.035 A 
ATOM     29  C   UNL     1      26.651  22.564  38.636  1.00  0.00     0.045 C 
BRANCH  26  30
ATOM     30  C   UNL     1      25.088  23.199  36.234  1.00  0.00    -0.060 C 
ATOM     31  C   UNL     1      25.601  23.108  35.147  1.00  0.00    -0.040 C 
BRANCH  31  32
ATOM     32  C   UNL     1      26.219  23.006  33.853  1.00  0.00     0.135 A 
ATOM     33  C   UNL     1      26.233  23.966  32.856  1.00  0.00     0.151 A 
ATOM     34  N   UNL     1      26.899  21.950  33.395  1.00  0.00    -0.205 N 
ATOM     35  N   UNL     1      26.921  23.502  31.779  1.00  0.00    -0.234 NA
ATOM     36  C   UNL     1      27.307  22.267  32.162  1.00  0.00     0.154 A 
ATOM     37  N   UNL     1      27.157  20.787  33.991  1.00  0.00    -0.174 NA
ATOM     38  C   UNL     1      28.047  21.358  31.413  1.00  0.00     0.051 A 
ATOM     39  C   UNL     1      27.878  19.847  33.315  1.00  0.00     0.134 A 
ATOM     40  C   UNL     1      28.335  20.120  32.009  1.00  0.00     0.026 A 
ENDBRANCH  31  32
ENDBRANCH  26  30
ENDBRANCH   2  23
TORSDOF 7
ENDMDL
MODEL 8
REMARK VINA RESULT:   -11.216      2.001      2.954
REMARK INTER + INTRA:         -15.552
REMARK INTER:                 -15.992
REMARK INTRA:                   0.439
REMARK UNBOUND:                 0.254
REMARK SMILES Cc1ccc(C(=O)Nc2ccc(CN3CCN(C)CC3)c(C(F)(F)F)c2)cc1C#Cc1cnc2cccnn12
REMARK SMILES IDX 8 1 6 2 7 3 9 5 12 6 11 7 21 8 10 9 26 10 13 11 14 12 18 13
REMARK SMILES IDX 17 14 16 15 19 16 15 17 20 18 22 19 23 20 24 21 25 22 5 23
REMARK SMILES IDX 27 24 4 25 28 26 3 27 2 28 1 29 29 30 30 31 31 32 32 33
REMARK SMILES IDX 39 34 33 35 34 36 38 37 35 38 37 39 36 40
REMARK H PARENT 8 4
REMARK Flexibility Score: inf
ROOT
ATOM      1  N   UNL     1      25.566  21.414  35.942  1.00  0.00    -0.322 N 
ATOM      2  C   UNL     1      24.947  22.676  36.245  1.00  0.00     0.255 C 
ATOM      3  O   UNL     1      24.656  23.470  35.307  1.00  0.00    -0.269 OA
ATOM      4  H   UNL     1      25.422  20.620  36.608  1.00  0.00     0.170 HD
ENDROOT
BRANCH   1   5
ATOM      5  C   UNL     1      26.227  21.129  34.697  1.00  0.00     0.042 A 
ATOM      6  C   UNL     1      27.569  20.513  32.289  1.00  0.00    -0.022 A 
ATOM      7  C   UNL     1      27.673  21.791  32.871  1.00  0.00     0.008 A 
ATOM      8  C   UNL     1      26.780  19.517  32.933  1.00  0.00     0.062 A 
ATOM      9  C   UNL     1      27.012  22.096  34.057  1.00  0.00     0.026 A 
ATOM     10  C   UNL     1      26.138  19.845  34.146  1.00  0.00     0.039 A 
BRANCH   6  11
ATOM     11  C   UNL     1      28.338  20.257  31.005  1.00  0.00     0.120 C 
BRANCH  11  12
ATOM     12  N   UNL     1      27.503  20.479  29.802  1.00  0.00    -0.297 NA
ATOM     13  C   UNL     1      27.410  24.624  30.334  1.00  0.00     0.105 C 
ATOM     14  N   UNL     1      27.473  23.158  30.246  1.00  0.00    -0.304 NA
ATOM     15  C   UNL     1      28.391  22.744  29.163  1.00  0.00     0.099 C 
ATOM     16  C   UNL     1      26.130  22.593  30.039  1.00  0.00     0.099 C 
ATOM     17  C   UNL     1      28.180  21.271  28.752  1.00  0.00     0.100 C 
ATOM     18  C   UNL     1      26.176  21.052  30.137  1.00  0.00     0.100 C 
ENDBRANCH  11  12
ENDBRANCH   6  11
BRANCH   8  19
ATOM     19  C   UNL     1      26.651  18.105  32.385  1.00  0.00     0.416 C 
ATOM     20  F   UNL     1      26.004  18.089  31.161  1.00  0.00    -0.166 F 
ATOM     21  F   UNL     1      27.899  17.540  32.200  1.00  0.00    -0.166 F 
ATOM     22  F   UNL     1      25.921  17.327  33.263  1.00  0.00    -0.166 F 
ENDBRANCH   8  19
ENDBRANCH   1   5
BRANCH   2  23
ATOM     23  C   UNL     1      24.588  23.030  37.640  1.00  0.00     0.041 A 
ATOM     24  C   UNL     1      23.533  23.924  37.895  1.00  0.00     0.031 A 
ATOM     25  C   UNL     1      25.292  22.484  38.725  1.00  0.00     0.014 A 
ATOM     26  C   UNL     1      23.173  24.251  39.210  1.00  0.00     0.029 A 
ATOM     27  C   UNL     1      24.942  22.811  40.036  1.00  0.00     0.005 A 
ATOM     28  C   UNL     1      23.885  23.695  40.294  1.00  0.00    -0.035 A 
ATOM     29  C   UNL     1      23.508  24.013  41.718  1.00  0.00     0.045 C 
BRANCH  26  30
ATOM     30  C   UNL     1      22.063  25.149  39.429  1.00  0.00    -0.060 C 
ATOM     31  C   UNL     1      21.141  25.901  39.622  1.00  0.00    -0.040 C 
BRANCH  31  32
ATOM     32  C   UNL     1      20.044  26.798  39.864  1.00  0.00     0.135 A 
ATOM     33  C   UNL     1      20.044  28.175  39.717  1.00  0.00     0.151 A 
ATOM     34  N   UNL     1      18.822  26.443  40.271  1.00  0.00    -0.205 N 
ATOM     35  N   UNL     1      18.820  28.671  40.036  1.00  0.00    -0.234 NA
ATOM     36  C   UNL     1      18.111  27.571  40.367  1.00  0.00     0.154 A 
ATOM     37  N   UNL     1      18.340  25.232  40.546  1.00  0.00    -0.174 NA
ATOM     38  C   UNL     1      16.783  27.530  40.776  1.00  0.00     0.051 A 
ATOM     39  C   UNL     1      17.044  25.116  40.954  1.00  0.00     0.134 A 
ATOM     40  C   UNL     1      16.242  26.269  41.076  1.00  0.00     0.026 A 
ENDBRANCH  31  32
ENDBRANCH  26  30
ENDBRANCH   2  23
TORSDOF 7
ENDMDL
MODEL 9
REMARK VINA RESULT:   -11.050      7.774     13.596
REMARK INTER + INTRA:         -15.318
REMARK INTER:                 -14.230
REMARK INTRA:                  -1.089
REMARK UNBOUND:                 0.254
REMARK SMILES Cc1ccc(C(=O)Nc2ccc(CN3CCN(C)CC3)c(C(F)(F)F)c2)cc1C#Cc1cnc2cccnn12
REMARK SMILES IDX 8 1 6 2 7 3 9 5 12 6 11 7 21 8 10 9 26 10 13 11 14 12 18 13
REMARK SMILES IDX 17 14 16 15 19 16 15 17 20 18 22 19 23 20 24 21 25 22 5 23
REMARK SMILES IDX 27 24 4 25 28 26 3 27 2 28 1 29 29 30 30 31 31 32 32 33
REMARK SMILES IDX 39 34 33 35 34 36 38 37 35 38 37 39 36 40
REMARK H PARENT 8 4
REMARK Flexibility Score: inf
ROOT
ATOM      1  N   UNL     1      13.384  22.741  39.833  1.00  0.00    -0.322 N 
ATOM      2  C   UNL     1      12.974  24.119  39.831  1.00  0.00     0.255 C 
ATOM      3  O   UNL     1      11.828  24.429  39.401  1.00  0.00    -0.269 OA
ATOM      4  H   UNL     1      14.096  22.437  40.536  1.00  0.00     0.170 HD
ENDROOT
BRANCH   1   5
ATOM      5  C   UNL     1      12.751  21.720  39.040  1.00  0.00     0.042 A 
ATOM      6  C   UNL     1      11.464  19.774  37.449  1.00  0.00    -0.022 A 
ATOM      7  C   UNL     1      11.359  19.748  38.852  1.00  0.00     0.008 A 
ATOM      8  C   UNL     1      12.224  20.805  36.827  1.00  0.00     0.062 A 
ATOM      9  C   UNL     1      11.994  20.706  39.638  1.00  0.00     0.026 A 
ATOM     10  C   UNL     1      12.840  21.777  37.644  1.00  0.00     0.039 A 
BRANCH   6  11
ATOM     11  C   UNL     1      10.725  18.704  36.665  1.00  0.00     0.120 C 
BRANCH  11  12
ATOM     12  N   UNL     1       9.257  18.802  36.837  1.00  0.00    -0.297 NA
ATOM     13  C   UNL     1       8.565  19.280  32.743  1.00  0.00     0.105 C 
ATOM     14  N   UNL     1       8.907  19.137  34.166  1.00  0.00    -0.304 NA
ATOM     15  C   UNL     1       8.570  17.779  34.645  1.00  0.00     0.099 C 
ATOM     16  C   UNL     1       8.222  20.162  34.969  1.00  0.00     0.099 C 
ATOM     17  C   UNL     1       8.512  17.703  36.186  1.00  0.00     0.100 C 
ATOM     18  C   UNL     1       8.731  20.127  36.428  1.00  0.00     0.100 C 
ENDBRANCH  11  12
ENDBRANCH   6  11
BRANCH   8  19
ATOM     19  C   UNL     1      12.351  20.921  35.316  1.00  0.00     0.416 C 
ATOM     20  F   UNL     1      12.507  19.681  34.720  1.00  0.00    -0.166 F 
ATOM     21  F   UNL     1      11.218  21.499  34.776  1.00  0.00    -0.166 F 
ATOM     22  F   UNL     1      13.455  21.688  34.996  1.00  0.00    -0.166 F 
ENDBRANCH   8  19
ENDBRANCH   1   5
BRANCH   2  23
ATOM     23  C   UNL     1      13.855  25.174  40.389  1.00  0.00     0.041 A 
ATOM     24  C   UNL     1      15.234  25.163  40.116  1.00  0.00     0.031 A 
ATOM     25  C   UNL     1      13.331  26.195  41.198  1.00  0.00     0.014 A 
ATOM     26  C   UNL     1      16.072  26.166  40.623  1.00  0.00     0.029 A 
ATOM     27  C   UNL     1      14.162  27.193  41.710  1.00  0.00     0.005 A 
ATOM     28  C   UNL     1      15.536  27.191  41.431  1.00  0.00    -0.035 A 
ATOM     29  C   UNL     1      16.409  28.292  41.974  1.00  0.00     0.045 C 
BRANCH  26  30
ATOM     30  C   UNL     1      17.478  26.136  40.292  1.00  0.00    -0.060 C 
ATOM     31  C   UNL     1      18.648  26.111  40.004  1.00  0.00    -0.040 C 
BRANCH  31  32
ATOM     32  C   UNL     1      20.041  26.080  39.651  1.00  0.00     0.135 A 
ATOM     33  C   UNL     1      20.965  27.100  39.804  1.00  0.00     0.151 A 
ATOM     34  N   UNL     1      20.685  25.041  39.111  1.00  0.00    -0.205 N 
ATOM     35  N   UNL     1      22.181  26.691  39.358  1.00  0.00    -0.234 NA
ATOM     36  C   UNL     1      21.955  25.426  38.946  1.00  0.00     0.154 A 
ATOM     37  N   UNL     1      20.221  23.837  38.779  1.00  0.00    -0.174 NA
ATOM     38  C   UNL     1      22.886  24.552  38.394  1.00  0.00     0.051 A 
ATOM     39  C   UNL     1      21.079  22.929  38.232  1.00  0.00     0.134 A 
ATOM     40  C   UNL     1      22.431  23.275  38.030  1.00  0.00     0.026 A 
ENDBRANCH  31  32
ENDBRANCH  26  30
ENDBRANCH   2  23
TORSDOF 7
ENDMDL
MODEL 10
REMARK VINA RESULT:   -10.856      8.271     14.125
REMARK INTER + INTRA:         -15.045
REMARK INTER:                 -13.989
REMARK INTRA:                  -1.056
REMARK UNBOUND:                 0.254
REMARK SMILES Cc1ccc(C(=O)Nc2ccc(CN3CCN(C)CC3)c(C(F)(F)F)c2)cc1C#Cc1cnc2cccnn12
REMARK SMILES IDX 8 1 6 2 7 3 9 5 12 6 11 7 21 8 10 9 26 10 13 11 14 12 18 13
REMARK SMILES IDX 17 14 16 15 19 16 15 17 20 18 22 19 23 20 24 21 25 22 5 23
REMARK SMILES IDX 27 24 4 25 28 26 3 27 2 28 1 29 29 30 30 31 31 32 32 33
REMARK SMILES IDX 39 34 33 35 34 36 38 37 35 38 37 39 36 40
REMARK H PARENT 8 4
REMARK Flexibility Score: inf
ROOT
ATOM      1  N   UNL     1      13.905  23.838  39.994  1.00  0.00    -0.322 N 
ATOM      2  C   UNL     1      14.138  25.226  39.703  1.00  0.00     0.255 C 
ATOM      3  O   UNL     1      13.266  25.887  39.072  1.00  0.00    -0.269 OA
ATOM      4  H   UNL     1      14.376  23.422  40.830  1.00  0.00     0.170 HD
ENDROOT
BRANCH   1   5
ATOM      5  C   UNL     1      12.932  23.032  39.307  1.00  0.00     0.042 A 
ATOM      6  C   UNL     1      11.005  21.410  38.027  1.00  0.00    -0.022 A 
ATOM      7  C   UNL     1      12.359  21.370  37.641  1.00  0.00     0.008 A 
ATOM      8  C   UNL     1      10.609  22.276  39.086  1.00  0.00     0.062 A 
ATOM      9  C   UNL     1      13.309  22.170  38.270  1.00  0.00     0.026 A 
ATOM     10  C   UNL     1      11.595  23.060  39.722  1.00  0.00     0.039 A 
BRANCH   6  11
ATOM     11  C   UNL     1      10.037  20.492  37.302  1.00  0.00     0.120 C 
BRANCH  11  12
ATOM     12  N   UNL     1       9.373  21.169  36.165  1.00  0.00    -0.297 NA
ATOM     13  C   UNL     1       8.238  17.569  34.370  1.00  0.00     0.105 C 
ATOM     14  N   UNL     1       8.706  18.782  35.057  1.00  0.00    -0.304 NA
ATOM     15  C   UNL     1       7.578  19.462  35.730  1.00  0.00     0.099 C 
ATOM     16  C   UNL     1       9.376  19.688  34.111  1.00  0.00     0.099 C 
ATOM     17  C   UNL     1       7.916  20.922  36.101  1.00  0.00     0.100 C 
ATOM     18  C   UNL     1      10.029  20.865  34.870  1.00  0.00     0.100 C 
ENDBRANCH  11  12
ENDBRANCH   6  11
BRANCH   8  19
ATOM     19  C   UNL     1       9.174  22.345  39.583  1.00  0.00     0.416 C 
ATOM     20  F   UNL     1       8.343  22.959  38.661  1.00  0.00    -0.166 F 
ATOM     21  F   UNL     1       8.676  21.075  39.806  1.00  0.00    -0.166 F 
ATOM     22  F   UNL     1       9.119  23.073  40.757  1.00  0.00    -0.166 F 
ENDBRANCH   8  19
ENDBRANCH   1   5
BRANCH   2  23
ATOM     23  C   UNL     1      15.362  25.909  40.189  1.00  0.00     0.041 A 
ATOM     24  C   UNL     1      16.633  25.453  39.795  1.00  0.00     0.031 A 
ATOM     25  C   UNL     1      15.274  27.016  41.049  1.00  0.00     0.014 A 
ATOM     26  C   UNL     1      17.794  26.103  40.234  1.00  0.00     0.029 A 
ATOM     27  C   UNL     1      16.428  27.663  41.495  1.00  0.00     0.005 A 
ATOM     28  C   UNL     1      17.696  27.217  41.096  1.00  0.00    -0.035 A 
ATOM     29  C   UNL     1      18.926  27.946  41.568  1.00  0.00     0.045 C 
BRANCH  26  30
ATOM     30  C   UNL     1      19.079  25.622  39.781  1.00  0.00    -0.060 C 
ATOM     31  C   UNL     1      20.145  25.219  39.391  1.00  0.00    -0.040 C 
BRANCH  31  32
ATOM     32  C   UNL     1      21.413  24.734  38.918  1.00  0.00     0.135 A 
ATOM     33  C   UNL     1      21.825  24.621  37.600  1.00  0.00     0.151 A 
ATOM     34  N   UNL     1      22.421  24.311  39.685  1.00  0.00    -0.205 N 
ATOM     35  N   UNL     1      23.090  24.126  37.554  1.00  0.00    -0.234 NA
ATOM     36  C   UNL     1      23.407  23.955  38.855  1.00  0.00     0.154 A 
ATOM     37  N   UNL     1      22.499  24.232  41.013  1.00  0.00    -0.174 NA
ATOM     38  C   UNL     1      24.606  23.463  39.360  1.00  0.00     0.051 A 
ATOM     39  C   UNL     1      23.646  23.758  41.578  1.00  0.00     0.134 A 
ATOM     40  C   UNL     1      24.722  23.364  40.756  1.00  0.00     0.026 A 
ENDBRANCH  31  32
ENDBRANCH  26  30
ENDBRANCH   2  23
TORSDOF 7
ENDMDL
MODEL 11
REMARK VINA RESULT:   -10.674      8.008     13.815
REMARK INTER + INTRA:         -14.789
REMARK INTER:                 -13.789
REMARK INTRA:                  -1.000
REMARK UNBOUND:                 0.254
REMARK SMILES Cc1ccc(C(=O)Nc2ccc(CN3CCN(C)CC3)c(C(F)(F)F)c2)cc1C#Cc1cnc2cccnn12
REMARK SMILES IDX 8 1 6 2 7 3 9 5 12 6 11 7 21 8 10 9 26 10 13 11 14 12 18 13
REMARK SMILES IDX 17 14 16 15 19 16 15 17 20 18 22 19 23 20 24 21 25 22 5 23
REMARK SMILES IDX 27 24 4 25 28 26 3 27 2 28 1 29 29 30 30 31 31 32 32 33
REMARK SMILES IDX 39 34 33 35 34 36 38 37 35 38 37 39 36 40
REMARK H PARENT 8 4
REMARK Flexibility Score: inf
ROOT
ATOM      1  N   UNL     1      14.377  23.877  39.993  1.00  0.00    -0.322 N 
ATOM      2  C   UNL     1      14.496  25.289  39.752  1.00  0.00     0.255 C 
ATOM      3  O   UNL     1      13.554  25.906  39.182  1.00  0.00    -0.269 OA
ATOM      4  H   UNL     1      14.911  23.465  40.793  1.00  0.00     0.170 HD
ENDROOT
BRANCH   1   5
ATOM      5  C   UNL     1      13.440  23.028  39.308  1.00  0.00     0.042 A 
ATOM      6  C   UNL     1      11.581  21.323  38.035  1.00  0.00    -0.022 A 
ATOM      7  C   UNL     1      12.946  21.296  37.689  1.00  0.00     0.008 A 
ATOM      8  C   UNL     1      11.138  22.219  39.050  1.00  0.00     0.062 A 
ATOM      9  C   UNL     1      13.862  22.136  38.316  1.00  0.00     0.026 A 
ATOM     10  C   UNL     1      12.091  23.045  39.685  1.00  0.00     0.039 A 
BRANCH   6  11
ATOM     11  C   UNL     1      10.652  20.361  37.318  1.00  0.00     0.120 C 
BRANCH  11  12
ATOM     12  N   UNL     1      10.181  20.902  36.022  1.00  0.00    -0.297 NA
ATOM     13  C   UNL     1       8.385  17.301  34.893  1.00  0.00     0.105 C 
ATOM     14  N   UNL     1       9.071  18.515  35.360  1.00  0.00    -0.304 NA
ATOM     15  C   UNL     1       8.087  19.528  35.799  1.00  0.00     0.099 C 
ATOM     16  C   UNL     1       9.946  19.054  34.308  1.00  0.00     0.099 C 
ATOM     17  C   UNL     1       8.708  20.938  35.898  1.00  0.00     0.100 C 
ATOM     18  C   UNL     1      10.803  20.212  34.866  1.00  0.00     0.100 C 
ENDBRANCH  11  12
ENDBRANCH   6  11
BRANCH   8  19
ATOM     19  C   UNL     1       9.689  22.278  39.503  1.00  0.00     0.416 C 
ATOM     20  F   UNL     1       9.160  21.012  39.692  1.00  0.00    -0.166 F 
ATOM     21  F   UNL     1       9.583  22.953  40.705  1.00  0.00    -0.166 F 
ATOM     22  F   UNL     1       8.924  22.920  38.547  1.00  0.00    -0.166 F 
ENDBRANCH   8  19
ENDBRANCH   1   5
BRANCH   2  23
ATOM     23  C   UNL     1      15.684  26.043  40.221  1.00  0.00     0.041 A 
ATOM     24  C   UNL     1      16.966  25.469  40.140  1.00  0.00     0.031 A 
ATOM     25  C   UNL     1      15.552  27.335  40.755  1.00  0.00     0.014 A 
ATOM     26  C   UNL     1      18.097  26.179  40.564  1.00  0.00     0.029 A 
ATOM     27  C   UNL     1      16.675  28.045  41.184  1.00  0.00     0.005 A 
ATOM     28  C   UNL     1      17.955  27.479  41.095  1.00  0.00    -0.035 A 
ATOM     29  C   UNL     1      19.154  28.273  41.541  1.00  0.00     0.045 C 
BRANCH  26  30
ATOM     30  C   UNL     1      19.398  25.565  40.433  1.00  0.00    -0.060 C 
ATOM     31  C   UNL     1      20.487  25.060  40.334  1.00  0.00    -0.040 C 
BRANCH  31  32
ATOM     32  C   UNL     1      21.791  24.465  40.221  1.00  0.00     0.135 A 
ATOM     33  C   UNL     1      22.670  24.178  41.252  1.00  0.00     0.151 A 
ATOM     34  N   UNL     1      22.376  24.079  39.084  1.00  0.00    -0.205 N 
ATOM     35  N   UNL     1      23.800  23.615  40.750  1.00  0.00    -0.234 NA
ATOM     36  C   UNL     1      23.569  23.577  39.421  1.00  0.00     0.154 A 
ATOM     37  N   UNL     1      21.923  24.150  37.833  1.00  0.00    -0.174 NA
ATOM     38  C   UNL     1      24.426  23.088  38.442  1.00  0.00     0.051 A 
ATOM     39  C   UNL     1      22.712  23.689  36.820  1.00  0.00     0.134 A 
ATOM     40  C   UNL     1      23.982  23.149  37.111  1.00  0.00     0.026 A 
ENDBRANCH  31  32
ENDBRANCH  26  30
ENDBRANCH   2  23
TORSDOF 7
ENDMDL
MODEL 12
REMARK VINA RESULT:   -10.586      8.835     14.163
REMARK INTER + INTRA:         -14.664
REMARK INTER:                 -13.820
REMARK INTRA:                  -0.844
REMARK UNBOUND:                 0.254
REMARK SMILES Cc1ccc(C(=O)Nc2ccc(CN3CCN(C)CC3)c(C(F)(F)F)c2)cc1C#Cc1cnc2cccnn12
REMARK SMILES IDX 8 1 6 2 7 3 9 5 12 6 11 7 21 8 10 9 26 10 13 11 14 12 18 13
REMARK SMILES IDX 17 14 16 15 19 16 15 17 20 18 22 19 23 20 24 21 25 22 5 23
REMARK SMILES IDX 27 24 4 25 28 26 3 27 2 28 1 29 29 30 30 31 31 32 32 33
REMARK SMILES IDX 39 34 33 35 34 36 38 37 35 38 37 39 36 40
REMARK H PARENT 8 4
REMARK Flexibility Score: inf
ROOT
ATOM      1  N   UNL     1      11.854  22.628  40.872  1.00  0.00    -0.322 N 
ATOM      2  C   UNL     1      11.818  23.895  40.193  1.00  0.00     0.255 C 
ATOM      3  O   UNL     1      11.242  23.986  39.073  1.00  0.00    -0.269 OA
ATOM      4  H   UNL     1      11.932  22.629  41.915  1.00  0.00     0.170 HD
ENDROOT
BRANCH   1   5
ATOM      5  C   UNL     1      11.618  21.368  40.221  1.00  0.00     0.042 A 
ATOM      6  C   UNL     1      11.164  18.929  38.871  1.00  0.00    -0.022 A 
ATOM      7  C   UNL     1      10.171  19.501  39.688  1.00  0.00     0.008 A 
ATOM      8  C   UNL     1      12.412  19.599  38.719  1.00  0.00     0.062 A 
ATOM      9  C   UNL     1      10.394  20.703  40.354  1.00  0.00     0.026 A 
ATOM     10  C   UNL     1      12.605  20.826  39.388  1.00  0.00     0.039 A 
BRANCH   6  11
ATOM     11  C   UNL     1      10.833  17.627  38.164  1.00  0.00     0.120 C 
BRANCH  11  12
ATOM     12  N   UNL     1      11.618  16.489  38.695  1.00  0.00    -0.297 NA
ATOM     13  C   UNL     1       8.228  14.124  39.317  1.00  0.00     0.105 C 
ATOM     14  N   UNL     1       9.358  15.038  39.093  1.00  0.00    -0.304 NA
ATOM     15  C   UNL     1      10.130  14.624  37.902  1.00  0.00     0.099 C 
ATOM     16  C   UNL     1      10.221  15.097  40.283  1.00  0.00     0.099 C 
ATOM     17  C   UNL     1      11.531  15.270  37.861  1.00  0.00     0.100 C 
ATOM     18  C   UNL     1      11.293  16.196  40.113  1.00  0.00     0.100 C 
ENDBRANCH  11  12
ENDBRANCH   6  11
BRANCH   8  19
ATOM     19  C   UNL     1      13.518  19.062  37.825  1.00  0.00     0.416 C 
ATOM     20  F   UNL     1      14.191  18.008  38.420  1.00  0.00    -0.166 F 
ATOM     21  F   UNL     1      12.995  18.597  36.632  1.00  0.00    -0.166 F 
ATOM     22  F   UNL     1      14.437  20.061  37.564  1.00  0.00    -0.166 F 
ENDBRANCH   8  19
ENDBRANCH   1   5
BRANCH   2  23
ATOM     23  C   UNL     1      12.393  25.110  40.820  1.00  0.00     0.041 A 
ATOM     24  C   UNL     1      13.750  25.430  40.632  1.00  0.00     0.031 A 
ATOM     25  C   UNL     1      11.599  25.957  41.609  1.00  0.00     0.014 A 
ATOM     26  C   UNL     1      14.299  26.585  41.205  1.00  0.00     0.029 A 
ATOM     27  C   UNL     1      12.142  27.106  42.187  1.00  0.00     0.005 A 
ATOM     28  C   UNL     1      13.492  27.433  41.994  1.00  0.00    -0.035 A 
ATOM     29  C   UNL     1      14.050  28.691  42.606  1.00  0.00     0.045 C 
BRANCH  26  30
ATOM     30  C   UNL     1      15.689  26.894  40.962  1.00  0.00    -0.060 C 
ATOM     31  C   UNL     1      16.847  27.162  40.765  1.00  0.00    -0.040 C 
BRANCH  31  32
ATOM     32  C   UNL     1      18.227  27.491  40.533  1.00  0.00     0.135 A 
ATOM     33  C   UNL     1      18.828  28.729  40.688  1.00  0.00     0.151 A 
ATOM     34  N   UNL     1      19.174  26.640  40.128  1.00  0.00    -0.205 N 
ATOM     35  N   UNL     1      20.148  28.643  40.377  1.00  0.00    -0.234 NA
ATOM     36  C   UNL     1      20.307  27.345  40.041  1.00  0.00     0.154 A 
ATOM     37  N   UNL     1      19.080  25.341  39.847  1.00  0.00    -0.174 NA
ATOM     38  C   UNL     1      21.486  26.730  39.637  1.00  0.00     0.051 A 
ATOM     39  C   UNL     1      20.199  24.673  39.443  1.00  0.00     0.134 A 
ATOM     40  C   UNL     1      21.424  25.361  39.331  1.00  0.00     0.026 A 
ENDBRANCH  31  32
ENDBRANCH  26  30
ENDBRANCH   2  23
TORSDOF 7
ENDMDL
MODEL 13
REMARK VINA RESULT:   -10.405      7.813     13.888
REMARK INTER + INTRA:         -14.410
REMARK INTER:                 -13.251
REMARK INTRA:                  -1.159
REMARK UNBOUND:                 0.254
REMARK SMILES Cc1ccc(C(=O)Nc2ccc(CN3CCN(C)CC3)c(C(F)(F)F)c2)cc1C#Cc1cnc2cccnn12
REMARK SMILES IDX 8 1 6 2 7 3 9 5 12 6 11 7 21 8 10 9 26 10 13 11 14 12 18 13
REMARK SMILES IDX 17 14 16 15 19 16 15 17 20 18 22 19 23 20 24 21 25 22 5 23
REMARK SMILES IDX 27 24 4 25 28 26 3 27 2 28 1 29 29 30 30 31 31 32 32 33
REMARK SMILES IDX 39 34 33 35 34 36 38 37 35 38 37 39 36 40
REMARK H PARENT 8 4
REMARK Flexibility Score: inf
ROOT
ATOM      1  N   UNL     1      14.499  23.962  40.054  1.00  0.00    -0.322 N 
ATOM      2  C   UNL     1      14.613  25.377  39.827  1.00  0.00     0.255 C 
ATOM      3  O   UNL     1      13.651  26.005  39.302  1.00  0.00    -0.269 OA
ATOM      4  H   UNL     1      15.062  23.539  40.827  1.00  0.00     0.170 HD
ENDROOT
BRANCH   1   5
ATOM      5  C   UNL     1      13.533  23.125  39.395  1.00  0.00     0.042 A 
ATOM      6  C   UNL     1      11.636  21.430  38.167  1.00  0.00    -0.022 A 
ATOM      7  C   UNL     1      12.905  21.634  37.593  1.00  0.00     0.008 A 
ATOM      8  C   UNL     1      11.312  22.084  39.390  1.00  0.00     0.062 A 
ATOM      9  C   UNL     1      13.840  22.470  38.197  1.00  0.00     0.026 A 
ATOM     10  C   UNL     1      12.286  22.908  39.994  1.00  0.00     0.039 A 
BRANCH   6  11
ATOM     11  C   UNL     1      10.682  20.488  37.454  1.00  0.00     0.120 C 
BRANCH  11  12
ATOM     12  N   UNL     1      11.286  19.157  37.220  1.00  0.00    -0.297 NA
ATOM     13  C   UNL     1       8.195  17.142  39.185  1.00  0.00     0.105 C 
ATOM     14  N   UNL     1       9.251  17.937  38.541  1.00  0.00    -0.304 NA
ATOM     15  C   UNL     1       9.160  17.821  37.070  1.00  0.00     0.099 C 
ATOM     16  C   UNL     1      10.578  17.521  39.019  1.00  0.00     0.099 C 
ATOM     17  C   UNL     1      10.458  18.275  36.368  1.00  0.00     0.100 C 
ATOM     18  C   UNL     1      11.664  18.482  38.486  1.00  0.00     0.100 C 
ENDBRANCH  11  12
ENDBRANCH   6  11
BRANCH   8  19
ATOM     19  C   UNL     1       9.977  21.882  40.089  1.00  0.00     0.416 C 
ATOM     20  F   UNL     1       9.892  22.626  41.254  1.00  0.00    -0.166 F 
ATOM     21  F   UNL     1       8.936  22.278  39.270  1.00  0.00    -0.166 F 
ATOM     22  F   UNL     1       9.818  20.550  40.421  1.00  0.00    -0.166 F 
ENDBRANCH   8  19
ENDBRANCH   1   5
BRANCH   2  23
ATOM     23  C   UNL     1      15.821  26.121  40.259  1.00  0.00     0.041 A 
ATOM     24  C   UNL     1      17.092  25.527  40.165  1.00  0.00     0.031 A 
ATOM     25  C   UNL     1      15.718  27.425  40.771  1.00  0.00     0.014 A 
ATOM     26  C   UNL     1      18.242  26.228  40.554  1.00  0.00     0.029 A 
ATOM     27  C   UNL     1      16.860  28.125  41.166  1.00  0.00     0.005 A 
ATOM     28  C   UNL     1      18.129  27.539  41.063  1.00  0.00    -0.035 A 
ATOM     29  C   UNL     1      19.348  28.323  41.471  1.00  0.00     0.045 C 
BRANCH  26  30
ATOM     30  C   UNL     1      19.531  25.592  40.410  1.00  0.00    -0.060 C 
ATOM     31  C   UNL     1      20.608  25.063  40.303  1.00  0.00    -0.040 C 
BRANCH  31  32
ATOM     32  C   UNL     1      21.895  24.433  40.184  1.00  0.00     0.135 A 
ATOM     33  C   UNL     1      22.745  24.070  41.215  1.00  0.00     0.151 A 
ATOM     34  N   UNL     1      22.490  24.086  39.039  1.00  0.00    -0.205 N 
ATOM     35  N   UNL     1      23.868  23.497  40.706  1.00  0.00    -0.234 NA
ATOM     36  C   UNL     1      23.661  23.532  39.373  1.00  0.00     0.154 A 
ATOM     37  N   UNL     1      22.064  24.232  37.786  1.00  0.00    -0.174 NA
ATOM     38  C   UNL     1      24.522  23.066  38.386  1.00  0.00     0.051 A 
ATOM     39  C   UNL     1      22.859  23.797  36.766  1.00  0.00     0.134 A 
ATOM     40  C   UNL     1      24.106  23.205  37.052  1.00  0.00     0.026 A 
ENDBRANCH  31  32
ENDBRANCH  26  30
ENDBRANCH   2  23
TORSDOF 7
ENDMDL
MODEL 14
REMARK VINA RESULT:   -10.363      8.356     13.844
REMARK INTER + INTRA:         -14.350
REMARK INTER:                 -13.463
REMARK INTRA:                  -0.887
REMARK UNBOUND:                 0.254
REMARK SMILES Cc1ccc(C(=O)Nc2ccc(CN3CCN(C)CC3)c(C(F)(F)F)c2)cc1C#Cc1cnc2cccnn12
REMARK SMILES IDX 8 1 6 2 7 3 9 5 12 6 11 7 21 8 10 9 26 10 13 11 14 12 18 13
REMARK SMILES IDX 17 14 16 15 19 16 15 17 20 18 22 19 23 20 24 21 25 22 5 23
REMARK SMILES IDX 27 24 4 25 28 26 3 27 2 28 1 29 29 30 30 31 31 32 32 33
REMARK SMILES IDX 39 34 33 35 34 36 38 37 35 38 37 39 36 40
REMARK H PARENT 8 4
REMARK Flexibility Score: inf
ROOT
ATOM      1  N   UNL     1      13.450  22.670  39.586  1.00  0.00    -0.322 N 
ATOM      2  C   UNL     1      12.972  24.018  39.728  1.00  0.00     0.255 C 
ATOM      3  O   UNL     1      11.777  24.292  39.425  1.00  0.00    -0.269 OA
ATOM      4  H   UNL     1      14.238  22.357  40.199  1.00  0.00     0.170 HD
ENDROOT
BRANCH   1   5
ATOM      5  C   UNL     1      12.800  21.675  38.776  1.00  0.00     0.042 A 
ATOM      6  C   UNL     1      11.569  19.664  37.220  1.00  0.00    -0.022 A 
ATOM      7  C   UNL     1      12.328  20.684  36.617  1.00  0.00     0.008 A 
ATOM      8  C   UNL     1      11.430  19.645  38.638  1.00  0.00     0.062 A 
ATOM      9  C   UNL     1      12.934  21.676  37.382  1.00  0.00     0.026 A 
ATOM     10  C   UNL     1      12.073  20.649  39.393  1.00  0.00     0.039 A 
BRANCH   6  11
ATOM     11  C   UNL     1      10.957  18.610  36.315  1.00  0.00     0.120 C 
BRANCH  11  12
ATOM     12  N   UNL     1       9.503  18.814  36.126  1.00  0.00    -0.297 NA
ATOM     13  C   UNL     1       9.991  20.543  32.351  1.00  0.00     0.105 C 
ATOM     14  N   UNL     1       9.919  19.953  33.696  1.00  0.00    -0.304 NA
ATOM     15  C   UNL     1       9.428  18.561  33.625  1.00  0.00     0.099 C 
ATOM     16  C   UNL     1       9.064  20.767  34.575  1.00  0.00     0.099 C 
ATOM     17  C   UNL     1       8.940  18.043  34.995  1.00  0.00     0.100 C 
ATOM     18  C   UNL     1       9.145  20.251  36.029  1.00  0.00     0.100 C 
ENDBRANCH  11  12
ENDBRANCH   6  11
BRANCH   8  19
ATOM     19  C   UNL     1      10.658  18.554  39.363  1.00  0.00     0.416 C 
ATOM     20  F   UNL     1       9.290  18.718  39.225  1.00  0.00    -0.166 F 
ATOM     21  F   UNL     1      10.978  17.311  38.851  1.00  0.00    -0.166 F 
ATOM     22  F   UNL     1      10.957  18.586  40.712  1.00  0.00    -0.166 F 
ENDBRANCH   8  19
ENDBRANCH   1   5
BRANCH   2  23
ATOM     23  C   UNL     1      13.846  25.079  40.286  1.00  0.00     0.041 A 
ATOM     24  C   UNL     1      15.223  25.085  40.003  1.00  0.00     0.031 A 
ATOM     25  C   UNL     1      13.317  26.089  41.105  1.00  0.00     0.014 A 
ATOM     26  C   UNL     1      16.054  26.093  40.510  1.00  0.00     0.029 A 
ATOM     27  C   UNL     1      14.141  27.092  41.618  1.00  0.00     0.005 A 
ATOM     28  C   UNL     1      15.513  27.107  41.329  1.00  0.00    -0.035 A 
ATOM     29  C   UNL     1      16.378  28.214  41.873  1.00  0.00     0.045 C 
BRANCH  26  30
ATOM     30  C   UNL     1      17.457  26.081  40.169  1.00  0.00    -0.060 C 
ATOM     31  C   UNL     1      18.631  26.076  39.895  1.00  0.00    -0.040 C 
BRANCH  31  32
ATOM     32  C   UNL     1      20.033  26.076  39.576  1.00  0.00     0.135 A 
ATOM     33  C   UNL     1      20.966  27.040  39.915  1.00  0.00     0.151 A 
ATOM     34  N   UNL     1      20.676  25.125  38.891  1.00  0.00    -0.205 N 
ATOM     35  N   UNL     1      22.189  26.685  39.439  1.00  0.00    -0.234 NA
ATOM     36  C   UNL     1      21.956  25.508  38.822  1.00  0.00     0.154 A 
ATOM     37  N   UNL     1      20.204  24.000  38.357  1.00  0.00    -0.174 NA
ATOM     38  C   UNL     1      22.889  24.717  38.160  1.00  0.00     0.051 A 
ATOM     39  C   UNL     1      21.063  23.176  37.692  1.00  0.00     0.134 A 
ATOM     40  C   UNL     1      22.425  23.524  37.583  1.00  0.00     0.026 A 
ENDBRANCH  31  32
ENDBRANCH  26  30
ENDBRANCH   2  23
TORSDOF 7
ENDMDL
MODEL 15
REMARK VINA RESULT:   -10.120      7.458     15.517
REMARK INTER + INTRA:         -14.008
REMARK INTER:                 -13.175
REMARK INTRA:                  -0.833
REMARK UNBOUND:                 0.254
REMARK SMILES Cc1ccc(C(=O)Nc2ccc(CN3CCN(C)CC3)c(C(F)(F)F)c2)cc1C#Cc1cnc2cccnn12
REMARK SMILES IDX 8 1 6 2 7 3 9 5 12 6 11 7 21 8 10 9 26 10 13 11 14 12 18 13
REMARK SMILES IDX 17 14 16 15 19 16 15 17 20 18 22 19 23 20 24 21 25 22 5 23
REMARK SMILES IDX 27 24 4 25 28 26 3 27 2 28 1 29 29 30 30 31 31 32 32 33
REMARK SMILES IDX 39 34 33 35 34 36 38 37 35 38 37 39 36 40
REMARK H PARENT 8 4
REMARK Flexibility Score: inf
ROOT
ATOM      1  N   UNL     1      14.235  26.612  41.275  1.00  0.00    -0.322 N 
ATOM      2  C   UNL     1      15.390  25.845  40.895  1.00  0.00     0.255 C 
ATOM      3  O   UNL     1      15.261  24.621  40.612  1.00  0.00    -0.269 OA
ATOM      4  H   UNL     1      14.247  27.643  41.099  1.00  0.00     0.170 HD
ENDROOT
BRANCH   1   5
ATOM      5  C   UNL     1      13.002  26.026  41.725  1.00  0.00     0.042 A 
ATOM      6  C   UNL     1      10.539  24.940  42.582  1.00  0.00    -0.022 A 
ATOM      7  C   UNL     1      11.561  25.234  43.503  1.00  0.00     0.008 A 
ATOM      8  C   UNL     1      10.752  25.204  41.198  1.00  0.00     0.062 A 
ATOM      9  C   UNL     1      12.775  25.769  43.082  1.00  0.00     0.026 A 
ATOM     10  C   UNL     1      11.983  25.767  40.800  1.00  0.00     0.039 A 
BRANCH   6  11
ATOM     11  C   UNL     1       9.238  24.377  43.126  1.00  0.00     0.120 C 
BRANCH  11  12
ATOM     12  N   UNL     1       9.163  22.906  42.980  1.00  0.00    -0.297 NA
ATOM     13  C   UNL     1      10.460  22.208  46.891  1.00  0.00     0.105 C 
ATOM     14  N   UNL     1      10.041  22.549  45.524  1.00  0.00    -0.304 NA
ATOM     15  C   UNL     1       8.587  22.338  45.361  1.00  0.00     0.099 C 
ATOM     16  C   UNL     1      10.800  21.763  44.538  1.00  0.00     0.099 C 
ATOM     17  C   UNL     1       8.171  22.273  43.876  1.00  0.00     0.100 C 
ATOM     18  C   UNL     1      10.493  22.260  43.107  1.00  0.00     0.100 C 
ENDBRANCH  11  12
ENDBRANCH   6  11
BRANCH   8  19
ATOM     19  C   UNL     1       9.681  24.948  40.149  1.00  0.00     0.416 C 
ATOM     20  F   UNL     1       9.403  23.598  40.022  1.00  0.00    -0.166 F 
ATOM     21  F   UNL     1       8.502  25.581  40.494  1.00  0.00    -0.166 F 
ATOM     22  F   UNL     1      10.109  25.413  38.920  1.00  0.00    -0.166 F 
ENDBRANCH   8  19
ENDBRANCH   1   5
BRANCH   2  23
ATOM     23  C   UNL     1      16.721  26.487  40.771  1.00  0.00     0.041 A 
ATOM     24  C   UNL     1      17.808  25.770  40.238  1.00  0.00     0.031 A 
ATOM     25  C   UNL     1      16.921  27.815  41.182  1.00  0.00     0.014 A 
ATOM     26  C   UNL     1      19.065  26.373  40.098  1.00  0.00     0.029 A 
ATOM     27  C   UNL     1      18.173  28.418  41.051  1.00  0.00     0.005 A 
ATOM     28  C   UNL     1      19.255  27.709  40.511  1.00  0.00    -0.035 A 
ATOM     29  C   UNL     1      20.590  28.390  40.356  1.00  0.00     0.045 C 
BRANCH  26  30
ATOM     30  C   UNL     1      20.146  25.612  39.517  1.00  0.00    -0.060 C 
ATOM     31  C   UNL     1      21.054  24.986  39.032  1.00  0.00    -0.040 C 
BRANCH  31  32
ATOM     32  C   UNL     1      22.144  24.248  38.452  1.00  0.00     0.135 A 
ATOM     33  C   UNL     1      22.258  23.820  37.140  1.00  0.00     0.151 A 
ATOM     34  N   UNL     1      23.246  23.853  39.095  1.00  0.00    -0.205 N 
ATOM     35  N   UNL     1      23.433  23.158  36.973  1.00  0.00    -0.234 NA
ATOM     36  C   UNL     1      23.998  23.207  38.197  1.00  0.00     0.154 A 
ATOM     37  N   UNL     1      23.593  24.030  40.369  1.00  0.00    -0.174 NA
ATOM     38  C   UNL     1      25.225  22.667  38.569  1.00  0.00     0.051 A 
ATOM     39  C   UNL     1      24.783  23.527  40.804  1.00  0.00     0.134 A 
ATOM     40  C   UNL     1      25.621  22.833  39.906  1.00  0.00     0.026 A 
ENDBRANCH  31  32
ENDBRANCH  26  30
ENDBRANCH   2  23
TORSDOF 7
ENDMDL
