MODEL 1
REMARK VINA RESULT:   -10.374      0.000      0.000
REMARK INTER + INTRA:         -15.533
REMARK INTER:                 -14.619
REMARK INTRA:                  -0.914
REMARK UNBOUND:                -0.914
REMARK SMILES Cc1ccc(C(=O)Nc2ccc(CN3CCN(C)CC3)c(C(F)(F)F)c2)cc1C#Cc1cnc2cccnn12
REMARK SMILES IDX 8 1 6 2 7 3 9 5 12 6 11 7 21 8 10 9 26 10 13 11 14 12 18 13
REMARK SMILES IDX 17 14 16 15 19 16 15 17 20 18 22 19 23 20 24 21 25 22 5 23
REMARK SMILES IDX 27 24 4 25 28 26 3 27 2 28 1 29 29 30 30 31 31 32 32 33
REMARK SMILES IDX 39 34 33 35 34 36 38 37 35 38 37 39 36 40
REMARK H PARENT 8 4
REMARK Flexibility Score: inf
ROOT
ATOM      1  N   UNL     1      22.941  34.365  12.586  1.00  0.00    -0.322 N 
ATOM      2  C   UNL     1      21.943  33.983  13.548  1.00  0.00     0.255 C 
ATOM      3  O   UNL     1      22.287  33.717  14.733  1.00  0.00    -0.269 OA
ATOM      4  H   UNL     1      22.649  34.968  11.784  1.00  0.00     0.170 HD
ENDROOT
BRANCH   1   5
ATOM      5  C   UNL     1      24.347  34.109  12.753  1.00  0.00     0.042 A 
ATOM      6  C   UNL     1      27.089  33.533  13.108  1.00  0.00    -0.022 A 
ATOM      7  C   UNL     1      26.467  34.571  13.827  1.00  0.00     0.008 A 
ATOM      8  C   UNL     1      26.317  32.759  12.195  1.00  0.00     0.062 A 
ATOM      9  C   UNL     1      25.116  34.856  13.653  1.00  0.00     0.026 A 
ATOM     10  C   UNL     1      24.944  33.054  12.052  1.00  0.00     0.039 A 
BRANCH   6  11
ATOM     11  C   UNL     1      28.562  33.275  13.371  1.00  0.00     0.120 C 
BRANCH  11  12
ATOM     12  N   UNL     1      28.771  32.126  14.282  1.00  0.00    -0.297 NA
ATOM     13  C   UNL     1      31.898  34.002  16.325  1.00  0.00     0.105 C 
ATOM     14  N   UNL     1      30.812  33.411  15.530  1.00  0.00    -0.304 NA
ATOM     15  C   UNL     1      29.550  33.405  16.302  1.00  0.00     0.099 C 
ATOM     16  C   UNL     1      31.168  32.050  15.097  1.00  0.00     0.099 C 
ATOM     17  C   UNL     1      28.504  32.441  15.702  1.00  0.00     0.100 C 
ATOM     18  C   UNL     1      30.110  31.510  14.109  1.00  0.00     0.100 C 
ENDBRANCH  11  12
ENDBRANCH   6  11
BRANCH   8  19
ATOM     19  C   UNL     1      26.910  31.599  11.411  1.00  0.00     0.416 C 
ATOM     20  F   UNL     1      28.132  31.932  10.852  1.00  0.00    -0.166 F 
ATOM     21  F   UNL     1      27.116  30.510  12.237  1.00  0.00    -0.166 F 
ATOM     22  F   UNL     1      26.056  31.242  10.385  1.00  0.00    -0.166 F 
ENDBRANCH   8  19
ENDBRANCH   1   5
BRANCH   2  23
ATOM     23  C   UNL     1      20.505  33.960  13.182  1.00  0.00     0.041 A 
ATOM     24  C   UNL     1      20.089  33.359  11.981  1.00  0.00     0.031 A 
ATOM     25  C   UNL     1      19.540  34.537  14.023  1.00  0.00     0.014 A 
ATOM     26  C   UNL     1      18.731  33.316  11.635  1.00  0.00     0.029 A 
ATOM     27  C   UNL     1      18.187  34.502  13.680  1.00  0.00     0.005 A 
ATOM     28  C   UNL     1      17.768  33.895  12.488  1.00  0.00    -0.035 A 
ATOM     29  C   UNL     1      16.300  33.846  12.151  1.00  0.00     0.045 C 
BRANCH  26  30
ATOM     30  C   UNL     1      18.343  32.661  10.407  1.00  0.00    -0.060 C 
ATOM     31  C   UNL     1      18.024  32.105   9.387  1.00  0.00    -0.040 C 
BRANCH  31  32
ATOM     32  C   UNL     1      17.647  31.432   8.174  1.00  0.00     0.135 A 
ATOM     33  C   UNL     1      18.425  31.254   7.042  1.00  0.00     0.151 A 
ATOM     34  N   UNL     1      16.466  30.854   7.937  1.00  0.00    -0.205 N 
ATOM     35  N   UNL     1      17.723  30.566   6.104  1.00  0.00    -0.234 NA
ATOM     36  C   UNL     1      16.533  30.346   6.702  1.00  0.00     0.154 A 
ATOM     37  N   UNL     1      15.395  30.764   8.724  1.00  0.00    -0.174 NA
ATOM     38  C   UNL     1      15.442  29.675   6.160  1.00  0.00     0.051 A 
ATOM     39  C   UNL     1      14.287  30.120   8.257  1.00  0.00     0.134 A 
ATOM     40  C   UNL     1      14.294  29.563   6.961  1.00  0.00     0.026 A 
ENDBRANCH  31  32
ENDBRANCH  26  30
ENDBRANCH   2  23
TORSDOF 7
ENDMDL
MODEL 2
REMARK VINA RESULT:    -9.981      1.877      2.837
REMARK INTER + INTRA:         -14.980
REMARK INTER:                 -14.304
REMARK INTRA:                  -0.675
REMARK UNBOUND:                -0.914
REMARK SMILES Cc1ccc(C(=O)Nc2ccc(CN3CCN(C)CC3)c(C(F)(F)F)c2)cc1C#Cc1cnc2cccnn12
REMARK SMILES IDX 8 1 6 2 7 3 9 5 12 6 11 7 21 8 10 9 26 10 13 11 14 12 18 13
REMARK SMILES IDX 17 14 16 15 19 16 15 17 20 18 22 19 23 20 24 21 25 22 5 23
REMARK SMILES IDX 27 24 4 25 28 26 3 27 2 28 1 29 29 30 30 31 31 32 32 33
REMARK SMILES IDX 39 34 33 35 34 36 38 37 35 38 37 39 36 40
REMARK H PARENT 8 4
REMARK Flexibility Score: inf
ROOT
ATOM      1  N   UNL     1      23.000  34.232  14.639  1.00  0.00    -0.322 N 
ATOM      2  C   UNL     1      22.104  33.519  15.508  1.00  0.00     0.255 C 
ATOM      3  O   UNL     1      22.571  32.728  16.375  1.00  0.00    -0.269 OA
ATOM      4  H   UNL     1      22.684  35.148  14.246  1.00  0.00     0.170 HD
ENDROOT
BRANCH   1   5
ATOM      5  C   UNL     1      24.367  33.845  14.414  1.00  0.00     0.042 A 
ATOM      6  C   UNL     1      27.030  33.009  13.977  1.00  0.00    -0.022 A 
ATOM      7  C   UNL     1      26.686  33.774  15.108  1.00  0.00     0.008 A 
ATOM      8  C   UNL     1      26.013  32.646  13.047  1.00  0.00     0.062 A 
ATOM      9  C   UNL     1      25.375  34.187  15.324  1.00  0.00     0.026 A 
ATOM     10  C   UNL     1      24.688  33.059  13.301  1.00  0.00     0.039 A 
BRANCH   6  11
ATOM     11  C   UNL     1      28.479  32.582  13.827  1.00  0.00     0.120 C 
BRANCH  11  12
ATOM     12  N   UNL     1      29.288  32.931  15.017  1.00  0.00    -0.297 NA
ATOM     13  C   UNL     1      31.506  29.392  14.847  1.00  0.00     0.105 C 
ATOM     14  N   UNL     1      30.656  30.592  14.846  1.00  0.00    -0.304 NA
ATOM     15  C   UNL     1      31.416  31.763  14.358  1.00  0.00     0.099 C 
ATOM     16  C   UNL     1      30.110  30.842  16.189  1.00  0.00     0.099 C 
ATOM     17  C   UNL     1      30.729  33.096  14.723  1.00  0.00     0.100 C 
ATOM     18  C   UNL     1      29.072  31.986  16.140  1.00  0.00     0.100 C 
ENDBRANCH  11  12
ENDBRANCH   6  11
BRANCH   8  19
ATOM     19  C   UNL     1      26.301  31.791  11.824  1.00  0.00     0.416 C 
ATOM     20  F   UNL     1      26.700  30.512  12.177  1.00  0.00    -0.166 F 
ATOM     21  F   UNL     1      25.169  31.668  11.040  1.00  0.00    -0.166 F 
ATOM     22  F   UNL     1      27.315  32.363  11.080  1.00  0.00    -0.166 F 
ENDBRANCH   8  19
ENDBRANCH   1   5
BRANCH   2  23
ATOM     23  C   UNL     1      20.640  33.748  15.443  1.00  0.00     0.041 A 
ATOM     24  C   UNL     1      19.994  33.860  14.199  1.00  0.00     0.031 A 
ATOM     25  C   UNL     1      19.876  33.860  16.617  1.00  0.00     0.014 A 
ATOM     26  C   UNL     1      18.608  34.058  14.126  1.00  0.00     0.029 A 
ATOM     27  C   UNL     1      18.497  34.064  16.550  1.00  0.00     0.005 A 
ATOM     28  C   UNL     1      17.849  34.166  15.311  1.00  0.00    -0.035 A 
ATOM     29  C   UNL     1      16.356  34.360  15.264  1.00  0.00     0.045 C 
BRANCH  26  30
ATOM     30  C   UNL     1      17.980  34.136  12.828  1.00  0.00    -0.060 C 
ATOM     31  C   UNL     1      17.460  34.212  11.744  1.00  0.00    -0.040 C 
BRANCH  31  32
ATOM     32  C   UNL     1      16.842  34.313  10.450  1.00  0.00     0.135 A 
ATOM     33  C   UNL     1      16.090  35.369   9.963  1.00  0.00     0.151 A 
ATOM     34  N   UNL     1      16.897  33.389   9.486  1.00  0.00    -0.205 N 
ATOM     35  N   UNL     1      15.679  35.097   8.697  1.00  0.00    -0.234 NA
ATOM     36  C   UNL     1      16.199  33.875   8.454  1.00  0.00     0.154 A 
ATOM     37  N   UNL     1      17.503  32.203   9.484  1.00  0.00    -0.174 NA
ATOM     38  C   UNL     1      16.068  33.134   7.285  1.00  0.00     0.051 A 
ATOM     39  C   UNL     1      17.416  31.421   8.370  1.00  0.00     0.134 A 
ATOM     40  C   UNL     1      16.693  31.877   7.248  1.00  0.00     0.026 A 
ENDBRANCH  31  32
ENDBRANCH  26  30
ENDBRANCH   2  23
TORSDOF 7
ENDMDL
MODEL 3
REMARK VINA RESULT:    -9.873      2.380      3.415
REMARK INTER + INTRA:         -14.827
REMARK INTER:                 -13.940
REMARK INTRA:                  -0.887
REMARK UNBOUND:                -0.914
REMARK SMILES Cc1ccc(C(=O)Nc2ccc(CN3CCN(C)CC3)c(C(F)(F)F)c2)cc1C#Cc1cnc2cccnn12
REMARK SMILES IDX 8 1 6 2 7 3 9 5 12 6 11 7 21 8 10 9 26 10 13 11 14 12 18 13
REMARK SMILES IDX 17 14 16 15 19 16 15 17 20 18 22 19 23 20 24 21 25 22 5 23
REMARK SMILES IDX 27 24 4 25 28 26 3 27 2 28 1 29 29 30 30 31 31 32 32 33
REMARK SMILES IDX 39 34 33 35 34 36 38 37 35 38 37 39 36 40
REMARK H PARENT 8 4
REMARK Flexibility Score: inf
ROOT
ATOM      1  N   UNL     1      24.001  33.961  13.688  1.00  0.00    -0.322 N 
ATOM      2  C   UNL     1      23.165  33.022  14.384  1.00  0.00     0.255 C 
ATOM      3  O   UNL     1      23.673  31.971  14.866  1.00  0.00    -0.269 OA
ATOM      4  H   UNL     1      23.707  34.965  13.668  1.00  0.00     0.170 HD
ENDROOT
BRANCH   1   5
ATOM      5  C   UNL     1      25.300  33.635  13.164  1.00  0.00     0.042 A 
ATOM      6  C   UNL     1      27.867  33.075  12.126  1.00  0.00    -0.022 A 
ATOM      7  C   UNL     1      26.705  32.647  11.456  1.00  0.00     0.008 A 
ATOM      8  C   UNL     1      27.740  33.810  13.339  1.00  0.00     0.062 A 
ATOM      9  C   UNL     1      25.439  32.922  11.967  1.00  0.00     0.026 A 
ATOM     10  C   UNL     1      26.446  34.094  13.825  1.00  0.00     0.039 A 
BRANCH   6  11
ATOM     11  C   UNL     1      29.207  32.752  11.491  1.00  0.00     0.120 C 
BRANCH  11  12
ATOM     12  N   UNL     1      29.299  31.333  11.076  1.00  0.00    -0.297 NA
ATOM     13  C   UNL     1      32.256  30.448  13.894  1.00  0.00     0.105 C 
ATOM     14  N   UNL     1      31.239  30.859  12.916  1.00  0.00    -0.304 NA
ATOM     15  C   UNL     1      29.908  30.346  13.307  1.00  0.00     0.099 C 
ATOM     16  C   UNL     1      31.602  30.400  11.566  1.00  0.00     0.099 C 
ATOM     17  C   UNL     1      28.902  30.381  12.137  1.00  0.00     0.100 C 
ATOM     18  C   UNL     1      30.632  30.995  10.520  1.00  0.00     0.100 C 
ENDBRANCH  11  12
ENDBRANCH   6  11
BRANCH   8  19
ATOM     19  C   UNL     1      28.947  34.338  14.098  1.00  0.00     0.416 C 
ATOM     20  F   UNL     1      29.616  35.314  13.378  1.00  0.00    -0.166 F 
ATOM     21  F   UNL     1      28.558  34.904  15.297  1.00  0.00    -0.166 F 
ATOM     22  F   UNL     1      29.835  33.307  14.343  1.00  0.00    -0.166 F 
ENDBRANCH   8  19
ENDBRANCH   1   5
BRANCH   2  23
ATOM     23  C   UNL     1      21.724  33.301  14.598  1.00  0.00     0.041 A 
ATOM     24  C   UNL     1      20.863  33.470  13.499  1.00  0.00     0.031 A 
ATOM     25  C   UNL     1      21.196  33.403  15.896  1.00  0.00     0.014 A 
ATOM     26  C   UNL     1      19.496  33.716  13.691  1.00  0.00     0.029 A 
ATOM     27  C   UNL     1      19.837  33.654  16.092  1.00  0.00     0.005 A 
ATOM     28  C   UNL     1      18.974  33.814  14.999  1.00  0.00    -0.035 A 
ATOM     29  C   UNL     1      17.507  34.058  15.235  1.00  0.00     0.045 C 
BRANCH  26  30
ATOM     30  C   UNL     1      18.641  33.852  12.535  1.00  0.00    -0.060 C 
ATOM     31  C   UNL     1      17.938  33.966  11.563  1.00  0.00    -0.040 C 
BRANCH  31  32
ATOM     32  C   UNL     1      17.107  34.102  10.398  1.00  0.00     0.135 A 
ATOM     33  C   UNL     1      16.255  35.151  10.098  1.00  0.00     0.151 A 
ATOM     34  N   UNL     1      17.023  33.224   9.394  1.00  0.00    -0.205 N 
ATOM     35  N   UNL     1      15.643  34.921   8.907  1.00  0.00    -0.234 NA
ATOM     36  C   UNL     1      16.148  33.731   8.519  1.00  0.00     0.154 A 
ATOM     37  N   UNL     1      17.653  32.062   9.231  1.00  0.00    -0.174 NA
ATOM     38  C   UNL     1      15.841  33.038   7.353  1.00  0.00     0.051 A 
ATOM     39  C   UNL     1      17.400  31.328   8.109  1.00  0.00     0.134 A 
ATOM     40  C   UNL     1      16.485  31.807   7.149  1.00  0.00     0.026 A 
ENDBRANCH  31  32
ENDBRANCH  26  30
ENDBRANCH   2  23
TORSDOF 7
ENDMDL
MODEL 4
REMARK VINA RESULT:    -9.754      2.479      3.391
REMARK INTER + INTRA:         -14.660
REMARK INTER:                 -13.556
REMARK INTRA:                  -1.104
REMARK UNBOUND:                -0.914
REMARK SMILES Cc1ccc(C(=O)Nc2ccc(CN3CCN(C)CC3)c(C(F)(F)F)c2)cc1C#Cc1cnc2cccnn12
REMARK SMILES IDX 8 1 6 2 7 3 9 5 12 6 11 7 21 8 10 9 26 10 13 11 14 12 18 13
REMARK SMILES IDX 17 14 16 15 19 16 15 17 20 18 22 19 23 20 24 21 25 22 5 23
REMARK SMILES IDX 27 24 4 25 28 26 3 27 2 28 1 29 29 30 30 31 31 32 32 33
REMARK SMILES IDX 39 34 33 35 34 36 38 37 35 38 37 39 36 40
REMARK H PARENT 8 4
REMARK Flexibility Score: inf
ROOT
ATOM      1  N   UNL     1      22.577  34.223  14.109  1.00  0.00    -0.322 N 
ATOM      2  C   UNL     1      21.688  33.827  15.167  1.00  0.00     0.255 C 
ATOM      3  O   UNL     1      22.162  33.346  16.234  1.00  0.00    -0.269 OA
ATOM      4  H   UNL     1      22.260  34.972  13.451  1.00  0.00     0.170 HD
ENDROOT
BRANCH   1   5
ATOM      5  C   UNL     1      23.940  33.776  14.005  1.00  0.00     0.042 A 
ATOM      6  C   UNL     1      26.632  32.958  13.748  1.00  0.00    -0.022 A 
ATOM      7  C   UNL     1      25.578  32.124  13.331  1.00  0.00     0.008 A 
ATOM      8  C   UNL     1      26.331  34.237  14.300  1.00  0.00     0.062 A 
ATOM      9  C   UNL     1      24.251  32.526  13.457  1.00  0.00     0.026 A 
ATOM     10  C   UNL     1      24.979  34.629  14.397  1.00  0.00     0.039 A 
BRANCH   6  11
ATOM     11  C   UNL     1      28.051  32.453  13.557  1.00  0.00     0.120 C 
BRANCH  11  12
ATOM     12  N   UNL     1      28.424  32.371  12.126  1.00  0.00    -0.297 NA
ATOM     13  C   UNL     1      31.948  30.266  12.917  1.00  0.00     0.105 C 
ATOM     14  N   UNL     1      30.707  31.034  12.739  1.00  0.00    -0.304 NA
ATOM     15  C   UNL     1      29.637  30.169  12.199  1.00  0.00     0.099 C 
ATOM     16  C   UNL     1      30.937  32.194  11.863  1.00  0.00     0.099 C 
ATOM     17  C   UNL     1      28.469  30.987  11.607  1.00  0.00     0.100 C 
ATOM     18  C   UNL     1      29.684  33.098  11.832  1.00  0.00     0.100 C 
ENDBRANCH  11  12
ENDBRANCH   6  11
BRANCH   8  19
ATOM     19  C   UNL     1      27.416  35.207  14.737  1.00  0.00     0.416 C 
ATOM     20  F   UNL     1      28.294  35.493  13.704  1.00  0.00    -0.166 F 
ATOM     21  F   UNL     1      26.861  36.404  15.149  1.00  0.00    -0.166 F 
ATOM     22  F   UNL     1      28.145  34.658  15.775  1.00  0.00    -0.166 F 
ENDBRANCH   8  19
ENDBRANCH   1   5
BRANCH   2  23
ATOM     23  C   UNL     1      20.224  34.035  15.046  1.00  0.00     0.041 A 
ATOM     24  C   UNL     1      19.609  34.033  13.782  1.00  0.00     0.031 A 
ATOM     25  C   UNL     1      19.430  34.240  16.187  1.00  0.00     0.014 A 
ATOM     26  C   UNL     1      18.224  34.210  13.658  1.00  0.00     0.029 A 
ATOM     27  C   UNL     1      18.051  34.424  16.069  1.00  0.00     0.005 A 
ATOM     28  C   UNL     1      17.434  34.412  14.810  1.00  0.00    -0.035 A 
ATOM     29  C   UNL     1      15.941  34.586  14.709  1.00  0.00     0.045 C 
BRANCH  26  30
ATOM     30  C   UNL     1      17.628  34.169  12.343  1.00  0.00    -0.060 C 
ATOM     31  C   UNL     1      17.142  34.129  11.242  1.00  0.00    -0.040 C 
BRANCH  31  32
ATOM     32  C   UNL     1      16.569  34.079   9.924  1.00  0.00     0.135 A 
ATOM     33  C   UNL     1      15.762  35.032   9.326  1.00  0.00     0.151 A 
ATOM     34  N   UNL     1      16.730  33.088   9.042  1.00  0.00    -0.205 N 
ATOM     35  N   UNL     1      15.423  34.629   8.074  1.00  0.00    -0.234 NA
ATOM     36  C   UNL     1      16.040  33.435   7.950  1.00  0.00     0.154 A 
ATOM     37  N   UNL     1      17.421  31.955   9.159  1.00  0.00    -0.174 NA
ATOM     38  C   UNL     1      16.010  32.595   6.843  1.00  0.00     0.051 A 
ATOM     39  C   UNL     1      17.436  31.082   8.111  1.00  0.00     0.134 A 
ATOM     40  C   UNL     1      16.727  31.390   6.932  1.00  0.00     0.026 A 
ENDBRANCH  31  32
ENDBRANCH  26  30
ENDBRANCH   2  23
TORSDOF 7
ENDMDL
MODEL 5
REMARK VINA RESULT:    -9.732      3.612     11.810
REMARK INTER + INTRA:         -14.629
REMARK INTER:                 -13.872
REMARK INTRA:                  -0.757
REMARK UNBOUND:                -0.914
REMARK SMILES Cc1ccc(C(=O)Nc2ccc(CN3CCN(C)CC3)c(C(F)(F)F)c2)cc1C#Cc1cnc2cccnn12
REMARK SMILES IDX 8 1 6 2 7 3 9 5 12 6 11 7 21 8 10 9 26 10 13 11 14 12 18 13
REMARK SMILES IDX 17 14 16 15 19 16 15 17 20 18 22 19 23 20 24 21 25 22 5 23
REMARK SMILES IDX 27 24 4 25 28 26 3 27 2 28 1 29 29 30 30 31 31 32 32 33
REMARK SMILES IDX 39 34 33 35 34 36 38 37 35 38 37 39 36 40
REMARK H PARENT 8 4
REMARK Flexibility Score: inf
ROOT
ATOM      1  N   UNL     1      20.966  33.266  14.197  1.00  0.00    -0.322 N 
ATOM      2  C   UNL     1      22.150  34.062  14.015  1.00  0.00     0.255 C 
ATOM      3  O   UNL     1      22.189  34.919  13.089  1.00  0.00    -0.269 OA
ATOM      4  H   UNL     1      20.763  32.893  15.154  1.00  0.00     0.170 HD
ENDROOT
BRANCH   1   5
ATOM      5  C   UNL     1      19.958  33.094  13.186  1.00  0.00     0.042 A 
ATOM      6  C   UNL     1      17.930  32.722  11.256  1.00  0.00    -0.022 A 
ATOM      7  C   UNL     1      19.176  32.080  11.131  1.00  0.00     0.008 A 
ATOM      8  C   UNL     1      17.690  33.564  12.379  1.00  0.00     0.062 A 
ATOM      9  C   UNL     1      20.177  32.263  12.081  1.00  0.00     0.026 A 
ATOM     10  C   UNL     1      18.713  33.716  13.340  1.00  0.00     0.039 A 
BRANCH   6  11
ATOM     11  C   UNL     1      16.887  32.454  10.186  1.00  0.00     0.120 C 
BRANCH  11  12
ATOM     12  N   UNL     1      17.444  32.580   8.820  1.00  0.00    -0.297 NA
ATOM     13  C   UNL     1      14.429  30.245   7.110  1.00  0.00     0.105 C 
ATOM     14  N   UNL     1      15.463  31.027   7.803  1.00  0.00    -0.304 NA
ATOM     15  C   UNL     1      15.283  32.471   7.539  1.00  0.00     0.099 C 
ATOM     16  C   UNL     1      16.806  30.583   7.400  1.00  0.00     0.099 C 
ATOM     17  C   UNL     1      16.548  33.287   7.880  1.00  0.00     0.100 C 
ATOM     18  C   UNL     1      17.881  31.274   8.269  1.00  0.00     0.100 C 
ENDBRANCH  11  12
ENDBRANCH   6  11
BRANCH   8  19
ATOM     19  C   UNL     1      16.357  34.261  12.602  1.00  0.00     0.416 C 
ATOM     20  F   UNL     1      15.326  33.351  12.766  1.00  0.00    -0.166 F 
ATOM     21  F   UNL     1      16.402  35.043  13.740  1.00  0.00    -0.166 F 
ATOM     22  F   UNL     1      16.055  35.054  11.511  1.00  0.00    -0.166 F 
ENDBRANCH   8  19
ENDBRANCH   1   5
BRANCH   2  23
ATOM     23  C   UNL     1      23.301  33.933  14.941  1.00  0.00     0.041 A 
ATOM     24  C   UNL     1      24.564  33.550  14.454  1.00  0.00     0.031 A 
ATOM     25  C   UNL     1      23.153  34.189  16.314  1.00  0.00     0.014 A 
ATOM     26  C   UNL     1      25.663  33.444  15.318  1.00  0.00     0.029 A 
ATOM     27  C   UNL     1      24.242  34.078  17.180  1.00  0.00     0.005 A 
ATOM     28  C   UNL     1      25.504  33.706  16.696  1.00  0.00    -0.035 A 
ATOM     29  C   UNL     1      26.671  33.618  17.644  1.00  0.00     0.045 C 
BRANCH  26  30
ATOM     30  C   UNL     1      26.949  33.078  14.772  1.00  0.00    -0.060 C 
ATOM     31  C   UNL     1      28.019  32.760  14.319  1.00  0.00    -0.040 C 
BRANCH  31  32
ATOM     32  C   UNL     1      29.295  32.373  13.782  1.00  0.00     0.135 A 
ATOM     33  C   UNL     1      30.545  32.685  14.289  1.00  0.00     0.151 A 
ATOM     34  N   UNL     1      29.487  31.629  12.688  1.00  0.00    -0.205 N 
ATOM     35  N   UNL     1      31.511  32.135  13.507  1.00  0.00    -0.234 NA
ATOM     36  C   UNL     1      30.810  31.501  12.543  1.00  0.00     0.154 A 
ATOM     37  N   UNL     1      28.591  31.093  11.861  1.00  0.00    -0.174 NA
ATOM     38  C   UNL     1      31.332  30.773  11.479  1.00  0.00     0.051 A 
ATOM     39  C   UNL     1      29.031  30.366  10.795  1.00  0.00     0.134 A 
ATOM     40  C   UNL     1      30.415  30.195  10.586  1.00  0.00     0.026 A 
ENDBRANCH  31  32
ENDBRANCH  26  30
ENDBRANCH   2  23
TORSDOF 7
ENDMDL
MODEL 6
REMARK VINA RESULT:    -9.694      3.361      6.059
REMARK INTER + INTRA:         -14.575
REMARK INTER:                 -13.579
REMARK INTRA:                  -0.995
REMARK UNBOUND:                -0.914
REMARK SMILES Cc1ccc(C(=O)Nc2ccc(CN3CCN(C)CC3)c(C(F)(F)F)c2)cc1C#Cc1cnc2cccnn12
REMARK SMILES IDX 8 1 6 2 7 3 9 5 12 6 11 7 21 8 10 9 26 10 13 11 14 12 18 13
REMARK SMILES IDX 17 14 16 15 19 16 15 17 20 18 22 19 23 20 24 21 25 22 5 23
REMARK SMILES IDX 27 24 4 25 28 26 3 27 2 28 1 29 29 30 30 31 31 32 32 33
REMARK SMILES IDX 39 34 33 35 34 36 38 37 35 38 37 39 36 40
REMARK H PARENT 8 4
REMARK Flexibility Score: inf
ROOT
ATOM      1  N   UNL     1      22.704  32.318  12.430  1.00  0.00    -0.322 N 
ATOM      2  C   UNL     1      21.767  33.390  12.228  1.00  0.00     0.255 C 
ATOM      3  O   UNL     1      22.191  34.569  12.073  1.00  0.00    -0.269 OA
ATOM      4  H   UNL     1      22.422  31.353  12.141  1.00  0.00     0.170 HD
ENDROOT
BRANCH   1   5
ATOM      5  C   UNL     1      24.066  32.519  12.848  1.00  0.00     0.042 A 
ATOM      6  C   UNL     1      26.751  32.832  13.668  1.00  0.00    -0.022 A 
ATOM      7  C   UNL     1      25.689  33.278  14.477  1.00  0.00     0.008 A 
ATOM      8  C   UNL     1      26.461  32.206  12.422  1.00  0.00     0.062 A 
ATOM      9  C   UNL     1      24.365  33.125  14.074  1.00  0.00     0.026 A 
ATOM     10  C   UNL     1      25.111  32.043  12.046  1.00  0.00     0.039 A 
BRANCH   6  11
ATOM     11  C   UNL     1      28.164  33.019  14.191  1.00  0.00     0.120 C 
BRANCH  11  12
ATOM     12  N   UNL     1      28.544  31.964  15.158  1.00  0.00    -0.297 NA
ATOM     13  C   UNL     1      31.950  34.022  16.436  1.00  0.00     0.105 C 
ATOM     14  N   UNL     1      30.751  33.359  15.903  1.00  0.00    -0.304 NA
ATOM     15  C   UNL     1      29.643  33.432  16.878  1.00  0.00     0.099 C 
ATOM     16  C   UNL     1      31.046  31.962  15.547  1.00  0.00     0.099 C 
ATOM     17  C   UNL     1      28.523  32.417  16.566  1.00  0.00     0.100 C 
ATOM     18  C   UNL     1      29.841  31.330  14.815  1.00  0.00     0.100 C 
ENDBRANCH  11  12
ENDBRANCH   6  11
BRANCH   8  19
ATOM     19  C   UNL     1      27.553  31.665  11.513  1.00  0.00     0.416 C 
ATOM     20  F   UNL     1      28.251  30.630  12.113  1.00  0.00    -0.166 F 
ATOM     21  F   UNL     1      27.010  31.172  10.342  1.00  0.00    -0.166 F 
ATOM     22  F   UNL     1      28.454  32.669  11.214  1.00  0.00    -0.166 F 
ENDBRANCH   8  19
ENDBRANCH   1   5
BRANCH   2  23
ATOM     23  C   UNL     1      20.312  33.118  12.133  1.00  0.00     0.041 A 
ATOM     24  C   UNL     1      19.440  33.567  13.142  1.00  0.00     0.031 A 
ATOM     25  C   UNL     1      19.781  32.410  11.043  1.00  0.00     0.014 A 
ATOM     26  C   UNL     1      18.061  33.332  13.053  1.00  0.00     0.029 A 
ATOM     27  C   UNL     1      18.409  32.168  10.953  1.00  0.00     0.005 A 
ATOM     28  C   UNL     1      17.537  32.623  11.952  1.00  0.00    -0.035 A 
ATOM     29  C   UNL     1      16.057  32.372  11.820  1.00  0.00     0.045 C 
BRANCH  26  30
ATOM     30  C   UNL     1      17.197  33.838  14.094  1.00  0.00    -0.060 C 
ATOM     31  C   UNL     1      16.487  34.262  14.970  1.00  0.00    -0.040 C 
BRANCH  31  32
ATOM     32  C   UNL     1      15.646  34.768  16.021  1.00  0.00     0.135 A 
ATOM     33  C   UNL     1      14.277  34.607  16.146  1.00  0.00     0.151 A 
ATOM     34  N   UNL     1      16.058  35.485  17.071  1.00  0.00    -0.205 N 
ATOM     35  N   UNL     1      13.841  35.227  17.274  1.00  0.00    -0.234 NA
ATOM     36  C   UNL     1      14.970  35.747  17.802  1.00  0.00     0.154 A 
ATOM     37  N   UNL     1      17.286  35.893  17.388  1.00  0.00    -0.174 NA
ATOM     38  C   UNL     1      15.074  36.489  18.973  1.00  0.00     0.051 A 
ATOM     39  C   UNL     1      17.463  36.626  18.524  1.00  0.00     0.134 A 
ATOM     40  C   UNL     1      16.354  36.937  19.337  1.00  0.00     0.026 A 
ENDBRANCH  31  32
ENDBRANCH  26  30
ENDBRANCH   2  23
TORSDOF 7
ENDMDL
MODEL 7
REMARK VINA RESULT:    -9.689      8.775     13.736
REMARK INTER + INTRA:         -14.567
REMARK INTER:                 -14.055
REMARK INTRA:                  -0.512
REMARK UNBOUND:                -0.914
REMARK SMILES Cc1ccc(C(=O)Nc2ccc(CN3CCN(C)CC3)c(C(F)(F)F)c2)cc1C#Cc1cnc2cccnn12
REMARK SMILES IDX 8 1 6 2 7 3 9 5 12 6 11 7 21 8 10 9 26 10 13 11 14 12 18 13
REMARK SMILES IDX 17 14 16 15 19 16 15 17 20 18 22 19 23 20 24 21 25 22 5 23
REMARK SMILES IDX 27 24 4 25 28 26 3 27 2 28 1 29 29 30 30 31 31 32 32 33
REMARK SMILES IDX 39 34 33 35 34 36 38 37 35 38 37 39 36 40
REMARK H PARENT 8 4
REMARK Flexibility Score: inf
ROOT
ATOM      1  N   UNL     1      18.831  36.599  17.463  1.00  0.00    -0.322 N 
ATOM      2  C   UNL     1      18.565  36.172  18.810  1.00  0.00     0.255 C 
ATOM      3  O   UNL     1      18.302  34.959  19.040  1.00  0.00    -0.269 OA
ATOM      4  H   UNL     1      19.435  37.441  17.322  1.00  0.00     0.170 HD
ENDROOT
BRANCH   1   5
ATOM      5  C   UNL     1      18.458  35.842  16.299  1.00  0.00     0.042 A 
ATOM      6  C   UNL     1      17.696  34.296  14.060  1.00  0.00    -0.022 A 
ATOM      7  C   UNL     1      19.046  34.624  14.290  1.00  0.00     0.008 A 
ATOM      8  C   UNL     1      16.705  34.746  14.979  1.00  0.00     0.062 A 
ATOM      9  C   UNL     1      19.422  35.386  15.393  1.00  0.00     0.026 A 
ATOM     10  C   UNL     1      17.115  35.499  16.100  1.00  0.00     0.039 A 
BRANCH   6  11
ATOM     11  C   UNL     1      17.373  33.445  12.846  1.00  0.00     0.120 C 
BRANCH  11  12
ATOM     12  N   UNL     1      18.265  33.744  11.703  1.00  0.00    -0.297 NA
ATOM     13  C   UNL     1      15.790  31.805   8.949  1.00  0.00     0.105 C 
ATOM     14  N   UNL     1      16.611  32.436   9.993  1.00  0.00    -0.304 NA
ATOM     15  C   UNL     1      16.509  33.909   9.911  1.00  0.00     0.099 C 
ATOM     16  C   UNL     1      18.012  32.000   9.884  1.00  0.00     0.099 C 
ATOM     17  C   UNL     1      17.644  34.616  10.682  1.00  0.00     0.100 C 
ATOM     18  C   UNL     1      18.828  32.515  11.092  1.00  0.00     0.100 C 
ENDBRANCH  11  12
ENDBRANCH   6  11
BRANCH   8  19
ATOM     19  C   UNL     1      15.233  34.401  14.817  1.00  0.00     0.416 C 
ATOM     20  F   UNL     1      14.970  33.852  13.573  1.00  0.00    -0.166 F 
ATOM     21  F   UNL     1      14.845  33.475  15.767  1.00  0.00    -0.166 F 
ATOM     22  F   UNL     1      14.466  35.543  14.949  1.00  0.00    -0.166 F 
ENDBRANCH   8  19
ENDBRANCH   1   5
BRANCH   2  23
ATOM     23  C   UNL     1      18.659  37.126  19.942  1.00  0.00     0.041 A 
ATOM     24  C   UNL     1      17.904  38.313  19.933  1.00  0.00     0.031 A 
ATOM     25  C   UNL     1      19.499  36.864  21.036  1.00  0.00     0.014 A 
ATOM     26  C   UNL     1      17.971  39.212  21.006  1.00  0.00     0.029 A 
ATOM     27  C   UNL     1      19.574  37.760  22.105  1.00  0.00     0.005 A 
ATOM     28  C   UNL     1      18.816  38.939  22.103  1.00  0.00    -0.035 A 
ATOM     29  C   UNL     1      18.894  39.877  23.279  1.00  0.00     0.045 C 
BRANCH  26  30
ATOM     30  C   UNL     1      17.156  40.404  20.972  1.00  0.00    -0.060 C 
ATOM     31  C   UNL     1      16.477  41.400  20.956  1.00  0.00    -0.040 C 
BRANCH  31  32
ATOM     32  C   UNL     1      15.668  42.588  20.946  1.00  0.00     0.135 A 
ATOM     33  C   UNL     1      14.290  42.659  20.832  1.00  0.00     0.151 A 
ATOM     34  N   UNL     1      16.122  43.840  21.053  1.00  0.00    -0.205 N 
ATOM     35  N   UNL     1      13.892  43.958  20.867  1.00  0.00    -0.234 NA
ATOM     36  C   UNL     1      15.050  44.638  21.003  1.00  0.00     0.154 A 
ATOM     37  N   UNL     1      17.373  44.279  21.183  1.00  0.00    -0.174 NA
ATOM     38  C   UNL     1      15.198  46.018  21.088  1.00  0.00     0.051 A 
ATOM     39  C   UNL     1      17.593  45.622  21.272  1.00  0.00     0.134 A 
ATOM     40  C   UNL     1      16.504  46.516  21.224  1.00  0.00     0.026 A 
ENDBRANCH  31  32
ENDBRANCH  26  30
ENDBRANCH   2  23
TORSDOF 7
ENDMDL
MODEL 8
REMARK VINA RESULT:    -9.599      4.974      5.838
REMARK INTER + INTRA:         -14.441
REMARK INTER:                 -13.237
REMARK INTRA:                  -1.205
REMARK UNBOUND:                -0.914
REMARK SMILES Cc1ccc(C(=O)Nc2ccc(CN3CCN(C)CC3)c(C(F)(F)F)c2)cc1C#Cc1cnc2cccnn12
REMARK SMILES IDX 8 1 6 2 7 3 9 5 12 6 11 7 21 8 10 9 26 10 13 11 14 12 18 13
REMARK SMILES IDX 17 14 16 15 19 16 15 17 20 18 22 19 23 20 24 21 25 22 5 23
REMARK SMILES IDX 27 24 4 25 28 26 3 27 2 28 1 29 29 30 30 31 31 32 32 33
REMARK SMILES IDX 39 34 33 35 34 36 38 37 35 38 37 39 36 40
REMARK H PARENT 8 4
REMARK Flexibility Score: inf
ROOT
ATOM      1  N   UNL     1      19.983  34.774  16.640  1.00  0.00    -0.322 N 
ATOM      2  C   UNL     1      18.776  34.438  17.345  1.00  0.00     0.255 C 
ATOM      3  O   UNL     1      18.809  34.274  18.596  1.00  0.00    -0.269 OA
ATOM      4  H   UNL     1      19.900  35.305  15.742  1.00  0.00     0.170 HD
ENDROOT
BRANCH   1   5
ATOM      5  C   UNL     1      21.302  34.574  17.177  1.00  0.00     0.042 A 
ATOM      6  C   UNL     1      23.920  34.241  18.183  1.00  0.00    -0.022 A 
ATOM      7  C   UNL     1      23.262  33.192  17.514  1.00  0.00     0.008 A 
ATOM      8  C   UNL     1      23.255  35.490  18.345  1.00  0.00     0.062 A 
ATOM      9  C   UNL     1      21.971  33.355  17.019  1.00  0.00     0.026 A 
ATOM     10  C   UNL     1      21.956  35.637  17.814  1.00  0.00     0.039 A 
BRANCH   6  11
ATOM     11  C   UNL     1      25.334  33.987  18.676  1.00  0.00     0.120 C 
BRANCH  11  12
ATOM     12  N   UNL     1      25.409  32.809  19.571  1.00  0.00    -0.297 NA
ATOM     13  C   UNL     1      28.893  34.154  21.449  1.00  0.00     0.105 C 
ATOM     14  N   UNL     1      27.687  33.747  20.711  1.00  0.00    -0.304 NA
ATOM     15  C   UNL     1      26.483  33.930  21.549  1.00  0.00     0.099 C 
ATOM     16  C   UNL     1      27.803  32.353  20.256  1.00  0.00     0.099 C 
ATOM     17  C   UNL     1      25.269  33.147  21.004  1.00  0.00     0.100 C 
ATOM     18  C   UNL     1      26.624  31.994  19.325  1.00  0.00     0.100 C 
ENDBRANCH  11  12
ENDBRANCH   6  11
BRANCH   8  19
ATOM     19  C   UNL     1      23.916  36.680  19.022  1.00  0.00     0.416 C 
ATOM     20  F   UNL     1      24.262  36.395  20.332  1.00  0.00    -0.166 F 
ATOM     21  F   UNL     1      25.075  37.035  18.358  1.00  0.00    -0.166 F 
ATOM     22  F   UNL     1      23.047  37.754  19.035  1.00  0.00    -0.166 F 
ENDBRANCH   8  19
ENDBRANCH   1   5
BRANCH   2  23
ATOM     23  C   UNL     1      17.480  34.344  16.630  1.00  0.00     0.041 A 
ATOM     24  C   UNL     1      17.442  34.365  15.225  1.00  0.00     0.031 A 
ATOM     25  C   UNL     1      16.273  34.234  17.340  1.00  0.00     0.014 A 
ATOM     26  C   UNL     1      16.224  34.258  14.539  1.00  0.00     0.029 A 
ATOM     27  C   UNL     1      15.057  34.133  16.663  1.00  0.00     0.005 A 
ATOM     28  C   UNL     1      15.016  34.145  15.261  1.00  0.00    -0.035 A 
ATOM     29  C   UNL     1      13.695  34.009  14.552  1.00  0.00     0.045 C 
BRANCH  26  30
ATOM     30  C   UNL     1      16.232  34.253  13.095  1.00  0.00    -0.060 C 
ATOM     31  C   UNL     1      16.234  34.259  11.890  1.00  0.00    -0.040 C 
BRANCH  31  32
ATOM     32  C   UNL     1      16.232  34.276  10.452  1.00  0.00     0.135 A 
ATOM     33  C   UNL     1      15.707  35.259   9.630  1.00  0.00     0.151 A 
ATOM     34  N   UNL     1      16.748  33.331   9.661  1.00  0.00    -0.205 N 
ATOM     35  N   UNL     1      15.900  34.920   8.328  1.00  0.00    -0.234 NA
ATOM     36  C   UNL     1      16.540  33.734   8.403  1.00  0.00     0.154 A 
ATOM     37  N   UNL     1      17.360  32.194   9.989  1.00  0.00    -0.174 NA
ATOM     38  C   UNL     1      16.968  32.952   7.336  1.00  0.00     0.051 A 
ATOM     39  C   UNL     1      17.806  31.376   8.993  1.00  0.00     0.134 A 
ATOM     40  C   UNL     1      17.615  31.744   7.645  1.00  0.00     0.026 A 
ENDBRANCH  31  32
ENDBRANCH  26  30
ENDBRANCH   2  23
TORSDOF 7
ENDMDL
MODEL 9
REMARK VINA RESULT:    -9.525      2.459      2.893
REMARK INTER + INTRA:         -14.337
REMARK INTER:                 -13.275
REMARK INTRA:                  -1.062
REMARK UNBOUND:                -0.914
REMARK SMILES Cc1ccc(C(=O)Nc2ccc(CN3CCN(C)CC3)c(C(F)(F)F)c2)cc1C#Cc1cnc2cccnn12
REMARK SMILES IDX 8 1 6 2 7 3 9 5 12 6 11 7 21 8 10 9 26 10 13 11 14 12 18 13
REMARK SMILES IDX 17 14 16 15 19 16 15 17 20 18 22 19 23 20 24 21 25 22 5 23
REMARK SMILES IDX 27 24 4 25 28 26 3 27 2 28 1 29 29 30 30 31 31 32 32 33
REMARK SMILES IDX 39 34 33 35 34 36 38 37 35 38 37 39 36 40
REMARK H PARENT 8 4
REMARK Flexibility Score: inf
ROOT
ATOM      1  N   UNL     1      21.768  33.340  14.372  1.00  0.00    -0.322 N 
ATOM      2  C   UNL     1      20.868  34.450  14.209  1.00  0.00     0.255 C 
ATOM      3  O   UNL     1      21.280  35.624  14.424  1.00  0.00    -0.269 OA
ATOM      4  H   UNL     1      21.587  32.472  13.817  1.00  0.00     0.170 HD
ENDROOT
BRANCH   1   5
ATOM      5  C   UNL     1      22.994  33.411  15.119  1.00  0.00     0.042 A 
ATOM      6  C   UNL     1      25.427  33.481  16.554  1.00  0.00    -0.022 A 
ATOM      7  C   UNL     1      24.191  33.405  17.225  1.00  0.00     0.008 A 
ATOM      8  C   UNL     1      25.445  33.515  15.130  1.00  0.00     0.062 A 
ATOM      9  C   UNL     1      22.992  33.371  16.519  1.00  0.00     0.026 A 
ATOM     10  C   UNL     1      24.216  33.457  14.438  1.00  0.00     0.039 A 
BRANCH   6  11
ATOM     11  C   UNL     1      26.688  33.494  17.398  1.00  0.00     0.120 C 
BRANCH  11  12
ATOM     12  N   UNL     1      26.444  32.999  18.772  1.00  0.00    -0.297 NA
ATOM     13  C   UNL     1      30.517  32.819  19.692  1.00  0.00     0.105 C 
ATOM     14  N   UNL     1      29.111  32.885  19.269  1.00  0.00    -0.304 NA
ATOM     15  C   UNL     1      28.438  34.046  19.891  1.00  0.00     0.099 C 
ATOM     16  C   UNL     1      28.411  31.634  19.598  1.00  0.00     0.099 C 
ATOM     17  C   UNL     1      26.900  33.931  19.826  1.00  0.00     0.100 C 
ATOM     18  C   UNL     1      26.993  31.637  18.984  1.00  0.00     0.100 C 
ENDBRANCH  11  12
ENDBRANCH   6  11
BRANCH   8  19
ATOM     19  C   UNL     1      26.741  33.559  14.337  1.00  0.00     0.416 C 
ATOM     20  F   UNL     1      27.510  34.660  14.675  1.00  0.00    -0.166 F 
ATOM     21  F   UNL     1      27.501  32.432  14.585  1.00  0.00    -0.166 F 
ATOM     22  F   UNL     1      26.460  33.635  12.985  1.00  0.00    -0.166 F 
ENDBRANCH   8  19
ENDBRANCH   1   5
BRANCH   2  23
ATOM     23  C   UNL     1      19.480  34.238  13.731  1.00  0.00     0.041 A 
ATOM     24  C   UNL     1      19.244  33.641  12.479  1.00  0.00     0.031 A 
ATOM     25  C   UNL     1      18.382  34.630  14.513  1.00  0.00     0.014 A 
ATOM     26  C   UNL     1      17.937  33.420  12.026  1.00  0.00     0.029 A 
ATOM     27  C   UNL     1      17.077  34.418  14.064  1.00  0.00     0.005 A 
ATOM     28  C   UNL     1      16.839  33.815  12.821  1.00  0.00    -0.035 A 
ATOM     29  C   UNL     1      15.423  33.572  12.368  1.00  0.00     0.045 C 
BRANCH  26  30
ATOM     30  C   UNL     1      17.739  32.776  10.749  1.00  0.00    -0.060 C 
ATOM     31  C   UNL     1      17.584  32.243   9.679  1.00  0.00    -0.040 C 
BRANCH  31  32
ATOM     32  C   UNL     1      17.408  31.611   8.400  1.00  0.00     0.135 A 
ATOM     33  C   UNL     1      18.307  31.593   7.347  1.00  0.00     0.151 A 
ATOM     34  N   UNL     1      16.330  30.923   8.012  1.00  0.00    -0.205 N 
ATOM     35  N   UNL     1      17.783  30.893   6.306  1.00  0.00    -0.234 NA
ATOM     36  C   UNL     1      16.575  30.505   6.766  1.00  0.00     0.154 A 
ATOM     37  N   UNL     1      15.206  30.665   8.679  1.00  0.00    -0.174 NA
ATOM     38  C   UNL     1      15.627  29.754   6.080  1.00  0.00     0.051 A 
ATOM     39  C   UNL     1      14.232  29.933   8.067  1.00  0.00     0.134 A 
ATOM     40  C   UNL     1      14.428  29.464   6.751  1.00  0.00     0.026 A 
ENDBRANCH  31  32
ENDBRANCH  26  30
ENDBRANCH   2  23
TORSDOF 7
ENDMDL
MODEL 10
REMARK VINA RESULT:    -9.502      3.513      4.103
REMARK INTER + INTRA:         -14.305
REMARK INTER:                 -13.171
REMARK INTRA:                  -1.134
REMARK UNBOUND:                -0.914
REMARK SMILES Cc1ccc(C(=O)Nc2ccc(CN3CCN(C)CC3)c(C(F)(F)F)c2)cc1C#Cc1cnc2cccnn12
REMARK SMILES IDX 8 1 6 2 7 3 9 5 12 6 11 7 21 8 10 9 26 10 13 11 14 12 18 13
REMARK SMILES IDX 17 14 16 15 19 16 15 17 20 18 22 19 23 20 24 21 25 22 5 23
REMARK SMILES IDX 27 24 4 25 28 26 3 27 2 28 1 29 29 30 30 31 31 32 32 33
REMARK SMILES IDX 39 34 33 35 34 36 38 37 35 38 37 39 36 40
REMARK H PARENT 8 4
REMARK Flexibility Score: inf
ROOT
ATOM      1  N   UNL     1      21.882  33.169  14.806  1.00  0.00    -0.322 N 
ATOM      2  C   UNL     1      21.241  34.285  14.166  1.00  0.00     0.255 C 
ATOM      3  O   UNL     1      21.886  35.353  13.979  1.00  0.00    -0.269 OA
ATOM      4  H   UNL     1      21.534  32.207  14.590  1.00  0.00     0.170 HD
ENDROOT
BRANCH   1   5
ATOM      5  C   UNL     1      23.081  33.283  15.592  1.00  0.00     0.042 A 
ATOM      6  C   UNL     1      25.416  33.584  17.154  1.00  0.00    -0.022 A 
ATOM      7  C   UNL     1      25.496  33.330  15.772  1.00  0.00     0.008 A 
ATOM      8  C   UNL     1      24.136  33.699  17.767  1.00  0.00     0.062 A 
ATOM      9  C   UNL     1      24.346  33.181  15.001  1.00  0.00     0.026 A 
ATOM     10  C   UNL     1      22.986  33.565  16.960  1.00  0.00     0.039 A 
BRANCH   6  11
ATOM     11  C   UNL     1      26.717  33.753  17.917  1.00  0.00     0.120 C 
BRANCH  11  12
ATOM     12  N   UNL     1      27.510  32.503  17.950  1.00  0.00    -0.297 NA
ATOM     13  C   UNL     1      29.440  33.532  21.512  1.00  0.00     0.105 C 
ATOM     14  N   UNL     1      28.735  33.269  20.248  1.00  0.00    -0.304 NA
ATOM     15  C   UNL     1      27.681  32.251  20.446  1.00  0.00     0.099 C 
ATOM     16  C   UNL     1      29.682  32.849  19.204  1.00  0.00     0.099 C 
ATOM     17  C   UNL     1      27.204  31.639  19.111  1.00  0.00     0.100 C 
ATOM     18  C   UNL     1      28.967  32.759  17.838  1.00  0.00     0.100 C 
ENDBRANCH  11  12
ENDBRANCH   6  11
BRANCH   8  19
ATOM     19  C   UNL     1      23.970  34.009  19.246  1.00  0.00     0.416 C 
ATOM     20  F   UNL     1      22.647  34.260  19.571  1.00  0.00    -0.166 F 
ATOM     21  F   UNL     1      24.388  32.940  20.017  1.00  0.00    -0.166 F 
ATOM     22  F   UNL     1      24.709  35.129  19.576  1.00  0.00    -0.166 F 
ENDBRANCH   8  19
ENDBRANCH   1   5
BRANCH   2  23
ATOM     23  C   UNL     1      19.849  34.175  13.665  1.00  0.00     0.041 A 
ATOM     24  C   UNL     1      19.588  33.570  12.422  1.00  0.00     0.031 A 
ATOM     25  C   UNL     1      18.772  34.674  14.416  1.00  0.00     0.014 A 
ATOM     26  C   UNL     1      18.275  33.445  11.948  1.00  0.00     0.029 A 
ATOM     27  C   UNL     1      17.463  34.557  13.945  1.00  0.00     0.005 A 
ATOM     28  C   UNL     1      17.199  33.945  12.712  1.00  0.00    -0.035 A 
ATOM     29  C   UNL     1      15.776  33.808  12.237  1.00  0.00     0.045 C 
BRANCH  26  30
ATOM     30  C   UNL     1      18.048  32.788  10.682  1.00  0.00    -0.060 C 
ATOM     31  C   UNL     1      17.869  32.233   9.628  1.00  0.00    -0.040 C 
BRANCH  31  32
ATOM     32  C   UNL     1      17.664  31.565   8.371  1.00  0.00     0.135 A 
ATOM     33  C   UNL     1      18.572  31.442   7.333  1.00  0.00     0.151 A 
ATOM     34  N   UNL     1      16.545  30.940   7.994  1.00  0.00    -0.205 N 
ATOM     35  N   UNL     1      18.013  30.740   6.313  1.00  0.00    -0.234 NA
ATOM     36  C   UNL     1      16.775  30.457   6.768  1.00  0.00     0.154 A 
ATOM     37  N   UNL     1      15.397  30.789   8.652  1.00  0.00    -0.174 NA
ATOM     38  C   UNL     1      15.784  29.748   6.097  1.00  0.00     0.051 A 
ATOM     39  C   UNL     1      14.380  30.104   8.054  1.00  0.00     0.134 A 
ATOM     40  C   UNL     1      14.559  29.571   6.761  1.00  0.00     0.026 A 
ENDBRANCH  31  32
ENDBRANCH  26  30
ENDBRANCH   2  23
TORSDOF 7
ENDMDL
MODEL 11
REMARK VINA RESULT:    -9.466      1.611      1.988
REMARK INTER + INTRA:         -14.253
REMARK INTER:                 -13.248
REMARK INTRA:                  -1.006
REMARK UNBOUND:                -0.914
REMARK SMILES Cc1ccc(C(=O)Nc2ccc(CN3CCN(C)CC3)c(C(F)(F)F)c2)cc1C#Cc1cnc2cccnn12
REMARK SMILES IDX 8 1 6 2 7 3 9 5 12 6 11 7 21 8 10 9 26 10 13 11 14 12 18 13
REMARK SMILES IDX 17 14 16 15 19 16 15 17 20 18 22 19 23 20 24 21 25 22 5 23
REMARK SMILES IDX 27 24 4 25 28 26 3 27 2 28 1 29 29 30 30 31 31 32 32 33
REMARK SMILES IDX 39 34 33 35 34 36 38 37 35 38 37 39 36 40
REMARK H PARENT 8 4
REMARK Flexibility Score: inf
ROOT
ATOM      1  N   UNL     1      22.667  33.242  13.679  1.00  0.00    -0.322 N 
ATOM      2  C   UNL     1      21.788  34.375  13.569  1.00  0.00     0.255 C 
ATOM      3  O   UNL     1      22.256  35.542  13.689  1.00  0.00    -0.269 OA
ATOM      4  H   UNL     1      22.401  32.360  13.183  1.00  0.00     0.170 HD
ENDROOT
BRANCH   1   5
ATOM      5  C   UNL     1      23.969  33.300  14.286  1.00  0.00     0.042 A 
ATOM      6  C   UNL     1      26.540  33.337  15.456  1.00  0.00    -0.022 A 
ATOM      7  C   UNL     1      25.385  33.517  16.239  1.00  0.00     0.008 A 
ATOM      8  C   UNL     1      26.405  33.124  14.054  1.00  0.00     0.062 A 
ATOM      9  C   UNL     1      24.117  33.500  15.663  1.00  0.00     0.026 A 
ATOM     10  C   UNL     1      25.108  33.089  13.498  1.00  0.00     0.039 A 
BRANCH   6  11
ATOM     11  C   UNL     1      27.883  33.350  16.165  1.00  0.00     0.120 C 
BRANCH  11  12
ATOM     12  N   UNL     1      27.749  33.085  17.616  1.00  0.00    -0.297 NA
ATOM     13  C   UNL     1      31.872  33.263  18.276  1.00  0.00     0.105 C 
ATOM     14  N   UNL     1      30.442  33.188  17.943  1.00  0.00    -0.304 NA
ATOM     15  C   UNL     1      29.739  34.404  18.405  1.00  0.00     0.099 C 
ATOM     16  C   UNL     1      29.837  31.979  18.524  1.00  0.00     0.099 C 
ATOM     17  C   UNL     1      28.209  34.206  18.465  1.00  0.00     0.100 C 
ATOM     18  C   UNL     1      28.389  31.808  18.015  1.00  0.00     0.100 C 
ENDBRANCH  11  12
ENDBRANCH   6  11
BRANCH   8  19
ATOM     19  C   UNL     1      27.604  32.883  13.150  1.00  0.00     0.416 C 
ATOM     20  F   UNL     1      27.231  32.790  11.820  1.00  0.00    -0.166 F 
ATOM     21  F   UNL     1      28.506  33.925  13.254  1.00  0.00    -0.166 F 
ATOM     22  F   UNL     1      28.226  31.701  13.502  1.00  0.00    -0.166 F 
ENDBRANCH   8  19
ENDBRANCH   1   5
BRANCH   2  23
ATOM     23  C   UNL     1      20.351  34.193  13.252  1.00  0.00     0.041 A 
ATOM     24  C   UNL     1      19.962  33.584  12.046  1.00  0.00     0.031 A 
ATOM     25  C   UNL     1      19.357  34.625  14.145  1.00  0.00     0.014 A 
ATOM     26  C   UNL     1      18.606  33.391  11.745  1.00  0.00     0.029 A 
ATOM     27  C   UNL     1      18.005  34.441  13.848  1.00  0.00     0.005 A 
ATOM     28  C   UNL     1      17.615  33.825  12.651  1.00  0.00    -0.035 A 
ATOM     29  C   UNL     1      16.151  33.614  12.364  1.00  0.00     0.045 C 
BRANCH  26  30
ATOM     30  C   UNL     1      18.250  32.733  10.510  1.00  0.00    -0.060 C 
ATOM     31  C   UNL     1      17.961  32.174   9.482  1.00  0.00    -0.040 C 
BRANCH  31  32
ATOM     32  C   UNL     1      17.623  31.501   8.257  1.00  0.00     0.135 A 
ATOM     33  C   UNL     1      18.429  31.341   7.143  1.00  0.00     0.151 A 
ATOM     34  N   UNL     1      16.457  30.905   7.992  1.00  0.00    -0.205 N 
ATOM     35  N   UNL     1      17.759  30.646   6.186  1.00  0.00    -0.234 NA
ATOM     36  C   UNL     1      16.560  30.403   6.757  1.00  0.00     0.154 A 
ATOM     37  N   UNL     1      15.371  30.793   8.754  1.00  0.00    -0.174 NA
ATOM     38  C   UNL     1      15.493  29.717   6.188  1.00  0.00     0.051 A 
ATOM     39  C   UNL     1      14.285  30.133   8.260  1.00  0.00     0.134 A 
ATOM     40  C   UNL     1      14.330  29.582   6.963  1.00  0.00     0.026 A 
ENDBRANCH  31  32
ENDBRANCH  26  30
ENDBRANCH   2  23
TORSDOF 7
ENDMDL
MODEL 12
REMARK VINA RESULT:    -9.448      8.131     13.196
REMARK INTER + INTRA:         -14.228
REMARK INTER:                 -13.222
REMARK INTRA:                  -1.005
REMARK UNBOUND:                -0.914
REMARK SMILES Cc1ccc(C(=O)Nc2ccc(CN3CCN(C)CC3)c(C(F)(F)F)c2)cc1C#Cc1cnc2cccnn12
REMARK SMILES IDX 8 1 6 2 7 3 9 5 12 6 11 7 21 8 10 9 26 10 13 11 14 12 18 13
REMARK SMILES IDX 17 14 16 15 19 16 15 17 20 18 22 19 23 20 24 21 25 22 5 23
REMARK SMILES IDX 27 24 4 25 28 26 3 27 2 28 1 29 29 30 30 31 31 32 32 33
REMARK SMILES IDX 39 34 33 35 34 36 38 37 35 38 37 39 36 40
REMARK H PARENT 8 4
REMARK Flexibility Score: inf
ROOT
ATOM      1  N   UNL     1      19.022  36.187  17.511  1.00  0.00    -0.322 N 
ATOM      2  C   UNL     1      18.511  35.914  18.826  1.00  0.00     0.255 C 
ATOM      3  O   UNL     1      17.983  34.793  19.070  1.00  0.00    -0.269 OA
ATOM      4  H   UNL     1      19.796  36.885  17.416  1.00  0.00     0.170 HD
ENDROOT
BRANCH   1   5
ATOM      5  C   UNL     1      18.652  35.438  16.340  1.00  0.00     0.042 A 
ATOM      6  C   UNL     1      17.992  33.995  14.003  1.00  0.00    -0.022 A 
ATOM      7  C   UNL     1      17.134  34.990  14.508  1.00  0.00     0.008 A 
ATOM      8  C   UNL     1      19.215  33.722  14.680  1.00  0.00     0.062 A 
ATOM      9  C   UNL     1      17.458  35.701  15.660  1.00  0.00     0.026 A 
ATOM     10  C   UNL     1      19.531  34.472  15.833  1.00  0.00     0.039 A 
BRANCH   6  11
ATOM     11  C   UNL     1      17.573  33.280  12.731  1.00  0.00     0.120 C 
BRANCH  11  12
ATOM     12  N   UNL     1      18.217  33.859  11.529  1.00  0.00    -0.297 NA
ATOM     13  C   UNL     1      15.746  31.756   8.894  1.00  0.00     0.105 C 
ATOM     14  N   UNL     1      16.588  32.429   9.895  1.00  0.00    -0.304 NA
ATOM     15  C   UNL     1      16.213  33.854  10.011  1.00  0.00     0.099 C 
ATOM     16  C   UNL     1      18.012  32.286   9.555  1.00  0.00     0.099 C 
ATOM     17  C   UNL     1      17.305  34.689  10.713  1.00  0.00     0.100 C 
ATOM     18  C   UNL     1      18.893  32.828  10.703  1.00  0.00     0.100 C 
ENDBRANCH  11  12
ENDBRANCH   6  11
BRANCH   8  19
ATOM     19  C   UNL     1      20.209  32.689  14.174  1.00  0.00     0.416 C 
ATOM     20  F   UNL     1      21.163  32.386  15.131  1.00  0.00    -0.166 F 
ATOM     21  F   UNL     1      19.563  31.512  13.847  1.00  0.00    -0.166 F 
ATOM     22  F   UNL     1      20.865  33.177  13.060  1.00  0.00    -0.166 F 
ENDBRANCH   8  19
ENDBRANCH   1   5
BRANCH   2  23
ATOM     23  C   UNL     1      18.652  36.908  19.918  1.00  0.00     0.041 A 
ATOM     24  C   UNL     1      17.949  38.125  19.865  1.00  0.00     0.031 A 
ATOM     25  C   UNL     1      19.488  36.655  21.018  1.00  0.00     0.014 A 
ATOM     26  C   UNL     1      18.061  39.063  20.900  1.00  0.00     0.029 A 
ATOM     27  C   UNL     1      19.608  37.588  22.049  1.00  0.00     0.005 A 
ATOM     28  C   UNL     1      18.901  38.798  22.003  1.00  0.00    -0.035 A 
ATOM     29  C   UNL     1      19.026  39.779  23.139  1.00  0.00     0.045 C 
BRANCH  26  30
ATOM     30  C   UNL     1      17.297  40.286  20.821  1.00  0.00    -0.060 C 
ATOM     31  C   UNL     1      16.662  41.308  20.768  1.00  0.00    -0.040 C 
BRANCH  31  32
ATOM     32  C   UNL     1      15.903  42.528  20.714  1.00  0.00     0.135 A 
ATOM     33  C   UNL     1      14.550  42.660  20.452  1.00  0.00     0.151 A 
ATOM     34  N   UNL     1      16.388  43.757  20.916  1.00  0.00    -0.205 N 
ATOM     35  N   UNL     1      14.198  43.972  20.491  1.00  0.00    -0.234 NA
ATOM     36  C   UNL     1      15.358  44.599  20.779  1.00  0.00     0.154 A 
ATOM     37  N   UNL     1      17.632  44.140  21.200  1.00  0.00    -0.174 NA
ATOM     38  C   UNL     1      15.547  45.968  20.931  1.00  0.00     0.051 A 
ATOM     39  C   UNL     1      17.891  45.469  21.362  1.00  0.00     0.134 A 
ATOM     40  C   UNL     1      16.847  46.408  21.229  1.00  0.00     0.026 A 
ENDBRANCH  31  32
ENDBRANCH  26  30
ENDBRANCH   2  23
TORSDOF 7
ENDMDL
MODEL 13
REMARK VINA RESULT:    -9.393      2.526      3.028
REMARK INTER + INTRA:         -14.150
REMARK INTER:                 -13.081
REMARK INTRA:                  -1.069
REMARK UNBOUND:                -0.914
REMARK SMILES Cc1ccc(C(=O)Nc2ccc(CN3CCN(C)CC3)c(C(F)(F)F)c2)cc1C#Cc1cnc2cccnn12
REMARK SMILES IDX 8 1 6 2 7 3 9 5 12 6 11 7 21 8 10 9 26 10 13 11 14 12 18 13
REMARK SMILES IDX 17 14 16 15 19 16 15 17 20 18 22 19 23 20 24 21 25 22 5 23
REMARK SMILES IDX 27 24 4 25 28 26 3 27 2 28 1 29 29 30 30 31 31 32 32 33
REMARK SMILES IDX 39 34 33 35 34 36 38 37 35 38 37 39 36 40
REMARK H PARENT 8 4
REMARK Flexibility Score: inf
ROOT
ATOM      1  N   UNL     1      22.564  33.191  13.931  1.00  0.00    -0.322 N 
ATOM      2  C   UNL     1      21.733  34.340  13.691  1.00  0.00     0.255 C 
ATOM      3  O   UNL     1      22.240  35.496  13.731  1.00  0.00    -0.269 OA
ATOM      4  H   UNL     1      22.284  32.280  13.501  1.00  0.00     0.170 HD
ENDROOT
BRANCH   1   5
ATOM      5  C   UNL     1      23.845  33.256  14.582  1.00  0.00     0.042 A 
ATOM      6  C   UNL     1      26.337  33.451  15.898  1.00  0.00    -0.022 A 
ATOM      7  C   UNL     1      26.252  33.508  14.494  1.00  0.00     0.008 A 
ATOM      8  C   UNL     1      25.144  33.302  16.662  1.00  0.00     0.062 A 
ATOM      9  C   UNL     1      25.024  33.412  13.844  1.00  0.00     0.026 A 
ATOM     10  C   UNL     1      23.910  33.228  15.980  1.00  0.00     0.039 A 
BRANCH   6  11
ATOM     11  C   UNL     1      27.712  33.585  16.528  1.00  0.00     0.120 C 
BRANCH  11  12
ATOM     12  N   UNL     1      28.737  32.803  15.799  1.00  0.00    -0.297 NA
ATOM     13  C   UNL     1      31.675  33.502  18.687  1.00  0.00     0.105 C 
ATOM     14  N   UNL     1      30.589  33.336  17.711  1.00  0.00    -0.304 NA
ATOM     15  C   UNL     1      30.032  31.968  17.786  1.00  0.00     0.099 C 
ATOM     16  C   UNL     1      31.063  33.636  16.351  1.00  0.00     0.099 C 
ATOM     17  C   UNL     1      29.202  31.608  16.535  1.00  0.00     0.100 C 
ATOM     18  C   UNL     1      29.878  33.644  15.360  1.00  0.00     0.100 C 
ENDBRANCH  11  12
ENDBRANCH   6  11
BRANCH   8  19
ATOM     19  C   UNL     1      25.153  33.270  18.182  1.00  0.00     0.416 C 
ATOM     20  F   UNL     1      25.593  34.470  18.715  1.00  0.00    -0.166 F 
ATOM     21  F   UNL     1      23.880  33.044  18.670  1.00  0.00    -0.166 F 
ATOM     22  F   UNL     1      26.000  32.272  18.625  1.00  0.00    -0.166 F 
ENDBRANCH   8  19
ENDBRANCH   1   5
BRANCH   2  23
ATOM     23  C   UNL     1      20.302  34.181  13.335  1.00  0.00     0.041 A 
ATOM     24  C   UNL     1      19.937  33.561  12.127  1.00  0.00     0.031 A 
ATOM     25  C   UNL     1      19.292  34.647  14.191  1.00  0.00     0.014 A 
ATOM     26  C   UNL     1      18.587  33.389  11.789  1.00  0.00     0.029 A 
ATOM     27  C   UNL     1      17.946  34.485  13.857  1.00  0.00     0.005 A 
ATOM     28  C   UNL     1      17.578  33.858  12.658  1.00  0.00    -0.035 A 
ATOM     29  C   UNL     1      16.120  33.670  12.331  1.00  0.00     0.045 C 
BRANCH  26  30
ATOM     30  C   UNL     1      18.255  32.718  10.554  1.00  0.00    -0.060 C 
ATOM     31  C   UNL     1      17.979  32.169   9.518  1.00  0.00    -0.040 C 
BRANCH  31  32
ATOM     32  C   UNL     1      17.647  31.524   8.277  1.00  0.00     0.135 A 
ATOM     33  C   UNL     1      18.461  31.383   7.165  1.00  0.00     0.151 A 
ATOM     34  N   UNL     1      16.481  30.938   7.990  1.00  0.00    -0.205 N 
ATOM     35  N   UNL     1      17.796  30.711   6.190  1.00  0.00    -0.234 NA
ATOM     36  C   UNL     1      16.591  30.462   6.745  1.00  0.00     0.154 A 
ATOM     37  N   UNL     1      15.388  30.817   8.741  1.00  0.00    -0.174 NA
ATOM     38  C   UNL     1      15.525  29.793   6.153  1.00  0.00     0.051 A 
ATOM     39  C   UNL     1      14.303  30.172   8.225  1.00  0.00     0.134 A 
ATOM     40  C   UNL     1      14.355  29.648   6.916  1.00  0.00     0.026 A 
ENDBRANCH  31  32
ENDBRANCH  26  30
ENDBRANCH   2  23
TORSDOF 7
ENDMDL
MODEL 14
REMARK VINA RESULT:    -9.382      2.033      2.731
REMARK INTER + INTRA:         -14.135
REMARK INTER:                 -12.908
REMARK INTRA:                  -1.227
REMARK UNBOUND:                -0.914
REMARK SMILES Cc1ccc(C(=O)Nc2ccc(CN3CCN(C)CC3)c(C(F)(F)F)c2)cc1C#Cc1cnc2cccnn12
REMARK SMILES IDX 8 1 6 2 7 3 9 5 12 6 11 7 21 8 10 9 26 10 13 11 14 12 18 13
REMARK SMILES IDX 17 14 16 15 19 16 15 17 20 18 22 19 23 20 24 21 25 22 5 23
REMARK SMILES IDX 27 24 4 25 28 26 3 27 2 28 1 29 29 30 30 31 31 32 32 33
REMARK SMILES IDX 39 34 33 35 34 36 38 37 35 38 37 39 36 40
REMARK H PARENT 8 4
REMARK Flexibility Score: inf
ROOT
ATOM      1  N   UNL     1      20.834  35.476  14.083  1.00  0.00    -0.322 N 
ATOM      2  C   UNL     1      19.951  34.553  14.742  1.00  0.00     0.255 C 
ATOM      3  O   UNL     1      20.306  34.015  15.827  1.00  0.00    -0.269 OA
ATOM      4  H   UNL     1      20.413  36.209  13.467  1.00  0.00     0.170 HD
ENDROOT
BRANCH   1   5
ATOM      5  C   UNL     1      22.244  35.560  14.353  1.00  0.00     0.042 A 
ATOM      6  C   UNL     1      25.009  35.655  14.923  1.00  0.00    -0.022 A 
ATOM      7  C   UNL     1      24.131  36.633  15.426  1.00  0.00     0.008 A 
ATOM      8  C   UNL     1      24.488  34.598  14.122  1.00  0.00     0.062 A 
ATOM      9  C   UNL     1      22.769  36.588  15.146  1.00  0.00     0.026 A 
ATOM     10  C   UNL     1      23.100  34.563  13.870  1.00  0.00     0.039 A 
BRANCH   6  11
ATOM     11  C   UNL     1      26.477  35.766  15.292  1.00  0.00     0.120 C 
BRANCH  11  12
ATOM     12  N   UNL     1      26.683  35.786  16.759  1.00  0.00    -0.297 NA
ATOM     13  C   UNL     1      29.516  32.715  16.648  1.00  0.00     0.105 C 
ATOM     14  N   UNL     1      28.489  33.766  16.592  1.00  0.00    -0.304 NA
ATOM     15  C   UNL     1      29.101  35.097  16.791  1.00  0.00     0.099 C 
ATOM     16  C   UNL     1      27.438  33.517  17.591  1.00  0.00     0.099 C 
ATOM     17  C   UNL     1      28.054  36.171  17.158  1.00  0.00     0.100 C 
ATOM     18  C   UNL     1      26.272  34.513  17.400  1.00  0.00     0.100 C 
ENDBRANCH  11  12
ENDBRANCH   6  11
BRANCH   8  19
ATOM     19  C   UNL     1      25.368  33.485  13.575  1.00  0.00     0.416 C 
ATOM     20  F   UNL     1      26.321  33.972  12.696  1.00  0.00    -0.166 F 
ATOM     21  F   UNL     1      26.041  32.849  14.602  1.00  0.00    -0.166 F 
ATOM     22  F   UNL     1      24.592  32.566  12.896  1.00  0.00    -0.166 F 
ENDBRANCH   8  19
ENDBRANCH   1   5
BRANCH   2  23
ATOM     23  C   UNL     1      18.600  34.272  14.196  1.00  0.00     0.041 A 
ATOM     24  C   UNL     1      18.454  33.755  12.896  1.00  0.00     0.031 A 
ATOM     25  C   UNL     1      17.449  34.519  14.961  1.00  0.00     0.014 A 
ATOM     26  C   UNL     1      17.184  33.469  12.377  1.00  0.00     0.029 A 
ATOM     27  C   UNL     1      16.181  34.242  14.447  1.00  0.00     0.005 A 
ATOM     28  C   UNL     1      16.033  33.717  13.156  1.00  0.00    -0.035 A 
ATOM     29  C   UNL     1      14.656  33.402  12.632  1.00  0.00     0.045 C 
BRANCH  26  30
ATOM     30  C   UNL     1      17.080  32.910  11.050  1.00  0.00    -0.060 C 
ATOM     31  C   UNL     1      17.004  32.437   9.944  1.00  0.00    -0.040 C 
BRANCH  31  32
ATOM     32  C   UNL     1      16.922  31.869   8.626  1.00  0.00     0.135 A 
ATOM     33  C   UNL     1      17.789  32.086   7.568  1.00  0.00     0.151 A 
ATOM     34  N   UNL     1      15.983  31.019   8.200  1.00  0.00    -0.205 N 
ATOM     35  N   UNL     1      17.384  31.370   6.486  1.00  0.00    -0.234 NA
ATOM     36  C   UNL     1      16.276  30.736   6.927  1.00  0.00     0.154 A 
ATOM     37  N   UNL     1      14.939  30.515   8.855  1.00  0.00    -0.174 NA
ATOM     38  C   UNL     1      15.470  29.868   6.198  1.00  0.00     0.051 A 
ATOM     39  C   UNL     1      14.104  29.656   8.202  1.00  0.00     0.134 A 
ATOM     40  C   UNL     1      14.358  29.319   6.857  1.00  0.00     0.026 A 
ENDBRANCH  31  32
ENDBRANCH  26  30
ENDBRANCH   2  23
TORSDOF 7
ENDMDL
MODEL 15
REMARK VINA RESULT:    -9.329      8.470     10.227
REMARK INTER + INTRA:         -14.061
REMARK INTER:                 -12.946
REMARK INTRA:                  -1.114
REMARK UNBOUND:                -0.914
REMARK SMILES Cc1ccc(C(=O)Nc2ccc(CN3CCN(C)CC3)c(C(F)(F)F)c2)cc1C#Cc1cnc2cccnn12
REMARK SMILES IDX 8 1 6 2 7 3 9 5 12 6 11 7 21 8 10 9 26 10 13 11 14 12 18 13
REMARK SMILES IDX 17 14 16 15 19 16 15 17 20 18 22 19 23 20 24 21 25 22 5 23
REMARK SMILES IDX 27 24 4 25 28 26 3 27 2 28 1 29 29 30 30 31 31 32 32 33
REMARK SMILES IDX 39 34 33 35 34 36 38 37 35 38 37 39 36 40
REMARK H PARENT 8 4
REMARK Flexibility Score: inf
ROOT
ATOM      1  N   UNL     1      17.289  36.560  19.344  1.00  0.00    -0.322 N 
ATOM      2  C   UNL     1      17.585  36.352  17.952  1.00  0.00     0.255 C 
ATOM      3  O   UNL     1      18.722  36.666  17.502  1.00  0.00    -0.269 OA
ATOM      4  H   UNL     1      16.570  35.947  19.793  1.00  0.00     0.170 HD
ENDROOT
BRANCH   1   5
ATOM      5  C   UNL     1      18.041  37.441  20.195  1.00  0.00     0.042 A 
ATOM      6  C   UNL     1      19.535  39.219  21.803  1.00  0.00    -0.022 A 
ATOM      7  C   UNL     1      19.928  37.876  21.650  1.00  0.00     0.008 A 
ATOM      8  C   UNL     1      18.372  39.686  21.127  1.00  0.00     0.062 A 
ATOM      9  C   UNL     1      19.192  36.999  20.859  1.00  0.00     0.026 A 
ATOM     10  C   UNL     1      17.656  38.782  20.313  1.00  0.00     0.039 A 
BRANCH   6  11
ATOM     11  C   UNL     1      20.404  40.114  22.668  1.00  0.00     0.120 C 
BRANCH  11  12
ATOM     12  N   UNL     1      21.823  40.091  22.244  1.00  0.00    -0.297 NA
ATOM     13  C   UNL     1      22.674  43.768  24.042  1.00  0.00     0.105 C 
ATOM     14  N   UNL     1      22.274  42.499  23.415  1.00  0.00    -0.304 NA
ATOM     15  C   UNL     1      22.799  41.353  24.188  1.00  0.00     0.099 C 
ATOM     16  C   UNL     1      22.733  42.443  22.018  1.00  0.00     0.099 C 
ATOM     17  C   UNL     1      22.776  40.041  23.375  1.00  0.00     0.100 C 
ATOM     18  C   UNL     1      22.150  41.199  21.313  1.00  0.00     0.100 C 
ENDBRANCH  11  12
ENDBRANCH   6  11
BRANCH   8  19
ATOM     19  C   UNL     1      17.908  41.131  21.214  1.00  0.00     0.416 C 
ATOM     20  F   UNL     1      18.941  42.016  20.954  1.00  0.00    -0.166 F 
ATOM     21  F   UNL     1      16.911  41.377  20.289  1.00  0.00    -0.166 F 
ATOM     22  F   UNL     1      17.431  41.395  22.484  1.00  0.00    -0.166 F 
ENDBRANCH   8  19
ENDBRANCH   1   5
BRANCH   2  23
ATOM     23  C   UNL     1      16.594  35.713  17.052  1.00  0.00     0.041 A 
ATOM     24  C   UNL     1      16.995  35.200  15.806  1.00  0.00     0.031 A 
ATOM     25  C   UNL     1      15.244  35.611  17.425  1.00  0.00     0.014 A 
ATOM     26  C   UNL     1      16.070  34.578  14.956  1.00  0.00     0.029 A 
ATOM     27  C   UNL     1      14.317  34.998  16.580  1.00  0.00     0.005 A 
ATOM     28  C   UNL     1      14.716  34.477  15.341  1.00  0.00    -0.035 A 
ATOM     29  C   UNL     1      13.704  33.797  14.456  1.00  0.00     0.045 C 
BRANCH  26  30
ATOM     30  C   UNL     1      16.530  34.036  13.698  1.00  0.00    -0.060 C 
ATOM     31  C   UNL     1      16.919  33.575  12.655  1.00  0.00    -0.040 C 
BRANCH  31  32
ATOM     32  C   UNL     1      17.389  33.018  11.416  1.00  0.00     0.135 A 
ATOM     33  C   UNL     1      18.327  32.012  11.255  1.00  0.00     0.151 A 
ATOM     34  N   UNL     1      16.987  33.384  10.195  1.00  0.00    -0.205 N 
ATOM     35  N   UNL     1      18.505  31.756   9.932  1.00  0.00    -0.234 NA
ATOM     36  C   UNL     1      17.662  32.621   9.329  1.00  0.00     0.154 A 
ATOM     37  N   UNL     1      16.099  34.310   9.839  1.00  0.00    -0.174 NA
ATOM     38  C   UNL     1      17.462  32.769   7.961  1.00  0.00     0.051 A 
ATOM     39  C   UNL     1      15.851  34.509   8.513  1.00  0.00     0.134 A 
ATOM     40  C   UNL     1      16.533  33.738   7.549  1.00  0.00     0.026 A 
ENDBRANCH  31  32
ENDBRANCH  26  30
ENDBRANCH   2  23
TORSDOF 7
ENDMDL
