MODEL 1
REMARK VINA RESULT:    -6.878      0.000      0.000
REMARK INTER + INTRA:         -10.431
REMARK INTER:                  -9.491
REMARK INTRA:                  -0.940
REMARK UNBOUND:                -0.940
REMARK SMILES Cc1ccc(Cl)c(OCC(O)CNC(C)(C)C)c1
REMARK SMILES IDX 10 1 9 2 8 3 7 4 1 5 2 6 18 7 3 8 4 9 5 10 6 11 11 12 12 14
REMARK SMILES IDX 13 15 14 17 15 18 16 19 17 20
REMARK H PARENT 11 13 13 16
REMARK Flexibility Score: inf
ROOT
ATOM      1  C   UNL     1      12.106   7.353  17.924  1.00  0.00     0.165 C 
ENDROOT
BRANCH   1   2
ATOM      2  C   UNL     1      12.063   7.613  16.404  1.00  0.00     0.262 C 
BRANCH   2   3
ATOM      3  O   UNL     1      13.092   8.517  15.999  1.00  0.00    -0.489 OA
BRANCH   3   4
ATOM      4  C   UNL     1      12.939   9.897  15.788  1.00  0.00     0.138 A 
ATOM      5  C   UNL     1      10.964  12.360  13.643  1.00  0.00     0.044 C 
ATOM      6  C   UNL     1      11.939  11.809  14.643  1.00  0.00    -0.047 A 
ATOM      7  C   UNL     1      12.055  10.422  14.824  1.00  0.00     0.051 A 
ATOM      8  C   UNL     1      12.689  12.676  15.448  1.00  0.00     0.005 A 
ATOM      9  C   UNL     1      13.571  12.163  16.400  1.00  0.00     0.025 A 
ATOM     10  C   UNL     1      13.702  10.781  16.569  1.00  0.00     0.083 A 
ATOM     11  Cl  UNL     1      14.817  10.166  17.778  1.00  0.00    -0.080 Cl
ENDBRANCH   3   4
ENDBRANCH   2   3
ENDBRANCH   1   2
BRANCH   1  12
ATOM     12  O   UNL     1      13.437   7.201  18.343  1.00  0.00    -0.388 OA
ATOM     13  H   UNL     1      13.492   7.564  19.265  1.00  0.00     0.211 HD
ENDBRANCH   1  12
BRANCH   1  14
ATOM     14  C   UNL     1      11.446   8.488  18.721  1.00  0.00     0.116 C 
BRANCH  14  15
ATOM     15  N   UNL     1      10.047   8.679  18.298  1.00  0.00    -0.309 NA
ATOM     16  H   UNL     1      10.027   8.615  17.252  1.00  0.00     0.123 HD
BRANCH  15  17
ATOM     17  C   UNL     1       9.425   9.958  18.720  1.00  0.00     0.010 C 
ATOM     18  C   UNL     1       9.190  10.008  20.247  1.00  0.00     0.027 C 
ATOM     19  C   UNL     1      10.383  11.104  18.335  1.00  0.00     0.027 C 
ATOM     20  C   UNL     1       8.093  10.184  17.969  1.00  0.00     0.027 C 
ENDBRANCH  15  17
ENDBRANCH  14  15
ENDBRANCH   1  14
TORSDOF 7
ENDMDL
MODEL 2
REMARK VINA RESULT:    -6.746      1.725      2.610
REMARK INTER + INTRA:         -10.249
REMARK INTER:                  -9.309
REMARK INTRA:                  -0.940
REMARK UNBOUND:                -0.940
REMARK SMILES Cc1ccc(Cl)c(OCC(O)CNC(C)(C)C)c1
REMARK SMILES IDX 10 1 9 2 8 3 7 4 1 5 2 6 18 7 3 8 4 9 5 10 6 11 11 12 12 14
REMARK SMILES IDX 13 15 14 17 15 18 16 19 17 20
REMARK H PARENT 11 13 13 16
REMARK Flexibility Score: inf
ROOT
ATOM      1  C   UNL     1      11.575   7.476  16.909  1.00  0.00     0.165 C 
ENDROOT
BRANCH   1   2
ATOM      2  C   UNL     1      13.093   7.704  16.751  1.00  0.00     0.262 C 
BRANCH   2   3
ATOM      3  O   UNL     1      13.370   8.823  15.909  1.00  0.00    -0.489 OA
BRANCH   3   4
ATOM      4  C   UNL     1      13.617  10.137  16.340  1.00  0.00     0.138 A 
ATOM      5  C   UNL     1      16.011  12.121  18.554  1.00  0.00     0.044 C 
ATOM      6  C   UNL     1      14.869  11.783  17.640  1.00  0.00    -0.047 A 
ATOM      7  C   UNL     1      14.663  10.457  17.229  1.00  0.00     0.051 A 
ATOM      8  C   UNL     1      14.044  12.798  17.137  1.00  0.00     0.005 A 
ATOM      9  C   UNL     1      13.002  12.487  16.262  1.00  0.00     0.025 A 
ATOM     10  C   UNL     1      12.784  11.164  15.867  1.00  0.00     0.083 A 
ATOM     11  Cl  UNL     1      11.468  10.804  14.760  1.00  0.00    -0.080 Cl
ENDBRANCH   3   4
ENDBRANCH   2   3
ENDBRANCH   1   2
BRANCH   1  12
ATOM     12  O   UNL     1      11.319   6.111  17.115  1.00  0.00    -0.388 OA
ATOM     13  H   UNL     1      10.365   6.035  17.377  1.00  0.00     0.211 HD
ENDBRANCH   1  12
BRANCH   1  14
ATOM     14  C   UNL     1      10.990   8.287  18.074  1.00  0.00     0.116 C 
BRANCH  14  15
ATOM     15  N   UNL     1       9.826   9.075  17.629  1.00  0.00    -0.309 NA
ATOM     16  H   UNL     1      10.038   9.426  16.664  1.00  0.00     0.123 HD
BRANCH  15  17
ATOM     17  C   UNL     1       9.467  10.224  18.496  1.00  0.00     0.010 C 
ATOM     18  C   UNL     1       8.580   9.792  19.686  1.00  0.00     0.027 C 
ATOM     19  C   UNL     1      10.774  10.826  19.054  1.00  0.00     0.027 C 
ATOM     20  C   UNL     1       8.756  11.321  17.673  1.00  0.00     0.027 C 
ENDBRANCH  15  17
ENDBRANCH  14  15
ENDBRANCH   1  14
TORSDOF 7
ENDMDL
MODEL 3
REMARK VINA RESULT:    -6.353      2.799      3.973
REMARK INTER + INTRA:          -9.707
REMARK INTER:                  -8.606
REMARK INTRA:                  -1.101
REMARK UNBOUND:                -0.940
REMARK SMILES Cc1ccc(Cl)c(OCC(O)CNC(C)(C)C)c1
REMARK SMILES IDX 10 1 9 2 8 3 7 4 1 5 2 6 18 7 3 8 4 9 5 10 6 11 11 12 12 14
REMARK SMILES IDX 13 15 14 17 15 18 16 19 17 20
REMARK H PARENT 11 13 13 16
REMARK Flexibility Score: inf
ROOT
ATOM      1  C   UNL     1       9.932  10.442  19.686  1.00  0.00     0.165 C 
ENDROOT
BRANCH   1   2
ATOM      2  C   UNL     1       9.587   9.059  19.094  1.00  0.00     0.262 C 
BRANCH   2   3
ATOM      3  O   UNL     1       9.755   9.041  17.676  1.00  0.00    -0.489 OA
BRANCH   3   4
ATOM      4  C   UNL     1      10.958   9.265  16.987  1.00  0.00     0.138 A 
ATOM      5  C   UNL     1      12.867  12.043  15.196  1.00  0.00     0.044 C 
ATOM      6  C   UNL     1      12.502  10.695  15.746  1.00  0.00    -0.047 A 
ATOM      7  C   UNL     1      11.291  10.518  16.433  1.00  0.00     0.051 A 
ATOM      8  C   UNL     1      13.397   9.623  15.636  1.00  0.00     0.005 A 
ATOM      9  C   UNL     1      13.071   8.378  16.176  1.00  0.00     0.025 A 
ATOM     10  C   UNL     1      11.857   8.195  16.844  1.00  0.00     0.083 A 
ATOM     11  Cl  UNL     1      11.477   6.617  17.517  1.00  0.00    -0.080 Cl
ENDBRANCH   3   4
ENDBRANCH   2   3
ENDBRANCH   1   2
BRANCH   1  12
ATOM     12  O   UNL     1       8.934  10.832  20.593  1.00  0.00    -0.388 OA
ATOM     13  H   UNL     1       9.263  10.601  21.500  1.00  0.00     0.211 HD
ENDBRANCH   1  12
BRANCH   1  14
ATOM     14  C   UNL     1      11.294  10.440  20.396  1.00  0.00     0.116 C 
BRANCH  14  15
ATOM     15  N   UNL     1      11.932   9.114  20.299  1.00  0.00    -0.309 NA
ATOM     16  H   UNL     1      11.557   8.530  21.085  1.00  0.00     0.123 HD
BRANCH  15  17
ATOM     17  C   UNL     1      13.414   9.117  20.358  1.00  0.00     0.010 C 
ATOM     18  C   UNL     1      13.933   9.461  21.772  1.00  0.00     0.027 C 
ATOM     19  C   UNL     1      13.908   7.703  19.986  1.00  0.00     0.027 C 
ATOM     20  C   UNL     1      13.995  10.106  19.322  1.00  0.00     0.027 C 
ENDBRANCH  15  17
ENDBRANCH  14  15
ENDBRANCH   1  14
TORSDOF 7
ENDMDL
MODEL 4
REMARK VINA RESULT:    -6.344      2.284      3.371
REMARK INTER + INTRA:          -9.695
REMARK INTER:                  -8.955
REMARK INTRA:                  -0.740
REMARK UNBOUND:                -0.940
REMARK SMILES Cc1ccc(Cl)c(OCC(O)CNC(C)(C)C)c1
REMARK SMILES IDX 10 1 9 2 8 3 7 4 1 5 2 6 18 7 3 8 4 9 5 10 6 11 11 12 12 14
REMARK SMILES IDX 13 15 14 17 15 18 16 19 17 20
REMARK H PARENT 11 13 13 16
REMARK Flexibility Score: inf
ROOT
ATOM      1  C   UNL     1      12.279   7.529  17.980  1.00  0.00     0.165 C 
ENDROOT
BRANCH   1   2
ATOM      2  C   UNL     1      12.181   7.931  16.494  1.00  0.00     0.262 C 
BRANCH   2   3
ATOM      3  O   UNL     1      13.326   8.674  16.076  1.00  0.00    -0.489 OA
BRANCH   3   4
ATOM      4  C   UNL     1      13.606  10.011  16.408  1.00  0.00     0.138 A 
ATOM      5  C   UNL     1      16.060  12.098  18.454  1.00  0.00     0.044 C 
ATOM      6  C   UNL     1      14.904  11.719  17.574  1.00  0.00    -0.047 A 
ATOM      7  C   UNL     1      14.665  10.371  17.265  1.00  0.00     0.051 A 
ATOM      8  C   UNL     1      14.099  12.713  17.002  1.00  0.00     0.005 A 
ATOM      9  C   UNL     1      13.044  12.362  16.158  1.00  0.00     0.025 A 
ATOM     10  C   UNL     1      12.793  11.018  15.864  1.00  0.00     0.083 A 
ATOM     11  Cl  UNL     1      11.462  10.608  14.794  1.00  0.00    -0.080 Cl
ENDBRANCH   3   4
ENDBRANCH   2   3
ENDBRANCH   1   2
BRANCH   1  12
ATOM     12  O   UNL     1      13.600   7.166  18.288  1.00  0.00    -0.388 OA
ATOM     13  H   UNL     1      14.140   7.326  17.471  1.00  0.00     0.211 HD
ENDBRANCH   1  12
BRANCH   1  14
ATOM     14  C   UNL     1      11.831   8.663  18.914  1.00  0.00     0.116 C 
BRANCH  14  15
ATOM     15  N   UNL     1      12.466   8.530  20.238  1.00  0.00    -0.309 NA
ATOM     16  H   UNL     1      11.787   8.030  20.861  1.00  0.00     0.123 HD
BRANCH  15  17
ATOM     17  C   UNL     1      12.868   9.805  20.881  1.00  0.00     0.010 C 
ATOM     18  C   UNL     1      14.402   9.999  20.866  1.00  0.00     0.027 C 
ATOM     19  C   UNL     1      12.222  10.962  20.089  1.00  0.00     0.027 C 
ATOM     20  C   UNL     1      12.338   9.871  22.331  1.00  0.00     0.027 C 
ENDBRANCH  15  17
ENDBRANCH  14  15
ENDBRANCH   1  14
TORSDOF 7
ENDMDL
MODEL 5
REMARK VINA RESULT:    -6.340     10.119     12.021
REMARK INTER + INTRA:          -9.689
REMARK INTER:                  -9.054
REMARK INTRA:                  -0.635
REMARK UNBOUND:                -0.940
REMARK SMILES Cc1ccc(Cl)c(OCC(O)CNC(C)(C)C)c1
REMARK SMILES IDX 10 1 9 2 8 3 7 4 1 5 2 6 18 7 3 8 4 9 5 10 6 11 11 12 12 14
REMARK SMILES IDX 13 15 14 17 15 18 16 19 17 20
REMARK H PARENT 11 13 13 16
REMARK Flexibility Score: inf
ROOT
ATOM      1  C   UNL     1      23.247   8.699  15.376  1.00  0.00     0.165 C 
ENDROOT
BRANCH   1   2
ATOM      2  C   UNL     1      23.575   7.645  16.454  1.00  0.00     0.262 C 
BRANCH   2   3
ATOM      3  O   UNL     1      22.478   6.756  16.668  1.00  0.00    -0.489 OA
BRANCH   3   4
ATOM      4  C   UNL     1      22.319   5.895  17.767  1.00  0.00     0.138 A 
ATOM      5  C   UNL     1      20.630   5.746  21.186  1.00  0.00     0.044 C 
ATOM      6  C   UNL     1      21.454   5.368  19.989  1.00  0.00    -0.047 A 
ATOM      7  C   UNL     1      21.581   6.258  18.911  1.00  0.00     0.051 A 
ATOM      8  C   UNL     1      22.043   4.099  19.911  1.00  0.00     0.005 A 
ATOM      9  C   UNL     1      22.781   3.736  18.784  1.00  0.00     0.025 A 
ATOM     10  C   UNL     1      22.924   4.629  17.717  1.00  0.00     0.083 A 
ATOM     11  Cl  UNL     1      23.855   4.142  16.310  1.00  0.00    -0.080 Cl
ENDBRANCH   3   4
ENDBRANCH   2   3
ENDBRANCH   1   2
BRANCH   1  12
ATOM     12  O   UNL     1      22.155   8.266  14.606  1.00  0.00    -0.388 OA
ATOM     13  H   UNL     1      22.303   8.600  13.684  1.00  0.00     0.211 HD
ENDBRANCH   1  12
BRANCH   1  14
ATOM     14  C   UNL     1      22.927  10.070  15.990  1.00  0.00     0.116 C 
BRANCH  14  15
ATOM     15  N   UNL     1      22.216   9.913  17.272  1.00  0.00    -0.309 NA
ATOM     16  H   UNL     1      21.213   9.705  17.049  1.00  0.00     0.123 HD
BRANCH  15  17
ATOM     17  C   UNL     1      22.279  11.085  18.180  1.00  0.00     0.010 C 
ATOM     18  C   UNL     1      22.945  10.733  19.530  1.00  0.00     0.027 C 
ATOM     19  C   UNL     1      23.121  12.178  17.490  1.00  0.00     0.027 C 
ATOM     20  C   UNL     1      20.864  11.660  18.420  1.00  0.00     0.027 C 
ENDBRANCH  15  17
ENDBRANCH  14  15
ENDBRANCH   1  14
TORSDOF 7
ENDMDL
MODEL 6
REMARK VINA RESULT:    -6.339      2.337      3.690
REMARK INTER + INTRA:          -9.687
REMARK INTER:                  -8.755
REMARK INTRA:                  -0.932
REMARK UNBOUND:                -0.940
REMARK SMILES Cc1ccc(Cl)c(OCC(O)CNC(C)(C)C)c1
REMARK SMILES IDX 10 1 9 2 8 3 7 4 1 5 2 6 18 7 3 8 4 9 5 10 6 11 11 12 12 14
REMARK SMILES IDX 13 15 14 17 15 18 16 19 17 20
REMARK H PARENT 11 13 13 16
REMARK Flexibility Score: inf
ROOT
ATOM      1  C   UNL     1      13.286   8.148  18.160  1.00  0.00     0.165 C 
ENDROOT
BRANCH   1   2
ATOM      2  C   UNL     1      13.268   8.391  16.637  1.00  0.00     0.262 C 
BRANCH   2   3
ATOM      3  O   UNL     1      11.951   8.687  16.169  1.00  0.00    -0.489 OA
BRANCH   3   4
ATOM      4  C   UNL     1      11.444   9.968  15.894  1.00  0.00     0.138 A 
ATOM      5  C   UNL     1      11.450  12.624  13.153  1.00  0.00     0.044 C 
ATOM      6  C   UNL     1      11.193  11.928  14.458  1.00  0.00    -0.047 A 
ATOM      7  C   UNL     1      11.715  10.645  14.688  1.00  0.00     0.051 A 
ATOM      8  C   UNL     1      10.374  12.524  15.425  1.00  0.00     0.005 A 
ATOM      9  C   UNL     1      10.108  11.863  16.625  1.00  0.00     0.025 A 
ATOM     10  C   UNL     1      10.643  10.593  16.863  1.00  0.00     0.083 A 
ATOM     11  Cl  UNL     1      10.286   9.783  18.381  1.00  0.00    -0.080 Cl
ENDBRANCH   3   4
ENDBRANCH   2   3
ENDBRANCH   1   2
BRANCH   1  12
ATOM     12  O   UNL     1      13.720   6.839  18.427  1.00  0.00    -0.388 OA
ATOM     13  H   UNL     1      13.014   6.228  18.091  1.00  0.00     0.211 HD
ENDBRANCH   1  12
BRANCH   1  14
ATOM     14  C   UNL     1      14.195   9.146  18.892  1.00  0.00     0.116 C 
BRANCH  14  15
ATOM     15  N   UNL     1      14.897  10.014  17.930  1.00  0.00    -0.309 NA
ATOM     16  H   UNL     1      15.908   9.734  17.937  1.00  0.00     0.123 HD
BRANCH  15  17
ATOM     17  C   UNL     1      14.794  11.470  18.195  1.00  0.00     0.010 C 
ATOM     18  C   UNL     1      14.036  12.208  17.068  1.00  0.00     0.027 C 
ATOM     19  C   UNL     1      14.014  11.660  19.513  1.00  0.00     0.027 C 
ATOM     20  C   UNL     1      16.198  12.087  18.384  1.00  0.00     0.027 C 
ENDBRANCH  15  17
ENDBRANCH  14  15
ENDBRANCH   1  14
TORSDOF 7
ENDMDL
MODEL 7
REMARK VINA RESULT:    -6.309      2.587      4.326
REMARK INTER + INTRA:          -9.646
REMARK INTER:                  -8.748
REMARK INTRA:                  -0.897
REMARK UNBOUND:                -0.940
REMARK SMILES Cc1ccc(Cl)c(OCC(O)CNC(C)(C)C)c1
REMARK SMILES IDX 10 1 9 2 8 3 7 4 1 5 2 6 18 7 3 8 4 9 5 10 6 11 11 12 12 14
REMARK SMILES IDX 13 15 14 17 15 18 16 19 17 20
REMARK H PARENT 11 13 13 16
REMARK Flexibility Score: inf
ROOT
ATOM      1  C   UNL     1      12.478   7.736  18.686  1.00  0.00     0.165 C 
ENDROOT
BRANCH   1   2
ATOM      2  C   UNL     1      11.359   8.000  17.659  1.00  0.00     0.262 C 
BRANCH   2   3
ATOM      3  O   UNL     1      10.207   8.577  18.277  1.00  0.00    -0.489 OA
BRANCH   3   4
ATOM      4  C   UNL     1       9.745   9.890  18.092  1.00  0.00     0.138 A 
ATOM      5  C   UNL     1      10.113  12.846  15.706  1.00  0.00     0.044 C 
ATOM      6  C   UNL     1       9.687  12.008  16.876  1.00  0.00    -0.047 A 
ATOM      7  C   UNL     1      10.170  10.698  17.018  1.00  0.00     0.051 A 
ATOM      8  C   UNL     1       8.754  12.504  17.796  1.00  0.00     0.005 A 
ATOM      9  C   UNL     1       8.334  11.712  18.866  1.00  0.00     0.025 A 
ATOM     10  C   UNL     1       8.829  10.413  19.019  1.00  0.00     0.083 A 
ATOM     11  Cl  UNL     1       8.277   9.439  20.373  1.00  0.00    -0.080 Cl
ENDBRANCH   3   4
ENDBRANCH   2   3
ENDBRANCH   1   2
BRANCH   1  12
ATOM     12  O   UNL     1      13.564   7.108  18.055  1.00  0.00    -0.388 OA
ATOM     13  H   UNL     1      13.460   6.133  18.207  1.00  0.00     0.211 HD
ENDBRANCH   1  12
BRANCH   1  14
ATOM     14  C   UNL     1      12.959   9.030  19.359  1.00  0.00     0.116 C 
BRANCH  14  15
ATOM     15  N   UNL     1      14.243   9.472  18.784  1.00  0.00    -0.309 NA
ATOM     16  H   UNL     1      14.930   9.544  19.573  1.00  0.00     0.123 HD
BRANCH  15  17
ATOM     17  C   UNL     1      14.201  10.763  18.055  1.00  0.00     0.010 C 
ATOM     18  C   UNL     1      13.842  10.572  16.564  1.00  0.00     0.027 C 
ATOM     19  C   UNL     1      13.117  11.645  18.710  1.00  0.00     0.027 C 
ATOM     20  C   UNL     1      15.552  11.502  18.186  1.00  0.00     0.027 C 
ENDBRANCH  15  17
ENDBRANCH  14  15
ENDBRANCH   1  14
TORSDOF 7
ENDMDL
MODEL 8
REMARK VINA RESULT:    -6.274      2.745      4.934
REMARK INTER + INTRA:          -9.598
REMARK INTER:                  -8.597
REMARK INTRA:                  -1.001
REMARK UNBOUND:                -0.940
REMARK SMILES Cc1ccc(Cl)c(OCC(O)CNC(C)(C)C)c1
REMARK SMILES IDX 10 1 9 2 8 3 7 4 1 5 2 6 18 7 3 8 4 9 5 10 6 11 11 12 12 14
REMARK SMILES IDX 13 15 14 17 15 18 16 19 17 20
REMARK H PARENT 11 13 13 16
REMARK Flexibility Score: inf
ROOT
ATOM      1  C   UNL     1      12.733   8.492  15.772  1.00  0.00     0.165 C 
ENDROOT
BRANCH   1   2
ATOM      2  C   UNL     1      11.566   8.495  16.781  1.00  0.00     0.262 C 
BRANCH   2   3
ATOM      3  O   UNL     1      10.687   9.599  16.561  1.00  0.00    -0.489 OA
BRANCH   3   4
ATOM      4  C   UNL     1       9.874  10.210  17.530  1.00  0.00     0.138 A 
ATOM      5  C   UNL     1       7.987   9.394  20.746  1.00  0.00     0.044 C 
ATOM      6  C   UNL     1       8.522  10.149  19.563  1.00  0.00    -0.047 A 
ATOM      7  C   UNL     1       9.335   9.499  18.622  1.00  0.00     0.051 A 
ATOM      8  C   UNL     1       8.269  11.520  19.429  1.00  0.00     0.005 A 
ATOM      9  C   UNL     1       8.794  12.228  18.347  1.00  0.00     0.025 A 
ATOM     10  C   UNL     1       9.589  11.578  17.398  1.00  0.00     0.083 A 
ATOM     11  Cl  UNL     1      10.239  12.497  16.049  1.00  0.00    -0.080 Cl
ENDBRANCH   3   4
ENDBRANCH   2   3
ENDBRANCH   1   2
BRANCH   1  12
ATOM     12  O   UNL     1      12.333   9.120  14.581  1.00  0.00    -0.388 OA
ATOM     13  H   UNL     1      12.733   8.602  13.835  1.00  0.00     0.211 HD
ENDBRANCH   1  12
BRANCH   1  14
ATOM     14  C   UNL     1      13.977   9.200  16.328  1.00  0.00     0.116 C 
BRANCH  14  15
ATOM     15  N   UNL     1      13.673  10.605  16.660  1.00  0.00    -0.309 NA
ATOM     16  H   UNL     1      14.133  11.203  15.932  1.00  0.00     0.123 HD
BRANCH  15  17
ATOM     17  C   UNL     1      14.114  11.048  18.005  1.00  0.00     0.010 C 
ATOM     18  C   UNL     1      13.049  11.928  18.699  1.00  0.00     0.027 C 
ATOM     19  C   UNL     1      14.347   9.791  18.870  1.00  0.00     0.027 C 
ATOM     20  C   UNL     1      15.454  11.811  17.911  1.00  0.00     0.027 C 
ENDBRANCH  15  17
ENDBRANCH  14  15
ENDBRANCH   1  14
TORSDOF 7
ENDMDL
MODEL 9
REMARK VINA RESULT:    -6.246      2.208      3.534
REMARK INTER + INTRA:          -9.560
REMARK INTER:                  -8.170
REMARK INTRA:                  -1.390
REMARK UNBOUND:                -0.940
REMARK SMILES Cc1ccc(Cl)c(OCC(O)CNC(C)(C)C)c1
REMARK SMILES IDX 10 1 9 2 8 3 7 4 1 5 2 6 18 7 3 8 4 9 5 10 6 11 11 12 12 14
REMARK SMILES IDX 13 15 14 17 15 18 16 19 17 20
REMARK H PARENT 11 13 13 16
REMARK Flexibility Score: inf
ROOT
ATOM      1  C   UNL     1      13.018   7.932  19.077  1.00  0.00     0.165 C 
ENDROOT
BRANCH   1   2
ATOM      2  C   UNL     1      11.589   8.448  18.808  1.00  0.00     0.262 C 
BRANCH   2   3
ATOM      3  O   UNL     1      11.350   8.621  17.411  1.00  0.00    -0.489 OA
BRANCH   3   4
ATOM      4  C   UNL     1      11.093   9.842  16.765  1.00  0.00     0.138 A 
ATOM      5  C   UNL     1       8.910  12.956  17.091  1.00  0.00     0.044 C 
ATOM      6  C   UNL     1       9.903  11.965  16.557  1.00  0.00    -0.047 A 
ATOM      7  C   UNL     1      10.133  10.759  17.238  1.00  0.00     0.051 A 
ATOM      8  C   UNL     1      10.656  12.268  15.414  1.00  0.00     0.005 A 
ATOM      9  C   UNL     1      11.602  11.360  14.937  1.00  0.00     0.025 A 
ATOM     10  C   UNL     1      11.819  10.150  15.604  1.00  0.00     0.083 A 
ATOM     11  Cl  UNL     1      13.021   9.031  14.981  1.00  0.00    -0.080 Cl
ENDBRANCH   3   4
ENDBRANCH   2   3
ENDBRANCH   1   2
BRANCH   1  12
ATOM     12  O   UNL     1      13.550   7.371  17.905  1.00  0.00    -0.388 OA
ATOM     13  H   UNL     1      14.058   8.090  17.447  1.00  0.00     0.211 HD
ENDBRANCH   1  12
BRANCH   1  14
ATOM     14  C   UNL     1      13.948   9.049  19.576  1.00  0.00     0.116 C 
BRANCH  14  15
ATOM     15  N   UNL     1      13.295  10.365  19.453  1.00  0.00    -0.309 NA
ATOM     16  H   UNL     1      12.394  10.219  18.937  1.00  0.00     0.123 HD
BRANCH  15  17
ATOM     17  C   UNL     1      14.091  11.406  18.757  1.00  0.00     0.010 C 
ATOM     18  C   UNL     1      13.216  12.602  18.318  1.00  0.00     0.027 C 
ATOM     19  C   UNL     1      15.165  11.920  19.739  1.00  0.00     0.027 C 
ATOM     20  C   UNL     1      14.819  10.803  17.534  1.00  0.00     0.027 C 
ENDBRANCH  15  17
ENDBRANCH  14  15
ENDBRANCH   1  14
TORSDOF 7
ENDMDL
MODEL 10
REMARK VINA RESULT:    -6.209      2.613      3.494
REMARK INTER + INTRA:          -9.508
REMARK INTER:                  -8.645
REMARK INTRA:                  -0.864
REMARK UNBOUND:                -0.940
REMARK SMILES Cc1ccc(Cl)c(OCC(O)CNC(C)(C)C)c1
REMARK SMILES IDX 10 1 9 2 8 3 7 4 1 5 2 6 18 7 3 8 4 9 5 10 6 11 11 12 12 14
REMARK SMILES IDX 13 15 14 17 15 18 16 19 17 20
REMARK H PARENT 11 13 13 16
REMARK Flexibility Score: inf
ROOT
ATOM      1  C   UNL     1       8.679   9.674  19.764  1.00  0.00     0.165 C 
ENDROOT
BRANCH   1   2
ATOM      2  C   UNL     1      10.192   9.893  19.972  1.00  0.00     0.262 C 
BRANCH   2   3
ATOM      3  O   UNL     1      10.964   9.100  19.070  1.00  0.00    -0.489 OA
BRANCH   3   4
ATOM      4  C   UNL     1      11.769   9.589  18.027  1.00  0.00     0.138 A 
ATOM      5  C   UNL     1      11.484  11.246  14.600  1.00  0.00     0.044 C 
ATOM      6  C   UNL     1      12.069  10.616  15.831  1.00  0.00    -0.047 A 
ATOM      7  C   UNL     1      11.227  10.146  16.851  1.00  0.00     0.051 A 
ATOM      8  C   UNL     1      13.459  10.555  15.999  1.00  0.00     0.005 A 
ATOM      9  C   UNL     1      14.002   9.999  17.158  1.00  0.00     0.025 A 
ATOM     10  C   UNL     1      13.164   9.513  18.167  1.00  0.00     0.083 A 
ATOM     11  Cl  UNL     1      13.878   8.823  19.616  1.00  0.00    -0.080 Cl
ENDBRANCH   3   4
ENDBRANCH   2   3
ENDBRANCH   1   2
BRANCH   1  12
ATOM     12  O   UNL     1       8.088   9.265  20.970  1.00  0.00    -0.388 OA
ATOM     13  H   UNL     1       8.612   9.682  21.703  1.00  0.00     0.211 HD
ENDBRANCH   1  12
BRANCH   1  14
ATOM     14  C   UNL     1       7.979  10.944  19.258  1.00  0.00     0.116 C 
BRANCH  14  15
ATOM     15  N   UNL     1       8.656  12.151  19.767  1.00  0.00    -0.309 NA
ATOM     16  H   UNL     1       8.005  12.610  20.449  1.00  0.00     0.123 HD
BRANCH  15  17
ATOM     17  C   UNL     1       9.054  13.139  18.734  1.00  0.00     0.010 C 
ATOM     18  C   UNL     1      10.575  13.413  18.754  1.00  0.00     0.027 C 
ATOM     19  C   UNL     1       8.680  12.561  17.353  1.00  0.00     0.027 C 
ATOM     20  C   UNL     1       8.273  14.460  18.920  1.00  0.00     0.027 C 
ENDBRANCH  15  17
ENDBRANCH  14  15
ENDBRANCH   1  14
TORSDOF 7
ENDMDL
MODEL 11
REMARK VINA RESULT:    -6.171      2.287      3.607
REMARK INTER + INTRA:          -9.456
REMARK INTER:                  -8.572
REMARK INTRA:                  -0.884
REMARK UNBOUND:                -0.940
REMARK SMILES Cc1ccc(Cl)c(OCC(O)CNC(C)(C)C)c1
REMARK SMILES IDX 10 1 9 2 8 3 7 4 1 5 2 6 18 7 3 8 4 9 5 10 6 11 11 12 12 14
REMARK SMILES IDX 13 15 14 17 15 18 16 19 17 20
REMARK H PARENT 11 13 13 16
REMARK Flexibility Score: inf
ROOT
ATOM      1  C   UNL     1      11.357   8.101  17.782  1.00  0.00     0.165 C 
ENDROOT
BRANCH   1   2
ATOM      2  C   UNL     1      12.267   7.502  18.874  1.00  0.00     0.262 C 
BRANCH   2   3
ATOM      3  O   UNL     1      13.621   7.928  18.718  1.00  0.00    -0.489 OA
BRANCH   3   4
ATOM      4  C   UNL     1      14.066   9.260  18.678  1.00  0.00     0.138 A 
ATOM      5  C   UNL     1      14.899  12.170  21.003  1.00  0.00     0.044 C 
ATOM      6  C   UNL     1      14.678  11.365  19.755  1.00  0.00    -0.047 A 
ATOM      7  C   UNL     1      14.238  10.035  19.843  1.00  0.00     0.051 A 
ATOM      8  C   UNL     1      14.974  11.914  18.501  1.00  0.00     0.005 A 
ATOM      9  C   UNL     1      14.799  11.154  17.343  1.00  0.00     0.025 A 
ATOM     10  C   UNL     1      14.343   9.835  17.427  1.00  0.00     0.083 A 
ATOM     11  Cl  UNL     1      14.137   8.903  15.953  1.00  0.00    -0.080 Cl
ENDBRANCH   3   4
ENDBRANCH   2   3
ENDBRANCH   1   2
BRANCH   1  12
ATOM     12  O   UNL     1      10.661   7.072  17.127  1.00  0.00    -0.388 OA
ATOM     13  H   UNL     1      11.333   6.387  16.873  1.00  0.00     0.211 HD
ENDBRANCH   1  12
BRANCH   1  14
ATOM     14  C   UNL     1      10.351   9.109  18.359  1.00  0.00     0.116 C 
BRANCH  14  15
ATOM     15  N   UNL     1       9.716   9.888  17.280  1.00  0.00    -0.309 NA
ATOM     16  H   UNL     1       9.875   9.366  16.385  1.00  0.00     0.123 HD
BRANCH  15  17
ATOM     17  C   UNL     1      10.208  11.279  17.127  1.00  0.00     0.010 C 
ATOM     18  C   UNL     1       9.048  12.300  17.099  1.00  0.00     0.027 C 
ATOM     19  C   UNL     1      11.113  11.600  18.336  1.00  0.00     0.027 C 
ATOM     20  C   UNL     1      11.065  11.412  15.848  1.00  0.00     0.027 C 
ENDBRANCH  15  17
ENDBRANCH  14  15
ENDBRANCH   1  14
TORSDOF 7
ENDMDL
MODEL 12
REMARK VINA RESULT:    -6.143      2.794      4.105
REMARK INTER + INTRA:          -9.417
REMARK INTER:                  -8.807
REMARK INTRA:                  -0.610
REMARK UNBOUND:                -0.940
REMARK SMILES Cc1ccc(Cl)c(OCC(O)CNC(C)(C)C)c1
REMARK SMILES IDX 10 1 9 2 8 3 7 4 1 5 2 6 18 7 3 8 4 9 5 10 6 11 11 12 12 14
REMARK SMILES IDX 13 15 14 17 15 18 16 19 17 20
REMARK H PARENT 11 13 13 16
REMARK Flexibility Score: inf
ROOT
ATOM      1  C   UNL     1       8.618   9.670  19.765  1.00  0.00     0.165 C 
ENDROOT
BRANCH   1   2
ATOM      2  C   UNL     1      10.154   9.802  19.696  1.00  0.00     0.262 C 
BRANCH   2   3
ATOM      3  O   UNL     1      10.708   8.953  18.691  1.00  0.00    -0.489 OA
BRANCH   3   4
ATOM      4  C   UNL     1      11.877   9.204  17.954  1.00  0.00     0.138 A 
ATOM      5  C   UNL     1      14.598  11.849  17.537  1.00  0.00     0.044 C 
ATOM      6  C   UNL     1      13.784  10.602  17.340  1.00  0.00    -0.047 A 
ATOM      7  C   UNL     1      12.625  10.390  18.104  1.00  0.00     0.051 A 
ATOM      8  C   UNL     1      14.212   9.614  16.444  1.00  0.00     0.005 A 
ATOM      9  C   UNL     1      13.472   8.442  16.286  1.00  0.00     0.025 A 
ATOM     10  C   UNL     1      12.307   8.237  17.032  1.00  0.00     0.083 A 
ATOM     11  Cl  UNL     1      11.400   6.748  16.814  1.00  0.00    -0.080 Cl
ENDBRANCH   3   4
ENDBRANCH   2   3
ENDBRANCH   1   2
BRANCH   1  12
ATOM     12  O   UNL     1       8.231   9.303  21.064  1.00  0.00    -0.388 OA
ATOM     13  H   UNL     1       8.139  10.143  21.584  1.00  0.00     0.211 HD
ENDBRANCH   1  12
BRANCH   1  14
ATOM     14  C   UNL     1       7.910  10.975  19.371  1.00  0.00     0.116 C 
BRANCH  14  15
ATOM     15  N   UNL     1       8.693  12.146  19.807  1.00  0.00    -0.309 NA
ATOM     16  H   UNL     1       8.118  12.657  20.520  1.00  0.00     0.123 HD
BRANCH  15  17
ATOM     17  C   UNL     1       9.081  13.087  18.729  1.00  0.00     0.010 C 
ATOM     18  C   UNL     1       8.810  12.499  17.325  1.00  0.00     0.027 C 
ATOM     19  C   UNL     1       8.240  14.371  18.891  1.00  0.00     0.027 C 
ATOM     20  C   UNL     1      10.570  13.479  18.863  1.00  0.00     0.027 C 
ENDBRANCH  15  17
ENDBRANCH  14  15
ENDBRANCH   1  14
TORSDOF 7
ENDMDL
MODEL 13
REMARK VINA RESULT:    -6.137      1.779      2.351
REMARK INTER + INTRA:          -9.409
REMARK INTER:                  -8.352
REMARK INTRA:                  -1.057
REMARK UNBOUND:                -0.940
REMARK SMILES Cc1ccc(Cl)c(OCC(O)CNC(C)(C)C)c1
REMARK SMILES IDX 10 1 9 2 8 3 7 4 1 5 2 6 18 7 3 8 4 9 5 10 6 11 11 12 12 14
REMARK SMILES IDX 13 15 14 17 15 18 16 19 17 20
REMARK H PARENT 11 13 13 16
REMARK Flexibility Score: inf
ROOT
ATOM      1  C   UNL     1      12.712   8.954  19.683  1.00  0.00     0.165 C 
ENDROOT
BRANCH   1   2
ATOM      2  C   UNL     1      14.068   9.371  19.079  1.00  0.00     0.262 C 
BRANCH   2   3
ATOM      3  O   UNL     1      14.087   9.193  17.662  1.00  0.00    -0.489 OA
BRANCH   3   4
ATOM      4  C   UNL     1      13.351   9.941  16.729  1.00  0.00     0.138 A 
ATOM      5  C   UNL     1      13.042  13.496  15.372  1.00  0.00     0.044 C 
ATOM      6  C   UNL     1      12.790  12.033  15.599  1.00  0.00    -0.047 A 
ATOM      7  C   UNL     1      13.554  11.323  16.538  1.00  0.00     0.051 A 
ATOM      8  C   UNL     1      11.839  11.354  14.826  1.00  0.00     0.005 A 
ATOM      9  C   UNL     1      11.628   9.987  15.015  1.00  0.00     0.025 A 
ATOM     10  C   UNL     1      12.375   9.282  15.964  1.00  0.00     0.083 A 
ATOM     11  Cl  UNL     1      12.090   7.562  16.174  1.00  0.00    -0.080 Cl
ENDBRANCH   3   4
ENDBRANCH   2   3
ENDBRANCH   1   2
BRANCH   1  12
ATOM     12  O   UNL     1      12.913   7.979  20.674  1.00  0.00    -0.388 OA
ATOM     13  H   UNL     1      13.590   8.343  21.302  1.00  0.00     0.211 HD
ENDBRANCH   1  12
BRANCH   1  14
ATOM     14  C   UNL     1      11.959  10.148  20.288  1.00  0.00     0.116 C 
BRANCH  14  15
ATOM     15  N   UNL     1      10.510   9.882  20.334  1.00  0.00    -0.309 NA
ATOM     16  H   UNL     1      10.379   8.848  20.221  1.00  0.00     0.123 HD
BRANCH  15  17
ATOM     17  C   UNL     1       9.701  10.590  19.312  1.00  0.00     0.010 C 
ATOM     18  C   UNL     1       8.370  11.118  19.894  1.00  0.00     0.027 C 
ATOM     19  C   UNL     1      10.523  11.794  18.804  1.00  0.00     0.027 C 
ATOM     20  C   UNL     1       9.425   9.665  18.105  1.00  0.00     0.027 C 
ENDBRANCH  15  17
ENDBRANCH  14  15
ENDBRANCH   1  14
TORSDOF 7
ENDMDL
MODEL 14
REMARK VINA RESULT:    -6.135      2.245      3.012
REMARK INTER + INTRA:          -9.406
REMARK INTER:                  -8.377
REMARK INTRA:                  -1.029
REMARK UNBOUND:                -0.940
REMARK SMILES Cc1ccc(Cl)c(OCC(O)CNC(C)(C)C)c1
REMARK SMILES IDX 10 1 9 2 8 3 7 4 1 5 2 6 18 7 3 8 4 9 5 10 6 11 11 12 12 14
REMARK SMILES IDX 13 15 14 17 15 18 16 19 17 20
REMARK H PARENT 11 13 13 16
REMARK Flexibility Score: inf
ROOT
ATOM      1  C   UNL     1      13.088   8.873  21.587  1.00  0.00     0.165 C 
ENDROOT
BRANCH   1   2
ATOM      2  C   UNL     1      13.527   8.086  20.335  1.00  0.00     0.262 C 
BRANCH   2   3
ATOM      3  O   UNL     1      14.463   8.828  19.552  1.00  0.00    -0.489 OA
BRANCH   3   4
ATOM      4  C   UNL     1      14.162   9.578  18.403  1.00  0.00     0.138 A 
ATOM      5  C   UNL     1      12.383   9.255  15.042  1.00  0.00     0.044 C 
ATOM      6  C   UNL     1      13.178   9.824  16.181  1.00  0.00    -0.047 A 
ATOM      7  C   UNL     1      13.451   9.039  17.313  1.00  0.00     0.051 A 
ATOM      8  C   UNL     1      13.594  11.162  16.152  1.00  0.00     0.005 A 
ATOM      9  C   UNL     1      14.305  11.700  17.225  1.00  0.00     0.025 A 
ATOM     10  C   UNL     1      14.593  10.914  18.345  1.00  0.00     0.083 A 
ATOM     11  Cl  UNL     1      15.485  11.620  19.683  1.00  0.00    -0.080 Cl
ENDBRANCH   3   4
ENDBRANCH   2   3
ENDBRANCH   1   2
BRANCH   1  12
ATOM     12  O   UNL     1      14.212   9.194  22.365  1.00  0.00    -0.388 OA
ATOM     13  H   UNL     1      14.932   8.563  22.104  1.00  0.00     0.211 HD
ENDBRANCH   1  12
BRANCH   1  14
ATOM     14  C   UNL     1      12.335  10.161  21.223  1.00  0.00     0.116 C 
BRANCH  14  15
ATOM     15  N   UNL     1      10.884   9.910  21.136  1.00  0.00    -0.309 NA
ATOM     16  H   UNL     1      10.740   8.877  21.243  1.00  0.00     0.123 HD
BRANCH  15  17
ATOM     17  C   UNL     1      10.235  10.365  19.882  1.00  0.00     0.010 C 
ATOM     18  C   UNL     1      10.980  11.563  19.250  1.00  0.00     0.027 C 
ATOM     19  C   UNL     1      10.259   9.191  18.880  1.00  0.00     0.027 C 
ATOM     20  C   UNL     1       8.757  10.734  20.141  1.00  0.00     0.027 C 
ENDBRANCH  15  17
ENDBRANCH  14  15
ENDBRANCH   1  14
TORSDOF 7
ENDMDL
MODEL 15
REMARK VINA RESULT:    -6.128      2.379      4.314
REMARK INTER + INTRA:          -9.397
REMARK INTER:                  -8.414
REMARK INTRA:                  -0.983
REMARK UNBOUND:                -0.940
REMARK SMILES Cc1ccc(Cl)c(OCC(O)CNC(C)(C)C)c1
REMARK SMILES IDX 10 1 9 2 8 3 7 4 1 5 2 6 18 7 3 8 4 9 5 10 6 11 11 12 12 14
REMARK SMILES IDX 13 15 14 17 15 18 16 19 17 20
REMARK H PARENT 11 13 13 16
REMARK Flexibility Score: inf
ROOT
ATOM      1  C   UNL     1       9.429   9.963  17.751  1.00  0.00     0.165 C 
ENDROOT
BRANCH   1   2
ATOM      2  C   UNL     1      10.030   9.692  19.146  1.00  0.00     0.262 C 
BRANCH   2   3
ATOM      3  O   UNL     1      11.198   8.875  19.063  1.00  0.00    -0.489 OA
BRANCH   3   4
ATOM      4  C   UNL     1      12.298   9.095  18.216  1.00  0.00     0.138 A 
ATOM      5  C   UNL     1      15.263  11.457  17.773  1.00  0.00     0.044 C 
ATOM      6  C   UNL     1      14.282  10.345  17.534  1.00  0.00    -0.047 A 
ATOM      7  C   UNL     1      13.201  10.159  18.410  1.00  0.00     0.051 A 
ATOM      8  C   UNL     1      14.478   9.447  16.478  1.00  0.00     0.005 A 
ATOM      9  C   UNL     1      13.584   8.395  16.276  1.00  0.00     0.025 A 
ATOM     10  C   UNL     1      12.496   8.219  17.136  1.00  0.00     0.083 A 
ATOM     11  Cl  UNL     1      11.390   6.882  16.859  1.00  0.00    -0.080 Cl
ENDBRANCH   3   4
ENDBRANCH   2   3
ENDBRANCH   1   2
BRANCH   1  12
ATOM     12  O   UNL     1       8.125   9.446  17.688  1.00  0.00    -0.388 OA
ATOM     13  H   UNL     1       8.035   8.800  18.436  1.00  0.00     0.211 HD
ENDBRANCH   1  12
BRANCH   1  14
ATOM     14  C   UNL     1       9.400  11.462  17.418  1.00  0.00     0.116 C 
BRANCH  14  15
ATOM     15  N   UNL     1      10.768  11.984  17.243  1.00  0.00    -0.309 NA
ATOM     16  H   UNL     1      10.856  12.836  17.847  1.00  0.00     0.123 HD
BRANCH  15  17
ATOM     17  C   UNL     1      11.139  12.335  15.850  1.00  0.00     0.010 C 
ATOM     18  C   UNL     1      11.277  11.080  14.958  1.00  0.00     0.027 C 
ATOM     19  C   UNL     1      10.023  13.228  15.269  1.00  0.00     0.027 C 
ATOM     20  C   UNL     1      12.453  13.148  15.830  1.00  0.00     0.027 C 
ENDBRANCH  15  17
ENDBRANCH  14  15
ENDBRANCH   1  14
TORSDOF 7
ENDMDL
