MODEL 1
REMARK VINA RESULT:    -9.097      0.000      0.000
REMARK INTER + INTRA:         -13.346
REMARK INTER:                 -12.819
REMARK INTRA:                  -0.527
REMARK UNBOUND:                -0.527
REMARK SMILES Cc1cc(/C=C/C#N)cc(C)c1Nc1ccnc(Nc2ccc(C#N)cc2)n1
REMARK SMILES IDX 14 1 15 2 16 3 17 4 18 5 28 6 13 7 12 9 1 10 2 11 3 12 4 13
REMARK SMILES IDX 10 14 9 15 11 16 5 17 6 18 7 19 8 20 19 21 20 23 21 24 27 25
REMARK SMILES IDX 22 26 26 27 23 28 24 29 25 30
REMARK H PARENT 13 8 19 22
REMARK Flexibility Score: inf
ROOT
ATOM      1  C   UNL     1      10.956  78.872  -0.773  1.00  0.00     0.135 A 
ATOM      2  C   UNL     1      10.458  80.146  -0.458  1.00  0.00     0.067 A 
ATOM      3  C   UNL     1       9.079  80.315  -0.347  1.00  0.00     0.119 A 
ATOM      4  N   UNL     1       8.248  79.262  -0.554  1.00  0.00    -0.221 NA
ATOM      5  C   UNL     1       8.737  78.035  -0.882  1.00  0.00     0.229 A 
ATOM      6  N   UNL     1      10.081  77.852  -0.979  1.00  0.00    -0.195 NA
ENDROOT
BRANCH   1   7
ATOM      7  N   UNL     1      12.364  78.623  -0.906  1.00  0.00    -0.340 N 
ATOM      8  H   UNL     1      12.846  78.080  -0.154  1.00  0.00     0.168 HD
BRANCH   7   9
ATOM      9  C   UNL     1      13.129  78.993  -2.064  1.00  0.00     0.046 A 
ATOM     10  C   UNL     1      14.235  80.805  -0.691  1.00  0.00     0.046 C 
ATOM     11  C   UNL     1      14.044  80.061  -1.984  1.00  0.00    -0.027 A 
ATOM     12  C   UNL     1      14.799  80.417  -3.113  1.00  0.00     0.013 A 
ATOM     13  C   UNL     1      14.648  79.724  -4.328  1.00  0.00    -0.024 A 
ATOM     14  C   UNL     1      12.957  78.304  -3.285  1.00  0.00    -0.027 A 
ATOM     15  C   UNL     1      13.737  78.661  -4.395  1.00  0.00     0.013 A 
ATOM     16  C   UNL     1      11.978  77.168  -3.409  1.00  0.00     0.046 C 
BRANCH  13  17
ATOM     17  C   UNL     1      15.442  80.054  -5.537  1.00  0.00     0.019 C 
ATOM     18  C   UNL     1      15.680  81.302  -5.955  1.00  0.00     0.091 C 
BRANCH  18  19
ATOM     19  C   UNL     1      16.446  81.537  -7.149  1.00  0.00     0.091 C 
ATOM     20  N   UNL     1      17.063  81.725  -8.110  1.00  0.00    -0.193 NA
ENDBRANCH  18  19
ENDBRANCH  13  17
ENDBRANCH   7   9
ENDBRANCH   1   7
BRANCH   5  21
ATOM     21  N   UNL     1       7.857  76.919  -1.072  1.00  0.00    -0.324 N 
ATOM     22  H   UNL     1       6.875  77.013  -0.727  1.00  0.00     0.170 HD
BRANCH  21  23
ATOM     23  C   UNL     1       8.206  75.729  -1.801  1.00  0.00     0.041 A 
ATOM     24  C   UNL     1       7.692  75.479  -3.086  1.00  0.00     0.027 A 
ATOM     25  C   UNL     1       9.127  74.828  -1.247  1.00  0.00     0.027 A 
ATOM     26  C   UNL     1       8.066  74.328  -3.786  1.00  0.00     0.021 A 
ATOM     27  C   UNL     1       9.501  73.676  -1.945  1.00  0.00     0.021 A 
ATOM     28  C   UNL     1       8.968  73.421  -3.215  1.00  0.00     0.052 A 
BRANCH  28  29
ATOM     29  C   UNL     1       9.354  72.236  -3.935  1.00  0.00     0.099 C 
ATOM     30  N   UNL     1       9.664  71.284  -4.514  1.00  0.00    -0.192 NA
ENDBRANCH  28  29
ENDBRANCH  21  23
ENDBRANCH   5  21
TORSDOF 7
ENDMDL
MODEL 2
REMARK VINA RESULT:    -9.081      0.121      1.641
REMARK INTER + INTRA:         -13.323
REMARK INTER:                 -12.861
REMARK INTRA:                  -0.463
REMARK UNBOUND:                -0.527
REMARK SMILES Cc1cc(/C=C/C#N)cc(C)c1Nc1ccnc(Nc2ccc(C#N)cc2)n1
REMARK SMILES IDX 14 1 15 2 16 3 17 4 18 5 28 6 13 7 12 9 1 10 2 11 3 12 4 13
REMARK SMILES IDX 10 14 9 15 11 16 5 17 6 18 7 19 8 20 19 21 20 23 21 24 27 25
REMARK SMILES IDX 22 26 26 27 23 28 24 29 25 30
REMARK H PARENT 13 8 19 22
REMARK Flexibility Score: inf
ROOT
ATOM      1  C   UNL     1      10.907  78.868  -0.852  1.00  0.00     0.135 A 
ATOM      2  C   UNL     1      10.409  80.139  -0.527  1.00  0.00     0.067 A 
ATOM      3  C   UNL     1       9.029  80.309  -0.422  1.00  0.00     0.119 A 
ATOM      4  N   UNL     1       8.198  79.259  -0.644  1.00  0.00    -0.221 NA
ATOM      5  C   UNL     1       8.688  78.035  -0.981  1.00  0.00     0.229 A 
ATOM      6  N   UNL     1      10.032  77.850  -1.072  1.00  0.00    -0.195 NA
ENDROOT
BRANCH   1   7
ATOM      7  N   UNL     1      12.316  78.618  -0.979  1.00  0.00    -0.340 N 
ATOM      8  H   UNL     1      12.799  78.096  -0.214  1.00  0.00     0.168 HD
BRANCH   7   9
ATOM      9  C   UNL     1      13.079  78.961  -2.146  1.00  0.00     0.046 A 
ATOM     10  C   UNL     1      11.922  77.088  -3.390  1.00  0.00     0.046 C 
ATOM     11  C   UNL     1      12.908  78.222  -3.334  1.00  0.00    -0.027 A 
ATOM     12  C   UNL     1      13.647  78.563  -4.477  1.00  0.00     0.013 A 
ATOM     13  C   UNL     1      14.563  79.630  -4.452  1.00  0.00    -0.024 A 
ATOM     14  C   UNL     1      14.010  80.021  -2.106  1.00  0.00    -0.027 A 
ATOM     15  C   UNL     1      14.722  80.361  -3.266  1.00  0.00     0.013 A 
ATOM     16  C   UNL     1      14.228  80.822  -0.850  1.00  0.00     0.046 C 
BRANCH  13  17
ATOM     17  C   UNL     1      15.346  80.036  -5.645  1.00  0.00     0.019 C 
ATOM     18  C   UNL     1      15.623  81.308  -5.956  1.00  0.00     0.091 C 
BRANCH  18  19
ATOM     19  C   UNL     1      16.375  81.619  -7.142  1.00  0.00     0.091 C 
ATOM     20  N   UNL     1      16.980  81.869  -8.096  1.00  0.00    -0.193 NA
ENDBRANCH  18  19
ENDBRANCH  13  17
ENDBRANCH   7   9
ENDBRANCH   1   7
BRANCH   5  21
ATOM     21  N   UNL     1       7.807  76.921  -1.187  1.00  0.00    -0.324 N 
ATOM     22  H   UNL     1       6.809  77.034  -0.898  1.00  0.00     0.170 HD
BRANCH  21  23
ATOM     23  C   UNL     1       8.183  75.708  -1.862  1.00  0.00     0.041 A 
ATOM     24  C   UNL     1       7.727  75.420  -3.161  1.00  0.00     0.027 A 
ATOM     25  C   UNL     1       9.073  74.821  -1.239  1.00  0.00     0.027 A 
ATOM     26  C   UNL     1       8.126  74.246  -3.807  1.00  0.00     0.021 A 
ATOM     27  C   UNL     1       9.472  73.646  -1.883  1.00  0.00     0.021 A 
ATOM     28  C   UNL     1       8.996  73.354  -3.168  1.00  0.00     0.052 A 
BRANCH  28  29
ATOM     29  C   UNL     1       9.408  72.145  -3.833  1.00  0.00     0.099 C 
ATOM     30  N   UNL     1       9.740  71.174  -4.366  1.00  0.00    -0.192 NA
ENDBRANCH  28  29
ENDBRANCH  21  23
ENDBRANCH   5  21
TORSDOF 7
ENDMDL
MODEL 3
REMARK VINA RESULT:    -8.790      1.395      7.949
REMARK INTER + INTRA:         -12.914
REMARK INTER:                 -12.223
REMARK INTRA:                  -0.691
REMARK UNBOUND:                -0.527
REMARK SMILES Cc1cc(/C=C/C#N)cc(C)c1Nc1ccnc(Nc2ccc(C#N)cc2)n1
REMARK SMILES IDX 14 1 15 2 16 3 17 4 18 5 28 6 13 7 12 9 1 10 2 11 3 12 4 13
REMARK SMILES IDX 10 14 9 15 11 16 5 17 6 18 7 19 8 20 19 21 20 23 21 24 27 25
REMARK SMILES IDX 22 26 26 27 23 28 24 29 25 30
REMARK H PARENT 13 8 19 22
REMARK Flexibility Score: inf
ROOT
ATOM      1  C   UNL     1      10.964  79.292  -0.604  1.00  0.00     0.135 A 
ATOM      2  C   UNL     1      10.976  80.590  -0.071  1.00  0.00     0.067 A 
ATOM      3  C   UNL     1      12.063  81.417  -0.351  1.00  0.00     0.119 A 
ATOM      4  N   UNL     1      13.085  80.957  -1.116  1.00  0.00    -0.221 NA
ATOM      5  C   UNL     1      13.076  79.689  -1.611  1.00  0.00     0.229 A 
ATOM      6  N   UNL     1      12.016  78.876  -1.358  1.00  0.00    -0.195 NA
ENDROOT
BRANCH   1   7
ATOM      7  N   UNL     1       9.879  78.384  -0.356  1.00  0.00    -0.340 N 
ATOM      8  H   UNL     1       9.214  78.605   0.419  1.00  0.00     0.168 HD
BRANCH   7   9
ATOM      9  C   UNL     1       9.599  77.240  -1.177  1.00  0.00     0.046 A 
ATOM     10  C   UNL     1       7.874  78.613  -2.414  1.00  0.00     0.046 C 
ATOM     11  C   UNL     1       8.618  77.326  -2.185  1.00  0.00    -0.027 A 
ATOM     12  C   UNL     1       8.351  76.211  -2.994  1.00  0.00     0.013 A 
ATOM     13  C   UNL     1       9.047  75.003  -2.808  1.00  0.00    -0.024 A 
ATOM     14  C   UNL     1      10.289  76.025  -0.970  1.00  0.00    -0.027 A 
ATOM     15  C   UNL     1      10.024  74.929  -1.805  1.00  0.00     0.013 A 
ATOM     16  C   UNL     1      11.333  75.893   0.105  1.00  0.00     0.046 C 
BRANCH  13  17
ATOM     17  C   UNL     1       8.811  73.808  -3.656  1.00  0.00     0.019 C 
ATOM     18  C   UNL     1       9.790  73.057  -4.172  1.00  0.00     0.091 C 
BRANCH  18  19
ATOM     19  C   UNL     1       9.477  71.923  -5.000  1.00  0.00     0.091 C 
ATOM     20  N   UNL     1       9.225  71.011  -5.667  1.00  0.00    -0.193 NA
ENDBRANCH  18  19
ENDBRANCH  13  17
ENDBRANCH   7   9
ENDBRANCH   1   7
BRANCH   5  21
ATOM     21  N   UNL     1      14.145  79.216  -2.443  1.00  0.00    -0.324 N 
ATOM     22  H   UNL     1      14.552  78.279  -2.221  1.00  0.00     0.170 HD
BRANCH  21  23
ATOM     23  C   UNL     1      14.615  79.896  -3.620  1.00  0.00     0.041 A 
ATOM     24  C   UNL     1      13.721  80.472  -4.540  1.00  0.00     0.027 A 
ATOM     25  C   UNL     1      15.995  80.044  -3.824  1.00  0.00     0.027 A 
ATOM     26  C   UNL     1      14.202  81.150  -5.664  1.00  0.00     0.021 A 
ATOM     27  C   UNL     1      16.477  80.721  -4.949  1.00  0.00     0.021 A 
ATOM     28  C   UNL     1      15.581  81.272  -5.873  1.00  0.00     0.052 A 
BRANCH  28  29
ATOM     29  C   UNL     1      16.077  81.971  -7.030  1.00  0.00     0.099 C 
ATOM     30  N   UNL     1      16.476  82.532  -7.959  1.00  0.00    -0.192 NA
ENDBRANCH  28  29
ENDBRANCH  21  23
ENDBRANCH   5  21
TORSDOF 7
ENDMDL
MODEL 4
REMARK VINA RESULT:    -8.639      2.660      3.686
REMARK INTER + INTRA:         -12.701
REMARK INTER:                 -12.219
REMARK INTRA:                  -0.482
REMARK UNBOUND:                -0.527
REMARK SMILES Cc1cc(/C=C/C#N)cc(C)c1Nc1ccnc(Nc2ccc(C#N)cc2)n1
REMARK SMILES IDX 14 1 15 2 16 3 17 4 18 5 28 6 13 7 12 9 1 10 2 11 3 12 4 13
REMARK SMILES IDX 10 14 9 15 11 16 5 17 6 18 7 19 8 20 19 21 20 23 21 24 27 25
REMARK SMILES IDX 22 26 26 27 23 28 24 29 25 30
REMARK H PARENT 13 8 19 22
REMARK Flexibility Score: inf
ROOT
ATOM      1  C   UNL     1      12.048  79.569  -0.380  1.00  0.00     0.135 A 
ATOM      2  C   UNL     1      12.444  80.568   0.521  1.00  0.00     0.067 A 
ATOM      3  C   UNL     1      11.466  81.392   1.077  1.00  0.00     0.119 A 
ATOM      4  N   UNL     1      10.164  81.225   0.732  1.00  0.00    -0.221 NA
ATOM      5  C   UNL     1       9.791  80.269  -0.161  1.00  0.00     0.229 A 
ATOM      6  N   UNL     1      10.732  79.448  -0.699  1.00  0.00    -0.195 NA
ENDROOT
BRANCH   1   7
ATOM      7  N   UNL     1      13.000  78.684  -0.993  1.00  0.00    -0.340 N 
ATOM      8  H   UNL     1      13.184  77.761  -0.539  1.00  0.00     0.168 HD
BRANCH   7   9
ATOM      9  C   UNL     1      13.640  78.956  -2.250  1.00  0.00     0.046 A 
ATOM     10  C   UNL     1      11.931  77.475  -3.382  1.00  0.00     0.046 C 
ATOM     11  C   UNL     1      13.139  78.370  -3.430  1.00  0.00    -0.027 A 
ATOM     12  C   UNL     1      13.758  78.644  -4.659  1.00  0.00     0.013 A 
ATOM     13  C   UNL     1      14.879  79.491  -4.729  1.00  0.00    -0.024 A 
ATOM     14  C   UNL     1      14.776  79.792  -2.307  1.00  0.00    -0.027 A 
ATOM     15  C   UNL     1      15.366  80.071  -3.549  1.00  0.00     0.013 A 
ATOM     16  C   UNL     1      15.345  80.423  -1.065  1.00  0.00     0.046 C 
BRANCH  13  17
ATOM     17  C   UNL     1      15.549  79.823  -6.011  1.00  0.00     0.019 C 
ATOM     18  C   UNL     1      16.078  81.020  -6.286  1.00  0.00     0.091 C 
BRANCH  18  19
ATOM     19  C   UNL     1      16.695  81.268  -7.561  1.00  0.00     0.091 C 
ATOM     20  N   UNL     1      17.192  81.466  -8.587  1.00  0.00    -0.193 NA
ENDBRANCH  18  19
ENDBRANCH  13  17
ENDBRANCH   7   9
ENDBRANCH   1   7
BRANCH   5  21
ATOM     21  N   UNL     1       8.410  80.078  -0.501  1.00  0.00    -0.324 N 
ATOM     22  H   UNL     1       7.953  80.807  -1.094  1.00  0.00     0.170 HD
BRANCH  21  23
ATOM     23  C   UNL     1       7.652  78.901  -0.171  1.00  0.00     0.041 A 
ATOM     24  C   UNL     1       8.016  77.633  -0.660  1.00  0.00     0.027 A 
ATOM     25  C   UNL     1       6.563  79.007   0.707  1.00  0.00     0.027 A 
ATOM     26  C   UNL     1       7.278  76.500  -0.305  1.00  0.00     0.021 A 
ATOM     27  C   UNL     1       5.824  77.874   1.061  1.00  0.00     0.021 A 
ATOM     28  C   UNL     1       6.178  76.618   0.553  1.00  0.00     0.052 A 
BRANCH  28  29
ATOM     29  C   UNL     1       5.418  75.452   0.919  1.00  0.00     0.099 C 
ATOM     30  N   UNL     1       4.809  74.514   1.214  1.00  0.00    -0.192 NA
ENDBRANCH  28  29
ENDBRANCH  21  23
ENDBRANCH   5  21
TORSDOF 7
ENDMDL
MODEL 5
REMARK VINA RESULT:    -8.497      1.738      2.696
REMARK INTER + INTRA:         -12.501
REMARK INTER:                 -11.844
REMARK INTRA:                  -0.657
REMARK UNBOUND:                -0.527
REMARK SMILES Cc1cc(/C=C/C#N)cc(C)c1Nc1ccnc(Nc2ccc(C#N)cc2)n1
REMARK SMILES IDX 14 1 15 2 16 3 17 4 18 5 28 6 13 7 12 9 1 10 2 11 3 12 4 13
REMARK SMILES IDX 10 14 9 15 11 16 5 17 6 18 7 19 8 20 19 21 20 23 21 24 27 25
REMARK SMILES IDX 22 26 26 27 23 28 24 29 25 30
REMARK H PARENT 13 8 19 22
REMARK Flexibility Score: inf
ROOT
ATOM      1  C   UNL     1      12.410  78.021  -0.111  1.00  0.00     0.135 A 
ATOM      2  C   UNL     1      13.335  77.356   0.708  1.00  0.00     0.067 A 
ATOM      3  C   UNL     1      13.054  76.051   1.108  1.00  0.00     0.119 A 
ATOM      4  N   UNL     1      11.901  75.454   0.713  1.00  0.00    -0.221 NA
ATOM      5  C   UNL     1      10.999  76.114  -0.063  1.00  0.00     0.229 A 
ATOM      6  N   UNL     1      11.266  77.383  -0.473  1.00  0.00    -0.195 NA
ENDROOT
BRANCH   1   7
ATOM      7  N   UNL     1      12.631  79.368  -0.560  1.00  0.00    -0.340 N 
ATOM      8  H   UNL     1      12.486  80.148   0.120  1.00  0.00     0.168 HD
BRANCH   7   9
ATOM      9  C   UNL     1      13.136  79.697  -1.864  1.00  0.00     0.046 A 
ATOM     10  C   UNL     1      10.759  80.095  -2.628  1.00  0.00     0.046 C 
ATOM     11  C   UNL     1      12.239  80.048  -2.892  1.00  0.00    -0.027 A 
ATOM     12  C   UNL     1      12.734  80.379  -4.163  1.00  0.00     0.013 A 
ATOM     13  C   UNL     1      14.115  80.358  -4.427  1.00  0.00    -0.024 A 
ATOM     14  C   UNL     1      14.523  79.654  -2.124  1.00  0.00    -0.027 A 
ATOM     15  C   UNL     1      14.999  80.010  -3.395  1.00  0.00     0.013 A 
ATOM     16  C   UNL     1      15.508  79.270  -1.053  1.00  0.00     0.046 C 
BRANCH  13  17
ATOM     17  C   UNL     1      14.679  80.722  -5.750  1.00  0.00     0.019 C 
ATOM     18  C   UNL     1      15.918  81.196  -5.926  1.00  0.00     0.091 C 
BRANCH  18  19
ATOM     19  C   UNL     1      16.384  81.543  -7.242  1.00  0.00     0.091 C 
ATOM     20  N   UNL     1      16.759  81.823  -8.301  1.00  0.00    -0.193 NA
ENDBRANCH  18  19
ENDBRANCH  13  17
ENDBRANCH   7   9
ENDBRANCH   1   7
BRANCH   5  21
ATOM     21  N   UNL     1       9.794  75.470  -0.501  1.00  0.00    -0.324 N 
ATOM     22  H   UNL     1       8.897  75.769  -0.057  1.00  0.00     0.170 HD
BRANCH  21  23
ATOM     23  C   UNL     1       9.730  74.524  -1.583  1.00  0.00     0.041 A 
ATOM     24  C   UNL     1      10.388  73.282  -1.510  1.00  0.00     0.027 A 
ATOM     25  C   UNL     1       8.946  74.817  -2.708  1.00  0.00     0.027 A 
ATOM     26  C   UNL     1      10.290  72.369  -2.564  1.00  0.00     0.021 A 
ATOM     27  C   UNL     1       8.849  73.904  -3.763  1.00  0.00     0.021 A 
ATOM     28  C   UNL     1       9.524  72.679  -3.695  1.00  0.00     0.052 A 
BRANCH  28  29
ATOM     29  C   UNL     1       9.423  71.738  -4.780  1.00  0.00     0.099 C 
ATOM     30  N   UNL     1       9.343  70.983  -5.651  1.00  0.00    -0.192 NA
ENDBRANCH  28  29
ENDBRANCH  21  23
ENDBRANCH   5  21
TORSDOF 7
ENDMDL
MODEL 6
REMARK VINA RESULT:    -8.458      1.388      7.933
REMARK INTER + INTRA:         -12.446
REMARK INTER:                 -11.839
REMARK INTRA:                  -0.606
REMARK UNBOUND:                -0.527
REMARK SMILES Cc1cc(/C=C/C#N)cc(C)c1Nc1ccnc(Nc2ccc(C#N)cc2)n1
REMARK SMILES IDX 14 1 15 2 16 3 17 4 18 5 28 6 13 7 12 9 1 10 2 11 3 12 4 13
REMARK SMILES IDX 10 14 9 15 11 16 5 17 6 18 7 19 8 20 19 21 20 23 21 24 27 25
REMARK SMILES IDX 22 26 26 27 23 28 24 29 25 30
REMARK H PARENT 13 8 19 22
REMARK Flexibility Score: inf
ROOT
ATOM      1  C   UNL     1      10.905  79.234  -0.618  1.00  0.00     0.135 A 
ATOM      2  C   UNL     1      10.885  80.535  -0.094  1.00  0.00     0.067 A 
ATOM      3  C   UNL     1      11.955  81.384  -0.373  1.00  0.00     0.119 A 
ATOM      4  N   UNL     1      12.992  80.941  -1.128  1.00  0.00    -0.221 NA
ATOM      5  C   UNL     1      13.015  79.670  -1.613  1.00  0.00     0.229 A 
ATOM      6  N   UNL     1      11.971  78.835  -1.362  1.00  0.00    -0.195 NA
ENDROOT
BRANCH   1   7
ATOM      7  N   UNL     1       9.838  78.304  -0.371  1.00  0.00    -0.340 N 
ATOM      8  H   UNL     1       9.139  78.536   0.370  1.00  0.00     0.168 HD
BRANCH   7   9
ATOM      9  C   UNL     1       9.623  77.118  -1.152  1.00  0.00     0.046 A 
ATOM     10  C   UNL     1      11.369  75.941   0.247  1.00  0.00     0.046 C 
ATOM     11  C   UNL     1      10.364  75.953  -0.873  1.00  0.00    -0.027 A 
ATOM     12  C   UNL     1      10.147  74.792  -1.630  1.00  0.00     0.013 A 
ATOM     13  C   UNL     1       9.201  74.777  -2.671  1.00  0.00    -0.024 A 
ATOM     14  C   UNL     1       8.684  77.119  -2.207  1.00  0.00    -0.027 A 
ATOM     15  C   UNL     1       8.465  75.941  -2.937  1.00  0.00     0.013 A 
ATOM     16  C   UNL     1       7.885  78.349  -2.541  1.00  0.00     0.046 C 
BRANCH  13  17
ATOM     17  C   UNL     1       8.924  73.564  -3.480  1.00  0.00     0.019 C 
ATOM     18  C   UNL     1       9.863  72.885  -4.148  1.00  0.00     0.091 C 
BRANCH  18  19
ATOM     19  C   UNL     1       9.510  71.727  -4.924  1.00  0.00     0.091 C 
ATOM     20  N   UNL     1       9.225  70.795  -5.550  1.00  0.00    -0.193 NA
ENDBRANCH  18  19
ENDBRANCH  13  17
ENDBRANCH   7   9
ENDBRANCH   1   7
BRANCH   5  21
ATOM     21  N   UNL     1      14.100  79.214  -2.434  1.00  0.00    -0.324 N 
ATOM     22  H   UNL     1      14.522  78.285  -2.206  1.00  0.00     0.170 HD
BRANCH  21  23
ATOM     23  C   UNL     1      14.568  79.899  -3.609  1.00  0.00     0.041 A 
ATOM     24  C   UNL     1      13.672  80.493  -4.516  1.00  0.00     0.027 A 
ATOM     25  C   UNL     1      15.947  80.033  -3.824  1.00  0.00     0.027 A 
ATOM     26  C   UNL     1      14.151  81.176  -5.638  1.00  0.00     0.021 A 
ATOM     27  C   UNL     1      16.427  80.715  -4.947  1.00  0.00     0.021 A 
ATOM     28  C   UNL     1      15.530  81.284  -5.859  1.00  0.00     0.052 A 
BRANCH  28  29
ATOM     29  C   UNL     1      16.024  81.988  -7.014  1.00  0.00     0.099 C 
ATOM     30  N   UNL     1      16.421  82.553  -7.942  1.00  0.00    -0.192 NA
ENDBRANCH  28  29
ENDBRANCH  21  23
ENDBRANCH   5  21
TORSDOF 7
ENDMDL
MODEL 7
REMARK VINA RESULT:    -8.439      1.493      2.115
REMARK INTER + INTRA:         -12.420
REMARK INTER:                 -11.750
REMARK INTRA:                  -0.670
REMARK UNBOUND:                -0.527
REMARK SMILES Cc1cc(/C=C/C#N)cc(C)c1Nc1ccnc(Nc2ccc(C#N)cc2)n1
REMARK SMILES IDX 14 1 15 2 16 3 17 4 18 5 28 6 13 7 12 9 1 10 2 11 3 12 4 13
REMARK SMILES IDX 10 14 9 15 11 16 5 17 6 18 7 19 8 20 19 21 20 23 21 24 27 25
REMARK SMILES IDX 22 26 26 27 23 28 24 29 25 30
REMARK H PARENT 13 8 19 22
REMARK Flexibility Score: inf
ROOT
ATOM      1  C   UNL     1      10.192  78.106  -0.644  1.00  0.00     0.135 A 
ATOM      2  C   UNL     1       8.839  78.480  -0.663  1.00  0.00     0.067 A 
ATOM      3  C   UNL     1       7.872  77.481  -0.761  1.00  0.00     0.119 A 
ATOM      4  N   UNL     1       8.248  76.180  -0.846  1.00  0.00    -0.221 NA
ATOM      5  C   UNL     1       9.562  75.827  -0.850  1.00  0.00     0.229 A 
ATOM      6  N   UNL     1      10.517  76.790  -0.740  1.00  0.00    -0.195 NA
ENDROOT
BRANCH   1   7
ATOM      7  N   UNL     1      11.243  79.081  -0.547  1.00  0.00    -0.340 N 
ATOM      8  H   UNL     1      11.335  79.626   0.339  1.00  0.00     0.168 HD
BRANCH   7   9
ATOM      9  C   UNL     1      12.236  79.278  -1.565  1.00  0.00     0.046 A 
ATOM     10  C   UNL     1      13.885  78.007  -0.131  1.00  0.00     0.046 C 
ATOM     11  C   UNL     1      13.537  78.768  -1.380  1.00  0.00    -0.027 A 
ATOM     12  C   UNL     1      14.505  78.953  -2.380  1.00  0.00     0.013 A 
ATOM     13  C   UNL     1      14.196  79.648  -3.563  1.00  0.00    -0.024 A 
ATOM     14  C   UNL     1      11.922  79.994  -2.741  1.00  0.00    -0.027 A 
ATOM     15  C   UNL     1      12.898  80.148  -3.738  1.00  0.00     0.013 A 
ATOM     16  C   UNL     1      10.548  80.564  -2.965  1.00  0.00     0.046 C 
BRANCH  13  17
ATOM     17  C   UNL     1      15.184  79.845  -4.652  1.00  0.00     0.019 C 
ATOM     18  C   UNL     1      15.273  80.962  -5.384  1.00  0.00     0.091 C 
BRANCH  18  19
ATOM     19  C   UNL     1      16.249  81.067  -6.435  1.00  0.00     0.091 C 
ATOM     20  N   UNL     1      17.034  81.152  -7.281  1.00  0.00    -0.193 NA
ENDBRANCH  18  19
ENDBRANCH  13  17
ENDBRANCH   7   9
ENDBRANCH   1   7
BRANCH   5  21
ATOM     21  N   UNL     1       9.955  74.448  -0.912  1.00  0.00    -0.324 N 
ATOM     22  H   UNL     1      10.318  74.009  -0.036  1.00  0.00     0.170 HD
BRANCH  21  23
ATOM     23  C   UNL     1       9.778  73.609  -2.067  1.00  0.00     0.041 A 
ATOM     24  C   UNL     1       9.139  74.082  -3.226  1.00  0.00     0.027 A 
ATOM     25  C   UNL     1      10.310  72.311  -2.061  1.00  0.00     0.027 A 
ATOM     26  C   UNL     1       9.002  73.255  -4.345  1.00  0.00     0.021 A 
ATOM     27  C   UNL     1      10.172  71.483  -3.179  1.00  0.00     0.021 A 
ATOM     28  C   UNL     1       9.514  71.952  -4.323  1.00  0.00     0.052 A 
BRANCH  28  29
ATOM     29  C   UNL     1       9.374  71.101  -5.476  1.00  0.00     0.099 C 
ATOM     30  N   UNL     1       9.261  70.418  -6.402  1.00  0.00    -0.192 NA
ENDBRANCH  28  29
ENDBRANCH  21  23
ENDBRANCH   5  21
TORSDOF 7
ENDMDL
MODEL 8
REMARK VINA RESULT:    -8.426      1.500      2.418
REMARK INTER + INTRA:         -12.401
REMARK INTER:                 -11.781
REMARK INTRA:                  -0.619
REMARK UNBOUND:                -0.527
REMARK SMILES Cc1cc(/C=C/C#N)cc(C)c1Nc1ccnc(Nc2ccc(C#N)cc2)n1
REMARK SMILES IDX 14 1 15 2 16 3 17 4 18 5 28 6 13 7 12 9 1 10 2 11 3 12 4 13
REMARK SMILES IDX 10 14 9 15 11 16 5 17 6 18 7 19 8 20 19 21 20 23 21 24 27 25
REMARK SMILES IDX 22 26 26 27 23 28 24 29 25 30
REMARK H PARENT 13 8 19 22
REMARK Flexibility Score: inf
ROOT
ATOM      1  C   UNL     1      10.144  78.146  -0.654  1.00  0.00     0.135 A 
ATOM      2  C   UNL     1       8.786  78.497  -0.702  1.00  0.00     0.067 A 
ATOM      3  C   UNL     1       7.837  77.481  -0.801  1.00  0.00     0.119 A 
ATOM      4  N   UNL     1       8.236  76.185  -0.861  1.00  0.00    -0.221 NA
ATOM      5  C   UNL     1       9.556  75.854  -0.837  1.00  0.00     0.229 A 
ATOM      6  N   UNL     1      10.492  76.834  -0.725  1.00  0.00    -0.195 NA
ENDROOT
BRANCH   1   7
ATOM      7  N   UNL     1      11.177  79.139  -0.554  1.00  0.00    -0.340 N 
ATOM      8  H   UNL     1      11.227  79.719   0.313  1.00  0.00     0.168 HD
BRANCH   7   9
ATOM      9  C   UNL     1      12.208  79.312  -1.539  1.00  0.00     0.046 A 
ATOM     10  C   UNL     1      10.560  80.593  -2.965  1.00  0.00     0.046 C 
ATOM     11  C   UNL     1      11.927  80.014  -2.728  1.00  0.00    -0.027 A 
ATOM     12  C   UNL     1      12.937  80.191  -3.686  1.00  0.00     0.013 A 
ATOM     13  C   UNL     1      14.228  79.672  -3.478  1.00  0.00    -0.024 A 
ATOM     14  C   UNL     1      13.495  78.771  -1.329  1.00  0.00    -0.027 A 
ATOM     15  C   UNL     1      14.497  78.979  -2.289  1.00  0.00     0.013 A 
ATOM     16  C   UNL     1      13.826  78.005  -0.077  1.00  0.00     0.046 C 
BRANCH  13  17
ATOM     17  C   UNL     1      15.329  79.857  -4.455  1.00  0.00     0.019 C 
ATOM     18  C   UNL     1      15.256  80.670  -5.514  1.00  0.00     0.091 C 
BRANCH  18  19
ATOM     19  C   UNL     1      16.364  80.781  -6.425  1.00  0.00     0.091 C 
ATOM     20  N   UNL     1      17.255  80.870  -7.157  1.00  0.00    -0.193 NA
ENDBRANCH  18  19
ENDBRANCH  13  17
ENDBRANCH   7   9
ENDBRANCH   1   7
BRANCH   5  21
ATOM     21  N   UNL     1       9.971  74.481  -0.872  1.00  0.00    -0.324 N 
ATOM     22  H   UNL     1      10.316  74.058   0.019  1.00  0.00     0.170 HD
BRANCH  21  23
ATOM     23  C   UNL     1       9.841  73.626  -2.021  1.00  0.00     0.041 A 
ATOM     24  C   UNL     1      10.333  72.309  -2.013  1.00  0.00     0.027 A 
ATOM     25  C   UNL     1       9.155  74.093  -3.151  1.00  0.00     0.027 A 
ATOM     26  C   UNL     1      10.172  71.488  -3.134  1.00  0.00     0.021 A 
ATOM     27  C   UNL     1       8.994  73.273  -4.273  1.00  0.00     0.021 A 
ATOM     28  C   UNL     1       9.506  71.969  -4.268  1.00  0.00     0.052 A 
BRANCH  28  29
ATOM     29  C   UNL     1       9.339  71.124  -5.421  1.00  0.00     0.099 C 
ATOM     30  N   UNL     1       9.206  70.446  -6.348  1.00  0.00    -0.192 NA
ENDBRANCH  28  29
ENDBRANCH  21  23
ENDBRANCH   5  21
TORSDOF 7
ENDMDL
MODEL 9
REMARK VINA RESULT:    -8.177      2.810      7.120
REMARK INTER + INTRA:         -12.050
REMARK INTER:                 -10.994
REMARK INTRA:                  -1.057
REMARK UNBOUND:                -0.527
REMARK SMILES Cc1cc(/C=C/C#N)cc(C)c1Nc1ccnc(Nc2ccc(C#N)cc2)n1
REMARK SMILES IDX 14 1 15 2 16 3 17 4 18 5 28 6 13 7 12 9 1 10 2 11 3 12 4 13
REMARK SMILES IDX 10 14 9 15 11 16 5 17 6 18 7 19 8 20 19 21 20 23 21 24 27 25
REMARK SMILES IDX 22 26 26 27 23 28 24 29 25 30
REMARK H PARENT 13 8 19 22
REMARK Flexibility Score: inf
ROOT
ATOM      1  C   UNL     1       7.053  77.043   0.380  1.00  0.00     0.135 A 
ATOM      2  C   UNL     1       5.949  77.455   1.142  1.00  0.00     0.067 A 
ATOM      3  C   UNL     1       5.597  78.804   1.131  1.00  0.00     0.119 A 
ATOM      4  N   UNL     1       6.325  79.689   0.404  1.00  0.00    -0.221 NA
ATOM      5  C   UNL     1       7.409  79.285  -0.313  1.00  0.00     0.229 A 
ATOM      6  N   UNL     1       7.755  77.970  -0.325  1.00  0.00    -0.195 NA
ENDROOT
BRANCH   1   7
ATOM      7  N   UNL     1       7.476  75.670   0.345  1.00  0.00    -0.340 N 
ATOM      8  H   UNL     1       7.224  75.052   1.149  1.00  0.00     0.168 HD
BRANCH   7   9
ATOM      9  C   UNL     1       8.140  75.074  -0.780  1.00  0.00     0.046 A 
ATOM     10  C   UNL     1       5.886  74.768  -1.884  1.00  0.00     0.046 C 
ATOM     11  C   UNL     1       7.383  74.620  -1.878  1.00  0.00    -0.027 A 
ATOM     12  C   UNL     1       8.033  74.046  -2.982  1.00  0.00     0.013 A 
ATOM     13  C   UNL     1       9.433  73.912  -3.004  1.00  0.00    -0.024 A 
ATOM     14  C   UNL     1       9.545  74.927  -0.785  1.00  0.00    -0.027 A 
ATOM     15  C   UNL     1      10.177  74.372  -1.908  1.00  0.00     0.013 A 
ATOM     16  C   UNL     1      10.383  75.389   0.376  1.00  0.00     0.046 C 
BRANCH  13  17
ATOM     17  C   UNL     1      10.161  73.332  -4.160  1.00  0.00     0.019 C 
ATOM     18  C   UNL     1      11.493  73.333  -4.278  1.00  0.00     0.091 C 
BRANCH  18  19
ATOM     19  C   UNL     1      12.121  72.765  -5.441  1.00  0.00     0.091 C 
ATOM     20  N   UNL     1      12.626  72.309  -6.377  1.00  0.00    -0.193 NA
ENDBRANCH  18  19
ENDBRANCH  13  17
ENDBRANCH   7   9
ENDBRANCH   1   7
BRANCH   5  21
ATOM     21  N   UNL     1       8.159  80.219  -1.103  1.00  0.00    -0.324 N 
ATOM     22  H   UNL     1       7.629  80.981  -1.583  1.00  0.00     0.170 HD
BRANCH  21  23
ATOM     23  C   UNL     1       9.595  80.237  -1.186  1.00  0.00     0.041 A 
ATOM     24  C   UNL     1      10.375  80.928  -0.242  1.00  0.00     0.027 A 
ATOM     25  C   UNL     1      10.235  79.500  -2.193  1.00  0.00     0.027 A 
ATOM     26  C   UNL     1      11.771  80.910  -0.329  1.00  0.00     0.021 A 
ATOM     27  C   UNL     1      11.631  79.482  -2.281  1.00  0.00     0.021 A 
ATOM     28  C   UNL     1      12.402  80.191  -1.351  1.00  0.00     0.052 A 
BRANCH  28  29
ATOM     29  C   UNL     1      13.838  80.171  -1.441  1.00  0.00     0.099 C 
ATOM     30  N   UNL     1      14.992  80.156  -1.513  1.00  0.00    -0.192 NA
ENDBRANCH  28  29
ENDBRANCH  21  23
ENDBRANCH   5  21
TORSDOF 7
ENDMDL
MODEL 10
REMARK VINA RESULT:    -8.106      2.858      6.998
REMARK INTER + INTRA:         -11.951
REMARK INTER:                 -10.897
REMARK INTRA:                  -1.054
REMARK UNBOUND:                -0.527
REMARK SMILES Cc1cc(/C=C/C#N)cc(C)c1Nc1ccnc(Nc2ccc(C#N)cc2)n1
REMARK SMILES IDX 14 1 15 2 16 3 17 4 18 5 28 6 13 7 12 9 1 10 2 11 3 12 4 13
REMARK SMILES IDX 10 14 9 15 11 16 5 17 6 18 7 19 8 20 19 21 20 23 21 24 27 25
REMARK SMILES IDX 22 26 26 27 23 28 24 29 25 30
REMARK H PARENT 13 8 19 22
REMARK Flexibility Score: inf
ROOT
ATOM      1  C   UNL     1       6.957  76.973   0.303  1.00  0.00     0.135 A 
ATOM      2  C   UNL     1       5.901  77.410   1.117  1.00  0.00     0.067 A 
ATOM      3  C   UNL     1       5.602  78.771   1.149  1.00  0.00     0.119 A 
ATOM      4  N   UNL     1       6.335  79.643   0.411  1.00  0.00    -0.221 NA
ATOM      5  C   UNL     1       7.372  79.214  -0.358  1.00  0.00     0.229 A 
ATOM      6  N   UNL     1       7.666  77.888  -0.411  1.00  0.00    -0.195 NA
ENDROOT
BRANCH   1   7
ATOM      7  N   UNL     1       7.324  75.586   0.222  1.00  0.00    -0.340 N 
ATOM      8  H   UNL     1       6.976  74.937   0.963  1.00  0.00     0.168 HD
BRANCH   7   9
ATOM      9  C   UNL     1       8.059  75.024  -0.876  1.00  0.00     0.046 A 
ATOM     10  C   UNL     1      10.184  75.322   0.462  1.00  0.00     0.046 C 
ATOM     11  C   UNL     1       9.459  74.891  -0.784  1.00  0.00    -0.027 A 
ATOM     12  C   UNL     1      10.177  74.332  -1.852  1.00  0.00     0.013 A 
ATOM     13  C   UNL     1       9.517  73.908  -3.020  1.00  0.00    -0.024 A 
ATOM     14  C   UNL     1       7.390  74.618  -2.051  1.00  0.00    -0.027 A 
ATOM     15  C   UNL     1       8.123  74.041  -3.099  1.00  0.00     0.013 A 
ATOM     16  C   UNL     1       5.898  74.757  -2.189  1.00  0.00     0.046 C 
BRANCH  13  17
ATOM     17  C   UNL     1      10.236  73.291  -4.162  1.00  0.00     0.019 C 
ATOM     18  C   UNL     1      11.561  73.360  -4.333  1.00  0.00     0.091 C 
BRANCH  18  19
ATOM     19  C   UNL     1      12.180  72.749  -5.479  1.00  0.00     0.091 C 
ATOM     20  N   UNL     1      12.677  72.258  -6.401  1.00  0.00    -0.193 NA
ENDBRANCH  18  19
ENDBRANCH  13  17
ENDBRANCH   7   9
ENDBRANCH   1   7
BRANCH   5  21
ATOM     21  N   UNL     1       8.126  80.136  -1.159  1.00  0.00    -0.324 N 
ATOM     22  H   UNL     1       7.594  80.865  -1.687  1.00  0.00     0.170 HD
BRANCH  21  23
ATOM     23  C   UNL     1       9.563  80.189  -1.193  1.00  0.00     0.041 A 
ATOM     24  C   UNL     1      10.295  80.872  -0.205  1.00  0.00     0.027 A 
ATOM     25  C   UNL     1      10.253  79.495  -2.197  1.00  0.00     0.027 A 
ATOM     26  C   UNL     1      11.692  80.888  -0.246  1.00  0.00     0.021 A 
ATOM     27  C   UNL     1      11.651  79.511  -2.239  1.00  0.00     0.021 A 
ATOM     28  C   UNL     1      12.374  80.212  -1.265  1.00  0.00     0.052 A 
BRANCH  28  29
ATOM     29  C   UNL     1      13.813  80.227  -1.307  1.00  0.00     0.099 C 
ATOM     30  N   UNL     1      14.968  80.240  -1.340  1.00  0.00    -0.192 NA
ENDBRANCH  28  29
ENDBRANCH  21  23
ENDBRANCH   5  21
TORSDOF 7
ENDMDL
MODEL 11
REMARK VINA RESULT:    -8.076      2.903      9.338
REMARK INTER + INTRA:         -11.907
REMARK INTER:                 -11.635
REMARK INTRA:                  -0.272
REMARK UNBOUND:                -0.527
REMARK SMILES Cc1cc(/C=C/C#N)cc(C)c1Nc1ccnc(Nc2ccc(C#N)cc2)n1
REMARK SMILES IDX 14 1 15 2 16 3 17 4 18 5 28 6 13 7 12 9 1 10 2 11 3 12 4 13
REMARK SMILES IDX 10 14 9 15 11 16 5 17 6 18 7 19 8 20 19 21 20 23 21 24 27 25
REMARK SMILES IDX 22 26 26 27 23 28 24 29 25 30
REMARK H PARENT 13 8 19 22
REMARK Flexibility Score: inf
ROOT
ATOM      1  C   UNL     1      12.461  79.681  -2.675  1.00  0.00     0.135 A 
ATOM      2  C   UNL     1      13.146  79.757  -1.453  1.00  0.00     0.067 A 
ATOM      3  C   UNL     1      14.523  79.538  -1.445  1.00  0.00     0.119 A 
ATOM      4  N   UNL     1      15.170  79.245  -2.601  1.00  0.00    -0.221 NA
ATOM      5  C   UNL     1      14.495  79.150  -3.779  1.00  0.00     0.229 A 
ATOM      6  N   UNL     1      13.154  79.376  -3.805  1.00  0.00    -0.195 NA
ENDROOT
BRANCH   1   7
ATOM      7  N   UNL     1      11.043  79.893  -2.761  1.00  0.00    -0.340 N 
ATOM      8  H   UNL     1      10.683  80.562  -3.478  1.00  0.00     0.168 HD
BRANCH   7   9
ATOM      9  C   UNL     1      10.084  79.161  -1.982  1.00  0.00     0.046 A 
ATOM     10  C   UNL     1       9.295  81.350  -0.991  1.00  0.00     0.046 C 
ATOM     11  C   UNL     1       9.224  79.852  -1.105  1.00  0.00    -0.027 A 
ATOM     12  C   UNL     1       8.280  79.138  -0.351  1.00  0.00     0.013 A 
ATOM     13  C   UNL     1       8.185  77.738  -0.454  1.00  0.00    -0.024 A 
ATOM     14  C   UNL     1      10.009  77.754  -2.077  1.00  0.00    -0.027 A 
ATOM     15  C   UNL     1       9.043  77.062  -1.332  1.00  0.00     0.013 A 
ATOM     16  C   UNL     1      10.921  76.984  -2.993  1.00  0.00     0.046 C 
BRANCH  13  17
ATOM     17  C   UNL     1       7.185  76.949   0.309  1.00  0.00     0.019 C 
ATOM     18  C   UNL     1       6.619  75.827  -0.147  1.00  0.00     0.091 C 
BRANCH  18  19
ATOM     19  C   UNL     1       5.644  75.129   0.648  1.00  0.00     0.091 C 
ATOM     20  N   UNL     1       4.860  74.567   1.287  1.00  0.00    -0.193 NA
ENDBRANCH  18  19
ENDBRANCH  13  17
ENDBRANCH   7   9
ENDBRANCH   1   7
BRANCH   5  21
ATOM     21  N   UNL     1      15.187  78.868  -5.004  1.00  0.00    -0.324 N 
ATOM     22  H   UNL     1      14.828  78.082  -5.592  1.00  0.00     0.170 HD
BRANCH  21  23
ATOM     23  C   UNL     1      16.267  79.663  -5.523  1.00  0.00     0.041 A 
ATOM     24  C   UNL     1      16.952  79.293  -6.694  1.00  0.00     0.027 A 
ATOM     25  C   UNL     1      16.604  80.866  -4.886  1.00  0.00     0.027 A 
ATOM     26  C   UNL     1      17.982  80.096  -7.194  1.00  0.00     0.021 A 
ATOM     27  C   UNL     1      17.634  81.669  -5.385  1.00  0.00     0.021 A 
ATOM     28  C   UNL     1      18.329  81.284  -6.538  1.00  0.00     0.052 A 
BRANCH  28  29
ATOM     29  C   UNL     1      19.388  82.111  -7.053  1.00  0.00     0.099 C 
ATOM     30  N   UNL     1      20.240  82.775  -7.466  1.00  0.00    -0.192 NA
ENDBRANCH  28  29
ENDBRANCH  21  23
ENDBRANCH   5  21
TORSDOF 7
ENDMDL
MODEL 12
REMARK VINA RESULT:    -8.051      1.790      8.467
REMARK INTER + INTRA:         -11.872
REMARK INTER:                 -11.274
REMARK INTRA:                  -0.598
REMARK UNBOUND:                -0.527
REMARK SMILES Cc1cc(/C=C/C#N)cc(C)c1Nc1ccnc(Nc2ccc(C#N)cc2)n1
REMARK SMILES IDX 14 1 15 2 16 3 17 4 18 5 28 6 13 7 12 9 1 10 2 11 3 12 4 13
REMARK SMILES IDX 10 14 9 15 11 16 5 17 6 18 7 19 8 20 19 21 20 23 21 24 27 25
REMARK SMILES IDX 22 26 26 27 23 28 24 29 25 30
REMARK H PARENT 13 8 19 22
REMARK Flexibility Score: inf
ROOT
ATOM      1  C   UNL     1      11.681  79.523  -1.315  1.00  0.00     0.135 A 
ATOM      2  C   UNL     1      12.582  80.211  -0.488  1.00  0.00     0.067 A 
ATOM      3  C   UNL     1      13.671  80.853  -1.076  1.00  0.00     0.119 A 
ATOM      4  N   UNL     1      13.847  80.794  -2.421  1.00  0.00    -0.221 NA
ATOM      5  C   UNL     1      12.981  80.106  -3.213  1.00  0.00     0.229 A 
ATOM      6  N   UNL     1      11.906  79.487  -2.655  1.00  0.00    -0.195 NA
ENDROOT
BRANCH   1   7
ATOM      7  N   UNL     1      10.538  78.837  -0.779  1.00  0.00    -0.340 N 
ATOM      8  H   UNL     1       9.842  79.388  -0.229  1.00  0.00     0.168 HD
BRANCH   7   9
ATOM      9  C   UNL     1      10.248  77.455  -1.042  1.00  0.00     0.046 A 
ATOM     10  C   UNL     1       8.207  78.184  -2.345  1.00  0.00     0.046 C 
ATOM     11  C   UNL     1       9.110  77.112  -1.799  1.00  0.00    -0.027 A 
ATOM     12  C   UNL     1       8.832  75.762  -2.064  1.00  0.00     0.013 A 
ATOM     13  C   UNL     1       9.672  74.745  -1.577  1.00  0.00    -0.024 A 
ATOM     14  C   UNL     1      11.087  76.440  -0.533  1.00  0.00    -0.027 A 
ATOM     15  C   UNL     1      10.804  75.098  -0.828  1.00  0.00     0.013 A 
ATOM     16  C   UNL     1      12.302  76.770   0.291  1.00  0.00     0.046 C 
BRANCH  13  17
ATOM     17  C   UNL     1       9.426  73.308  -1.854  1.00  0.00     0.019 C 
ATOM     18  C   UNL     1      10.398  72.397  -1.982  1.00  0.00     0.091 C 
BRANCH  18  19
ATOM     19  C   UNL     1      10.076  71.025  -2.268  1.00  0.00     0.091 C 
ATOM     20  N   UNL     1       9.817  69.921  -2.499  1.00  0.00    -0.193 NA
ENDBRANCH  18  19
ENDBRANCH  13  17
ENDBRANCH   7   9
ENDBRANCH   1   7
BRANCH   5  21
ATOM     21  N   UNL     1      13.156  80.070  -4.637  1.00  0.00    -0.324 N 
ATOM     22  H   UNL     1      12.299  79.958  -5.226  1.00  0.00     0.170 HD
BRANCH  21  23
ATOM     23  C   UNL     1      14.412  80.285  -5.303  1.00  0.00     0.041 A 
ATOM     24  C   UNL     1      15.235  79.210  -5.681  1.00  0.00     0.027 A 
ATOM     25  C   UNL     1      14.796  81.591  -5.641  1.00  0.00     0.027 A 
ATOM     26  C   UNL     1      16.441  79.443  -6.350  1.00  0.00     0.021 A 
ATOM     27  C   UNL     1      16.002  81.826  -6.309  1.00  0.00     0.021 A 
ATOM     28  C   UNL     1      16.829  80.752  -6.662  1.00  0.00     0.052 A 
BRANCH  28  29
ATOM     29  C   UNL     1      18.069  80.993  -7.352  1.00  0.00     0.099 C 
ATOM     30  N   UNL     1      19.065  81.186  -7.907  1.00  0.00    -0.192 NA
ENDBRANCH  28  29
ENDBRANCH  21  23
ENDBRANCH   5  21
TORSDOF 7
ENDMDL
MODEL 13
REMARK VINA RESULT:    -7.936      1.700      2.642
REMARK INTER + INTRA:         -11.710
REMARK INTER:                 -10.717
REMARK INTRA:                  -0.993
REMARK UNBOUND:                -0.527
REMARK SMILES Cc1cc(/C=C/C#N)cc(C)c1Nc1ccnc(Nc2ccc(C#N)cc2)n1
REMARK SMILES IDX 14 1 15 2 16 3 17 4 18 5 28 6 13 7 12 9 1 10 2 11 3 12 4 13
REMARK SMILES IDX 10 14 9 15 11 16 5 17 6 18 7 19 8 20 19 21 20 23 21 24 27 25
REMARK SMILES IDX 22 26 26 27 23 28 24 29 25 30
REMARK H PARENT 13 8 19 22
REMARK Flexibility Score: inf
ROOT
ATOM      1  C   UNL     1       8.224  79.456   0.114  1.00  0.00     0.135 A 
ATOM      2  C   UNL     1       6.866  79.738   0.324  1.00  0.00     0.067 A 
ATOM      3  C   UNL     1       5.972  78.673   0.435  1.00  0.00     0.119 A 
ATOM      4  N   UNL     1       6.422  77.397   0.328  1.00  0.00    -0.221 NA
ATOM      5  C   UNL     1       7.737  77.133   0.101  1.00  0.00     0.229 A 
ATOM      6  N   UNL     1       8.623  78.160   0.006  1.00  0.00    -0.195 NA
ENDROOT
BRANCH   1   7
ATOM      7  N   UNL     1       9.202  80.501  -0.012  1.00  0.00    -0.340 N 
ATOM      8  H   UNL     1       9.098  81.352   0.584  1.00  0.00     0.168 HD
BRANCH   7   9
ATOM      9  C   UNL     1      10.369  80.398  -0.842  1.00  0.00     0.046 A 
ATOM     10  C   UNL     1      11.764  80.098   1.245  1.00  0.00     0.046 C 
ATOM     11  C   UNL     1      11.633  80.208  -0.249  1.00  0.00    -0.027 A 
ATOM     12  C   UNL     1      12.773  80.098  -1.061  1.00  0.00     0.013 A 
ATOM     13  C   UNL     1      12.671  80.182  -2.461  1.00  0.00    -0.024 A 
ATOM     14  C   UNL     1      10.259  80.503  -2.246  1.00  0.00    -0.027 A 
ATOM     15  C   UNL     1      11.408  80.367  -3.041  1.00  0.00     0.013 A 
ATOM     16  C   UNL     1       8.927  80.719  -2.912  1.00  0.00     0.046 C 
BRANCH  13  17
ATOM     17  C   UNL     1      13.848  80.048  -3.356  1.00  0.00     0.019 C 
ATOM     18  C   UNL     1      13.785  80.148  -4.688  1.00  0.00     0.091 C 
BRANCH  18  19
ATOM     19  C   UNL     1      14.971  79.988  -5.486  1.00  0.00     0.091 C 
ATOM     20  N   UNL     1      15.926  79.860  -6.127  1.00  0.00    -0.193 NA
ENDBRANCH  18  19
ENDBRANCH  13  17
ENDBRANCH   7   9
ENDBRANCH   1   7
BRANCH   5  21
ATOM     21  N   UNL     1       8.212  75.781   0.016  1.00  0.00    -0.324 N 
ATOM     22  H   UNL     1       8.358  75.263   0.912  1.00  0.00     0.170 HD
BRANCH  21  23
ATOM     23  C   UNL     1       8.394  75.064  -1.217  1.00  0.00     0.041 A 
ATOM     24  C   UNL     1       7.474  75.179  -2.274  1.00  0.00     0.027 A 
ATOM     25  C   UNL     1       9.545  74.283  -1.395  1.00  0.00     0.027 A 
ATOM     26  C   UNL     1       7.685  74.492  -3.474  1.00  0.00     0.021 A 
ATOM     27  C   UNL     1       9.757  73.594  -2.594  1.00  0.00     0.021 A 
ATOM     28  C   UNL     1       8.825  73.694  -3.635  1.00  0.00     0.052 A 
BRANCH  28  29
ATOM     29  C   UNL     1       9.043  72.987  -4.870  1.00  0.00     0.099 C 
ATOM     30  N   UNL     1       9.219  72.420  -5.862  1.00  0.00    -0.192 NA
ENDBRANCH  28  29
ENDBRANCH  21  23
ENDBRANCH   5  21
TORSDOF 7
ENDMDL
MODEL 14
REMARK VINA RESULT:    -7.839      2.808      4.845
REMARK INTER + INTRA:         -11.573
REMARK INTER:                 -10.546
REMARK INTRA:                  -1.027
REMARK UNBOUND:                -0.527
REMARK SMILES Cc1cc(/C=C/C#N)cc(C)c1Nc1ccnc(Nc2ccc(C#N)cc2)n1
REMARK SMILES IDX 14 1 15 2 16 3 17 4 18 5 28 6 13 7 12 9 1 10 2 11 3 12 4 13
REMARK SMILES IDX 10 14 9 15 11 16 5 17 6 18 7 19 8 20 19 21 20 23 21 24 27 25
REMARK SMILES IDX 22 26 26 27 23 28 24 29 25 30
REMARK H PARENT 13 8 19 22
REMARK Flexibility Score: inf
ROOT
ATOM      1  C   UNL     1       9.766  80.336  -1.812  1.00  0.00     0.135 A 
ATOM      2  C   UNL     1       8.919  81.304  -2.372  1.00  0.00     0.067 A 
ATOM      3  C   UNL     1       7.576  80.986  -2.563  1.00  0.00     0.119 A 
ATOM      4  N   UNL     1       7.115  79.756  -2.220  1.00  0.00    -0.221 NA
ATOM      5  C   UNL     1       7.948  78.814  -1.700  1.00  0.00     0.229 A 
ATOM      6  N   UNL     1       9.258  79.115  -1.494  1.00  0.00    -0.195 NA
ENDROOT
BRANCH   1   7
ATOM      7  N   UNL     1      11.162  80.592  -1.588  1.00  0.00    -0.340 N 
ATOM      8  H   UNL     1      11.549  81.518  -1.878  1.00  0.00     0.168 HD
BRANCH   7   9
ATOM      9  C   UNL     1      12.034  79.683  -0.899  1.00  0.00     0.046 A 
ATOM     10  C   UNL     1      12.466  78.510  -3.097  1.00  0.00     0.046 C 
ATOM     11  C   UNL     1      12.677  78.653  -1.614  1.00  0.00    -0.027 A 
ATOM     12  C   UNL     1      13.537  77.771  -0.942  1.00  0.00     0.013 A 
ATOM     13  C   UNL     1      13.761  77.897   0.441  1.00  0.00    -0.024 A 
ATOM     14  C   UNL     1      12.238  79.806   0.493  1.00  0.00    -0.027 A 
ATOM     15  C   UNL     1      13.120  78.928   1.142  1.00  0.00     0.013 A 
ATOM     16  C   UNL     1      11.558  80.885   1.290  1.00  0.00     0.046 C 
BRANCH  13  17
ATOM     17  C   UNL     1      14.680  77.000   1.184  1.00  0.00     0.019 C 
ATOM     18  C   UNL     1      14.425  75.710   1.429  1.00  0.00     0.091 C 
BRANCH  18  19
ATOM     19  C   UNL     1      15.362  74.911   2.173  1.00  0.00     0.091 C 
ATOM     20  N   UNL     1      16.115  74.269   2.772  1.00  0.00    -0.193 NA
ENDBRANCH  18  19
ENDBRANCH  13  17
ENDBRANCH   7   9
ENDBRANCH   1   7
BRANCH   5  21
ATOM     21  N   UNL     1       7.452  77.525  -1.313  1.00  0.00    -0.324 N 
ATOM     22  H   UNL     1       6.576  77.495  -0.744  1.00  0.00     0.170 HD
BRANCH  21  23
ATOM     23  C   UNL     1       8.018  76.276  -1.749  1.00  0.00     0.041 A 
ATOM     24  C   UNL     1       8.993  75.608  -0.988  1.00  0.00     0.027 A 
ATOM     25  C   UNL     1       7.543  75.680  -2.927  1.00  0.00     0.027 A 
ATOM     26  C   UNL     1       9.510  74.383  -1.420  1.00  0.00     0.021 A 
ATOM     27  C   UNL     1       8.061  74.455  -3.360  1.00  0.00     0.021 A 
ATOM     28  C   UNL     1       9.048  73.806  -2.609  1.00  0.00     0.052 A 
BRANCH  28  29
ATOM     29  C   UNL     1       9.580  72.544  -3.054  1.00  0.00     0.099 C 
ATOM     30  N   UNL     1      10.007  71.530  -3.412  1.00  0.00    -0.192 NA
ENDBRANCH  28  29
ENDBRANCH  21  23
ENDBRANCH   5  21
TORSDOF 7
ENDMDL
MODEL 15
REMARK VINA RESULT:    -7.827      2.732      9.098
REMARK INTER + INTRA:         -11.557
REMARK INTER:                 -11.054
REMARK INTRA:                  -0.502
REMARK UNBOUND:                -0.527
REMARK SMILES Cc1cc(/C=C/C#N)cc(C)c1Nc1ccnc(Nc2ccc(C#N)cc2)n1
REMARK SMILES IDX 14 1 15 2 16 3 17 4 18 5 28 6 13 7 12 9 1 10 2 11 3 12 4 13
REMARK SMILES IDX 10 14 9 15 11 16 5 17 6 18 7 19 8 20 19 21 20 23 21 24 27 25
REMARK SMILES IDX 22 26 26 27 23 28 24 29 25 30
REMARK H PARENT 13 8 19 22
REMARK Flexibility Score: inf
ROOT
ATOM      1  C   UNL     1      12.389  80.059  -1.953  1.00  0.00     0.135 A 
ATOM      2  C   UNL     1      12.665  80.656  -0.714  1.00  0.00     0.067 A 
ATOM      3  C   UNL     1      13.996  80.801  -0.325  1.00  0.00     0.119 A 
ATOM      4  N   UNL     1      14.991  80.357  -1.134  1.00  0.00    -0.221 NA
ATOM      5  C   UNL     1      14.714  79.757  -2.324  1.00  0.00     0.229 A 
ATOM      6  N   UNL     1      13.421  79.623  -2.724  1.00  0.00    -0.195 NA
ENDROOT
BRANCH   1   7
ATOM      7  N   UNL     1      11.043  79.875  -2.419  1.00  0.00    -0.340 N 
ATOM      8  H   UNL     1      10.725  80.424  -3.250  1.00  0.00     0.168 HD
BRANCH   7   9
ATOM      9  C   UNL     1      10.138  78.905  -1.868  1.00  0.00     0.046 A 
ATOM     10  C   UNL     1      11.354  77.108  -3.166  1.00  0.00     0.046 C 
ATOM     11  C   UNL     1      10.267  77.548  -2.224  1.00  0.00    -0.027 A 
ATOM     12  C   UNL     1       9.390  76.599  -1.677  1.00  0.00     0.013 A 
ATOM     13  C   UNL     1       8.376  76.986  -0.782  1.00  0.00    -0.024 A 
ATOM     14  C   UNL     1       9.112  79.306  -0.984  1.00  0.00    -0.027 A 
ATOM     15  C   UNL     1       8.260  78.338  -0.431  1.00  0.00     0.013 A 
ATOM     16  C   UNL     1       8.937  80.748  -0.593  1.00  0.00     0.046 C 
BRANCH  13  17
ATOM     17  C   UNL     1       7.443  76.011  -0.165  1.00  0.00     0.019 C 
ATOM     18  C   UNL     1       6.265  76.346   0.374  1.00  0.00     0.091 C 
BRANCH  18  19
ATOM     19  C   UNL     1       5.425  75.342   0.969  1.00  0.00     0.091 C 
ATOM     20  N   UNL     1       4.750  74.534   1.449  1.00  0.00    -0.193 NA
ENDBRANCH  18  19
ENDBRANCH  13  17
ENDBRANCH   7   9
ENDBRANCH   1   7
BRANCH   5  21
ATOM     21  N   UNL     1      15.770  79.314  -3.189  1.00  0.00    -0.324 N 
ATOM     22  H   UNL     1      16.237  78.408  -2.956  1.00  0.00     0.170 HD
BRANCH  21  23
ATOM     23  C   UNL     1      16.148  79.977  -4.408  1.00  0.00     0.041 A 
ATOM     24  C   UNL     1      15.289  80.893  -5.041  1.00  0.00     0.027 A 
ATOM     25  C   UNL     1      17.424  79.754  -4.944  1.00  0.00     0.027 A 
ATOM     26  C   UNL     1      15.689  81.544  -6.212  1.00  0.00     0.021 A 
ATOM     27  C   UNL     1      17.825  80.404  -6.116  1.00  0.00     0.021 A 
ATOM     28  C   UNL     1      16.956  81.298  -6.754  1.00  0.00     0.052 A 
BRANCH  28  29
ATOM     29  C   UNL     1      17.369  81.969  -7.959  1.00  0.00     0.099 C 
ATOM     30  N   UNL     1      17.700  82.508  -8.928  1.00  0.00    -0.192 NA
ENDBRANCH  28  29
ENDBRANCH  21  23
ENDBRANCH   5  21
TORSDOF 7
ENDMDL
