MODEL 1
REMARK VINA RESULT:   -10.757      0.000      0.000
REMARK INTER + INTRA:         -16.059
REMARK INTER:                 -15.159
REMARK INTRA:                  -0.900
REMARK UNBOUND:                -0.900
REMARK SMILES Cc1ccc(C(=O)Nc2ccc(CN3CCN(C)CC3)c(C(F)(F)F)c2)cc1C#Cc1cnc2cccnn12
REMARK SMILES IDX 8 1 6 2 7 3 9 5 12 6 11 7 21 8 10 9 26 10 13 11 14 12 18 13
REMARK SMILES IDX 17 14 16 15 19 16 15 17 20 18 22 19 23 20 24 21 25 22 5 23
REMARK SMILES IDX 27 24 4 25 28 26 3 27 2 28 1 29 29 30 30 31 31 32 32 33
REMARK SMILES IDX 39 34 33 35 34 36 38 37 35 38 37 39 36 40
REMARK H PARENT 8 4
REMARK Flexibility Score: inf
ROOT
ATOM      1  N   UNL     1      34.071   6.919   7.530  1.00  0.00    -0.322 N 
ATOM      2  C   UNL     1      32.816   6.783   8.218  1.00  0.00     0.255 C 
ATOM      3  O   UNL     1      32.278   5.645   8.317  1.00  0.00    -0.269 OA
ATOM      4  H   UNL     1      34.699   7.711   7.799  1.00  0.00     0.170 HD
ENDROOT
BRANCH   1   5
ATOM      5  C   UNL     1      34.590   5.936   6.618  1.00  0.00     0.042 A 
ATOM      6  C   UNL     1      35.681   4.007   4.866  1.00  0.00    -0.022 A 
ATOM      7  C   UNL     1      35.253   5.260   4.389  1.00  0.00     0.008 A 
ATOM      8  C   UNL     1      35.569   3.716   6.256  1.00  0.00     0.062 A 
ATOM      9  C   UNL     1      34.715   6.211   5.251  1.00  0.00     0.026 A 
ATOM     10  C   UNL     1      35.040   4.705   7.112  1.00  0.00     0.039 A 
BRANCH   6  11
ATOM     11  C   UNL     1      36.275   3.035   3.863  1.00  0.00     0.120 C 
BRANCH  11  12
ATOM     12  N   UNL     1      35.230   2.319   3.095  1.00  0.00    -0.297 NA
ATOM     13  C   UNL     1      37.951   0.874   0.270  1.00  0.00     0.105 C 
ATOM     14  N   UNL     1      37.065   1.452   1.291  1.00  0.00    -0.304 NA
ATOM     15  C   UNL     1      36.642   0.415   2.256  1.00  0.00     0.099 C 
ATOM     16  C   UNL     1      35.898   2.092   0.663  1.00  0.00     0.099 C 
ATOM     17  C   UNL     1      35.411   0.851   3.079  1.00  0.00     0.100 C 
ATOM     18  C   UNL     1      35.074   2.858   1.722  1.00  0.00     0.100 C 
ENDBRANCH  11  12
ENDBRANCH   6  11
BRANCH   8  19
ATOM     19  C   UNL     1      36.044   2.400   6.850  1.00  0.00     0.416 C 
ATOM     20  F   UNL     1      35.397   1.317   6.279  1.00  0.00    -0.166 F 
ATOM     21  F   UNL     1      37.399   2.231   6.635  1.00  0.00    -0.166 F 
ATOM     22  F   UNL     1      35.790   2.380   8.208  1.00  0.00    -0.166 F 
ENDBRANCH   8  19
ENDBRANCH   1   5
BRANCH   2  23
ATOM     23  C   UNL     1      32.175   7.953   8.867  1.00  0.00     0.041 A 
ATOM     24  C   UNL     1      30.777   8.008   9.009  1.00  0.00     0.031 A 
ATOM     25  C   UNL     1      32.949   9.021   9.349  1.00  0.00     0.014 A 
ATOM     26  C   UNL     1      30.163   9.100   9.638  1.00  0.00     0.029 A 
ATOM     27  C   UNL     1      32.342  10.114   9.970  1.00  0.00     0.005 A 
ATOM     28  C   UNL     1      30.949  10.168  10.122  1.00  0.00    -0.035 A 
ATOM     29  C   UNL     1      30.319  11.345  10.819  1.00  0.00     0.045 C 
BRANCH  26  30
ATOM     30  C   UNL     1      28.727   9.102   9.791  1.00  0.00    -0.060 C 
ATOM     31  C   UNL     1      27.530   9.114   9.927  1.00  0.00    -0.040 C 
BRANCH  31  32
ATOM     32  C   UNL     1      26.103   9.133  10.097  1.00  0.00     0.135 A 
ATOM     33  C   UNL     1      25.221   8.089   9.876  1.00  0.00     0.151 A 
ATOM     34  N   UNL     1      25.381  10.181  10.508  1.00  0.00    -0.205 N 
ATOM     35  N   UNL     1      23.952   8.492  10.150  1.00  0.00    -0.234 NA
ATOM     36  C   UNL     1      24.106   9.777  10.532  1.00  0.00     0.154 A 
ATOM     37  N   UNL     1      25.783  11.406  10.842  1.00  0.00    -0.174 NA
ATOM     38  C   UNL     1      23.101  10.655  10.921  1.00  0.00     0.051 A 
ATOM     39  C   UNL     1      24.849  12.321  11.233  1.00  0.00     0.134 A 
ATOM     40  C   UNL     1      23.488  11.957  11.278  1.00  0.00     0.026 A 
ENDBRANCH  31  32
ENDBRANCH  26  30
ENDBRANCH   2  23
TORSDOF 7
ENDMDL
MODEL 2
REMARK VINA RESULT:   -10.753      1.938      2.626
REMARK INTER + INTRA:         -16.053
REMARK INTER:                 -15.203
REMARK INTRA:                  -0.850
REMARK UNBOUND:                -0.900
REMARK SMILES Cc1ccc(C(=O)Nc2ccc(CN3CCN(C)CC3)c(C(F)(F)F)c2)cc1C#Cc1cnc2cccnn12
REMARK SMILES IDX 8 1 6 2 7 3 9 5 12 6 11 7 21 8 10 9 26 10 13 11 14 12 18 13
REMARK SMILES IDX 17 14 16 15 19 16 15 17 20 18 22 19 23 20 24 21 25 22 5 23
REMARK SMILES IDX 27 24 4 25 28 26 3 27 2 28 1 29 29 30 30 31 31 32 32 33
REMARK SMILES IDX 39 34 33 35 34 36 38 37 35 38 37 39 36 40
REMARK H PARENT 8 4
REMARK Flexibility Score: inf
ROOT
ATOM      1  N   UNL     1      34.723   5.678   7.066  1.00  0.00    -0.322 N 
ATOM      2  C   UNL     1      33.507   5.651   7.833  1.00  0.00     0.255 C 
ATOM      3  O   UNL     1      32.904   4.556   8.008  1.00  0.00    -0.269 OA
ATOM      4  H   UNL     1      35.416   6.436   7.265  1.00  0.00     0.170 HD
ENDROOT
BRANCH   1   5
ATOM      5  C   UNL     1      35.119   4.631   6.163  1.00  0.00     0.042 A 
ATOM      6  C   UNL     1      35.819   2.563   4.371  1.00  0.00    -0.022 A 
ATOM      7  C   UNL     1      36.103   2.458   5.746  1.00  0.00     0.008 A 
ATOM      8  C   UNL     1      35.160   3.727   3.883  1.00  0.00     0.062 A 
ATOM      9  C   UNL     1      35.759   3.477   6.630  1.00  0.00     0.026 A 
ATOM     10  C   UNL     1      34.802   4.736   4.803  1.00  0.00     0.039 A 
BRANCH   6  11
ATOM     11  C   UNL     1      36.209   1.398   3.479  1.00  0.00     0.120 C 
BRANCH  11  12
ATOM     12  N   UNL     1      37.641   1.441   3.102  1.00  0.00    -0.297 NA
ATOM     13  C   UNL     1      37.074  -0.959  -0.273  1.00  0.00     0.105 C 
ATOM     14  N   UNL     1      37.182  -0.148   0.949  1.00  0.00    -0.304 NA
ATOM     15  C   UNL     1      37.360   1.279   0.608  1.00  0.00     0.099 C 
ATOM     16  C   UNL     1      38.287  -0.628   1.793  1.00  0.00     0.099 C 
ATOM     17  C   UNL     1      37.890   2.102   1.803  1.00  0.00     0.100 C 
ATOM     18  C   UNL     1      38.275   0.101   3.155  1.00  0.00     0.100 C 
ENDBRANCH  11  12
ENDBRANCH   6  11
BRANCH   8  19
ATOM     19  C   UNL     1      34.786   3.895   2.419  1.00  0.00     0.416 C 
ATOM     20  F   UNL     1      34.610   2.672   1.794  1.00  0.00    -0.166 F 
ATOM     21  F   UNL     1      33.601   4.595   2.297  1.00  0.00    -0.166 F 
ATOM     22  F   UNL     1      35.790   4.572   1.754  1.00  0.00    -0.166 F 
ENDBRANCH   8  19
ENDBRANCH   1   5
BRANCH   2  23
ATOM     23  C   UNL     1      32.986   6.883   8.474  1.00  0.00     0.041 A 
ATOM     24  C   UNL     1      31.603   7.054   8.663  1.00  0.00     0.031 A 
ATOM     25  C   UNL     1      33.859   7.897   8.900  1.00  0.00     0.014 A 
ATOM     26  C   UNL     1      31.101   8.205   9.285  1.00  0.00     0.029 A 
ATOM     27  C   UNL     1      33.364   9.049   9.514  1.00  0.00     0.005 A 
ATOM     28  C   UNL     1      31.987   9.218   9.712  1.00  0.00    -0.035 A 
ATOM     29  C   UNL     1      31.478  10.457  10.401  1.00  0.00     0.045 C 
BRANCH  26  30
ATOM     30  C   UNL     1      29.676   8.326   9.488  1.00  0.00    -0.060 C 
ATOM     31  C   UNL     1      28.488   8.417   9.663  1.00  0.00    -0.040 C 
BRANCH  31  32
ATOM     32  C   UNL     1      27.069   8.514   9.875  1.00  0.00     0.135 A 
ATOM     33  C   UNL     1      26.149   7.480   9.861  1.00  0.00     0.151 A 
ATOM     34  N   UNL     1      26.395   9.640  10.130  1.00  0.00    -0.205 N 
ATOM     35  N   UNL     1      24.904   7.967  10.107  1.00  0.00    -0.234 NA
ATOM     36  C   UNL     1      25.111   9.291  10.265  1.00  0.00     0.154 A 
ATOM     37  N   UNL     1      26.845  10.889  10.242  1.00  0.00    -0.174 NA
ATOM     38  C   UNL     1      24.147  10.256  10.536  1.00  0.00     0.051 A 
ATOM     39  C   UNL     1      25.955  11.887  10.507  1.00  0.00     0.134 A 
ATOM     40  C   UNL     1      24.586  11.585  10.658  1.00  0.00     0.026 A 
ENDBRANCH  31  32
ENDBRANCH  26  30
ENDBRANCH   2  23
TORSDOF 7
ENDMDL
MODEL 3
REMARK VINA RESULT:   -10.409      4.229      7.036
REMARK INTER + INTRA:         -15.568
REMARK INTER:                 -14.426
REMARK INTRA:                  -1.142
REMARK UNBOUND:                -0.900
REMARK SMILES Cc1ccc(C(=O)Nc2ccc(CN3CCN(C)CC3)c(C(F)(F)F)c2)cc1C#Cc1cnc2cccnn12
REMARK SMILES IDX 8 1 6 2 7 3 9 5 12 6 11 7 21 8 10 9 26 10 13 11 14 12 18 13
REMARK SMILES IDX 17 14 16 15 19 16 15 17 20 18 22 19 23 20 24 21 25 22 5 23
REMARK SMILES IDX 27 24 4 25 28 26 3 27 2 28 1 29 29 30 30 31 31 32 32 33
REMARK SMILES IDX 39 34 33 35 34 36 38 37 35 38 37 39 36 40
REMARK H PARENT 8 4
REMARK Flexibility Score: inf
ROOT
ATOM      1  N   UNL     1      29.290   8.659  10.134  1.00  0.00    -0.322 N 
ATOM      2  C   UNL     1      28.253   9.068   9.226  1.00  0.00     0.255 C 
ATOM      3  O   UNL     1      28.414   8.910   7.983  1.00  0.00    -0.269 OA
ATOM      4  H   UNL     1      29.017   8.395  11.109  1.00  0.00     0.170 HD
ENDROOT
BRANCH   1   5
ATOM      5  C   UNL     1      30.652   8.428   9.736  1.00  0.00     0.042 A 
ATOM      6  C   UNL     1      33.319   8.028   8.895  1.00  0.00    -0.022 A 
ATOM      7  C   UNL     1      32.388   6.972   8.880  1.00  0.00     0.008 A 
ATOM      8  C   UNL     1      32.902   9.317   9.333  1.00  0.00     0.062 A 
ATOM      9  C   UNL     1      31.073   7.168   9.295  1.00  0.00     0.026 A 
ATOM     10  C   UNL     1      31.559   9.495   9.728  1.00  0.00     0.039 A 
BRANCH   6  11
ATOM     11  C   UNL     1      34.726   7.734   8.407  1.00  0.00     0.120 C 
BRANCH  11  12
ATOM     12  N   UNL     1      34.861   7.927   6.945  1.00  0.00    -0.297 NA
ATOM     13  C   UNL     1      38.221   5.455   6.683  1.00  0.00     0.105 C 
ATOM     14  N   UNL     1      37.056   6.331   6.877  1.00  0.00    -0.304 NA
ATOM     15  C   UNL     1      35.829   5.677   6.374  1.00  0.00     0.099 C 
ATOM     16  C   UNL     1      37.268   7.629   6.217  1.00  0.00     0.099 C 
ATOM     17  C   UNL     1      34.676   6.684   6.166  1.00  0.00     0.100 C 
ATOM     18  C   UNL     1      36.129   8.607   6.583  1.00  0.00     0.100 C 
ENDBRANCH  11  12
ENDBRANCH   6  11
BRANCH   8  19
ATOM     19  C   UNL     1      33.840  10.513   9.341  1.00  0.00     0.416 C 
ATOM     20  F   UNL     1      35.034  10.223   9.980  1.00  0.00    -0.166 F 
ATOM     21  F   UNL     1      34.146  10.899   8.050  1.00  0.00    -0.166 F 
ATOM     22  F   UNL     1      33.248  11.569  10.008  1.00  0.00    -0.166 F 
ENDBRANCH   8  19
ENDBRANCH   1   5
BRANCH   2  23
ATOM     23  C   UNL     1      26.971   9.615   9.733  1.00  0.00     0.041 A 
ATOM     24  C   UNL     1      26.867  10.974  10.078  1.00  0.00     0.031 A 
ATOM     25  C   UNL     1      25.844   8.789   9.878  1.00  0.00     0.014 A 
ATOM     26  C   UNL     1      25.655  11.504  10.541  1.00  0.00     0.029 A 
ATOM     27  C   UNL     1      24.636   9.311  10.344  1.00  0.00     0.005 A 
ATOM     28  C   UNL     1      24.527  10.668  10.680  1.00  0.00    -0.035 A 
ATOM     29  C   UNL     1      23.206  11.214  11.156  1.00  0.00     0.045 C 
BRANCH  26  30
ATOM     30  C   UNL     1      25.582  12.912  10.855  1.00  0.00    -0.060 C 
ATOM     31  C   UNL     1      25.531  14.089  11.109  1.00  0.00    -0.040 C 
BRANCH  31  32
ATOM     32  C   UNL     1      25.478  15.495  11.406  1.00  0.00     0.135 A 
ATOM     33  C   UNL     1      24.555  16.144  12.209  1.00  0.00     0.151 A 
ATOM     34  N   UNL     1      26.329  16.420  10.953  1.00  0.00    -0.205 N 
ATOM     35  N   UNL     1      24.836  17.473  12.250  1.00  0.00    -0.234 NA
ATOM     36  C   UNL     1      25.929  17.588  11.467  1.00  0.00     0.154 A 
ATOM     37  N   UNL     1      27.382  16.279  10.150  1.00  0.00    -0.174 NA
ATOM     38  C   UNL     1      26.621  18.757  11.172  1.00  0.00     0.051 A 
ATOM     39  C   UNL     1      28.109  17.385   9.818  1.00  0.00     0.134 A 
ATOM     40  C   UNL     1      27.737  18.647  10.326  1.00  0.00     0.026 A 
ENDBRANCH  31  32
ENDBRANCH  26  30
ENDBRANCH   2  23
TORSDOF 7
ENDMDL
MODEL 4
REMARK VINA RESULT:   -10.343      3.677      6.291
REMARK INTER + INTRA:         -15.475
REMARK INTER:                 -14.266
REMARK INTRA:                  -1.210
REMARK UNBOUND:                -0.900
REMARK SMILES Cc1ccc(C(=O)Nc2ccc(CN3CCN(C)CC3)c(C(F)(F)F)c2)cc1C#Cc1cnc2cccnn12
REMARK SMILES IDX 8 1 6 2 7 3 9 5 12 6 11 7 21 8 10 9 26 10 13 11 14 12 18 13
REMARK SMILES IDX 17 14 16 15 19 16 15 17 20 18 22 19 23 20 24 21 25 22 5 23
REMARK SMILES IDX 27 24 4 25 28 26 3 27 2 28 1 29 29 30 30 31 31 32 32 33
REMARK SMILES IDX 39 34 33 35 34 36 38 37 35 38 37 39 36 40
REMARK H PARENT 8 4
REMARK Flexibility Score: inf
ROOT
ATOM      1  N   UNL     1      29.562   8.340   9.800  1.00  0.00    -0.322 N 
ATOM      2  C   UNL     1      28.498   8.766   8.932  1.00  0.00     0.255 C 
ATOM      3  O   UNL     1      28.636   8.670   7.681  1.00  0.00    -0.269 OA
ATOM      4  H   UNL     1      29.316   8.025  10.766  1.00  0.00     0.170 HD
ENDROOT
BRANCH   1   5
ATOM      5  C   UNL     1      30.921   8.159   9.365  1.00  0.00     0.042 A 
ATOM      6  C   UNL     1      33.602   7.751   8.572  1.00  0.00    -0.022 A 
ATOM      7  C   UNL     1      33.149   9.023   8.973  1.00  0.00     0.008 A 
ATOM      8  C   UNL     1      32.691   6.656   8.576  1.00  0.00     0.062 A 
ATOM      9  C   UNL     1      31.828   9.225   9.363  1.00  0.00     0.026 A 
ATOM     10  C   UNL     1      31.364   6.882   8.997  1.00  0.00     0.039 A 
BRANCH   6  11
ATOM     11  C   UNL     1      35.062   7.613   8.180  1.00  0.00     0.120 C 
BRANCH  11  12
ATOM     12  N   UNL     1      35.435   8.539   7.087  1.00  0.00    -0.297 NA
ATOM     13  C   UNL     1      38.158   5.847   5.409  1.00  0.00     0.105 C 
ATOM     14  N   UNL     1      37.204   6.738   6.086  1.00  0.00    -0.304 NA
ATOM     15  C   UNL     1      35.942   6.823   5.320  1.00  0.00     0.099 C 
ATOM     16  C   UNL     1      37.790   8.074   6.281  1.00  0.00     0.099 C 
ATOM     17  C   UNL     1      35.085   8.036   5.741  1.00  0.00     0.100 C 
ATOM     18  C   UNL     1      36.861   8.944   7.156  1.00  0.00     0.100 C 
ENDBRANCH  11  12
ENDBRANCH   6  11
BRANCH   8  19
ATOM     19  C   UNL     1      33.116   5.247   8.193  1.00  0.00     0.416 C 
ATOM     20  F   UNL     1      33.591   5.193   6.893  1.00  0.00    -0.166 F 
ATOM     21  F   UNL     1      34.130   4.803   9.021  1.00  0.00    -0.166 F 
ATOM     22  F   UNL     1      32.037   4.390   8.288  1.00  0.00    -0.166 F 
ENDBRANCH   8  19
ENDBRANCH   1   5
BRANCH   2  23
ATOM     23  C   UNL     1      27.215   9.260   9.490  1.00  0.00     0.041 A 
ATOM     24  C   UNL     1      27.075  10.609   9.860  1.00  0.00     0.031 A 
ATOM     25  C   UNL     1      26.124   8.392   9.659  1.00  0.00     0.014 A 
ATOM     26  C   UNL     1      25.861  11.089  10.371  1.00  0.00     0.029 A 
ATOM     27  C   UNL     1      24.914   8.864  10.173  1.00  0.00     0.005 A 
ATOM     28  C   UNL     1      24.768  10.211  10.534  1.00  0.00    -0.035 A 
ATOM     29  C   UNL     1      23.446  10.703  11.062  1.00  0.00     0.045 C 
BRANCH  26  30
ATOM     30  C   UNL     1      25.750  12.489  10.709  1.00  0.00    -0.060 C 
ATOM     31  C   UNL     1      25.652  13.659  10.980  1.00  0.00    -0.040 C 
BRANCH  31  32
ATOM     32  C   UNL     1      25.534  15.057  11.294  1.00  0.00     0.135 A 
ATOM     33  C   UNL     1      24.469  15.687  11.915  1.00  0.00     0.151 A 
ATOM     34  N   UNL     1      26.453  15.993  11.038  1.00  0.00    -0.205 N 
ATOM     35  N   UNL     1      24.729  17.015  12.041  1.00  0.00    -0.234 NA
ATOM     36  C   UNL     1      25.954  17.149  11.490  1.00  0.00     0.154 A 
ATOM     37  N   UNL     1      27.644  15.873  10.454  1.00  0.00    -0.174 NA
ATOM     38  C   UNL     1      26.684  18.325  11.364  1.00  0.00     0.051 A 
ATOM     39  C   UNL     1      28.415  16.987  10.297  1.00  0.00     0.134 A 
ATOM     40  C   UNL     1      27.944  18.236  10.751  1.00  0.00     0.026 A 
ENDBRANCH  31  32
ENDBRANCH  26  30
ENDBRANCH   2  23
TORSDOF 7
ENDMDL
MODEL 5
REMARK VINA RESULT:   -10.241      1.768      2.181
REMARK INTER + INTRA:         -15.332
REMARK INTER:                 -14.679
REMARK INTRA:                  -0.653
REMARK UNBOUND:                -0.900
REMARK SMILES Cc1ccc(C(=O)Nc2ccc(CN3CCN(C)CC3)c(C(F)(F)F)c2)cc1C#Cc1cnc2cccnn12
REMARK SMILES IDX 8 1 6 2 7 3 9 5 12 6 11 7 21 8 10 9 26 10 13 11 14 12 18 13
REMARK SMILES IDX 17 14 16 15 19 16 15 17 20 18 22 19 23 20 24 21 25 22 5 23
REMARK SMILES IDX 27 24 4 25 28 26 3 27 2 28 1 29 29 30 30 31 31 32 32 33
REMARK SMILES IDX 39 34 33 35 34 36 38 37 35 38 37 39 36 40
REMARK H PARENT 8 4
REMARK Flexibility Score: inf
ROOT
ATOM      1  N   UNL     1      34.437   6.582   7.346  1.00  0.00    -0.322 N 
ATOM      2  C   UNL     1      33.175   6.430   8.018  1.00  0.00     0.255 C 
ATOM      3  O   UNL     1      32.627   5.293   8.066  1.00  0.00    -0.269 OA
ATOM      4  H   UNL     1      35.069   7.358   7.651  1.00  0.00     0.170 HD
ENDROOT
BRANCH   1   5
ATOM      5  C   UNL     1      34.955   5.632   6.399  1.00  0.00     0.042 A 
ATOM      6  C   UNL     1      35.913   3.786   4.488  1.00  0.00    -0.022 A 
ATOM      7  C   UNL     1      35.481   3.357   5.757  1.00  0.00     0.008 A 
ATOM      8  C   UNL     1      35.857   5.172   4.165  1.00  0.00     0.062 A 
ATOM      9  C   UNL     1      35.009   4.266   6.700  1.00  0.00     0.026 A 
ATOM     10  C   UNL     1      35.354   6.070   5.130  1.00  0.00     0.039 A 
BRANCH   6  11
ATOM     11  C   UNL     1      36.394   2.727   3.512  1.00  0.00     0.120 C 
BRANCH  11  12
ATOM     12  N   UNL     1      35.291   1.857   3.045  1.00  0.00    -0.297 NA
ATOM     13  C   UNL     1      37.582   0.186  -0.026  1.00  0.00     0.105 C 
ATOM     14  N   UNL     1      36.845   0.850   1.059  1.00  0.00    -0.304 NA
ATOM     15  C   UNL     1      36.680  -0.065   2.209  1.00  0.00     0.099 C 
ATOM     16  C   UNL     1      35.540   1.333   0.580  1.00  0.00     0.099 C 
ATOM     17  C   UNL     1      35.580   0.413   3.181  1.00  0.00     0.100 C 
ATOM     18  C   UNL     1      34.856   2.192   1.667  1.00  0.00     0.100 C 
ENDBRANCH  11  12
ENDBRANCH   6  11
BRANCH   8  19
ATOM     19  C   UNL     1      36.271   5.705   2.802  1.00  0.00     0.416 C 
ATOM     20  F   UNL     1      37.589   5.396   2.512  1.00  0.00    -0.166 F 
ATOM     21  F   UNL     1      35.488   5.151   1.806  1.00  0.00    -0.166 F 
ATOM     22  F   UNL     1      36.141   7.080   2.778  1.00  0.00    -0.166 F 
ENDBRANCH   8  19
ENDBRANCH   1   5
BRANCH   2  23
ATOM     23  C   UNL     1      32.539   7.578   8.709  1.00  0.00     0.041 A 
ATOM     24  C   UNL     1      31.144   7.615   8.886  1.00  0.00     0.031 A 
ATOM     25  C   UNL     1      33.313   8.643   9.195  1.00  0.00     0.014 A 
ATOM     26  C   UNL     1      30.535   8.686   9.555  1.00  0.00     0.029 A 
ATOM     27  C   UNL     1      32.711   9.716   9.856  1.00  0.00     0.005 A 
ATOM     28  C   UNL     1      31.322   9.751  10.043  1.00  0.00    -0.035 A 
ATOM     29  C   UNL     1      30.697  10.905  10.782  1.00  0.00     0.045 C 
BRANCH  26  30
ATOM     30  C   UNL     1      29.103   8.669   9.743  1.00  0.00    -0.060 C 
ATOM     31  C   UNL     1      27.908   8.665   9.892  1.00  0.00    -0.040 C 
BRANCH  31  32
ATOM     32  C   UNL     1      26.481   8.669  10.065  1.00  0.00     0.135 A 
ATOM     33  C   UNL     1      25.632   7.575  10.031  1.00  0.00     0.151 A 
ATOM     34  N   UNL     1      25.726   9.748  10.296  1.00  0.00    -0.205 N 
ATOM     35  N   UNL     1      24.352   7.979  10.240  1.00  0.00    -0.234 NA
ATOM     36  C   UNL     1      24.465   9.315  10.397  1.00  0.00     0.154 A 
ATOM     37  N   UNL     1      26.089  11.024  10.414  1.00  0.00    -0.174 NA
ATOM     38  C   UNL     1      23.432  10.214  10.637  1.00  0.00     0.051 A 
ATOM     39  C   UNL     1      25.127  11.962  10.650  1.00  0.00     0.134 A 
ATOM     40  C   UNL     1      23.778  11.569  10.765  1.00  0.00     0.026 A 
ENDBRANCH  31  32
ENDBRANCH  26  30
ENDBRANCH   2  23
TORSDOF 7
ENDMDL
MODEL 6
REMARK VINA RESULT:    -9.957      1.329      1.612
REMARK INTER + INTRA:         -14.931
REMARK INTER:                 -14.095
REMARK INTRA:                  -0.836
REMARK UNBOUND:                -0.900
REMARK SMILES Cc1ccc(C(=O)Nc2ccc(CN3CCN(C)CC3)c(C(F)(F)F)c2)cc1C#Cc1cnc2cccnn12
REMARK SMILES IDX 8 1 6 2 7 3 9 5 12 6 11 7 21 8 10 9 26 10 13 11 14 12 18 13
REMARK SMILES IDX 17 14 16 15 19 16 15 17 20 18 22 19 23 20 24 21 25 22 5 23
REMARK SMILES IDX 27 24 4 25 28 26 3 27 2 28 1 29 29 30 30 31 31 32 32 33
REMARK SMILES IDX 39 34 33 35 34 36 38 37 35 38 37 39 36 40
REMARK H PARENT 8 4
REMARK Flexibility Score: inf
ROOT
ATOM      1  N   UNL     1      33.726   7.739   6.904  1.00  0.00    -0.322 N 
ATOM      2  C   UNL     1      34.144   8.411   8.104  1.00  0.00     0.255 C 
ATOM      3  O   UNL     1      35.311   8.227   8.549  1.00  0.00    -0.269 OA
ATOM      4  H   UNL     1      32.978   8.184   6.323  1.00  0.00     0.170 HD
ENDROOT
BRANCH   1   5
ATOM      5  C   UNL     1      34.391   6.583   6.365  1.00  0.00     0.042 A 
ATOM      6  C   UNL     1      35.751   4.317   5.368  1.00  0.00    -0.022 A 
ATOM      7  C   UNL     1      35.660   5.500   4.610  1.00  0.00     0.008 A 
ATOM      8  C   UNL     1      35.154   4.271   6.660  1.00  0.00     0.062 A 
ATOM      9  C   UNL     1      34.989   6.617   5.100  1.00  0.00     0.026 A 
ATOM     10  C   UNL     1      34.499   5.424   7.143  1.00  0.00     0.039 A 
BRANCH   6  11
ATOM     11  C   UNL     1      36.517   3.152   4.768  1.00  0.00     0.120 C 
BRANCH  11  12
ATOM     12  N   UNL     1      36.330   3.058   3.302  1.00  0.00    -0.297 NA
ATOM     13  C   UNL     1      38.779  -0.312   2.961  1.00  0.00     0.105 C 
ATOM     14  N   UNL     1      37.960   0.890   3.173  1.00  0.00    -0.304 NA
ATOM     15  C   UNL     1      36.522   0.561   3.075  1.00  0.00     0.099 C 
ATOM     16  C   UNL     1      38.325   1.943   2.212  1.00  0.00     0.099 C 
ATOM     17  C   UNL     1      35.649   1.818   2.871  1.00  0.00     0.100 C 
ATOM     18  C   UNL     1      37.599   3.261   2.561  1.00  0.00     0.100 C 
ENDBRANCH  11  12
ENDBRANCH   6  11
BRANCH   8  19
ATOM     19  C   UNL     1      35.244   3.043   7.552  1.00  0.00     0.416 C 
ATOM     20  F   UNL     1      34.289   3.068   8.554  1.00  0.00    -0.166 F 
ATOM     21  F   UNL     1      35.039   1.892   6.815  1.00  0.00    -0.166 F 
ATOM     22  F   UNL     1      36.488   2.989   8.151  1.00  0.00    -0.166 F 
ENDBRANCH   8  19
ENDBRANCH   1   5
BRANCH   2  23
ATOM     23  C   UNL     1      33.242   9.367   8.793  1.00  0.00     0.041 A 
ATOM     24  C   UNL     1      31.867   9.092   8.903  1.00  0.00     0.031 A 
ATOM     25  C   UNL     1      33.742  10.559   9.342  1.00  0.00     0.014 A 
ATOM     26  C   UNL     1      31.010   9.980   9.568  1.00  0.00     0.029 A 
ATOM     27  C   UNL     1      32.891  11.450   9.999  1.00  0.00     0.005 A 
ATOM     28  C   UNL     1      31.522  11.174  10.119  1.00  0.00    -0.035 A 
ATOM     29  C   UNL     1      30.628  12.137  10.855  1.00  0.00     0.045 C 
BRANCH  26  30
ATOM     30  C   UNL     1      29.611   9.644   9.686  1.00  0.00    -0.060 C 
ATOM     31  C   UNL     1      28.443   9.367   9.797  1.00  0.00    -0.040 C 
BRANCH  31  32
ATOM     32  C   UNL     1      27.051   9.038   9.939  1.00  0.00     0.135 A 
ATOM     33  C   UNL     1      26.473   7.784   9.826  1.00  0.00     0.151 A 
ATOM     34  N   UNL     1      26.070   9.903  10.214  1.00  0.00    -0.205 N 
ATOM     35  N   UNL     1      25.133   7.875  10.030  1.00  0.00    -0.234 NA
ATOM     36  C   UNL     1      24.939   9.191  10.263  1.00  0.00     0.154 A 
ATOM     37  N   UNL     1      26.132  11.218  10.410  1.00  0.00    -0.174 NA
ATOM     38  C   UNL     1      23.727   9.818  10.530  1.00  0.00     0.051 A 
ATOM     39  C   UNL     1      24.981  11.899  10.677  1.00  0.00     0.134 A 
ATOM     40  C   UNL     1      23.755  11.206  10.741  1.00  0.00     0.026 A 
ENDBRANCH  31  32
ENDBRANCH  26  30
ENDBRANCH   2  23
TORSDOF 7
ENDMDL
MODEL 7
REMARK VINA RESULT:    -9.900      1.526      2.039
REMARK INTER + INTRA:         -14.851
REMARK INTER:                 -13.862
REMARK INTRA:                  -0.989
REMARK UNBOUND:                -0.900
REMARK SMILES Cc1ccc(C(=O)Nc2ccc(CN3CCN(C)CC3)c(C(F)(F)F)c2)cc1C#Cc1cnc2cccnn12
REMARK SMILES IDX 8 1 6 2 7 3 9 5 12 6 11 7 21 8 10 9 26 10 13 11 14 12 18 13
REMARK SMILES IDX 17 14 16 15 19 16 15 17 20 18 22 19 23 20 24 21 25 22 5 23
REMARK SMILES IDX 27 24 4 25 28 26 3 27 2 28 1 29 29 30 30 31 31 32 32 33
REMARK SMILES IDX 39 34 33 35 34 36 38 37 35 38 37 39 36 40
REMARK H PARENT 8 4
REMARK Flexibility Score: inf
ROOT
ATOM      1  N   UNL     1      34.266   6.799   5.950  1.00  0.00    -0.322 N 
ATOM      2  C   UNL     1      34.972   7.375   7.062  1.00  0.00     0.255 C 
ATOM      3  O   UNL     1      36.210   7.164   7.193  1.00  0.00    -0.269 OA
ATOM      4  H   UNL     1      33.405   7.283   5.607  1.00  0.00     0.170 HD
ENDROOT
BRANCH   1   5
ATOM      5  C   UNL     1      34.765   5.695   5.175  1.00  0.00     0.042 A 
ATOM      6  C   UNL     1      35.813   3.526   3.699  1.00  0.00    -0.022 A 
ATOM      7  C   UNL     1      35.564   4.768   3.085  1.00  0.00     0.008 A 
ATOM      8  C   UNL     1      35.539   3.369   5.088  1.00  0.00     0.062 A 
ATOM      9  C   UNL     1      35.047   5.837   3.811  1.00  0.00     0.026 A 
ATOM     10  C   UNL     1      35.036   4.475   5.807  1.00  0.00     0.039 A 
BRANCH   6  11
ATOM     11  C   UNL     1      36.396   2.418   2.840  1.00  0.00     0.120 C 
BRANCH  11  12
ATOM     12  N   UNL     1      35.614   2.205   1.601  1.00  0.00    -0.297 NA
ATOM     13  C   UNL     1      37.738  -1.243   0.565  1.00  0.00     0.105 C 
ATOM     14  N   UNL     1      37.068  -0.006   0.994  1.00  0.00    -0.304 NA
ATOM     15  C   UNL     1      35.725  -0.307   1.535  1.00  0.00     0.099 C 
ATOM     16  C   UNL     1      36.983   0.950  -0.121  1.00  0.00     0.099 C 
ATOM     17  C   UNL     1      34.831   0.949   1.605  1.00  0.00     0.100 C 
ATOM     18  C   UNL     1      36.453   2.312   0.382  1.00  0.00     0.100 C 
ENDBRANCH  11  12
ENDBRANCH   6  11
BRANCH   8  19
ATOM     19  C   UNL     1      35.818   2.070   5.828  1.00  0.00     0.416 C 
ATOM     20  F   UNL     1      35.210   2.050   7.072  1.00  0.00    -0.166 F 
ATOM     21  F   UNL     1      35.333   0.991   5.114  1.00  0.00    -0.166 F 
ATOM     22  F   UNL     1      37.179   1.922   6.017  1.00  0.00    -0.166 F 
ENDBRANCH   8  19
ENDBRANCH   1   5
BRANCH   2  23
ATOM     23  C   UNL     1      34.277   8.265   8.024  1.00  0.00     0.041 A 
ATOM     24  C   UNL     1      32.881   8.190   8.179  1.00  0.00     0.031 A 
ATOM     25  C   UNL     1      34.996   9.197   8.790  1.00  0.00     0.014 A 
ATOM     26  C   UNL     1      32.217   9.014   9.098  1.00  0.00     0.029 A 
ATOM     27  C   UNL     1      34.339  10.025   9.702  1.00  0.00     0.005 A 
ATOM     28  C   UNL     1      32.949   9.945   9.867  1.00  0.00    -0.035 A 
ATOM     29  C   UNL     1      32.265  10.830  10.875  1.00  0.00     0.045 C 
BRANCH  26  30
ATOM     30  C   UNL     1      30.787   8.882   9.250  1.00  0.00    -0.060 C 
ATOM     31  C   UNL     1      29.594   8.762   9.370  1.00  0.00    -0.040 C 
BRANCH  31  32
ATOM     32  C   UNL     1      28.171   8.611   9.506  1.00  0.00     0.135 A 
ATOM     33  C   UNL     1      27.430   7.460   9.300  1.00  0.00     0.151 A 
ATOM     34  N   UNL     1      27.316   9.574   9.864  1.00  0.00    -0.205 N 
ATOM     35  N   UNL     1      26.114   7.711   9.531  1.00  0.00    -0.234 NA
ATOM     36  C   UNL     1      26.100   9.017   9.873  1.00  0.00     0.154 A 
ATOM     37  N   UNL     1      27.555  10.849  10.165  1.00  0.00    -0.174 NA
ATOM     38  C   UNL     1      24.984   9.776  10.208  1.00  0.00     0.051 A 
ATOM     39  C   UNL     1      26.506  11.653  10.503  1.00  0.00     0.134 A 
ATOM     40  C   UNL     1      25.199  11.126  10.529  1.00  0.00     0.026 A 
ENDBRANCH  31  32
ENDBRANCH  26  30
ENDBRANCH   2  23
TORSDOF 7
ENDMDL
MODEL 8
REMARK VINA RESULT:    -9.741      4.642      7.261
REMARK INTER + INTRA:         -14.628
REMARK INTER:                 -14.016
REMARK INTRA:                  -0.612
REMARK UNBOUND:                -0.900
REMARK SMILES Cc1ccc(C(=O)Nc2ccc(CN3CCN(C)CC3)c(C(F)(F)F)c2)cc1C#Cc1cnc2cccnn12
REMARK SMILES IDX 8 1 6 2 7 3 9 5 12 6 11 7 21 8 10 9 26 10 13 11 14 12 18 13
REMARK SMILES IDX 17 14 16 15 19 16 15 17 20 18 22 19 23 20 24 21 25 22 5 23
REMARK SMILES IDX 27 24 4 25 28 26 3 27 2 28 1 29 29 30 30 31 31 32 32 33
REMARK SMILES IDX 39 34 33 35 34 36 38 37 35 38 37 39 36 40
REMARK H PARENT 8 4
REMARK Flexibility Score: inf
ROOT
ATOM      1  N   UNL     1      29.929   9.063  10.126  1.00  0.00    -0.322 N 
ATOM      2  C   UNL     1      28.826   9.140   9.207  1.00  0.00     0.255 C 
ATOM      3  O   UNL     1      28.977   8.749   8.016  1.00  0.00    -0.269 OA
ATOM      4  H   UNL     1      29.717   8.974  11.146  1.00  0.00     0.170 HD
ENDROOT
BRANCH   1   5
ATOM      5  C   UNL     1      31.301   8.930   9.715  1.00  0.00     0.042 A 
ATOM      6  C   UNL     1      34.001   8.602   8.954  1.00  0.00    -0.022 A 
ATOM      7  C   UNL     1      33.577   9.754   9.643  1.00  0.00     0.008 A 
ATOM      8  C   UNL     1      33.052   7.585   8.647  1.00  0.00     0.062 A 
ATOM      9  C   UNL     1      32.246   9.917  10.018  1.00  0.00     0.026 A 
ATOM     10  C   UNL     1      31.714   7.765   9.057  1.00  0.00     0.039 A 
BRANCH   6  11
ATOM     11  C   UNL     1      35.474   8.494   8.600  1.00  0.00     0.120 C 
BRANCH  11  12
ATOM     12  N   UNL     1      35.737   8.871   7.193  1.00  0.00    -0.297 NA
ATOM     13  C   UNL     1      37.523  12.500   8.244  1.00  0.00     0.105 C 
ATOM     14  N   UNL     1      36.854  11.221   7.969  1.00  0.00    -0.304 NA
ATOM     15  C   UNL     1      37.841  10.197   7.564  1.00  0.00     0.099 C 
ATOM     16  C   UNL     1      35.819  11.389   6.937  1.00  0.00     0.099 C 
ATOM     17  C   UNL     1      37.176   8.988   6.872  1.00  0.00     0.100 C 
ATOM     18  C   UNL     1      34.994  10.090   6.790  1.00  0.00     0.100 C 
ENDBRANCH  11  12
ENDBRANCH   6  11
BRANCH   8  19
ATOM     19  C   UNL     1      33.444   6.297   7.940  1.00  0.00     0.416 C 
ATOM     20  F   UNL     1      34.626   5.779   8.440  1.00  0.00    -0.166 F 
ATOM     21  F   UNL     1      32.467   5.334   8.109  1.00  0.00    -0.166 F 
ATOM     22  F   UNL     1      33.622   6.539   6.591  1.00  0.00    -0.166 F 
ENDBRANCH   8  19
ENDBRANCH   1   5
BRANCH   2  23
ATOM     23  C   UNL     1      27.494   9.612   9.657  1.00  0.00     0.041 A 
ATOM     24  C   UNL     1      27.309  10.953  10.039  1.00  0.00     0.031 A 
ATOM     25  C   UNL     1      26.400   8.734   9.712  1.00  0.00     0.014 A 
ATOM     26  C   UNL     1      26.050  11.414  10.448  1.00  0.00     0.029 A 
ATOM     27  C   UNL     1      25.145   9.186  10.124  1.00  0.00     0.005 A 
ATOM     28  C   UNL     1      24.955  10.524  10.497  1.00  0.00    -0.035 A 
ATOM     29  C   UNL     1      23.587  10.996  10.913  1.00  0.00     0.045 C 
BRANCH  26  30
ATOM     30  C   UNL     1      25.896  12.806  10.802  1.00  0.00    -0.060 C 
ATOM     31  C   UNL     1      25.756  13.967  11.092  1.00  0.00    -0.040 C 
BRANCH  31  32
ATOM     32  C   UNL     1      25.580  15.352  11.433  1.00  0.00     0.135 A 
ATOM     33  C   UNL     1      24.583  15.898  12.223  1.00  0.00     0.151 A 
ATOM     34  N   UNL     1      26.368  16.357  11.040  1.00  0.00    -0.205 N 
ATOM     35  N   UNL     1      24.754  17.243  12.318  1.00  0.00    -0.234 NA
ATOM     36  C   UNL     1      25.859  17.471  11.577  1.00  0.00     0.154 A 
ATOM     37  N   UNL     1      27.455  16.329  10.271  1.00  0.00    -0.174 NA
ATOM     38  C   UNL     1      26.465  18.701  11.345  1.00  0.00     0.051 A 
ATOM     39  C   UNL     1      28.101  17.500  10.001  1.00  0.00     0.134 A 
ATOM     40  C   UNL     1      27.612  18.710  10.536  1.00  0.00     0.026 A 
ENDBRANCH  31  32
ENDBRANCH  26  30
ENDBRANCH   2  23
TORSDOF 7
ENDMDL
MODEL 9
REMARK VINA RESULT:    -9.631      3.034      4.696
REMARK INTER + INTRA:         -14.472
REMARK INTER:                 -13.427
REMARK INTRA:                  -1.045
REMARK UNBOUND:                -0.900
REMARK SMILES Cc1ccc(C(=O)Nc2ccc(CN3CCN(C)CC3)c(C(F)(F)F)c2)cc1C#Cc1cnc2cccnn12
REMARK SMILES IDX 8 1 6 2 7 3 9 5 12 6 11 7 21 8 10 9 26 10 13 11 14 12 18 13
REMARK SMILES IDX 17 14 16 15 19 16 15 17 20 18 22 19 23 20 24 21 25 22 5 23
REMARK SMILES IDX 27 24 4 25 28 26 3 27 2 28 1 29 29 30 30 31 31 32 32 33
REMARK SMILES IDX 39 34 33 35 34 36 38 37 35 38 37 39 36 40
REMARK H PARENT 8 4
REMARK Flexibility Score: inf
ROOT
ATOM      1  N   UNL     1      32.768  10.847   8.848  1.00  0.00    -0.322 N 
ATOM      2  C   UNL     1      32.441  11.222  10.196  1.00  0.00     0.255 C 
ATOM      3  O   UNL     1      33.070  10.701  11.159  1.00  0.00    -0.269 OA
ATOM      4  H   UNL     1      32.580  11.536   8.083  1.00  0.00     0.170 HD
ENDROOT
BRANCH   1   5
ATOM      5  C   UNL     1      33.493   9.652   8.506  1.00  0.00     0.042 A 
ATOM      6  C   UNL     1      34.915   7.330   7.757  1.00  0.00    -0.022 A 
ATOM      7  C   UNL     1      33.633   7.241   8.331  1.00  0.00     0.008 A 
ATOM      8  C   UNL     1      35.496   8.613   7.546  1.00  0.00     0.062 A 
ATOM      9  C   UNL     1      32.931   8.385   8.701  1.00  0.00     0.026 A 
ATOM     10  C   UNL     1      34.755   9.758   7.909  1.00  0.00     0.039 A 
BRANCH   6  11
ATOM     11  C   UNL     1      35.604   6.035   7.364  1.00  0.00     0.120 C 
BRANCH  11  12
ATOM     12  N   UNL     1      34.672   5.083   6.717  1.00  0.00    -0.297 NA
ATOM     13  C   UNL     1      37.717   2.390   5.741  1.00  0.00     0.105 C 
ATOM     14  N   UNL     1      36.719   3.409   6.098  1.00  0.00    -0.304 NA
ATOM     15  C   UNL     1      35.906   2.957   7.247  1.00  0.00     0.099 C 
ATOM     16  C   UNL     1      35.865   3.725   4.943  1.00  0.00     0.099 C 
ATOM     17  C   UNL     1      34.602   3.771   7.395  1.00  0.00     0.100 C 
ATOM     18  C   UNL     1      34.948   4.926   5.267  1.00  0.00     0.100 C 
ENDBRANCH  11  12
ENDBRANCH   6  11
BRANCH   8  19
ATOM     19  C   UNL     1      36.860   8.789   6.897  1.00  0.00     0.416 C 
ATOM     20  F   UNL     1      37.864   8.211   7.655  1.00  0.00    -0.166 F 
ATOM     21  F   UNL     1      36.886   8.191   5.652  1.00  0.00    -0.166 F 
ATOM     22  F   UNL     1      37.146  10.135   6.766  1.00  0.00    -0.166 F 
ENDBRANCH   8  19
ENDBRANCH   1   5
BRANCH   2  23
ATOM     23  C   UNL     1      31.418  12.261  10.469  1.00  0.00     0.041 A 
ATOM     24  C   UNL     1      30.060  11.909  10.572  1.00  0.00     0.031 A 
ATOM     25  C   UNL     1      31.784  13.607  10.626  1.00  0.00     0.014 A 
ATOM     26  C   UNL     1      29.088  12.880  10.848  1.00  0.00     0.029 A 
ATOM     27  C   UNL     1      30.819  14.580  10.895  1.00  0.00     0.005 A 
ATOM     28  C   UNL     1      29.466  14.231  11.008  1.00  0.00    -0.035 A 
ATOM     29  C   UNL     1      28.445  15.292  11.324  1.00  0.00     0.045 C 
BRANCH  26  30
ATOM     30  C   UNL     1      27.709  12.472  10.977  1.00  0.00    -0.060 C 
ATOM     31  C   UNL     1      26.561  12.119  11.083  1.00  0.00    -0.040 C 
BRANCH  31  32
ATOM     32  C   UNL     1      25.195  11.689  11.207  1.00  0.00     0.135 A 
ATOM     33  C   UNL     1      24.131  12.421  11.707  1.00  0.00     0.151 A 
ATOM     34  N   UNL     1      24.719  10.493  10.848  1.00  0.00    -0.205 N 
ATOM     35  N   UNL     1      22.996  11.675  11.659  1.00  0.00    -0.234 NA
ATOM     36  C   UNL     1      23.411  10.506  11.125  1.00  0.00     0.154 A 
ATOM     37  N   UNL     1      25.358   9.452  10.317  1.00  0.00    -0.174 NA
ATOM     38  C   UNL     1      22.627   9.388  10.863  1.00  0.00     0.051 A 
ATOM     39  C   UNL     1      24.652   8.320  10.034  1.00  0.00     0.134 A 
ATOM     40  C   UNL     1      23.269   8.271  10.305  1.00  0.00     0.026 A 
ENDBRANCH  31  32
ENDBRANCH  26  30
ENDBRANCH   2  23
TORSDOF 7
ENDMDL
MODEL 10
REMARK VINA RESULT:    -9.587      2.639      4.350
REMARK INTER + INTRA:         -14.410
REMARK INTER:                 -13.343
REMARK INTRA:                  -1.067
REMARK UNBOUND:                -0.900
REMARK SMILES Cc1ccc(C(=O)Nc2ccc(CN3CCN(C)CC3)c(C(F)(F)F)c2)cc1C#Cc1cnc2cccnn12
REMARK SMILES IDX 8 1 6 2 7 3 9 5 12 6 11 7 21 8 10 9 26 10 13 11 14 12 18 13
REMARK SMILES IDX 17 14 16 15 19 16 15 17 20 18 22 19 23 20 24 21 25 22 5 23
REMARK SMILES IDX 27 24 4 25 28 26 3 27 2 28 1 29 29 30 30 31 31 32 32 33
REMARK SMILES IDX 39 34 33 35 34 36 38 37 35 38 37 39 36 40
REMARK H PARENT 8 4
REMARK Flexibility Score: inf
ROOT
ATOM      1  N   UNL     1      33.060  10.773   8.839  1.00  0.00    -0.322 N 
ATOM      2  C   UNL     1      32.537  10.997  10.160  1.00  0.00     0.255 C 
ATOM      3  O   UNL     1      32.989  10.330  11.132  1.00  0.00    -0.269 OA
ATOM      4  H   UNL     1      33.018  11.559   8.151  1.00  0.00     0.170 HD
ENDROOT
BRANCH   1   5
ATOM      5  C   UNL     1      33.789   9.592   8.461  1.00  0.00     0.042 A 
ATOM      6  C   UNL     1      35.210   7.244   7.793  1.00  0.00    -0.022 A 
ATOM      7  C   UNL     1      35.837   8.504   7.762  1.00  0.00     0.008 A 
ATOM      8  C   UNL     1      33.841   7.157   8.177  1.00  0.00     0.062 A 
ATOM      9  C   UNL     1      35.137   9.662   8.090  1.00  0.00     0.026 A 
ATOM     10  C   UNL     1      33.161   8.342   8.526  1.00  0.00     0.039 A 
BRANCH   6  11
ATOM     11  C   UNL     1      36.050   6.030   7.440  1.00  0.00     0.120 C 
BRANCH  11  12
ATOM     12  N   UNL     1      36.726   6.181   6.131  1.00  0.00    -0.297 NA
ATOM     13  C   UNL     1      35.866   2.263   4.958  1.00  0.00     0.105 C 
ATOM     14  N   UNL     1      36.149   3.613   5.468  1.00  0.00    -0.304 NA
ATOM     15  C   UNL     1      35.285   4.609   4.799  1.00  0.00     0.099 C 
ATOM     16  C   UNL     1      37.570   3.947   5.291  1.00  0.00     0.099 C 
ATOM     17  C   UNL     1      35.812   6.049   4.975  1.00  0.00     0.100 C 
ATOM     18  C   UNL     1      37.898   5.282   5.997  1.00  0.00     0.100 C 
ENDBRANCH  11  12
ENDBRANCH   6  11
BRANCH   8  19
ATOM     19  C   UNL     1      33.109   5.828   8.270  1.00  0.00     0.416 C 
ATOM     20  F   UNL     1      33.274   5.071   7.122  1.00  0.00    -0.166 F 
ATOM     21  F   UNL     1      33.590   5.081   9.329  1.00  0.00    -0.166 F 
ATOM     22  F   UNL     1      31.756   6.050   8.443  1.00  0.00    -0.166 F 
ENDBRANCH   8  19
ENDBRANCH   1   5
BRANCH   2  23
ATOM     23  C   UNL     1      31.519  12.047  10.405  1.00  0.00     0.041 A 
ATOM     24  C   UNL     1      30.159  11.706  10.511  1.00  0.00     0.031 A 
ATOM     25  C   UNL     1      31.892  13.395  10.534  1.00  0.00     0.014 A 
ATOM     26  C   UNL     1      29.191  12.688  10.761  1.00  0.00     0.029 A 
ATOM     27  C   UNL     1      30.931  14.378  10.777  1.00  0.00     0.005 A 
ATOM     28  C   UNL     1      29.576  14.039  10.892  1.00  0.00    -0.035 A 
ATOM     29  C   UNL     1      28.560  15.113  11.181  1.00  0.00     0.045 C 
BRANCH  26  30
ATOM     30  C   UNL     1      27.809  12.290  10.894  1.00  0.00    -0.060 C 
ATOM     31  C   UNL     1      26.659  11.946  11.006  1.00  0.00    -0.040 C 
BRANCH  31  32
ATOM     32  C   UNL     1      25.291  11.527  11.140  1.00  0.00     0.135 A 
ATOM     33  C   UNL     1      24.231  12.275  11.625  1.00  0.00     0.151 A 
ATOM     34  N   UNL     1      24.808  10.326  10.808  1.00  0.00    -0.205 N 
ATOM     35  N   UNL     1      23.092  11.535  11.594  1.00  0.00    -0.234 NA
ATOM     36  C   UNL     1      23.500  10.352  11.086  1.00  0.00     0.154 A 
ATOM     37  N   UNL     1      25.441   9.270  10.300  1.00  0.00    -0.174 NA
ATOM     38  C   UNL     1      22.710   9.233  10.849  1.00  0.00     0.051 A 
ATOM     39  C   UNL     1      24.728   8.136  10.042  1.00  0.00     0.134 A 
ATOM     40  C   UNL     1      23.345   8.100  10.315  1.00  0.00     0.026 A 
ENDBRANCH  31  32
ENDBRANCH  26  30
ENDBRANCH   2  23
TORSDOF 7
ENDMDL
MODEL 11
REMARK VINA RESULT:    -9.566      8.025     15.835
REMARK INTER + INTRA:         -14.381
REMARK INTER:                 -13.229
REMARK INTRA:                  -1.151
REMARK UNBOUND:                -0.900
REMARK SMILES Cc1ccc(C(=O)Nc2ccc(CN3CCN(C)CC3)c(C(F)(F)F)c2)cc1C#Cc1cnc2cccnn12
REMARK SMILES IDX 8 1 6 2 7 3 9 5 12 6 11 7 21 8 10 9 26 10 13 11 14 12 18 13
REMARK SMILES IDX 17 14 16 15 19 16 15 17 20 18 22 19 23 20 24 21 25 22 5 23
REMARK SMILES IDX 27 24 4 25 28 26 3 27 2 28 1 29 29 30 30 31 31 32 32 33
REMARK SMILES IDX 39 34 33 35 34 36 38 37 35 38 37 39 36 40
REMARK H PARENT 8 4
REMARK Flexibility Score: inf
ROOT
ATOM      1  N   UNL     1      26.364  15.574  11.073  1.00  0.00    -0.322 N 
ATOM      2  C   UNL     1      25.255  14.782  11.530  1.00  0.00     0.255 C 
ATOM      3  O   UNL     1      24.333  15.326  12.200  1.00  0.00    -0.269 OA
ATOM      4  H   UNL     1      26.871  15.263  10.212  1.00  0.00     0.170 HD
ENDROOT
BRANCH   1   5
ATOM      5  C   UNL     1      26.710  16.855  11.626  1.00  0.00     0.042 A 
ATOM      6  C   UNL     1      27.374  19.343  12.788  1.00  0.00    -0.022 A 
ATOM      7  C   UNL     1      26.302  19.228  11.882  1.00  0.00     0.008 A 
ATOM      8  C   UNL     1      28.126  18.182  13.127  1.00  0.00     0.062 A 
ATOM      9  C   UNL     1      25.974  18.003  11.309  1.00  0.00     0.026 A 
ATOM     10  C   UNL     1      27.760  16.948  12.549  1.00  0.00     0.039 A 
BRANCH   6  11
ATOM     11  C   UNL     1      27.652  20.712  13.383  1.00  0.00     0.120 C 
BRANCH  11  12
ATOM     12  N   UNL     1      26.492  21.235  14.142  1.00  0.00    -0.297 NA
ATOM     13  C   UNL     1      28.788  22.102  17.525  1.00  0.00     0.105 C 
ATOM     14  N   UNL     1      28.057  21.736  16.303  1.00  0.00    -0.304 NA
ATOM     15  C   UNL     1      27.712  22.945  15.525  1.00  0.00     0.099 C 
ATOM     16  C   UNL     1      26.851  20.961  16.633  1.00  0.00     0.099 C 
ATOM     17  C   UNL     1      26.608  22.670  14.481  1.00  0.00     0.100 C 
ATOM     18  C   UNL     1      26.194  20.419  15.344  1.00  0.00     0.100 C 
ENDBRANCH  11  12
ENDBRANCH   6  11
BRANCH   8  19
ATOM     19  C   UNL     1      29.271  18.221  14.125  1.00  0.00     0.416 C 
ATOM     20  F   UNL     1      28.846  18.636  15.376  1.00  0.00    -0.166 F 
ATOM     21  F   UNL     1      29.828  16.964  14.275  1.00  0.00    -0.166 F 
ATOM     22  F   UNL     1      30.242  19.104  13.691  1.00  0.00    -0.166 F 
ENDBRANCH   8  19
ENDBRANCH   1   5
BRANCH   2  23
ATOM     23  C   UNL     1      25.147  13.347  11.171  1.00  0.00     0.041 A 
ATOM     24  C   UNL     1      26.298  12.609  10.843  1.00  0.00     0.031 A 
ATOM     25  C   UNL     1      23.899  12.702  11.150  1.00  0.00     0.014 A 
ATOM     26  C   UNL     1      26.209  11.248  10.521  1.00  0.00     0.029 A 
ATOM     27  C   UNL     1      23.804  11.348  10.823  1.00  0.00     0.005 A 
ATOM     28  C   UNL     1      24.951  10.608  10.505  1.00  0.00    -0.035 A 
ATOM     29  C   UNL     1      24.827   9.142  10.181  1.00  0.00     0.045 C 
BRANCH  26  30
ATOM     30  C   UNL     1      27.420  10.519  10.221  1.00  0.00    -0.060 C 
ATOM     31  C   UNL     1      28.436   9.918   9.980  1.00  0.00    -0.040 C 
BRANCH  31  32
ATOM     32  C   UNL     1      29.653   9.206   9.699  1.00  0.00     0.135 A 
ATOM     33  C   UNL     1      29.772   7.936   9.160  1.00  0.00     0.151 A 
ATOM     34  N   UNL     1      30.890   9.664   9.912  1.00  0.00    -0.205 N 
ATOM     35  N   UNL     1      31.086   7.608   9.040  1.00  0.00    -0.234 NA
ATOM     36  C   UNL     1      31.726   8.699   9.513  1.00  0.00     0.154 A 
ATOM     37  N   UNL     1      31.285  10.832  10.415  1.00  0.00    -0.174 NA
ATOM     38  C   UNL     1      33.101   8.877   9.612  1.00  0.00     0.051 A 
ATOM     39  C   UNL     1      32.621  11.076  10.542  1.00  0.00     0.134 A 
ATOM     40  C   UNL     1      33.554  10.097  10.141  1.00  0.00     0.026 A 
ENDBRANCH  31  32
ENDBRANCH  26  30
ENDBRANCH   2  23
TORSDOF 7
ENDMDL
MODEL 12
REMARK VINA RESULT:    -9.532      7.324     15.236
REMARK INTER + INTRA:         -14.332
REMARK INTER:                 -13.692
REMARK INTRA:                  -0.640
REMARK UNBOUND:                -0.900
REMARK SMILES Cc1ccc(C(=O)Nc2ccc(CN3CCN(C)CC3)c(C(F)(F)F)c2)cc1C#Cc1cnc2cccnn12
REMARK SMILES IDX 8 1 6 2 7 3 9 5 12 6 11 7 21 8 10 9 26 10 13 11 14 12 18 13
REMARK SMILES IDX 17 14 16 15 19 16 15 17 20 18 22 19 23 20 24 21 25 22 5 23
REMARK SMILES IDX 27 24 4 25 28 26 3 27 2 28 1 29 29 30 30 31 31 32 32 33
REMARK SMILES IDX 39 34 33 35 34 36 38 37 35 38 37 39 36 40
REMARK H PARENT 8 4
REMARK Flexibility Score: inf
ROOT
ATOM      1  N   UNL     1      25.989  13.613  10.539  1.00  0.00    -0.322 N 
ATOM      2  C   UNL     1      25.204  12.517  11.039  1.00  0.00     0.255 C 
ATOM      3  O   UNL     1      24.220  12.748  11.796  1.00  0.00    -0.269 OA
ATOM      4  H   UNL     1      26.494  13.486   9.632  1.00  0.00     0.170 HD
ENDROOT
BRANCH   1   5
ATOM      5  C   UNL     1      25.984  14.927  11.123  1.00  0.00     0.042 A 
ATOM      6  C   UNL     1      26.027  17.483  12.326  1.00  0.00    -0.022 A 
ATOM      7  C   UNL     1      24.831  16.747  12.229  1.00  0.00     0.008 A 
ATOM      8  C   UNL     1      27.233  16.922  11.816  1.00  0.00     0.062 A 
ATOM      9  C   UNL     1      24.809  15.487  11.636  1.00  0.00     0.026 A 
ATOM     10  C   UNL     1      27.187  15.635  11.239  1.00  0.00     0.039 A 
BRANCH   6  11
ATOM     11  C   UNL     1      25.968  18.839  13.006  1.00  0.00     0.120 C 
BRANCH  11  12
ATOM     12  N   UNL     1      25.107  19.793  12.270  1.00  0.00    -0.297 NA
ATOM     13  C   UNL     1      26.211  23.024  14.682  1.00  0.00     0.105 C 
ATOM     14  N   UNL     1      25.859  21.825  13.907  1.00  0.00    -0.304 NA
ATOM     15  C   UNL     1      26.511  21.856  12.581  1.00  0.00     0.099 C 
ATOM     16  C   UNL     1      24.398  21.706  13.771  1.00  0.00     0.099 C 
ATOM     17  C   UNL     1      25.863  20.867  11.589  1.00  0.00     0.100 C 
ATOM     18  C   UNL     1      24.030  20.352  13.124  1.00  0.00     0.100 C 
ENDBRANCH  11  12
ENDBRANCH   6  11
BRANCH   8  19
ATOM     19  C   UNL     1      28.568  17.640  11.919  1.00  0.00     0.416 C 
ATOM     20  F   UNL     1      29.592  16.901  11.349  1.00  0.00    -0.166 F 
ATOM     21  F   UNL     1      28.519  18.854  11.259  1.00  0.00    -0.166 F 
ATOM     22  F   UNL     1      28.885  17.853  13.247  1.00  0.00    -0.166 F 
ENDBRANCH   8  19
ENDBRANCH   1   5
BRANCH   2  23
ATOM     23  C   UNL     1      25.496  11.123  10.626  1.00  0.00     0.041 A 
ATOM     24  C   UNL     1      26.819  10.720  10.374  1.00  0.00     0.031 A 
ATOM     25  C   UNL     1      24.461  10.185  10.478  1.00  0.00     0.014 A 
ATOM     26  C   UNL     1      27.108   9.400  10.001  1.00  0.00     0.029 A 
ATOM     27  C   UNL     1      24.743   8.870  10.101  1.00  0.00     0.005 A 
ATOM     28  C   UNL     1      26.062   8.464   9.858  1.00  0.00    -0.035 A 
ATOM     29  C   UNL     1      26.344   7.034   9.477  1.00  0.00     0.045 C 
BRANCH  26  30
ATOM     30  C   UNL     1      28.484   9.021   9.781  1.00  0.00    -0.060 C 
ATOM     31  C   UNL     1      29.636   8.715   9.601  1.00  0.00    -0.040 C 
BRANCH  31  32
ATOM     32  C   UNL     1      31.012   8.361   9.385  1.00  0.00     0.135 A 
ATOM     33  C   UNL     1      31.509   7.119   9.027  1.00  0.00     0.151 A 
ATOM     34  N   UNL     1      32.056   9.189   9.493  1.00  0.00    -0.205 N 
ATOM     35  N   UNL     1      32.862   7.179   8.914  1.00  0.00    -0.234 NA
ATOM     36  C   UNL     1      33.145   8.466   9.209  1.00  0.00     0.154 A 
ATOM     37  N   UNL     1      32.082  10.481   9.815  1.00  0.00    -0.174 NA
ATOM     38  C   UNL     1      34.404   9.054   9.239  1.00  0.00     0.051 A 
ATOM     39  C   UNL     1      33.284  11.123   9.865  1.00  0.00     0.134 A 
ATOM     40  C   UNL     1      34.469  10.415   9.577  1.00  0.00     0.026 A 
ENDBRANCH  31  32
ENDBRANCH  26  30
ENDBRANCH   2  23
TORSDOF 7
ENDMDL
MODEL 13
REMARK VINA RESULT:    -9.491      2.306      3.186
REMARK INTER + INTRA:         -14.275
REMARK INTER:                 -13.166
REMARK INTRA:                  -1.108
REMARK UNBOUND:                -0.900
REMARK SMILES Cc1ccc(C(=O)Nc2ccc(CN3CCN(C)CC3)c(C(F)(F)F)c2)cc1C#Cc1cnc2cccnn12
REMARK SMILES IDX 8 1 6 2 7 3 9 5 12 6 11 7 21 8 10 9 26 10 13 11 14 12 18 13
REMARK SMILES IDX 17 14 16 15 19 16 15 17 20 18 22 19 23 20 24 21 25 22 5 23
REMARK SMILES IDX 27 24 4 25 28 26 3 27 2 28 1 29 29 30 30 31 31 32 32 33
REMARK SMILES IDX 39 34 33 35 34 36 38 37 35 38 37 39 36 40
REMARK H PARENT 8 4
REMARK Flexibility Score: inf
ROOT
ATOM      1  N   UNL     1      35.857   6.708   7.413  1.00  0.00    -0.322 N 
ATOM      2  C   UNL     1      34.481   6.958   7.748  1.00  0.00     0.255 C 
ATOM      3  O   UNL     1      33.598   6.113   7.431  1.00  0.00    -0.269 OA
ATOM      4  H   UNL     1      36.598   7.146   8.007  1.00  0.00     0.170 HD
ENDROOT
BRANCH   1   5
ATOM      5  C   UNL     1      36.275   5.756   6.419  1.00  0.00     0.042 A 
ATOM      6  C   UNL     1      37.018   3.881   4.441  1.00  0.00    -0.022 A 
ATOM      7  C   UNL     1      37.196   3.601   5.809  1.00  0.00     0.008 A 
ATOM      8  C   UNL     1      36.445   5.127   4.055  1.00  0.00     0.062 A 
ATOM      9  C   UNL     1      36.831   4.525   6.785  1.00  0.00     0.026 A 
ATOM     10  C   UNL     1      36.063   6.037   5.064  1.00  0.00     0.039 A 
BRANCH   6  11
ATOM     11  C   UNL     1      37.424   2.812   3.443  1.00  0.00     0.120 C 
BRANCH  11  12
ATOM     12  N   UNL     1      36.990   1.461   3.866  1.00  0.00    -0.297 NA
ATOM     13  C   UNL     1      35.993   0.299  -0.024  1.00  0.00     0.105 C 
ATOM     14  N   UNL     1      36.341   0.806   1.312  1.00  0.00    -0.304 NA
ATOM     15  C   UNL     1      37.614   0.213   1.774  1.00  0.00     0.099 C 
ATOM     16  C   UNL     1      35.257   0.534   2.269  1.00  0.00     0.099 C 
ATOM     17  C   UNL     1      37.812   0.371   3.297  1.00  0.00     0.100 C 
ATOM     18  C   UNL     1      35.545   1.232   3.616  1.00  0.00     0.100 C 
ENDBRANCH  11  12
ENDBRANCH   6  11
BRANCH   8  19
ATOM     19  C   UNL     1      36.187   5.484   2.600  1.00  0.00     0.416 C 
ATOM     20  F   UNL     1      37.343   5.406   1.841  1.00  0.00    -0.166 F 
ATOM     21  F   UNL     1      35.268   4.615   2.042  1.00  0.00    -0.166 F 
ATOM     22  F   UNL     1      35.707   6.777   2.513  1.00  0.00    -0.166 F 
ENDBRANCH   8  19
ENDBRANCH   1   5
BRANCH   2  23
ATOM     23  C   UNL     1      34.094   8.167   8.516  1.00  0.00     0.041 A 
ATOM     24  C   UNL     1      32.737   8.481   8.707  1.00  0.00     0.031 A 
ATOM     25  C   UNL     1      35.071   9.016   9.061  1.00  0.00     0.014 A 
ATOM     26  C   UNL     1      32.361   9.610   9.447  1.00  0.00     0.029 A 
ATOM     27  C   UNL     1      34.701  10.145   9.794  1.00  0.00     0.005 A 
ATOM     28  C   UNL     1      33.349  10.456   9.994  1.00  0.00    -0.035 A 
ATOM     29  C   UNL     1      32.974  11.666  10.810  1.00  0.00     0.045 C 
BRANCH  26  30
ATOM     30  C   UNL     1      30.956   9.880   9.646  1.00  0.00    -0.060 C 
ATOM     31  C   UNL     1      29.781  10.097   9.803  1.00  0.00    -0.040 C 
BRANCH  31  32
ATOM     32  C   UNL     1      28.377  10.351   9.982  1.00  0.00     0.135 A 
ATOM     33  C   UNL     1      27.776  11.571  10.243  1.00  0.00     0.151 A 
ATOM     34  N   UNL     1      27.405   9.436   9.919  1.00  0.00    -0.205 N 
ATOM     35  N   UNL     1      26.430  11.409  10.342  1.00  0.00    -0.234 NA
ATOM     36  C   UNL     1      26.257  10.086  10.136  1.00  0.00     0.154 A 
ATOM     37  N   UNL     1      27.489   8.127   9.690  1.00  0.00    -0.174 NA
ATOM     38  C   UNL     1      25.050   9.396  10.135  1.00  0.00     0.051 A 
ATOM     39  C   UNL     1      26.344   7.386   9.676  1.00  0.00     0.134 A 
ATOM     40  C   UNL     1      25.101   8.013   9.900  1.00  0.00     0.026 A 
ENDBRANCH  31  32
ENDBRANCH  26  30
ENDBRANCH   2  23
TORSDOF 7
ENDMDL
MODEL 14
REMARK VINA RESULT:    -9.453      8.322     15.864
REMARK INTER + INTRA:         -14.221
REMARK INTER:                 -13.289
REMARK INTRA:                  -0.932
REMARK UNBOUND:                -0.900
REMARK SMILES Cc1ccc(C(=O)Nc2ccc(CN3CCN(C)CC3)c(C(F)(F)F)c2)cc1C#Cc1cnc2cccnn12
REMARK SMILES IDX 8 1 6 2 7 3 9 5 12 6 11 7 21 8 10 9 26 10 13 11 14 12 18 13
REMARK SMILES IDX 17 14 16 15 19 16 15 17 20 18 22 19 23 20 24 21 25 22 5 23
REMARK SMILES IDX 27 24 4 25 28 26 3 27 2 28 1 29 29 30 30 31 31 32 32 33
REMARK SMILES IDX 39 34 33 35 34 36 38 37 35 38 37 39 36 40
REMARK H PARENT 8 4
REMARK Flexibility Score: inf
ROOT
ATOM      1  N   UNL     1      26.547  14.736  10.771  1.00  0.00    -0.322 N 
ATOM      2  C   UNL     1      25.469  13.862  11.147  1.00  0.00     0.255 C 
ATOM      3  O   UNL     1      24.460  14.335  11.742  1.00  0.00    -0.269 OA
ATOM      4  H   UNL     1      27.141  14.465   9.954  1.00  0.00     0.170 HD
ENDROOT
BRANCH   1   5
ATOM      5  C   UNL     1      26.752  16.040  11.342  1.00  0.00     0.042 A 
ATOM      6  C   UNL     1      27.152  18.633  12.389  1.00  0.00    -0.022 A 
ATOM      7  C   UNL     1      28.123  17.627  12.552  1.00  0.00     0.008 A 
ATOM      8  C   UNL     1      25.955  18.335  11.677  1.00  0.00     0.062 A 
ATOM      9  C   UNL     1      27.927  16.349  12.037  1.00  0.00     0.026 A 
ATOM     10  C   UNL     1      25.790  17.038  11.146  1.00  0.00     0.039 A 
BRANCH   6  11
ATOM     11  C   UNL     1      27.453  20.005  12.964  1.00  0.00     0.120 C 
BRANCH  11  12
ATOM     12  N   UNL     1      27.870  19.935  14.383  1.00  0.00    -0.297 NA
ATOM     13  C   UNL     1      25.415  23.124  15.514  1.00  0.00     0.105 C 
ATOM     14  N   UNL     1      26.269  22.034  15.019  1.00  0.00    -0.304 NA
ATOM     15  C   UNL     1      25.722  20.723  15.427  1.00  0.00     0.099 C 
ATOM     16  C   UNL     1      27.650  22.199  15.497  1.00  0.00     0.099 C 
ATOM     17  C   UNL     1      26.766  19.592  15.307  1.00  0.00     0.100 C 
ATOM     18  C   UNL     1      28.577  21.164  14.822  1.00  0.00     0.100 C 
ENDBRANCH  11  12
ENDBRANCH   6  11
BRANCH   8  19
ATOM     19  C   UNL     1      24.878  19.379  11.428  1.00  0.00     0.416 C 
ATOM     20  F   UNL     1      24.239  19.744  12.601  1.00  0.00    -0.166 F 
ATOM     21  F   UNL     1      25.429  20.525  10.886  1.00  0.00    -0.166 F 
ATOM     22  F   UNL     1      23.926  18.874  10.564  1.00  0.00    -0.166 F 
ENDBRANCH   8  19
ENDBRANCH   1   5
BRANCH   2  23
ATOM     23  C   UNL     1      25.498  12.423  10.789  1.00  0.00     0.041 A 
ATOM     24  C   UNL     1      26.721  11.782  10.526  1.00  0.00     0.031 A 
ATOM     25  C   UNL     1      24.310  11.679  10.705  1.00  0.00     0.014 A 
ATOM     26  C   UNL     1      26.761  10.418  10.205  1.00  0.00     0.029 A 
ATOM     27  C   UNL     1      24.343  10.322  10.379  1.00  0.00     0.005 A 
ATOM     28  C   UNL     1      25.562   9.677  10.126  1.00  0.00    -0.035 A 
ATOM     29  C   UNL     1      25.576   8.207   9.802  1.00  0.00     0.045 C 
BRANCH  26  30
ATOM     30  C   UNL     1      28.041   9.791   9.973  1.00  0.00    -0.060 C 
ATOM     31  C   UNL     1      29.115   9.279   9.781  1.00  0.00    -0.040 C 
BRANCH  31  32
ATOM     32  C   UNL     1      30.400   8.677   9.551  1.00  0.00     0.135 A 
ATOM     33  C   UNL     1      30.663   7.344   9.285  1.00  0.00     0.151 A 
ATOM     34  N   UNL     1      31.573   9.319   9.552  1.00  0.00    -0.205 N 
ATOM     35  N   UNL     1      31.999   7.161   9.122  1.00  0.00    -0.234 NA
ATOM     36  C   UNL     1      32.509   8.399   9.295  1.00  0.00     0.154 A 
ATOM     37  N   UNL     1      31.831  10.609   9.759  1.00  0.00    -0.174 NA
ATOM     38  C   UNL     1      33.850   8.762   9.232  1.00  0.00     0.051 A 
ATOM     39  C   UNL     1      33.125  11.037   9.713  1.00  0.00     0.134 A 
ATOM     40  C   UNL     1      34.159  10.115   9.448  1.00  0.00     0.026 A 
ENDBRANCH  31  32
ENDBRANCH  26  30
ENDBRANCH   2  23
TORSDOF 7
ENDMDL
MODEL 15
REMARK VINA RESULT:    -9.387      3.813      6.138
REMARK INTER + INTRA:         -14.128
REMARK INTER:                 -13.260
REMARK INTRA:                  -0.868
REMARK UNBOUND:                -0.900
REMARK SMILES Cc1ccc(C(=O)Nc2ccc(CN3CCN(C)CC3)c(C(F)(F)F)c2)cc1C#Cc1cnc2cccnn12
REMARK SMILES IDX 8 1 6 2 7 3 9 5 12 6 11 7 21 8 10 9 26 10 13 11 14 12 18 13
REMARK SMILES IDX 17 14 16 15 19 16 15 17 20 18 22 19 23 20 24 21 25 22 5 23
REMARK SMILES IDX 27 24 4 25 28 26 3 27 2 28 1 29 29 30 30 31 31 32 32 33
REMARK SMILES IDX 39 34 33 35 34 36 38 37 35 38 37 39 36 40
REMARK H PARENT 8 4
REMARK Flexibility Score: inf
ROOT
ATOM      1  N   UNL     1      30.124   8.656   9.861  1.00  0.00    -0.322 N 
ATOM      2  C   UNL     1      28.831   8.481   9.258  1.00  0.00     0.255 C 
ATOM      3  O   UNL     1      28.655   7.560   8.412  1.00  0.00    -0.269 OA
ATOM      4  H   UNL     1      30.172   9.092  10.811  1.00  0.00     0.170 HD
ENDROOT
BRANCH   1   5
ATOM      5  C   UNL     1      31.338   8.115   9.313  1.00  0.00     0.042 A 
ATOM      6  C   UNL     1      33.710   7.093   8.167  1.00  0.00    -0.022 A 
ATOM      7  C   UNL     1      32.659   6.236   8.545  1.00  0.00     0.008 A 
ATOM      8  C   UNL     1      33.565   8.497   8.358  1.00  0.00     0.062 A 
ATOM      9  C   UNL     1      31.491   6.738   9.111  1.00  0.00     0.026 A 
ATOM     10  C   UNL     1      32.362   8.983   8.913  1.00  0.00     0.039 A 
BRANCH   6  11
ATOM     11  C   UNL     1      34.941   6.466   7.539  1.00  0.00     0.120 C 
BRANCH  11  12
ATOM     12  N   UNL     1      34.625   5.762   6.275  1.00  0.00    -0.297 NA
ATOM     13  C   UNL     1      38.597   4.631   5.629  1.00  0.00     0.105 C 
ATOM     14  N   UNL     1      37.235   5.099   5.923  1.00  0.00    -0.304 NA
ATOM     15  C   UNL     1      36.396   3.981   6.404  1.00  0.00     0.099 C 
ATOM     16  C   UNL     1      36.636   5.731   4.736  1.00  0.00     0.099 C 
ATOM     17  C   UNL     1      34.889   4.307   6.328  1.00  0.00     0.100 C 
ATOM     18  C   UNL     1      35.287   6.387   5.103  1.00  0.00     0.100 C 
ENDBRANCH  11  12
ENDBRANCH   6  11
BRANCH   8  19
ATOM     19  C   UNL     1      34.640   9.488   7.939  1.00  0.00     0.416 C 
ATOM     20  F   UNL     1      35.856   9.205   8.537  1.00  0.00    -0.166 F 
ATOM     21  F   UNL     1      34.833   9.445   6.571  1.00  0.00    -0.166 F 
ATOM     22  F   UNL     1      34.269  10.766   8.310  1.00  0.00    -0.166 F 
ENDBRANCH   8  19
ENDBRANCH   1   5
BRANCH   2  23
ATOM     23  C   UNL     1      27.683   9.328   9.664  1.00  0.00     0.041 A 
ATOM     24  C   UNL     1      27.850  10.714   9.839  1.00  0.00     0.031 A 
ATOM     25  C   UNL     1      26.415   8.765   9.883  1.00  0.00     0.014 A 
ATOM     26  C   UNL     1      26.767  11.525  10.204  1.00  0.00     0.029 A 
ATOM     27  C   UNL     1      25.335   9.568  10.253  1.00  0.00     0.005 A 
ATOM     28  C   UNL     1      25.496  10.951  10.419  1.00  0.00    -0.035 A 
ATOM     29  C   UNL     1      24.311  11.801  10.793  1.00  0.00     0.045 C 
BRANCH  26  30
ATOM     30  C   UNL     1      26.975  12.948  10.342  1.00  0.00    -0.060 C 
ATOM     31  C   UNL     1      27.146  14.134  10.469  1.00  0.00    -0.040 C 
BRANCH  31  32
ATOM     32  C   UNL     1      27.348  15.548  10.630  1.00  0.00     0.135 A 
ATOM     33  C   UNL     1      28.440  16.290  10.212  1.00  0.00     0.151 A 
ATOM     34  N   UNL     1      26.496  16.395  11.216  1.00  0.00    -0.205 N 
ATOM     35  N   UNL     1      28.263  17.596  10.540  1.00  0.00    -0.234 NA
ATOM     36  C   UNL     1      27.060  17.606  11.151  1.00  0.00     0.154 A 
ATOM     37  N   UNL     1      25.310  16.153  11.772  1.00  0.00    -0.174 NA
ATOM     38  C   UNL     1      26.408  18.712  11.686  1.00  0.00     0.051 A 
ATOM     39  C   UNL     1      24.614  17.191  12.317  1.00  0.00     0.134 A 
ATOM     40  C   UNL     1      25.156  18.493  12.283  1.00  0.00     0.026 A 
ENDBRANCH  31  32
ENDBRANCH  26  30
ENDBRANCH   2  23
TORSDOF 7
ENDMDL
