MODEL 1
REMARK VINA RESULT:   -11.135      0.000      0.000
REMARK INTER + INTRA:         -16.786
REMARK INTER:                 -15.691
REMARK INTRA:                  -1.095
REMARK UNBOUND:                -1.095
REMARK SMILES Cc1ccc(C(=O)Nc2ccc(CN3CCN(C)CC3)c(C(F)(F)F)c2)cc1C#Cc1cnc2cccnn12
REMARK SMILES IDX 8 1 6 2 7 3 9 5 12 6 11 7 21 8 10 9 26 10 13 11 14 12 18 13
REMARK SMILES IDX 17 14 16 15 19 16 15 17 20 18 22 19 23 20 24 21 25 22 5 23
REMARK SMILES IDX 27 24 4 25 28 26 3 27 2 28 1 29 29 30 30 31 31 32 32 33
REMARK SMILES IDX 39 34 33 35 34 36 38 37 35 38 37 39 36 40
REMARK H PARENT 8 4
REMARK Flexibility Score: inf
ROOT
ATOM      1  N   UNL     1     -80.455 -20.368  85.571  1.00  0.00    -0.322 N 
ATOM      2  C   UNL     1     -81.795 -19.850  85.627  1.00  0.00     0.255 C 
ATOM      3  O   UNL     1     -82.118 -18.872  84.896  1.00  0.00    -0.269 OA
ATOM      4  H   UNL     1     -80.302 -21.372  85.819  1.00  0.00     0.170 HD
ENDROOT
BRANCH   1   5
ATOM      5  C   UNL     1     -79.340 -19.636  85.032  1.00  0.00     0.042 A 
ATOM      6  C   UNL     1     -77.184 -18.131  83.999  1.00  0.00    -0.022 A 
ATOM      7  C   UNL     1     -78.021 -18.877  83.148  1.00  0.00     0.008 A 
ATOM      8  C   UNL     1     -77.438 -18.132  85.400  1.00  0.00     0.062 A 
ATOM      9  C   UNL     1     -79.084 -19.619  83.655  1.00  0.00     0.026 A 
ATOM     10  C   UNL     1     -78.534 -18.876  85.888  1.00  0.00     0.039 A 
BRANCH   6  11
ATOM     11  C   UNL     1     -76.061 -17.333  83.362  1.00  0.00     0.120 C 
BRANCH  11  12
ATOM     12  N   UNL     1     -75.251 -18.155  82.433  1.00  0.00    -0.297 NA
ATOM     13  C   UNL     1     -71.634 -16.550  83.780  1.00  0.00     0.105 C 
ATOM     14  N   UNL     1     -72.954 -17.034  83.350  1.00  0.00    -0.304 NA
ATOM     15  C   UNL     1     -73.198 -18.398  83.866  1.00  0.00     0.099 C 
ATOM     16  C   UNL     1     -73.066 -16.999  81.883  1.00  0.00     0.099 C 
ATOM     17  C   UNL     1     -74.349 -19.106  83.119  1.00  0.00     0.100 C 
ATOM     18  C   UNL     1     -74.512 -17.326  81.449  1.00  0.00     0.100 C 
ENDBRANCH  11  12
ENDBRANCH   6  11
BRANCH   8  19
ATOM     19  C   UNL     1     -76.601 -17.322  86.377  1.00  0.00     0.416 C 
ATOM     20  F   UNL     1     -76.918 -17.620  87.692  1.00  0.00    -0.166 F 
ATOM     21  F   UNL     1     -75.256 -17.593  86.205  1.00  0.00    -0.166 F 
ATOM     22  F   UNL     1     -76.826 -15.973  86.180  1.00  0.00    -0.166 F 
ENDBRANCH   8  19
ENDBRANCH   1   5
BRANCH   2  23
ATOM     23  C   UNL     1     -82.821 -20.490  86.486  1.00  0.00     0.041 A 
ATOM     24  C   UNL     1     -83.639 -19.705  87.319  1.00  0.00     0.031 A 
ATOM     25  C   UNL     1     -82.992 -21.884  86.486  1.00  0.00     0.014 A 
ATOM     26  C   UNL     1     -84.624 -20.298  88.120  1.00  0.00     0.029 A 
ATOM     27  C   UNL     1     -83.967 -22.480  87.287  1.00  0.00     0.005 A 
ATOM     28  C   UNL     1     -84.791 -21.700  88.111  1.00  0.00    -0.035 A 
ATOM     29  C   UNL     1     -85.854 -22.363  88.947  1.00  0.00     0.045 C 
BRANCH  26  30
ATOM     30  C   UNL     1     -85.464 -19.453  88.937  1.00  0.00    -0.060 C 
ATOM     31  C   UNL     1     -86.170 -18.758  89.622  1.00  0.00    -0.040 C 
BRANCH  31  32
ATOM     32  C   UNL     1     -87.019 -17.937  90.442  1.00  0.00     0.135 A 
ATOM     33  C   UNL     1     -87.425 -18.192  91.741  1.00  0.00     0.151 A 
ATOM     34  N   UNL     1     -87.559 -16.770  90.080  1.00  0.00    -0.205 N 
ATOM     35  N   UNL     1     -88.219 -17.181  92.182  1.00  0.00    -0.234 NA
ATOM     36  C   UNL     1     -88.269 -16.338  91.129  1.00  0.00     0.154 A 
ATOM     37  N   UNL     1     -87.456 -16.111  88.927  1.00  0.00    -0.174 NA
ATOM     38  C   UNL     1     -88.961 -15.135  91.059  1.00  0.00     0.051 A 
ATOM     39  C   UNL     1     -88.110 -14.922  88.788  1.00  0.00     0.134 A 
ATOM     40  C   UNL     1     -88.876 -14.414  89.857  1.00  0.00     0.026 A 
ENDBRANCH  31  32
ENDBRANCH  26  30
ENDBRANCH   2  23
TORSDOF 7
ENDMDL
MODEL 2
REMARK VINA RESULT:   -10.681      1.611      2.137
REMARK INTER + INTRA:         -16.147
REMARK INTER:                 -15.480
REMARK INTRA:                  -0.667
REMARK UNBOUND:                -1.095
REMARK SMILES Cc1ccc(C(=O)Nc2ccc(CN3CCN(C)CC3)c(C(F)(F)F)c2)cc1C#Cc1cnc2cccnn12
REMARK SMILES IDX 8 1 6 2 7 3 9 5 12 6 11 7 21 8 10 9 26 10 13 11 14 12 18 13
REMARK SMILES IDX 17 14 16 15 19 16 15 17 20 18 22 19 23 20 24 21 25 22 5 23
REMARK SMILES IDX 27 24 4 25 28 26 3 27 2 28 1 29 29 30 30 31 31 32 32 33
REMARK SMILES IDX 39 34 33 35 34 36 38 37 35 38 37 39 36 40
REMARK H PARENT 8 4
REMARK Flexibility Score: inf
ROOT
ATOM      1  N   UNL     1     -80.264 -20.116  85.968  1.00  0.00    -0.322 N 
ATOM      2  C   UNL     1     -81.647 -19.822  85.705  1.00  0.00     0.255 C 
ATOM      3  O   UNL     1     -81.951 -19.046  84.757  1.00  0.00    -0.269 OA
ATOM      4  H   UNL     1     -80.031 -21.026  86.426  1.00  0.00     0.170 HD
ENDROOT
BRANCH   1   5
ATOM      5  C   UNL     1     -79.174 -19.312  85.485  1.00  0.00     0.042 A 
ATOM      6  C   UNL     1     -77.011 -17.794  84.486  1.00  0.00    -0.022 A 
ATOM      7  C   UNL     1     -77.053 -18.196  85.834  1.00  0.00     0.008 A 
ATOM      8  C   UNL     1     -78.074 -18.168  83.615  1.00  0.00     0.062 A 
ATOM      9  C   UNL     1     -78.118 -18.945  86.328  1.00  0.00     0.026 A 
ATOM     10  C   UNL     1     -79.132 -18.945  84.135  1.00  0.00     0.039 A 
BRANCH   6  11
ATOM     11  C   UNL     1     -75.804 -16.997  84.024  1.00  0.00     0.120 C 
BRANCH  11  12
ATOM     12  N   UNL     1     -74.529 -17.637  84.422  1.00  0.00    -0.297 NA
ATOM     13  C   UNL     1     -72.482 -16.200  81.074  1.00  0.00     0.105 C 
ATOM     14  N   UNL     1     -73.290 -16.685  82.202  1.00  0.00    -0.304 NA
ATOM     15  C   UNL     1     -72.955 -15.943  83.435  1.00  0.00     0.099 C 
ATOM     16  C   UNL     1     -73.100 -18.132  82.391  1.00  0.00     0.099 C 
ATOM     17  C   UNL     1     -73.447 -16.670  84.705  1.00  0.00     0.100 C 
ATOM     18  C   UNL     1     -74.091 -18.668  83.449  1.00  0.00     0.100 C 
ENDBRANCH  11  12
ENDBRANCH   6  11
BRANCH   8  19
ATOM     19  C   UNL     1     -78.080 -17.802  82.139  1.00  0.00     0.416 C 
ATOM     20  F   UNL     1     -78.201 -16.436  81.952  1.00  0.00    -0.166 F 
ATOM     21  F   UNL     1     -76.902 -18.199  81.536  1.00  0.00    -0.166 F 
ATOM     22  F   UNL     1     -79.148 -18.414  81.509  1.00  0.00    -0.166 F 
ENDBRANCH   8  19
ENDBRANCH   1   5
BRANCH   2  23
ATOM     23  C   UNL     1     -82.724 -20.470  86.493  1.00  0.00     0.041 A 
ATOM     24  C   UNL     1     -83.552 -19.699  87.329  1.00  0.00     0.031 A 
ATOM     25  C   UNL     1     -82.934 -21.856  86.421  1.00  0.00     0.014 A 
ATOM     26  C   UNL     1     -84.584 -20.299  88.064  1.00  0.00     0.029 A 
ATOM     27  C   UNL     1     -83.957 -22.459  87.156  1.00  0.00     0.005 A 
ATOM     28  C   UNL     1     -84.790 -21.693  87.983  1.00  0.00    -0.035 A 
ATOM     29  C   UNL     1     -85.903 -22.361  88.745  1.00  0.00     0.045 C 
BRANCH  26  30
ATOM     30  C   UNL     1     -85.432 -19.467  88.886  1.00  0.00    -0.060 C 
ATOM     31  C   UNL     1     -86.139 -18.781  89.580  1.00  0.00    -0.040 C 
BRANCH  31  32
ATOM     32  C   UNL     1     -86.983 -17.971  90.415  1.00  0.00     0.135 A 
ATOM     33  C   UNL     1     -87.328 -18.209  91.735  1.00  0.00     0.151 A 
ATOM     34  N   UNL     1     -87.581 -16.834  90.049  1.00  0.00    -0.205 N 
ATOM     35  N   UNL     1     -88.140 -17.217  92.185  1.00  0.00    -0.234 NA
ATOM     36  C   UNL     1     -88.263 -16.402  91.115  1.00  0.00     0.154 A 
ATOM     37  N   UNL     1     -87.550 -16.200  88.878  1.00  0.00    -0.174 NA
ATOM     38  C   UNL     1     -89.002 -15.227  91.047  1.00  0.00     0.051 A 
ATOM     39  C   UNL     1     -88.252 -15.040  88.738  1.00  0.00     0.134 A 
ATOM     40  C   UNL     1     -88.993 -14.533  89.826  1.00  0.00     0.026 A 
ENDBRANCH  31  32
ENDBRANCH  26  30
ENDBRANCH   2  23
TORSDOF 7
ENDMDL
MODEL 3
REMARK VINA RESULT:   -10.173      6.788     11.958
REMARK INTER + INTRA:         -15.430
REMARK INTER:                 -14.634
REMARK INTRA:                  -0.797
REMARK UNBOUND:                -1.095
REMARK SMILES Cc1ccc(C(=O)Nc2ccc(CN3CCN(C)CC3)c(C(F)(F)F)c2)cc1C#Cc1cnc2cccnn12
REMARK SMILES IDX 8 1 6 2 7 3 9 5 12 6 11 7 21 8 10 9 26 10 13 11 14 12 18 13
REMARK SMILES IDX 17 14 16 15 19 16 15 17 20 18 22 19 23 20 24 21 25 22 5 23
REMARK SMILES IDX 27 24 4 25 28 26 3 27 2 28 1 29 29 30 30 31 31 32 32 33
REMARK SMILES IDX 39 34 33 35 34 36 38 37 35 38 37 39 36 40
REMARK H PARENT 8 4
REMARK Flexibility Score: inf
ROOT
ATOM      1  N   UNL     1     -75.551 -17.998  87.620  1.00  0.00    -0.322 N 
ATOM      2  C   UNL     1     -75.423 -17.166  88.785  1.00  0.00     0.255 C 
ATOM      3  O   UNL     1     -76.210 -17.330  89.759  1.00  0.00    -0.269 OA
ATOM      4  H   UNL     1     -74.701 -18.164  87.034  1.00  0.00     0.170 HD
ENDROOT
BRANCH   1   5
ATOM      5  C   UNL     1     -76.735 -18.753  87.306  1.00  0.00     0.042 A 
ATOM      6  C   UNL     1     -79.102 -20.166  86.688  1.00  0.00    -0.022 A 
ATOM      7  C   UNL     1     -78.429 -20.376  87.907  1.00  0.00     0.008 A 
ATOM      8  C   UNL     1     -78.581 -19.219  85.760  1.00  0.00     0.062 A 
ATOM      9  C   UNL     1     -77.263 -19.680  88.212  1.00  0.00     0.026 A 
ATOM     10  C   UNL     1     -77.409 -18.511  86.103  1.00  0.00     0.039 A 
BRANCH   6  11
ATOM     11  C   UNL     1     -80.378 -20.950  86.441  1.00  0.00     0.120 C 
BRANCH  11  12
ATOM     12  N   UNL     1     -81.418 -20.654  87.453  1.00  0.00    -0.297 NA
ATOM     13  C   UNL     1     -84.149 -23.345  85.789  1.00  0.00     0.105 C 
ATOM     14  N   UNL     1     -83.136 -22.401  86.285  1.00  0.00    -0.304 NA
ATOM     15  C   UNL     1     -82.508 -22.919  87.520  1.00  0.00     0.099 C 
ATOM     16  C   UNL     1     -83.731 -21.076  86.515  1.00  0.00     0.099 C 
ATOM     17  C   UNL     1     -81.764 -21.815  88.301  1.00  0.00     0.100 C 
ATOM     18  C   UNL     1     -82.630 -20.046  86.852  1.00  0.00     0.100 C 
ENDBRANCH  11  12
ENDBRANCH   6  11
BRANCH   8  19
ATOM     19  C   UNL     1     -79.272 -18.911  84.441  1.00  0.00     0.416 C 
ATOM     20  F   UNL     1     -80.579 -18.497  84.634  1.00  0.00    -0.166 F 
ATOM     21  F   UNL     1     -78.612 -17.897  83.772  1.00  0.00    -0.166 F 
ATOM     22  F   UNL     1     -79.296 -20.044  83.650  1.00  0.00    -0.166 F 
ENDBRANCH   8  19
ENDBRANCH   1   5
BRANCH   2  23
ATOM     23  C   UNL     1     -74.337 -16.161  88.885  1.00  0.00     0.041 A 
ATOM     24  C   UNL     1     -74.025 -15.574  90.124  1.00  0.00     0.031 A 
ATOM     25  C   UNL     1     -73.605 -15.777  87.749  1.00  0.00     0.014 A 
ATOM     26  C   UNL     1     -72.988 -14.637  90.232  1.00  0.00     0.029 A 
ATOM     27  C   UNL     1     -72.576 -14.839  87.850  1.00  0.00     0.005 A 
ATOM     28  C   UNL     1     -72.256 -14.260  89.086  1.00  0.00    -0.035 A 
ATOM     29  C   UNL     1     -71.125 -13.270  89.175  1.00  0.00     0.045 C 
BRANCH  26  30
ATOM     30  C   UNL     1     -72.680 -14.082  91.529  1.00  0.00    -0.060 C 
ATOM     31  C   UNL     1     -72.433 -13.623  92.616  1.00  0.00    -0.040 C 
BRANCH  31  32
ATOM     32  C   UNL     1     -72.147 -13.080  93.916  1.00  0.00     0.135 A 
ATOM     33  C   UNL     1     -71.829 -13.784  95.065  1.00  0.00     0.151 A 
ATOM     34  N   UNL     1     -72.137 -11.781  94.233  1.00  0.00    -0.205 N 
ATOM     35  N   UNL     1     -71.623 -12.920  96.093  1.00  0.00    -0.234 NA
ATOM     36  C   UNL     1     -71.823 -11.710  95.531  1.00  0.00     0.154 A 
ATOM     37  N   UNL     1     -72.380 -10.721  93.464  1.00  0.00    -0.174 NA
ATOM     38  C   UNL     1     -71.735 -10.474  96.163  1.00  0.00     0.051 A 
ATOM     39  C   UNL     1     -72.312  -9.477  94.019  1.00  0.00     0.134 A 
ATOM     40  C   UNL     1     -71.988  -9.334  95.383  1.00  0.00     0.026 A 
ENDBRANCH  31  32
ENDBRANCH  26  30
ENDBRANCH   2  23
TORSDOF 7
ENDMDL
MODEL 4
REMARK VINA RESULT:   -10.128      5.268      8.105
REMARK INTER + INTRA:         -15.367
REMARK INTER:                 -15.107
REMARK INTRA:                  -0.260
REMARK UNBOUND:                -1.095
REMARK SMILES Cc1ccc(C(=O)Nc2ccc(CN3CCN(C)CC3)c(C(F)(F)F)c2)cc1C#Cc1cnc2cccnn12
REMARK SMILES IDX 8 1 6 2 7 3 9 5 12 6 11 7 21 8 10 9 26 10 13 11 14 12 18 13
REMARK SMILES IDX 17 14 16 15 19 16 15 17 20 18 22 19 23 20 24 21 25 22 5 23
REMARK SMILES IDX 27 24 4 25 28 26 3 27 2 28 1 29 29 30 30 31 31 32 32 33
REMARK SMILES IDX 39 34 33 35 34 36 38 37 35 38 37 39 36 40
REMARK H PARENT 8 4
REMARK Flexibility Score: inf
ROOT
ATOM      1  N   UNL     1     -76.122 -17.483  87.574  1.00  0.00    -0.322 N 
ATOM      2  C   UNL     1     -76.197 -17.053  86.205  1.00  0.00     0.255 C 
ATOM      3  O   UNL     1     -75.395 -16.175  85.781  1.00  0.00    -0.269 OA
ATOM      4  H   UNL     1     -76.456 -18.447  87.809  1.00  0.00     0.170 HD
ENDROOT
BRANCH   1   5
ATOM      5  C   UNL     1     -75.460 -16.736  88.609  1.00  0.00     0.042 A 
ATOM      6  C   UNL     1     -74.223 -15.218  90.645  1.00  0.00    -0.022 A 
ATOM      7  C   UNL     1     -73.650 -15.315  89.363  1.00  0.00     0.008 A 
ATOM      8  C   UNL     1     -75.450 -15.890  90.912  1.00  0.00     0.062 A 
ATOM      9  C   UNL     1     -74.258 -16.063  88.359  1.00  0.00     0.026 A 
ATOM     10  C   UNL     1     -76.058 -16.625  89.870  1.00  0.00     0.039 A 
BRANCH   6  11
ATOM     11  C   UNL     1     -73.506 -14.366  91.677  1.00  0.00     0.120 C 
BRANCH  11  12
ATOM     12  N   UNL     1     -72.108 -14.806  91.889  1.00  0.00    -0.297 NA
ATOM     13  C   UNL     1     -71.518 -12.200  95.103  1.00  0.00     0.105 C 
ATOM     14  N   UNL     1     -71.807 -13.059  93.946  1.00  0.00    -0.304 NA
ATOM     15  C   UNL     1     -71.997 -14.461  94.377  1.00  0.00     0.099 C 
ATOM     16  C   UNL     1     -70.734 -12.959  92.944  1.00  0.00     0.099 C 
ATOM     17  C   UNL     1     -71.885 -15.453  93.200  1.00  0.00     0.100 C 
ATOM     18  C   UNL     1     -71.133 -13.712  91.655  1.00  0.00     0.100 C 
ENDBRANCH  11  12
ENDBRANCH   6  11
BRANCH   8  19
ATOM     19  C   UNL     1     -76.148 -15.801  92.259  1.00  0.00     0.416 C 
ATOM     20  F   UNL     1     -75.265 -15.465  93.271  1.00  0.00    -0.166 F 
ATOM     21  F   UNL     1     -77.134 -14.832  92.233  1.00  0.00    -0.166 F 
ATOM     22  F   UNL     1     -76.713 -17.022  92.576  1.00  0.00    -0.166 F 
ENDBRANCH   8  19
ENDBRANCH   1   5
BRANCH   2  23
ATOM     23  C   UNL     1     -77.164 -17.673  85.266  1.00  0.00     0.041 A 
ATOM     24  C   UNL     1     -78.209 -18.479  85.753  1.00  0.00     0.031 A 
ATOM     25  C   UNL     1     -77.053 -17.470  83.881  1.00  0.00     0.014 A 
ATOM     26  C   UNL     1     -79.138 -19.054  84.876  1.00  0.00     0.029 A 
ATOM     27  C   UNL     1     -77.972 -18.046  83.002  1.00  0.00     0.005 A 
ATOM     28  C   UNL     1     -79.021 -18.841  83.486  1.00  0.00    -0.035 A 
ATOM     29  C   UNL     1     -80.016 -19.431  82.521  1.00  0.00     0.045 C 
BRANCH  26  30
ATOM     30  C   UNL     1     -80.215 -19.848  85.420  1.00  0.00    -0.060 C 
ATOM     31  C   UNL     1     -81.112 -20.519  85.865  1.00  0.00    -0.040 C 
BRANCH  31  32
ATOM     32  C   UNL     1     -82.182 -21.324  86.386  1.00  0.00     0.135 A 
ATOM     33  C   UNL     1     -82.383 -22.680  86.184  1.00  0.00     0.151 A 
ATOM     34  N   UNL     1     -83.174 -20.890  87.170  1.00  0.00    -0.205 N 
ATOM     35  N   UNL     1     -83.501 -23.083  86.843  1.00  0.00    -0.234 NA
ATOM     36  C   UNL     1     -83.945 -21.951  87.430  1.00  0.00     0.154 A 
ATOM     37  N   UNL     1     -83.409 -19.665  87.636  1.00  0.00    -0.174 NA
ATOM     38  C   UNL     1     -85.075 -21.818  88.228  1.00  0.00     0.051 A 
ATOM     39  C   UNL     1     -84.501 -19.460  88.427  1.00  0.00     0.134 A 
ATOM     40  C   UNL     1     -85.355 -20.539  88.736  1.00  0.00     0.026 A 
ENDBRANCH  31  32
ENDBRANCH  26  30
ENDBRANCH   2  23
TORSDOF 7
ENDMDL
MODEL 5
REMARK VINA RESULT:   -10.110      5.609      8.368
REMARK INTER + INTRA:         -15.341
REMARK INTER:                 -14.545
REMARK INTRA:                  -0.796
REMARK UNBOUND:                -1.095
REMARK SMILES Cc1ccc(C(=O)Nc2ccc(CN3CCN(C)CC3)c(C(F)(F)F)c2)cc1C#Cc1cnc2cccnn12
REMARK SMILES IDX 8 1 6 2 7 3 9 5 12 6 11 7 21 8 10 9 26 10 13 11 14 12 18 13
REMARK SMILES IDX 17 14 16 15 19 16 15 17 20 18 22 19 23 20 24 21 25 22 5 23
REMARK SMILES IDX 27 24 4 25 28 26 3 27 2 28 1 29 29 30 30 31 31 32 32 33
REMARK SMILES IDX 39 34 33 35 34 36 38 37 35 38 37 39 36 40
REMARK H PARENT 8 4
REMARK Flexibility Score: inf
ROOT
ATOM      1  N   UNL     1     -76.411 -17.305  88.544  1.00  0.00    -0.322 N 
ATOM      2  C   UNL     1     -75.926 -17.620  87.228  1.00  0.00     0.255 C 
ATOM      3  O   UNL     1     -74.685 -17.584  86.995  1.00  0.00    -0.269 OA
ATOM      4  H   UNL     1     -77.319 -17.725  88.850  1.00  0.00     0.170 HD
ENDROOT
BRANCH   1   5
ATOM      5  C   UNL     1     -75.643 -16.588  89.526  1.00  0.00     0.042 A 
ATOM      6  C   UNL     1     -74.204 -15.165  91.497  1.00  0.00    -0.022 A 
ATOM      7  C   UNL     1     -74.243 -14.718  90.163  1.00  0.00     0.008 A 
ATOM      8  C   UNL     1     -74.911 -16.349  91.855  1.00  0.00     0.062 A 
ATOM      9  C   UNL     1     -74.951 -15.418  89.191  1.00  0.00     0.026 A 
ATOM     10  C   UNL     1     -75.639 -17.029  90.856  1.00  0.00     0.039 A 
BRANCH   6  11
ATOM     11  C   UNL     1     -73.425 -14.331  92.499  1.00  0.00     0.120 C 
BRANCH  11  12
ATOM     12  N   UNL     1     -72.010 -14.758  92.597  1.00  0.00    -0.297 NA
ATOM     13  C   UNL     1     -70.671 -10.927  93.596  1.00  0.00     0.105 C 
ATOM     14  N   UNL     1     -71.229 -12.231  93.210  1.00  0.00    -0.304 NA
ATOM     15  C   UNL     1     -71.271 -13.140  94.375  1.00  0.00     0.099 C 
ATOM     16  C   UNL     1     -70.452 -12.822  92.110  1.00  0.00     0.099 C 
ATOM     17  C   UNL     1     -71.444 -14.616  93.956  1.00  0.00     0.100 C 
ATOM     18  C   UNL     1     -71.152 -14.096  91.584  1.00  0.00     0.100 C 
ENDBRANCH  11  12
ENDBRANCH   6  11
BRANCH   8  19
ATOM     19  C   UNL     1     -74.946 -16.872  93.282  1.00  0.00     0.416 C 
ATOM     20  F   UNL     1     -75.808 -17.948  93.411  1.00  0.00    -0.166 F 
ATOM     21  F   UNL     1     -73.692 -17.299  93.674  1.00  0.00    -0.166 F 
ATOM     22  F   UNL     1     -75.380 -15.875  94.136  1.00  0.00    -0.166 F 
ENDBRANCH   8  19
ENDBRANCH   1   5
BRANCH   2  23
ATOM     23  C   UNL     1     -76.858 -18.049  86.157  1.00  0.00     0.041 A 
ATOM     24  C   UNL     1     -77.957 -18.872  86.461  1.00  0.00     0.031 A 
ATOM     25  C   UNL     1     -76.659 -17.645  84.827  1.00  0.00     0.014 A 
ATOM     26  C   UNL     1     -78.854 -19.268  85.460  1.00  0.00     0.029 A 
ATOM     27  C   UNL     1     -77.547 -18.042  83.824  1.00  0.00     0.005 A 
ATOM     28  C   UNL     1     -78.649 -18.854  84.126  1.00  0.00    -0.035 A 
ATOM     29  C   UNL     1     -79.607 -19.248  83.032  1.00  0.00     0.045 C 
BRANCH  26  30
ATOM     30  C   UNL     1     -79.988 -20.087  85.820  1.00  0.00    -0.060 C 
ATOM     31  C   UNL     1     -80.935 -20.763  86.130  1.00  0.00    -0.040 C 
BRANCH  31  32
ATOM     32  C   UNL     1     -82.066 -21.565  86.510  1.00  0.00     0.135 A 
ATOM     33  C   UNL     1     -82.319 -22.878  86.148  1.00  0.00     0.151 A 
ATOM     34  N   UNL     1     -83.075 -21.170  87.292  1.00  0.00    -0.205 N 
ATOM     35  N   UNL     1     -83.486 -23.294  86.706  1.00  0.00    -0.234 NA
ATOM     36  C   UNL     1     -83.907 -22.212  87.396  1.00  0.00     0.154 A 
ATOM     37  N   UNL     1     -83.277 -19.993  87.882  1.00  0.00    -0.174 NA
ATOM     38  C   UNL     1     -85.068 -22.109  88.153  1.00  0.00     0.051 A 
ATOM     39  C   UNL     1     -84.397 -19.821  88.641  1.00  0.00     0.134 A 
ATOM     40  C   UNL     1     -85.314 -20.882  88.788  1.00  0.00     0.026 A 
ENDBRANCH  31  32
ENDBRANCH  26  30
ENDBRANCH   2  23
TORSDOF 7
ENDMDL
MODEL 6
REMARK VINA RESULT:   -10.101      5.468      8.321
REMARK INTER + INTRA:         -15.329
REMARK INTER:                 -14.440
REMARK INTRA:                  -0.888
REMARK UNBOUND:                -1.095
REMARK SMILES Cc1ccc(C(=O)Nc2ccc(CN3CCN(C)CC3)c(C(F)(F)F)c2)cc1C#Cc1cnc2cccnn12
REMARK SMILES IDX 8 1 6 2 7 3 9 5 12 6 11 7 21 8 10 9 26 10 13 11 14 12 18 13
REMARK SMILES IDX 17 14 16 15 19 16 15 17 20 18 22 19 23 20 24 21 25 22 5 23
REMARK SMILES IDX 27 24 4 25 28 26 3 27 2 28 1 29 29 30 30 31 31 32 32 33
REMARK SMILES IDX 39 34 33 35 34 36 38 37 35 38 37 39 36 40
REMARK H PARENT 8 4
REMARK Flexibility Score: inf
ROOT
ATOM      1  N   UNL     1     -75.836 -18.429  88.214  1.00  0.00    -0.322 N 
ATOM      2  C   UNL     1     -76.072 -17.607  87.058  1.00  0.00     0.255 C 
ATOM      3  O   UNL     1     -75.419 -16.537  86.909  1.00  0.00    -0.269 OA
ATOM      4  H   UNL     1     -76.031 -19.454  88.139  1.00  0.00     0.170 HD
ENDROOT
BRANCH   1   5
ATOM      5  C   UNL     1     -75.190 -17.957  89.409  1.00  0.00     0.042 A 
ATOM      6  C   UNL     1     -73.940 -16.955  91.735  1.00  0.00    -0.022 A 
ATOM      7  C   UNL     1     -73.200 -17.637  90.751  1.00  0.00     0.008 A 
ATOM      8  C   UNL     1     -75.338 -16.762  91.545  1.00  0.00     0.062 A 
ATOM      9  C   UNL     1     -73.815 -18.132  89.605  1.00  0.00     0.026 A 
ATOM     10  C   UNL     1     -75.934 -17.254  90.364  1.00  0.00     0.039 A 
BRANCH   6  11
ATOM     11  C   UNL     1     -73.189 -16.430  92.946  1.00  0.00     0.120 C 
BRANCH  11  12
ATOM     12  N   UNL     1     -72.015 -15.612  92.561  1.00  0.00    -0.297 NA
ATOM     13  C   UNL     1     -72.489 -12.983  95.776  1.00  0.00     0.105 C 
ATOM     14  N   UNL     1     -72.420 -13.938  94.661  1.00  0.00    -0.304 NA
ATOM     15  C   UNL     1     -71.310 -14.893  94.865  1.00  0.00     0.099 C 
ATOM     16  C   UNL     1     -72.273 -13.230  93.379  1.00  0.00     0.099 C 
ATOM     17  C   UNL     1     -70.929 -15.631  93.565  1.00  0.00     0.100 C 
ATOM     18  C   UNL     1     -72.392 -14.223  92.202  1.00  0.00     0.100 C 
ENDBRANCH  11  12
ENDBRANCH   6  11
BRANCH   8  19
ATOM     19  C   UNL     1     -76.195 -16.002  92.545  1.00  0.00     0.416 C 
ATOM     20  F   UNL     1     -75.435 -15.144  93.322  1.00  0.00    -0.166 F 
ATOM     21  F   UNL     1     -77.142 -15.236  91.890  1.00  0.00    -0.166 F 
ATOM     22  F   UNL     1     -76.829 -16.892  93.390  1.00  0.00    -0.166 F 
ENDBRANCH   8  19
ENDBRANCH   1   5
BRANCH   2  23
ATOM     23  C   UNL     1     -77.028 -18.031  86.006  1.00  0.00     0.041 A 
ATOM     24  C   UNL     1     -78.108 -18.874  86.327  1.00  0.00     0.031 A 
ATOM     25  C   UNL     1     -76.872 -17.604  84.678  1.00  0.00     0.014 A 
ATOM     26  C   UNL     1     -79.027 -19.266  85.344  1.00  0.00     0.029 A 
ATOM     27  C   UNL     1     -77.781 -17.997  83.694  1.00  0.00     0.005 A 
ATOM     28  C   UNL     1     -78.864 -18.829  84.012  1.00  0.00    -0.035 A 
ATOM     29  C   UNL     1     -79.846 -19.218  82.939  1.00  0.00     0.045 C 
BRANCH  26  30
ATOM     30  C   UNL     1     -80.139 -20.106  85.722  1.00  0.00    -0.060 C 
ATOM     31  C   UNL     1     -81.069 -20.799  86.047  1.00  0.00    -0.040 C 
BRANCH  31  32
ATOM     32  C   UNL     1     -82.180 -21.622  86.444  1.00  0.00     0.135 A 
ATOM     33  C   UNL     1     -82.403 -22.945  86.103  1.00  0.00     0.151 A 
ATOM     34  N   UNL     1     -83.194 -21.238  87.226  1.00  0.00    -0.205 N 
ATOM     35  N   UNL     1     -83.557 -23.379  86.674  1.00  0.00    -0.234 NA
ATOM     36  C   UNL     1     -84.000 -22.298  87.349  1.00  0.00     0.154 A 
ATOM     37  N   UNL     1     -83.420 -20.058  87.799  1.00  0.00    -0.174 NA
ATOM     38  C   UNL     1     -85.160 -22.211  88.110  1.00  0.00     0.051 A 
ATOM     39  C   UNL     1     -84.541 -19.900  88.561  1.00  0.00     0.134 A 
ATOM     40  C   UNL     1     -85.432 -20.980  88.729  1.00  0.00     0.026 A 
ENDBRANCH  31  32
ENDBRANCH  26  30
ENDBRANCH   2  23
TORSDOF 7
ENDMDL
MODEL 7
REMARK VINA RESULT:    -9.968      6.854      9.635
REMARK INTER + INTRA:         -15.142
REMARK INTER:                 -14.168
REMARK INTRA:                  -0.974
REMARK UNBOUND:                -1.095
REMARK SMILES Cc1ccc(C(=O)Nc2ccc(CN3CCN(C)CC3)c(C(F)(F)F)c2)cc1C#Cc1cnc2cccnn12
REMARK SMILES IDX 8 1 6 2 7 3 9 5 12 6 11 7 21 8 10 9 26 10 13 11 14 12 18 13
REMARK SMILES IDX 17 14 16 15 19 16 15 17 20 18 22 19 23 20 24 21 25 22 5 23
REMARK SMILES IDX 27 24 4 25 28 26 3 27 2 28 1 29 29 30 30 31 31 32 32 33
REMARK SMILES IDX 39 34 33 35 34 36 38 37 35 38 37 39 36 40
REMARK H PARENT 8 4
REMARK Flexibility Score: inf
ROOT
ATOM      1  N   UNL     1     -76.456 -17.365  90.250  1.00  0.00    -0.322 N 
ATOM      2  C   UNL     1     -75.873 -18.259  89.287  1.00  0.00     0.255 C 
ATOM      3  O   UNL     1     -74.797 -18.859  89.563  1.00  0.00    -0.269 OA
ATOM      4  H   UNL     1     -77.490 -17.212  90.221  1.00  0.00     0.170 HD
ENDROOT
BRANCH   1   5
ATOM      5  C   UNL     1     -75.729 -16.802  91.357  1.00  0.00     0.042 A 
ATOM      6  C   UNL     1     -74.232 -15.725  93.497  1.00  0.00    -0.022 A 
ATOM      7  C   UNL     1     -75.208 -16.715  93.720  1.00  0.00     0.008 A 
ATOM      8  C   UNL     1     -73.994 -15.270  92.168  1.00  0.00     0.062 A 
ATOM      9  C   UNL     1     -75.947 -17.246  92.666  1.00  0.00     0.026 A 
ATOM     10  C   UNL     1     -74.741 -15.840  91.115  1.00  0.00     0.039 A 
BRANCH   6  11
ATOM     11  C   UNL     1     -73.458 -15.214  94.698  1.00  0.00     0.120 C 
BRANCH  11  12
ATOM     12  N   UNL     1     -73.985 -15.755  95.972  1.00  0.00    -0.297 NA
ATOM     13  C   UNL     1     -71.693 -13.154  98.307  1.00  0.00     0.105 C 
ATOM     14  N   UNL     1     -72.436 -14.048  97.407  1.00  0.00    -0.304 NA
ATOM     15  C   UNL     1     -73.857 -13.648  97.338  1.00  0.00     0.099 C 
ATOM     16  C   UNL     1     -72.305 -15.447  97.842  1.00  0.00     0.099 C 
ATOM     17  C   UNL     1     -74.751 -14.767  96.762  1.00  0.00     0.100 C 
ATOM     18  C   UNL     1     -72.925 -16.395  96.791  1.00  0.00     0.100 C 
ENDBRANCH  11  12
ENDBRANCH   6  11
BRANCH   8  19
ATOM     19  C   UNL     1     -72.932 -14.232  91.845  1.00  0.00     0.416 C 
ATOM     20  F   UNL     1     -72.991 -13.153  92.712  1.00  0.00    -0.166 F 
ATOM     21  F   UNL     1     -71.668 -14.780  91.954  1.00  0.00    -0.166 F 
ATOM     22  F   UNL     1     -73.117 -13.756  90.561  1.00  0.00    -0.166 F 
ENDBRANCH   8  19
ENDBRANCH   1   5
BRANCH   2  23
ATOM     23  C   UNL     1     -76.554 -18.534  87.998  1.00  0.00     0.041 A 
ATOM     24  C   UNL     1     -77.719 -19.321  87.965  1.00  0.00     0.031 A 
ATOM     25  C   UNL     1     -76.048 -18.019  86.793  1.00  0.00     0.014 A 
ATOM     26  C   UNL     1     -78.380 -19.571  86.754  1.00  0.00     0.029 A 
ATOM     27  C   UNL     1     -76.699 -18.271  85.584  1.00  0.00     0.005 A 
ATOM     28  C   UNL     1     -77.866 -19.047  85.549  1.00  0.00    -0.035 A 
ATOM     29  C   UNL     1     -78.566 -19.284  84.236  1.00  0.00     0.045 C 
BRANCH  26  30
ATOM     30  C   UNL     1     -79.591 -20.358  86.769  1.00  0.00    -0.060 C 
ATOM     31  C   UNL     1     -80.604 -21.010  86.770  1.00  0.00    -0.040 C 
BRANCH  31  32
ATOM     32  C   UNL     1     -81.817 -21.783  86.762  1.00  0.00     0.135 A 
ATOM     33  C   UNL     1     -82.055 -22.956  86.066  1.00  0.00     0.151 A 
ATOM     34  N   UNL     1     -82.930 -21.493  87.442  1.00  0.00    -0.205 N 
ATOM     35  N   UNL     1     -83.318 -23.391  86.315  1.00  0.00    -0.234 NA
ATOM     36  C   UNL     1     -83.809 -22.462  87.162  1.00  0.00     0.154 A 
ATOM     37  N   UNL     1     -83.184 -20.467  88.252  1.00  0.00    -0.174 NA
ATOM     38  C   UNL     1     -85.080 -22.439  87.724  1.00  0.00     0.051 A 
ATOM     39  C   UNL     1     -84.412 -20.380  88.839  1.00  0.00     0.134 A 
ATOM     40  C   UNL     1     -85.383 -21.369  88.582  1.00  0.00     0.026 A 
ENDBRANCH  31  32
ENDBRANCH  26  30
ENDBRANCH   2  23
TORSDOF 7
ENDMDL
MODEL 8
REMARK VINA RESULT:    -9.807      5.200      8.064
REMARK INTER + INTRA:         -14.915
REMARK INTER:                 -14.515
REMARK INTRA:                  -0.399
REMARK UNBOUND:                -1.095
REMARK SMILES Cc1ccc(C(=O)Nc2ccc(CN3CCN(C)CC3)c(C(F)(F)F)c2)cc1C#Cc1cnc2cccnn12
REMARK SMILES IDX 8 1 6 2 7 3 9 5 12 6 11 7 21 8 10 9 26 10 13 11 14 12 18 13
REMARK SMILES IDX 17 14 16 15 19 16 15 17 20 18 22 19 23 20 24 21 25 22 5 23
REMARK SMILES IDX 27 24 4 25 28 26 3 27 2 28 1 29 29 30 30 31 31 32 32 33
REMARK SMILES IDX 39 34 33 35 34 36 38 37 35 38 37 39 36 40
REMARK H PARENT 8 4
REMARK Flexibility Score: inf
ROOT
ATOM      1  N   UNL     1     -76.204 -17.237  87.442  1.00  0.00    -0.322 N 
ATOM      2  C   UNL     1     -76.068 -17.092  86.019  1.00  0.00     0.255 C 
ATOM      3  O   UNL     1     -75.042 -16.530  85.543  1.00  0.00    -0.269 OA
ATOM      4  H   UNL     1     -76.785 -18.027  87.806  1.00  0.00     0.170 HD
ENDROOT
BRANCH   1   5
ATOM      5  C   UNL     1     -75.454 -16.466  88.397  1.00  0.00     0.042 A 
ATOM      6  C   UNL     1     -73.922 -15.006  90.268  1.00  0.00    -0.022 A 
ATOM      7  C   UNL     1     -75.172 -15.548  90.620  1.00  0.00     0.008 A 
ATOM      8  C   UNL     1     -73.423 -15.208  88.949  1.00  0.00     0.062 A 
ATOM      9  C   UNL     1     -75.929 -16.267  89.699  1.00  0.00     0.026 A 
ATOM     10  C   UNL     1     -74.199 -15.959  88.041  1.00  0.00     0.039 A 
BRANCH   6  11
ATOM     11  C   UNL     1     -73.152 -14.253  91.338  1.00  0.00     0.120 C 
BRANCH  11  12
ATOM     12  N   UNL     1     -72.191 -15.125  92.051  1.00  0.00    -0.297 NA
ATOM     13  C   UNL     1     -72.295 -12.809  95.529  1.00  0.00     0.105 C 
ATOM     14  N   UNL     1     -72.299 -13.543  94.255  1.00  0.00    -0.304 NA
ATOM     15  C   UNL     1     -73.071 -14.797  94.383  1.00  0.00     0.099 C 
ATOM     16  C   UNL     1     -70.923 -13.816  93.810  1.00  0.00     0.099 C 
ATOM     17  C   UNL     1     -72.766 -15.789  93.240  1.00  0.00     0.100 C 
ATOM     18  C   UNL     1     -70.931 -14.416  92.386  1.00  0.00     0.100 C 
ENDBRANCH  11  12
ENDBRANCH   6  11
BRANCH   8  19
ATOM     19  C   UNL     1     -72.065 -14.685  88.507  1.00  0.00     0.416 C 
ATOM     20  F   UNL     1     -71.893 -13.355  88.850  1.00  0.00    -0.166 F 
ATOM     21  F   UNL     1     -71.049 -15.402  89.112  1.00  0.00    -0.166 F 
ATOM     22  F   UNL     1     -71.947 -14.790  87.134  1.00  0.00    -0.166 F 
ENDBRANCH   8  19
ENDBRANCH   1   5
BRANCH   2  23
ATOM     23  C   UNL     1     -77.087 -17.652  85.097  1.00  0.00     0.041 A 
ATOM     24  C   UNL     1     -78.157 -18.413  85.601  1.00  0.00     0.031 A 
ATOM     25  C   UNL     1     -77.001 -17.435  83.712  1.00  0.00     0.014 A 
ATOM     26  C   UNL     1     -79.135 -18.931  84.741  1.00  0.00     0.029 A 
ATOM     27  C   UNL     1     -77.969 -17.954  82.851  1.00  0.00     0.005 A 
ATOM     28  C   UNL     1     -79.042 -18.705  83.351  1.00  0.00    -0.035 A 
ATOM     29  C   UNL     1     -80.089 -19.232  82.405  1.00  0.00     0.045 C 
BRANCH  26  30
ATOM     30  C   UNL     1     -80.234 -19.680  85.303  1.00  0.00    -0.060 C 
ATOM     31  C   UNL     1     -81.147 -20.304  85.782  1.00  0.00    -0.040 C 
BRANCH  31  32
ATOM     32  C   UNL     1     -82.230 -21.048  86.364  1.00  0.00     0.135 A 
ATOM     33  C   UNL     1     -82.472 -22.406  86.241  1.00  0.00     0.151 A 
ATOM     34  N   UNL     1     -83.197 -20.543  87.136  1.00  0.00    -0.205 N 
ATOM     35  N   UNL     1     -83.590 -22.740  86.938  1.00  0.00    -0.234 NA
ATOM     36  C   UNL     1     -83.993 -21.565  87.466  1.00  0.00     0.154 A 
ATOM     37  N   UNL     1     -83.390 -19.287  87.537  1.00  0.00    -0.174 NA
ATOM     38  C   UNL     1     -85.106 -21.355  88.273  1.00  0.00     0.051 A 
ATOM     39  C   UNL     1     -84.464 -19.008  88.331  1.00  0.00     0.134 A 
ATOM     40  C   UNL     1     -85.342 -20.042  88.712  1.00  0.00     0.026 A 
ENDBRANCH  31  32
ENDBRANCH  26  30
ENDBRANCH   2  23
TORSDOF 7
ENDMDL
MODEL 9
REMARK VINA RESULT:    -9.790      6.782     11.946
REMARK INTER + INTRA:         -14.891
REMARK INTER:                 -13.910
REMARK INTRA:                  -0.981
REMARK UNBOUND:                -1.095
REMARK SMILES Cc1ccc(C(=O)Nc2ccc(CN3CCN(C)CC3)c(C(F)(F)F)c2)cc1C#Cc1cnc2cccnn12
REMARK SMILES IDX 8 1 6 2 7 3 9 5 12 6 11 7 21 8 10 9 26 10 13 11 14 12 18 13
REMARK SMILES IDX 17 14 16 15 19 16 15 17 20 18 22 19 23 20 24 21 25 22 5 23
REMARK SMILES IDX 27 24 4 25 28 26 3 27 2 28 1 29 29 30 30 31 31 32 32 33
REMARK SMILES IDX 39 34 33 35 34 36 38 37 35 38 37 39 36 40
REMARK H PARENT 8 4
REMARK Flexibility Score: inf
ROOT
ATOM      1  N   UNL     1     -75.398 -18.061  87.889  1.00  0.00    -0.322 N 
ATOM      2  C   UNL     1     -75.378 -16.987  88.845  1.00  0.00     0.255 C 
ATOM      3  O   UNL     1     -76.327 -16.867  89.669  1.00  0.00    -0.269 OA
ATOM      4  H   UNL     1     -74.484 -18.411  87.521  1.00  0.00     0.170 HD
ENDROOT
BRANCH   1   5
ATOM      5  C   UNL     1     -76.584 -18.794  87.538  1.00  0.00     0.042 A 
ATOM      6  C   UNL     1     -78.956 -20.163  86.844  1.00  0.00    -0.022 A 
ATOM      7  C   UNL     1     -78.329 -20.381  88.086  1.00  0.00     0.008 A 
ATOM      8  C   UNL     1     -78.386 -19.230  85.932  1.00  0.00     0.062 A 
ATOM      9  C   UNL     1     -77.160 -19.707  88.429  1.00  0.00     0.026 A 
ATOM     10  C   UNL     1     -77.212 -18.544  86.312  1.00  0.00     0.039 A 
BRANCH   6  11
ATOM     11  C   UNL     1     -80.238 -20.923  86.558  1.00  0.00     0.120 C 
BRANCH  11  12
ATOM     12  N   UNL     1     -81.322 -20.564  87.500  1.00  0.00    -0.297 NA
ATOM     13  C   UNL     1     -83.969 -23.381  85.912  1.00  0.00     0.105 C 
ATOM     14  N   UNL     1     -82.982 -22.399  86.384  1.00  0.00    -0.304 NA
ATOM     15  C   UNL     1     -82.407 -22.825  87.678  1.00  0.00     0.099 C 
ATOM     16  C   UNL     1     -83.591 -21.064  86.494  1.00  0.00     0.099 C 
ATOM     17  C   UNL     1     -81.701 -21.665  88.412  1.00  0.00     0.100 C 
ATOM     18  C   UNL     1     -82.508 -20.007  86.806  1.00  0.00     0.100 C 
ENDBRANCH  11  12
ENDBRANCH   6  11
BRANCH   8  19
ATOM     19  C   UNL     1     -79.026 -18.914  84.589  1.00  0.00     0.416 C 
ATOM     20  F   UNL     1     -79.051 -20.024  83.761  1.00  0.00    -0.166 F 
ATOM     21  F   UNL     1     -80.332 -18.497  84.760  1.00  0.00    -0.166 F 
ATOM     22  F   UNL     1     -78.307 -17.922  83.950  1.00  0.00    -0.166 F 
ENDBRANCH   8  19
ENDBRANCH   1   5
BRANCH   2  23
ATOM     23  C   UNL     1     -74.226 -16.055  88.918  1.00  0.00     0.041 A 
ATOM     24  C   UNL     1     -73.963 -15.343  90.102  1.00  0.00     0.031 A 
ATOM     25  C   UNL     1     -73.383 -15.866  87.811  1.00  0.00     0.014 A 
ATOM     26  C   UNL     1     -72.866 -14.475  90.187  1.00  0.00     0.029 A 
ATOM     27  C   UNL     1     -72.293 -14.997  87.888  1.00  0.00     0.005 A 
ATOM     28  C   UNL     1     -72.023 -14.294  89.070  1.00  0.00    -0.035 A 
ATOM     29  C   UNL     1     -70.826 -13.382  89.138  1.00  0.00     0.045 C 
BRANCH  26  30
ATOM     30  C   UNL     1     -72.614 -13.787  91.431  1.00  0.00    -0.060 C 
ATOM     31  C   UNL     1     -72.410 -13.205  92.466  1.00  0.00    -0.040 C 
BRANCH  31  32
ATOM     32  C   UNL     1     -72.172 -12.501  93.697  1.00  0.00     0.135 A 
ATOM     33  C   UNL     1     -71.702 -11.207  93.843  1.00  0.00     0.151 A 
ATOM     34  N   UNL     1     -72.375 -12.989  94.925  1.00  0.00    -0.205 N 
ATOM     35  N   UNL     1     -71.612 -10.895  95.162  1.00  0.00    -0.234 NA
ATOM     36  C   UNL     1     -72.036 -12.018  95.780  1.00  0.00     0.154 A 
ATOM     37  N   UNL     1     -72.820 -14.188  95.296  1.00  0.00    -0.174 NA
ATOM     38  C   UNL     1     -72.135 -12.225  97.151  1.00  0.00     0.051 A 
ATOM     39  C   UNL     1     -72.943 -14.461  96.627  1.00  0.00     0.134 A 
ATOM     40  C   UNL     1     -72.600 -13.479  97.579  1.00  0.00     0.026 A 
ENDBRANCH  31  32
ENDBRANCH  26  30
ENDBRANCH   2  23
TORSDOF 7
ENDMDL
MODEL 10
REMARK VINA RESULT:    -9.600      6.110      9.020
REMARK INTER + INTRA:         -14.623
REMARK INTER:                 -14.763
REMARK INTRA:                   0.139
REMARK UNBOUND:                -1.095
REMARK SMILES Cc1ccc(C(=O)Nc2ccc(CN3CCN(C)CC3)c(C(F)(F)F)c2)cc1C#Cc1cnc2cccnn12
REMARK SMILES IDX 8 1 6 2 7 3 9 5 12 6 11 7 21 8 10 9 26 10 13 11 14 12 18 13
REMARK SMILES IDX 17 14 16 15 19 16 15 17 20 18 22 19 23 20 24 21 25 22 5 23
REMARK SMILES IDX 27 24 4 25 28 26 3 27 2 28 1 29 29 30 30 31 31 32 32 33
REMARK SMILES IDX 39 34 33 35 34 36 38 37 35 38 37 39 36 40
REMARK H PARENT 8 4
REMARK Flexibility Score: inf
ROOT
ATOM      1  N   UNL     1     -76.207 -17.928  88.984  1.00  0.00    -0.322 N 
ATOM      2  C   UNL     1     -76.023 -17.404  87.658  1.00  0.00     0.255 C 
ATOM      3  O   UNL     1     -75.110 -16.559  87.442  1.00  0.00    -0.269 OA
ATOM      4  H   UNL     1     -76.632 -18.878  89.086  1.00  0.00     0.170 HD
ENDROOT
BRANCH   1   5
ATOM      5  C   UNL     1     -75.688 -17.299  90.169  1.00  0.00     0.042 A 
ATOM      6  C   UNL     1     -74.593 -16.084  92.472  1.00  0.00    -0.022 A 
ATOM      7  C   UNL     1     -75.472 -17.179  92.578  1.00  0.00     0.008 A 
ATOM      8  C   UNL     1     -74.248 -15.592  91.181  1.00  0.00     0.062 A 
ATOM      9  C   UNL     1     -76.012 -17.778  91.444  1.00  0.00     0.026 A 
ATOM     10  C   UNL     1     -74.792 -16.230  90.046  1.00  0.00     0.039 A 
BRANCH   6  11
ATOM     11  C   UNL     1     -74.033 -15.502  93.757  1.00  0.00     0.120 C 
BRANCH  11  12
ATOM     12  N   UNL     1     -74.423 -16.296  94.945  1.00  0.00    -0.297 NA
ATOM     13  C   UNL     1     -71.954 -14.114  97.517  1.00  0.00     0.105 C 
ATOM     14  N   UNL     1     -72.768 -14.844  96.533  1.00  0.00    -0.304 NA
ATOM     15  C   UNL     1     -74.195 -14.487  96.676  1.00  0.00     0.099 C 
ATOM     16  C   UNL     1     -72.573 -16.295  96.674  1.00  0.00     0.099 C 
ATOM     17  C   UNL     1     -75.124 -15.505  95.980  1.00  0.00     0.100 C 
ATOM     18  C   UNL     1     -73.279 -17.044  95.521  1.00  0.00     0.100 C 
ENDBRANCH  11  12
ENDBRANCH   6  11
BRANCH   8  19
ATOM     19  C   UNL     1     -73.277 -14.438  90.987  1.00  0.00     0.416 C 
ATOM     20  F   UNL     1     -71.995 -14.889  90.720  1.00  0.00    -0.166 F 
ATOM     21  F   UNL     1     -73.667 -13.649  89.921  1.00  0.00    -0.166 F 
ATOM     22  F   UNL     1     -73.227 -13.669  92.134  1.00  0.00    -0.166 F 
ENDBRANCH   8  19
ENDBRANCH   1   5
BRANCH   2  23
ATOM     23  C   UNL     1     -76.850 -17.891  86.527  1.00  0.00     0.041 A 
ATOM     24  C   UNL     1     -77.939 -18.749  86.763  1.00  0.00     0.031 A 
ATOM     25  C   UNL     1     -76.561 -17.507  85.208  1.00  0.00     0.014 A 
ATOM     26  C   UNL     1     -78.738 -19.200  85.703  1.00  0.00     0.029 A 
ATOM     27  C   UNL     1     -77.350 -17.958  84.148  1.00  0.00     0.005 A 
ATOM     28  C   UNL     1     -78.442 -18.806  84.381  1.00  0.00    -0.035 A 
ATOM     29  C   UNL     1     -79.295 -19.259  83.225  1.00  0.00     0.045 C 
BRANCH  26  30
ATOM     30  C   UNL     1     -79.866 -20.054  85.992  1.00  0.00    -0.060 C 
ATOM     31  C   UNL     1     -80.810 -20.766  86.222  1.00  0.00    -0.040 C 
BRANCH  31  32
ATOM     32  C   UNL     1     -81.941 -21.614  86.486  1.00  0.00     0.135 A 
ATOM     33  C   UNL     1     -82.130 -22.915  86.051  1.00  0.00     0.151 A 
ATOM     34  N   UNL     1     -83.012 -21.281  87.212  1.00  0.00    -0.205 N 
ATOM     35  N   UNL     1     -83.320 -23.386  86.508  1.00  0.00    -0.234 NA
ATOM     36  C   UNL     1     -83.818 -22.348  87.213  1.00  0.00     0.154 A 
ATOM     37  N   UNL     1     -83.288 -20.137  87.837  1.00  0.00    -0.174 NA
ATOM     38  C   UNL     1     -85.032 -22.310  87.891  1.00  0.00     0.051 A 
ATOM     39  C   UNL     1     -84.462 -20.029  88.523  1.00  0.00     0.134 A 
ATOM     40  C   UNL     1     -85.356 -21.118  88.559  1.00  0.00     0.026 A 
ENDBRANCH  31  32
ENDBRANCH  26  30
ENDBRANCH   2  23
TORSDOF 7
ENDMDL
MODEL 11
REMARK VINA RESULT:    -9.272      1.625      2.439
REMARK INTER + INTRA:         -14.161
REMARK INTER:                 -13.686
REMARK INTRA:                  -0.475
REMARK UNBOUND:                -1.095
REMARK SMILES Cc1ccc(C(=O)Nc2ccc(CN3CCN(C)CC3)c(C(F)(F)F)c2)cc1C#Cc1cnc2cccnn12
REMARK SMILES IDX 8 1 6 2 7 3 9 5 12 6 11 7 21 8 10 9 26 10 13 11 14 12 18 13
REMARK SMILES IDX 17 14 16 15 19 16 15 17 20 18 22 19 23 20 24 21 25 22 5 23
REMARK SMILES IDX 27 24 4 25 28 26 3 27 2 28 1 29 29 30 30 31 31 32 32 33
REMARK SMILES IDX 39 34 33 35 34 36 38 37 35 38 37 39 36 40
REMARK H PARENT 8 4
REMARK Flexibility Score: inf
ROOT
ATOM      1  N   UNL     1     -79.454 -20.676  87.373  1.00  0.00    -0.322 N 
ATOM      2  C   UNL     1     -80.660 -20.486  86.613  1.00  0.00     0.255 C 
ATOM      3  O   UNL     1     -80.595 -19.990  85.454  1.00  0.00    -0.269 OA
ATOM      4  H   UNL     1     -79.439 -21.431  88.097  1.00  0.00     0.170 HD
ENDROOT
BRANCH   1   5
ATOM      5  C   UNL     1     -78.215 -20.005  87.083  1.00  0.00     0.042 A 
ATOM      6  C   UNL     1     -75.819 -18.617  86.524  1.00  0.00    -0.022 A 
ATOM      7  C   UNL     1     -76.435 -19.422  85.548  1.00  0.00     0.008 A 
ATOM      8  C   UNL     1     -76.423 -18.497  87.809  1.00  0.00     0.062 A 
ATOM      9  C   UNL     1     -77.616 -20.107  85.822  1.00  0.00     0.026 A 
ATOM     10  C   UNL     1     -77.631 -19.184  88.055  1.00  0.00     0.039 A 
BRANCH   6  11
ATOM     11  C   UNL     1     -74.545 -17.888  86.137  1.00  0.00     0.120 C 
BRANCH  11  12
ATOM     12  N   UNL     1     -74.823 -16.571  85.519  1.00  0.00    -0.297 NA
ATOM     13  C   UNL     1     -72.533 -17.411  82.124  1.00  0.00     0.105 C 
ATOM     14  N   UNL     1     -73.290 -17.193  83.366  1.00  0.00    -0.304 NA
ATOM     15  C   UNL     1     -74.743 -17.283  83.108  1.00  0.00     0.099 C 
ATOM     16  C   UNL     1     -72.942 -15.895  83.964  1.00  0.00     0.099 C 
ATOM     17  C   UNL     1     -75.577 -16.662  84.250  1.00  0.00     0.100 C 
ATOM     18  C   UNL     1     -73.593 -15.756  85.358  1.00  0.00     0.100 C 
ENDBRANCH  11  12
ENDBRANCH   6  11
BRANCH   8  19
ATOM     19  C   UNL     1     -75.837 -17.616  88.901  1.00  0.00     0.416 C 
ATOM     20  F   UNL     1     -76.491 -17.796  90.108  1.00  0.00    -0.166 F 
ATOM     21  F   UNL     1     -74.503 -17.918  89.105  1.00  0.00    -0.166 F 
ATOM     22  F   UNL     1     -75.958 -16.286  88.545  1.00  0.00    -0.166 F 
ENDBRANCH   8  19
ENDBRANCH   1   5
BRANCH   2  23
ATOM     23  C   UNL     1     -81.972 -20.926  87.148  1.00  0.00     0.041 A 
ATOM     24  C   UNL     1     -82.892 -19.981  87.635  1.00  0.00     0.031 A 
ATOM     25  C   UNL     1     -82.316 -22.287  87.180  1.00  0.00     0.014 A 
ATOM     26  C   UNL     1     -84.142 -20.384  88.125  1.00  0.00     0.029 A 
ATOM     27  C   UNL     1     -83.557 -22.695  87.672  1.00  0.00     0.005 A 
ATOM     28  C   UNL     1     -84.480 -21.754  88.149  1.00  0.00    -0.035 A 
ATOM     29  C   UNL     1     -85.823 -22.215  88.652  1.00  0.00     0.045 C 
BRANCH  26  30
ATOM     30  C   UNL     1     -85.070 -19.378  88.586  1.00  0.00    -0.060 C 
ATOM     31  C   UNL     1     -85.845 -18.545  88.981  1.00  0.00    -0.040 C 
BRANCH  31  32
ATOM     32  C   UNL     1     -86.771 -17.556  89.462  1.00  0.00     0.135 A 
ATOM     33  C   UNL     1     -87.249 -16.454  88.772  1.00  0.00     0.151 A 
ATOM     34  N   UNL     1     -87.336 -17.541  90.673  1.00  0.00    -0.205 N 
ATOM     35  N   UNL     1     -88.110 -15.757  89.558  1.00  0.00    -0.234 NA
ATOM     36  C   UNL     1     -88.128 -16.463  90.708  1.00  0.00     0.154 A 
ATOM     37  N   UNL     1     -87.188 -18.391  91.687  1.00  0.00    -0.174 NA
ATOM     38  C   UNL     1     -88.860 -16.169  91.854  1.00  0.00     0.051 A 
ATOM     39  C   UNL     1     -87.876 -18.164  92.842  1.00  0.00     0.134 A 
ATOM     40  C   UNL     1     -88.726 -17.044  92.944  1.00  0.00     0.026 A 
ENDBRANCH  31  32
ENDBRANCH  26  30
ENDBRANCH   2  23
TORSDOF 7
ENDMDL
MODEL 12
REMARK VINA RESULT:    -9.256      6.512      9.323
REMARK INTER + INTRA:         -14.138
REMARK INTER:                 -12.995
REMARK INTRA:                  -1.143
REMARK UNBOUND:                -1.095
REMARK SMILES Cc1ccc(C(=O)Nc2ccc(CN3CCN(C)CC3)c(C(F)(F)F)c2)cc1C#Cc1cnc2cccnn12
REMARK SMILES IDX 8 1 6 2 7 3 9 5 12 6 11 7 21 8 10 9 26 10 13 11 14 12 18 13
REMARK SMILES IDX 17 14 16 15 19 16 15 17 20 18 22 19 23 20 24 21 25 22 5 23
REMARK SMILES IDX 27 24 4 25 28 26 3 27 2 28 1 29 29 30 30 31 31 32 32 33
REMARK SMILES IDX 39 34 33 35 34 36 38 37 35 38 37 39 36 40
REMARK H PARENT 8 4
REMARK Flexibility Score: inf
ROOT
ATOM      1  N   UNL     1     -76.305 -18.005  89.671  1.00  0.00    -0.322 N 
ATOM      2  C   UNL     1     -75.815 -18.402  88.379  1.00  0.00     0.255 C 
ATOM      3  O   UNL     1     -74.598 -18.705  88.239  1.00  0.00    -0.269 OA
ATOM      4  H   UNL     1     -77.316 -18.165  89.887  1.00  0.00     0.170 HD
ENDROOT
BRANCH   1   5
ATOM      5  C   UNL     1     -75.456 -17.560  90.743  1.00  0.00     0.042 A 
ATOM      6  C   UNL     1     -73.846 -16.709  92.902  1.00  0.00    -0.022 A 
ATOM      7  C   UNL     1     -74.305 -15.795  91.936  1.00  0.00     0.008 A 
ATOM      8  C   UNL     1     -74.209 -18.082  92.790  1.00  0.00     0.062 A 
ATOM      9  C   UNL     1     -75.098 -16.213  90.871  1.00  0.00     0.026 A 
ATOM     10  C   UNL     1     -75.032 -18.477  91.714  1.00  0.00     0.039 A 
BRANCH   6  11
ATOM     11  C   UNL     1     -73.002 -16.168  94.042  1.00  0.00     0.120 C 
BRANCH  11  12
ATOM     12  N   UNL     1     -73.664 -15.041  94.738  1.00  0.00    -0.297 NA
ATOM     13  C   UNL     1     -72.134 -16.130  98.472  1.00  0.00     0.105 C 
ATOM     14  N   UNL     1     -72.650 -15.842  97.126  1.00  0.00    -0.304 NA
ATOM     15  C   UNL     1     -71.950 -14.677  96.543  1.00  0.00     0.099 C 
ATOM     16  C   UNL     1     -74.103 -15.616  97.165  1.00  0.00     0.099 C 
ATOM     17  C   UNL     1     -72.715 -14.080  95.342  1.00  0.00     0.100 C 
ATOM     18  C   UNL     1     -74.665 -15.504  95.730  1.00  0.00     0.100 C 
ENDBRANCH  11  12
ENDBRANCH   6  11
BRANCH   8  19
ATOM     19  C   UNL     1     -73.784 -19.120  93.816  1.00  0.00     0.416 C 
ATOM     20  F   UNL     1     -74.283 -20.375  93.510  1.00  0.00    -0.166 F 
ATOM     21  F   UNL     1     -72.406 -19.224  93.859  1.00  0.00    -0.166 F 
ATOM     22  F   UNL     1     -74.257 -18.767  95.065  1.00  0.00    -0.166 F 
ENDBRANCH   8  19
ENDBRANCH   1   5
BRANCH   2  23
ATOM     23  C   UNL     1     -76.735 -18.522  87.222  1.00  0.00     0.041 A 
ATOM     24  C   UNL     1     -77.883 -19.329  87.309  1.00  0.00     0.031 A 
ATOM     25  C   UNL     1     -76.476 -17.837  86.023  1.00  0.00     0.014 A 
ATOM     26  C   UNL     1     -78.769 -19.434  86.227  1.00  0.00     0.029 A 
ATOM     27  C   UNL     1     -77.352 -17.943  84.941  1.00  0.00     0.005 A 
ATOM     28  C   UNL     1     -78.502 -18.739  85.028  1.00  0.00    -0.035 A 
ATOM     29  C   UNL     1     -79.446 -18.818  83.857  1.00  0.00     0.045 C 
BRANCH  26  30
ATOM     30  C   UNL     1     -79.953 -20.249  86.369  1.00  0.00    -0.060 C 
ATOM     31  C   UNL     1     -80.941 -20.929  86.476  1.00  0.00    -0.040 C 
BRANCH  31  32
ATOM     32  C   UNL     1     -82.123 -21.740  86.593  1.00  0.00     0.135 A 
ATOM     33  C   UNL     1     -82.411 -22.902  85.896  1.00  0.00     0.151 A 
ATOM     34  N   UNL     1     -83.152 -21.504  87.411  1.00  0.00    -0.205 N 
ATOM     35  N   UNL     1     -83.621 -23.384  86.284  1.00  0.00    -0.234 NA
ATOM     36  C   UNL     1     -84.031 -22.493  87.211  1.00  0.00     0.154 A 
ATOM     37  N   UNL     1     -83.334 -20.508  88.276  1.00  0.00    -0.174 NA
ATOM     38  C   UNL     1     -85.224 -22.525  87.925  1.00  0.00     0.051 A 
ATOM     39  C   UNL     1     -84.483 -20.476  89.011  1.00  0.00     0.134 A 
ATOM     40  C   UNL     1     -85.450 -21.489  88.845  1.00  0.00     0.026 A 
ENDBRANCH  31  32
ENDBRANCH  26  30
ENDBRANCH   2  23
TORSDOF 7
ENDMDL
MODEL 13
REMARK VINA RESULT:    -9.159      8.211     10.382
REMARK INTER + INTRA:         -14.002
REMARK INTER:                 -13.498
REMARK INTRA:                  -0.503
REMARK UNBOUND:                -1.095
REMARK SMILES Cc1ccc(C(=O)Nc2ccc(CN3CCN(C)CC3)c(C(F)(F)F)c2)cc1C#Cc1cnc2cccnn12
REMARK SMILES IDX 8 1 6 2 7 3 9 5 12 6 11 7 21 8 10 9 26 10 13 11 14 12 18 13
REMARK SMILES IDX 17 14 16 15 19 16 15 17 20 18 22 19 23 20 24 21 25 22 5 23
REMARK SMILES IDX 27 24 4 25 28 26 3 27 2 28 1 29 29 30 30 31 31 32 32 33
REMARK SMILES IDX 39 34 33 35 34 36 38 37 35 38 37 39 36 40
REMARK H PARENT 8 4
REMARK Flexibility Score: inf
ROOT
ATOM      1  N   UNL     1     -75.698 -17.964  89.960  1.00  0.00    -0.322 N 
ATOM      2  C   UNL     1     -75.463 -16.957  90.960  1.00  0.00     0.255 C 
ATOM      3  O   UNL     1     -75.703 -15.746  90.695  1.00  0.00    -0.269 OA
ATOM      4  H   UNL     1     -75.908 -18.937  90.279  1.00  0.00     0.170 HD
ENDROOT
BRANCH   1   5
ATOM      5  C   UNL     1     -75.829 -17.678  88.557  1.00  0.00     0.042 A 
ATOM      6  C   UNL     1     -76.076 -17.195  85.784  1.00  0.00    -0.022 A 
ATOM      7  C   UNL     1     -75.032 -16.616  86.531  1.00  0.00     0.008 A 
ATOM      8  C   UNL     1     -77.013 -18.044  86.440  1.00  0.00     0.062 A 
ATOM      9  C   UNL     1     -74.910 -16.853  87.898  1.00  0.00     0.026 A 
ATOM     10  C   UNL     1     -76.854 -18.285  87.822  1.00  0.00     0.039 A 
BRANCH   6  11
ATOM     11  C   UNL     1     -76.125 -16.902  84.296  1.00  0.00     0.120 C 
BRANCH  11  12
ATOM     12  N   UNL     1     -75.745 -18.081  83.483  1.00  0.00    -0.297 NA
ATOM     13  C   UNL     1     -72.318 -16.232  81.965  1.00  0.00     0.105 C 
ATOM     14  N   UNL     1     -73.558 -16.788  82.526  1.00  0.00    -0.304 NA
ATOM     15  C   UNL     1     -73.249 -17.787  83.572  1.00  0.00     0.099 C 
ATOM     16  C   UNL     1     -74.387 -17.379  81.464  1.00  0.00     0.099 C 
ATOM     17  C   UNL     1     -74.460 -18.689  83.891  1.00  0.00     0.100 C 
ATOM     18  C   UNL     1     -75.766 -17.790  82.028  1.00  0.00     0.100 C 
ENDBRANCH  11  12
ENDBRANCH   6  11
BRANCH   8  19
ATOM     19  C   UNL     1     -78.143 -18.735  85.693  1.00  0.00     0.416 C 
ATOM     20  F   UNL     1     -78.997 -19.398  86.558  1.00  0.00    -0.166 F 
ATOM     21  F   UNL     1     -78.898 -17.812  84.994  1.00  0.00    -0.166 F 
ATOM     22  F   UNL     1     -77.623 -19.664  84.813  1.00  0.00    -0.166 F 
ENDBRANCH   8  19
ENDBRANCH   1   5
BRANCH   2  23
ATOM     23  C   UNL     1     -75.002 -17.330  92.319  1.00  0.00     0.041 A 
ATOM     24  C   UNL     1     -75.066 -16.398  93.370  1.00  0.00     0.031 A 
ATOM     25  C   UNL     1     -74.493 -18.613  92.580  1.00  0.00     0.014 A 
ATOM     26  C   UNL     1     -74.650 -16.746  94.663  1.00  0.00     0.029 A 
ATOM     27  C   UNL     1     -74.072 -18.962  93.864  1.00  0.00     0.005 A 
ATOM     28  C   UNL     1     -74.144 -18.038  94.916  1.00  0.00    -0.035 A 
ATOM     29  C   UNL     1     -73.708 -18.446  96.299  1.00  0.00     0.045 C 
BRANCH  26  30
ATOM     30  C   UNL     1     -74.762 -15.768  95.720  1.00  0.00    -0.060 C 
ATOM     31  C   UNL     1     -74.852 -14.962  96.611  1.00  0.00    -0.040 C 
BRANCH  31  32
ATOM     32  C   UNL     1     -74.958 -14.006  97.680  1.00  0.00     0.135 A 
ATOM     33  C   UNL     1     -75.823 -14.054  98.760  1.00  0.00     0.151 A 
ATOM     34  N   UNL     1     -74.222 -12.898  97.811  1.00  0.00    -0.205 N 
ATOM     35  N   UNL     1     -75.622 -12.974  99.560  1.00  0.00    -0.234 NA
ATOM     36  C   UNL     1     -74.633 -12.300  98.934  1.00  0.00     0.154 A 
ATOM     37  N   UNL     1     -73.260 -12.424  97.022  1.00  0.00    -0.174 NA
ATOM     38  C   UNL     1     -74.052 -11.106  99.345  1.00  0.00     0.051 A 
ATOM     39  C   UNL     1     -72.645 -11.255  97.364  1.00  0.00     0.134 A 
ATOM     40  C   UNL     1     -73.034 -10.575  98.536  1.00  0.00     0.026 A 
ENDBRANCH  31  32
ENDBRANCH  26  30
ENDBRANCH   2  23
TORSDOF 7
ENDMDL
MODEL 14
REMARK VINA RESULT:    -9.114      2.114      3.135
REMARK INTER + INTRA:         -13.938
REMARK INTER:                 -13.634
REMARK INTRA:                  -0.304
REMARK UNBOUND:                -1.095
REMARK SMILES Cc1ccc(C(=O)Nc2ccc(CN3CCN(C)CC3)c(C(F)(F)F)c2)cc1C#Cc1cnc2cccnn12
REMARK SMILES IDX 8 1 6 2 7 3 9 5 12 6 11 7 21 8 10 9 26 10 13 11 14 12 18 13
REMARK SMILES IDX 17 14 16 15 19 16 15 17 20 18 22 19 23 20 24 21 25 22 5 23
REMARK SMILES IDX 27 24 4 25 28 26 3 27 2 28 1 29 29 30 30 31 31 32 32 33
REMARK SMILES IDX 39 34 33 35 34 36 38 37 35 38 37 39 36 40
REMARK H PARENT 8 4
REMARK Flexibility Score: inf
ROOT
ATOM      1  N   UNL     1     -79.550 -20.709  87.405  1.00  0.00    -0.322 N 
ATOM      2  C   UNL     1     -80.749 -20.541  86.631  1.00  0.00     0.255 C 
ATOM      3  O   UNL     1     -80.676 -20.075  85.459  1.00  0.00    -0.269 OA
ATOM      4  H   UNL     1     -79.540 -21.445  88.148  1.00  0.00     0.170 HD
ENDROOT
BRANCH   1   5
ATOM      5  C   UNL     1     -78.309 -20.044  87.107  1.00  0.00     0.042 A 
ATOM      6  C   UNL     1     -75.852 -18.803  86.475  1.00  0.00    -0.022 A 
ATOM      7  C   UNL     1     -76.169 -19.151  87.802  1.00  0.00     0.008 A 
ATOM      8  C   UNL     1     -76.785 -19.092  85.438  1.00  0.00     0.062 A 
ATOM      9  C   UNL     1     -77.380 -19.762  88.114  1.00  0.00     0.026 A 
ATOM     10  C   UNL     1     -77.996 -19.732  85.778  1.00  0.00     0.039 A 
BRANCH   6  11
ATOM     11  C   UNL     1     -74.502 -18.158  86.217  1.00  0.00     0.120 C 
BRANCH  11  12
ATOM     12  N   UNL     1     -74.574 -16.680  86.263  1.00  0.00    -0.297 NA
ATOM     13  C   UNL     1     -70.733 -16.300  87.869  1.00  0.00     0.105 C 
ATOM     14  N   UNL     1     -72.083 -16.533  87.333  1.00  0.00    -0.304 NA
ATOM     15  C   UNL     1     -72.134 -16.191  85.896  1.00  0.00     0.099 C 
ATOM     16  C   UNL     1     -73.081 -15.763  88.092  1.00  0.00     0.099 C 
ATOM     17  C   UNL     1     -73.582 -16.013  85.390  1.00  0.00     0.100 C 
ATOM     18  C   UNL     1     -74.509 -16.157  87.649  1.00  0.00     0.100 C 
ENDBRANCH  11  12
ENDBRANCH   6  11
BRANCH   8  19
ATOM     19  C   UNL     1     -76.497 -18.781  83.978  1.00  0.00     0.416 C 
ATOM     20  F   UNL     1     -76.393 -17.418  83.757  1.00  0.00    -0.166 F 
ATOM     21  F   UNL     1     -75.302 -19.355  83.586  1.00  0.00    -0.166 F 
ATOM     22  F   UNL     1     -77.520 -19.264  83.185  1.00  0.00    -0.166 F 
ENDBRANCH   8  19
ENDBRANCH   1   5
BRANCH   2  23
ATOM     23  C   UNL     1     -82.065 -20.968  87.166  1.00  0.00     0.041 A 
ATOM     24  C   UNL     1     -82.963 -20.017  87.682  1.00  0.00     0.031 A 
ATOM     25  C   UNL     1     -82.434 -22.323  87.170  1.00  0.00     0.014 A 
ATOM     26  C   UNL     1     -84.217 -20.408  88.173  1.00  0.00     0.029 A 
ATOM     27  C   UNL     1     -83.679 -22.719  87.664  1.00  0.00     0.005 A 
ATOM     28  C   UNL     1     -84.581 -21.772  88.170  1.00  0.00    -0.035 A 
ATOM     29  C   UNL     1     -85.928 -22.219  88.673  1.00  0.00     0.045 C 
BRANCH  26  30
ATOM     30  C   UNL     1     -85.122 -19.396  88.664  1.00  0.00    -0.060 C 
ATOM     31  C   UNL     1     -85.887 -18.559  89.071  1.00  0.00    -0.040 C 
BRANCH  31  32
ATOM     32  C   UNL     1     -86.808 -17.564  89.551  1.00  0.00     0.135 A 
ATOM     33  C   UNL     1     -87.289 -16.467  88.858  1.00  0.00     0.151 A 
ATOM     34  N   UNL     1     -87.363 -17.539  90.767  1.00  0.00    -0.205 N 
ATOM     35  N   UNL     1     -88.142 -15.762  89.646  1.00  0.00    -0.234 NA
ATOM     36  C   UNL     1     -88.152 -16.460  90.801  1.00  0.00     0.154 A 
ATOM     37  N   UNL     1     -87.207 -18.382  91.786  1.00  0.00    -0.174 NA
ATOM     38  C   UNL     1     -88.874 -16.156  91.950  1.00  0.00     0.051 A 
ATOM     39  C   UNL     1     -87.885 -18.145  92.945  1.00  0.00     0.134 A 
ATOM     40  C   UNL     1     -88.733 -17.023  93.045  1.00  0.00     0.026 A 
ENDBRANCH  31  32
ENDBRANCH  26  30
ENDBRANCH   2  23
TORSDOF 7
ENDMDL
MODEL 15
REMARK VINA RESULT:    -9.011      6.442     11.791
REMARK INTER + INTRA:         -13.794
REMARK INTER:                 -13.196
REMARK INTRA:                  -0.597
REMARK UNBOUND:                -1.095
REMARK SMILES Cc1ccc(C(=O)Nc2ccc(CN3CCN(C)CC3)c(C(F)(F)F)c2)cc1C#Cc1cnc2cccnn12
REMARK SMILES IDX 8 1 6 2 7 3 9 5 12 6 11 7 21 8 10 9 26 10 13 11 14 12 18 13
REMARK SMILES IDX 17 14 16 15 19 16 15 17 20 18 22 19 23 20 24 21 25 22 5 23
REMARK SMILES IDX 27 24 4 25 28 26 3 27 2 28 1 29 29 30 30 31 31 32 32 33
REMARK SMILES IDX 39 34 33 35 34 36 38 37 35 38 37 39 36 40
REMARK H PARENT 8 4
REMARK Flexibility Score: inf
ROOT
ATOM      1  N   UNL     1     -76.241 -17.600  87.152  1.00  0.00    -0.322 N 
ATOM      2  C   UNL     1     -74.988 -17.808  87.826  1.00  0.00     0.255 C 
ATOM      3  O   UNL     1     -74.645 -18.977  88.159  1.00  0.00    -0.269 OA
ATOM      4  H   UNL     1     -76.332 -16.767  86.525  1.00  0.00     0.170 HD
ENDROOT
BRANCH   1   5
ATOM      5  C   UNL     1     -77.315 -18.555  87.154  1.00  0.00     0.042 A 
ATOM      6  C   UNL     1     -79.373 -20.491  87.178  1.00  0.00    -0.022 A 
ATOM      7  C   UNL     1     -79.044 -19.796  85.998  1.00  0.00     0.008 A 
ATOM      8  C   UNL     1     -78.648 -20.215  88.373  1.00  0.00     0.062 A 
ATOM      9  C   UNL     1     -78.031 -18.842  85.986  1.00  0.00     0.026 A 
ATOM     10  C   UNL     1     -77.610 -19.259  88.328  1.00  0.00     0.039 A 
BRANCH   6  11
ATOM     11  C   UNL     1     -80.477 -21.529  87.101  1.00  0.00     0.120 C 
BRANCH  11  12
ATOM     12  N   UNL     1     -81.549 -21.134  86.159  1.00  0.00    -0.297 NA
ATOM     13  C   UNL     1     -84.596 -21.944  88.903  1.00  0.00     0.105 C 
ATOM     14  N   UNL     1     -83.461 -21.717  87.996  1.00  0.00    -0.304 NA
ATOM     15  C   UNL     1     -83.205 -20.269  87.841  1.00  0.00     0.099 C 
ATOM     16  C   UNL     1     -83.706 -22.349  86.690  1.00  0.00     0.099 C 
ATOM     17  C   UNL     1     -82.328 -19.960  86.609  1.00  0.00     0.100 C 
ATOM     18  C   UNL     1     -82.438 -22.270  85.811  1.00  0.00     0.100 C 
ENDBRANCH  11  12
ENDBRANCH   6  11
BRANCH   8  19
ATOM     19  C   UNL     1     -78.920 -20.952  89.675  1.00  0.00     0.416 C 
ATOM     20  F   UNL     1     -78.542 -22.281  89.599  1.00  0.00    -0.166 F 
ATOM     21  F   UNL     1     -78.211 -20.379  90.714  1.00  0.00    -0.166 F 
ATOM     22  F   UNL     1     -80.271 -20.909  89.963  1.00  0.00    -0.166 F 
ENDBRANCH   8  19
ENDBRANCH   1   5
BRANCH   2  23
ATOM     23  C   UNL     1     -74.063 -16.676  88.078  1.00  0.00     0.041 A 
ATOM     24  C   UNL     1     -73.885 -16.183  89.383  1.00  0.00     0.031 A 
ATOM     25  C   UNL     1     -73.355 -16.077  87.024  1.00  0.00     0.014 A 
ATOM     26  C   UNL     1     -72.999 -15.126  89.635  1.00  0.00     0.029 A 
ATOM     27  C   UNL     1     -72.477 -15.020  87.268  1.00  0.00     0.005 A 
ATOM     28  C   UNL     1     -72.289 -14.533  88.569  1.00  0.00    -0.035 A 
ATOM     29  C   UNL     1     -71.317 -13.408  88.812  1.00  0.00     0.045 C 
BRANCH  26  30
ATOM     30  C   UNL     1     -72.821 -14.671  90.994  1.00  0.00    -0.060 C 
ATOM     31  C   UNL     1     -72.680 -14.301  92.132  1.00  0.00    -0.040 C 
BRANCH  31  32
ATOM     32  C   UNL     1     -72.519 -13.865  93.492  1.00  0.00     0.135 A 
ATOM     33  C   UNL     1     -72.465 -14.662  94.624  1.00  0.00     0.151 A 
ATOM     34  N   UNL     1     -72.388 -12.598  93.895  1.00  0.00    -0.205 N 
ATOM     35  N   UNL     1     -72.301 -13.886  95.727  1.00  0.00    -0.234 NA
ATOM     36  C   UNL     1     -72.260 -12.633  95.225  1.00  0.00     0.154 A 
ATOM     37  N   UNL     1     -72.378 -11.478  93.174  1.00  0.00    -0.174 NA
ATOM     38  C   UNL     1     -72.106 -11.454  95.946  1.00  0.00     0.051 A 
ATOM     39  C   UNL     1     -72.232 -10.283  93.815  1.00  0.00     0.134 A 
ATOM     40  C   UNL     1     -72.094 -10.253  95.218  1.00  0.00     0.026 A 
ENDBRANCH  31  32
ENDBRANCH  26  30
ENDBRANCH   2  23
TORSDOF 7
ENDMDL
