MODEL 1
REMARK VINA RESULT:   -10.625      0.000      0.000
REMARK INTER + INTRA:         -14.848
REMARK INTER:                 -14.351
REMARK INTRA:                  -0.497
REMARK UNBOUND:                -0.497
REMARK SMILES CNC(=O)c1cc(Oc2ccc(NC(=O)Nc3ccc(Cl)c(C(F)(F)F)c3)c(F)c2)ccn1
REMARK SMILES IDX 9 1 30 2 28 3 29 4 12 5 11 6 10 7 8 8 7 9 5 10 6 11 33 12
REMARK SMILES IDX 32 13 31 14 3 15 1 16 2 17 4 19 13 20 14 21 15 23 16 24
REMARK SMILES IDX 17 26 18 27 27 28 19 29 22 30 20 31 21 32 23 33 24 34 25 35
REMARK SMILES IDX 26 36
REMARK H PARENT 2 18 13 22 16 25
REMARK Flexibility Score: inf
ROOT
ATOM      1  C   UNL     1     -81.398 -20.030  85.404  1.00  0.00     0.130 A 
ATOM      2  C   UNL     1     -80.905 -19.185  84.395  1.00  0.00     0.088 A 
ATOM      3  C   UNL     1     -79.536 -18.912  84.308  1.00  0.00     0.150 A 
ATOM      4  F   UNL     1     -79.084 -18.094  83.323  1.00  0.00    -0.205 F 
ATOM      5  C   UNL     1     -78.641 -19.469  85.235  1.00  0.00     0.079 A 
ATOM      6  C   UNL     1     -79.135 -20.336  86.227  1.00  0.00     0.033 A 
ATOM      7  C   UNL     1     -80.502 -20.616  86.304  1.00  0.00     0.049 A 
ENDROOT
BRANCH   1   8
ATOM      8  O   UNL     1     -82.761 -20.344  85.502  1.00  0.00    -0.457 OA
BRANCH   8   9
ATOM      9  C   UNL     1     -83.471 -20.479  86.705  1.00  0.00     0.131 A 
ATOM     10  C   UNL     1     -84.866 -19.590  88.484  1.00  0.00     0.131 A 
ATOM     11  C   UNL     1     -84.190 -19.411  87.266  1.00  0.00     0.081 A 
ATOM     12  N   UNL     1     -84.803 -20.798  89.109  1.00  0.00    -0.251 NA
ATOM     13  C   UNL     1     -84.100 -21.841  88.595  1.00  0.00     0.116 A 
ATOM     14  C   UNL     1     -83.420 -21.698  87.385  1.00  0.00     0.067 A 
BRANCH  10  15
ATOM     15  C   UNL     1     -85.645 -18.489  89.091  1.00  0.00     0.269 C 
ATOM     16  C   UNL     1     -87.329 -17.685  90.793  1.00  0.00     0.143 C 
ATOM     17  N   UNL     1     -86.503 -18.738  90.215  1.00  0.00    -0.354 N 
ATOM     18  H   UNL     1     -86.522 -19.684  90.660  1.00  0.00     0.163 HD
ATOM     19  O   UNL     1     -85.556 -17.323  88.617  1.00  0.00    -0.268 OA
ENDBRANCH  10  15
ENDBRANCH   8   9
ENDBRANCH   1   8
BRANCH   5  20
ATOM     20  N   UNL     1     -77.234 -19.205  85.114  1.00  0.00    -0.305 N 
ATOM     21  C   UNL     1     -76.571 -18.098  85.741  1.00  0.00     0.323 C 
ATOM     22  H   UNL     1     -76.671 -19.815  84.478  1.00  0.00     0.171 HD
ATOM     23  O   UNL     1     -77.244 -17.165  86.253  1.00  0.00    -0.248 OA
ATOM     24  N   UNL     1     -75.137 -18.027  85.712  1.00  0.00    -0.308 N 
ATOM     25  H   UNL     1     -74.630 -18.702  85.092  1.00  0.00     0.171 HD
BRANCH  24  26
ATOM     26  C   UNL     1     -74.355 -17.026  86.387  1.00  0.00     0.043 A 
ATOM     27  C   UNL     1     -73.148 -16.604  85.815  1.00  0.00     0.028 A 
ATOM     28  C   UNL     1     -74.742 -16.504  87.635  1.00  0.00     0.040 A 
ATOM     29  C   UNL     1     -72.351 -15.659  86.460  1.00  0.00     0.023 A 
ATOM     30  C   UNL     1     -73.955 -15.535  88.289  1.00  0.00     0.076 A 
ATOM     31  C   UNL     1     -72.745 -15.119  87.688  1.00  0.00     0.053 A 
ATOM     32  Cl  UNL     1     -71.681 -13.935  88.446  1.00  0.00    -0.084 Cl
BRANCH  30  33
ATOM     33  C   UNL     1     -74.388 -14.962  89.622  1.00  0.00     0.417 C 
ATOM     34  F   UNL     1     -75.618 -15.488  89.977  1.00  0.00    -0.166 F 
ATOM     35  F   UNL     1     -73.487 -15.259  90.630  1.00  0.00    -0.166 F 
ATOM     36  F   UNL     1     -74.496 -13.585  89.525  1.00  0.00    -0.166 F 
ENDBRANCH  30  33
ENDBRANCH  24  26
ENDBRANCH   5  20
TORSDOF 6
ENDMDL
MODEL 2
REMARK VINA RESULT:   -10.060      1.567      1.927
REMARK INTER + INTRA:         -14.085
REMARK INTER:                 -13.351
REMARK INTRA:                  -0.734
REMARK UNBOUND:                -0.497
REMARK SMILES CNC(=O)c1cc(Oc2ccc(NC(=O)Nc3ccc(Cl)c(C(F)(F)F)c3)c(F)c2)ccn1
REMARK SMILES IDX 9 1 30 2 28 3 29 4 12 5 11 6 10 7 8 8 7 9 5 10 6 11 33 12
REMARK SMILES IDX 32 13 31 14 3 15 1 16 2 17 4 19 13 20 14 21 15 23 16 24
REMARK SMILES IDX 17 26 18 27 27 28 19 29 22 30 20 31 21 32 23 33 24 34 25 35
REMARK SMILES IDX 26 36
REMARK H PARENT 2 18 13 22 16 25
REMARK Flexibility Score: inf
ROOT
ATOM      1  C   UNL     1     -81.060 -19.979  85.438  1.00  0.00     0.130 A 
ATOM      2  C   UNL     1     -80.144 -20.648  86.268  1.00  0.00     0.088 A 
ATOM      3  C   UNL     1     -78.800 -20.263  86.291  1.00  0.00     0.150 A 
ATOM      4  F   UNL     1     -77.934 -20.924  87.103  1.00  0.00    -0.205 F 
ATOM      5  C   UNL     1     -78.349 -19.211  85.478  1.00  0.00     0.079 A 
ATOM      6  C   UNL     1     -79.274 -18.526  84.669  1.00  0.00     0.033 A 
ATOM      7  C   UNL     1     -80.619 -18.906  84.656  1.00  0.00     0.049 A 
ENDROOT
BRANCH   1   8
ATOM      8  O   UNL     1     -82.419 -20.324  85.411  1.00  0.00    -0.457 OA
BRANCH   8   9
ATOM      9  C   UNL     1     -83.223 -20.515  86.546  1.00  0.00     0.131 A 
ATOM     10  C   UNL     1     -84.703 -19.697  88.290  1.00  0.00     0.131 A 
ATOM     11  C   UNL     1     -83.929 -19.459  87.142  1.00  0.00     0.081 A 
ATOM     12  N   UNL     1     -84.746 -20.953  88.814  1.00  0.00    -0.251 NA
ATOM     13  C   UNL     1     -84.058 -21.988  88.265  1.00  0.00     0.116 A 
ATOM     14  C   UNL     1     -83.283 -21.786  87.123  1.00  0.00     0.067 A 
BRANCH  10  15
ATOM     15  C   UNL     1     -85.470 -18.607  88.930  1.00  0.00     0.269 C 
ATOM     16  C   UNL     1     -87.107 -17.831  90.690  1.00  0.00     0.143 C 
ATOM     17  N   UNL     1     -86.293 -18.873  90.077  1.00  0.00    -0.354 N 
ATOM     18  H   UNL     1     -86.292 -19.823  90.513  1.00  0.00     0.163 HD
ATOM     19  O   UNL     1     -85.404 -17.437  88.466  1.00  0.00    -0.268 OA
ENDBRANCH  10  15
ENDBRANCH   8   9
ENDBRANCH   1   8
BRANCH   5  20
ATOM     20  N   UNL     1     -76.972 -18.805  85.536  1.00  0.00    -0.305 N 
ATOM     21  C   UNL     1     -76.346 -18.263  86.709  1.00  0.00     0.323 C 
ATOM     22  H   UNL     1     -76.409 -18.842  84.656  1.00  0.00     0.171 HD
ATOM     23  O   UNL     1     -77.048 -17.905  87.692  1.00  0.00    -0.248 OA
ATOM     24  N   UNL     1     -74.925 -18.063  86.720  1.00  0.00    -0.308 N 
ATOM     25  H   UNL     1     -74.413 -18.166  85.813  1.00  0.00     0.171 HD
BRANCH  24  26
ATOM     26  C   UNL     1     -74.171 -17.623  87.865  1.00  0.00     0.043 A 
ATOM     27  C   UNL     1     -73.333 -18.535  88.519  1.00  0.00     0.028 A 
ATOM     28  C   UNL     1     -74.302 -16.320  88.378  1.00  0.00     0.040 A 
ATOM     29  C   UNL     1     -72.614 -18.149  89.650  1.00  0.00     0.023 A 
ATOM     30  C   UNL     1     -73.568 -15.912  89.511  1.00  0.00     0.076 A 
ATOM     31  C   UNL     1     -72.721 -16.847  90.149  1.00  0.00     0.053 A 
ATOM     32  Cl  UNL     1     -71.788 -16.437  91.587  1.00  0.00    -0.084 Cl
BRANCH  30  33
ATOM     33  C   UNL     1     -73.697 -14.501  90.045  1.00  0.00     0.417 C 
ATOM     34  F   UNL     1     -74.669 -13.821  89.333  1.00  0.00    -0.166 F 
ATOM     35  F   UNL     1     -74.053 -14.486  91.382  1.00  0.00    -0.166 F 
ATOM     36  F   UNL     1     -72.488 -13.838  89.907  1.00  0.00    -0.166 F 
ENDBRANCH  30  33
ENDBRANCH  24  26
ENDBRANCH   5  20
TORSDOF 6
ENDMDL
MODEL 3
REMARK VINA RESULT:    -9.889      5.979     11.830
REMARK INTER + INTRA:         -13.854
REMARK INTER:                 -13.764
REMARK INTRA:                  -0.091
REMARK UNBOUND:                -0.497
REMARK SMILES CNC(=O)c1cc(Oc2ccc(NC(=O)Nc3ccc(Cl)c(C(F)(F)F)c3)c(F)c2)ccn1
REMARK SMILES IDX 9 1 30 2 28 3 29 4 12 5 11 6 10 7 8 8 7 9 5 10 6 11 33 12
REMARK SMILES IDX 32 13 31 14 3 15 1 16 2 17 4 19 13 20 14 21 15 23 16 24
REMARK SMILES IDX 17 26 18 27 27 28 19 29 22 30 20 31 21 32 23 33 24 34 25 35
REMARK SMILES IDX 26 36
REMARK H PARENT 2 18 13 22 16 25
REMARK Flexibility Score: inf
ROOT
ATOM      1  C   UNL     1     -72.287 -14.321  92.023  1.00  0.00     0.130 A 
ATOM      2  C   UNL     1     -71.689 -14.129  90.765  1.00  0.00     0.088 A 
ATOM      3  C   UNL     1     -72.399 -14.413  89.595  1.00  0.00     0.150 A 
ATOM      4  F   UNL     1     -71.800 -14.216  88.391  1.00  0.00    -0.205 F 
ATOM      5  C   UNL     1     -73.713 -14.903  89.663  1.00  0.00     0.079 A 
ATOM      6  C   UNL     1     -74.317 -15.069  90.922  1.00  0.00     0.033 A 
ATOM      7  C   UNL     1     -73.608 -14.775  92.091  1.00  0.00     0.049 A 
ENDROOT
BRANCH   1   8
ATOM      8  O   UNL     1     -71.610 -14.022  93.214  1.00  0.00    -0.457 OA
BRANCH   8   9
ATOM      9  C   UNL     1     -71.968 -13.002  94.108  1.00  0.00     0.131 A 
ATOM     10  C   UNL     1     -72.163 -10.660  94.724  1.00  0.00     0.131 A 
ATOM     11  C   UNL     1     -71.810 -11.644  93.787  1.00  0.00     0.081 A 
ATOM     12  N   UNL     1     -72.645 -11.040  95.939  1.00  0.00    -0.251 NA
ATOM     13  C   UNL     1     -72.791 -12.348  96.281  1.00  0.00     0.116 A 
ATOM     14  C   UNL     1     -72.453 -13.351  95.371  1.00  0.00     0.067 A 
BRANCH  10  15
ATOM     15  C   UNL     1     -72.022  -9.222  94.407  1.00  0.00     0.269 C 
ATOM     16  C   UNL     1     -70.888  -6.999  94.801  1.00  0.00     0.143 C 
ATOM     17  N   UNL     1     -71.008  -8.431  95.048  1.00  0.00    -0.354 N 
ATOM     18  H   UNL     1     -70.314  -8.885  95.683  1.00  0.00     0.163 HD
ATOM     19  O   UNL     1     -72.799  -8.685  93.571  1.00  0.00    -0.268 OA
ENDBRANCH  10  15
ENDBRANCH   8   9
ENDBRANCH   1   8
BRANCH   5  20
ATOM     20  N   UNL     1     -74.441 -15.159  88.451  1.00  0.00    -0.305 N 
ATOM     21  C   UNL     1     -75.211 -16.347  88.216  1.00  0.00     0.323 C 
ATOM     22  H   UNL     1     -74.352 -14.472  87.668  1.00  0.00     0.171 HD
ATOM     23  O   UNL     1     -75.098 -17.337  88.987  1.00  0.00    -0.248 OA
ATOM     24  N   UNL     1     -76.050 -16.425  87.053  1.00  0.00    -0.308 N 
ATOM     25  H   UNL     1     -75.946 -15.675  86.329  1.00  0.00     0.171 HD
BRANCH  24  26
ATOM     26  C   UNL     1     -76.941 -17.516  86.761  1.00  0.00     0.043 A 
ATOM     27  C   UNL     1     -77.190 -18.475  87.751  1.00  0.00     0.028 A 
ATOM     28  C   UNL     1     -77.520 -17.676  85.488  1.00  0.00     0.040 A 
ATOM     29  C   UNL     1     -78.024 -19.561  87.489  1.00  0.00     0.023 A 
ATOM     30  C   UNL     1     -78.378 -18.761  85.216  1.00  0.00     0.076 A 
ATOM     31  C   UNL     1     -78.622 -19.711  86.234  1.00  0.00     0.053 A 
ATOM     32  Cl  UNL     1     -79.656 -21.115  85.976  1.00  0.00    -0.084 Cl
BRANCH  30  33
ATOM     33  C   UNL     1     -79.015 -18.916  83.851  1.00  0.00     0.417 C 
ATOM     34  F   UNL     1     -78.582 -17.899  83.018  1.00  0.00    -0.166 F 
ATOM     35  F   UNL     1     -78.686 -20.124  83.262  1.00  0.00    -0.166 F 
ATOM     36  F   UNL     1     -80.393 -18.847  83.969  1.00  0.00    -0.166 F 
ENDBRANCH  30  33
ENDBRANCH  24  26
ENDBRANCH   5  20
TORSDOF 6
ENDMDL
MODEL 4
REMARK VINA RESULT:    -9.860      6.353     11.766
REMARK INTER + INTRA:         -13.815
REMARK INTER:                 -13.652
REMARK INTRA:                  -0.163
REMARK UNBOUND:                -0.497
REMARK SMILES CNC(=O)c1cc(Oc2ccc(NC(=O)Nc3ccc(Cl)c(C(F)(F)F)c3)c(F)c2)ccn1
REMARK SMILES IDX 9 1 30 2 28 3 29 4 12 5 11 6 10 7 8 8 7 9 5 10 6 11 33 12
REMARK SMILES IDX 32 13 31 14 3 15 1 16 2 17 4 19 13 20 14 21 15 23 16 24
REMARK SMILES IDX 17 26 18 27 27 28 19 29 22 30 20 31 21 32 23 33 24 34 25 35
REMARK SMILES IDX 26 36
REMARK H PARENT 2 18 13 22 16 25
REMARK Flexibility Score: inf
ROOT
ATOM      1  C   UNL     1     -72.496 -14.351  92.496  1.00  0.00     0.130 A 
ATOM      2  C   UNL     1     -71.882 -14.076  91.262  1.00  0.00     0.088 A 
ATOM      3  C   UNL     1     -72.553 -14.340  90.064  1.00  0.00     0.150 A 
ATOM      4  F   UNL     1     -71.939 -14.064  88.885  1.00  0.00    -0.205 F 
ATOM      5  C   UNL     1     -73.844 -14.892  90.081  1.00  0.00     0.079 A 
ATOM      6  C   UNL     1     -74.466 -15.141  91.318  1.00  0.00     0.033 A 
ATOM      7  C   UNL     1     -73.796 -14.866  92.514  1.00  0.00     0.049 A 
ENDROOT
BRANCH   1   8
ATOM      8  O   UNL     1     -71.859 -14.074  93.715  1.00  0.00    -0.457 OA
BRANCH   8   9
ATOM      9  C   UNL     1     -72.142 -12.974  94.538  1.00  0.00     0.131 A 
ATOM     10  C   UNL     1     -72.215 -10.586  94.978  1.00  0.00     0.131 A 
ATOM     11  C   UNL     1     -71.938 -11.653  94.109  1.00  0.00     0.081 A 
ATOM     12  N   UNL     1     -72.671 -10.852  96.234  1.00  0.00    -0.251 NA
ATOM     13  C   UNL     1     -72.860 -12.122  96.679  1.00  0.00     0.116 A 
ATOM     14  C   UNL     1     -72.597 -13.205  95.839  1.00  0.00     0.067 A 
BRANCH  10  15
ATOM     15  C   UNL     1     -72.025  -9.184  94.549  1.00  0.00     0.269 C 
ATOM     16  C   UNL     1     -70.825  -6.973  94.777  1.00  0.00     0.143 C 
ATOM     17  N   UNL     1     -70.994  -8.375  95.138  1.00  0.00    -0.354 N 
ATOM     18  H   UNL     1     -70.322  -8.797  95.818  1.00  0.00     0.163 HD
ATOM     19  O   UNL     1     -72.773  -8.694  93.660  1.00  0.00    -0.268 OA
ENDBRANCH  10  15
ENDBRANCH   8   9
ENDBRANCH   1   8
BRANCH   5  20
ATOM     20  N   UNL     1     -74.535 -15.128  88.843  1.00  0.00    -0.305 N 
ATOM     21  C   UNL     1     -75.225 -16.346  88.531  1.00  0.00     0.323 C 
ATOM     22  H   UNL     1     -74.474 -14.396  88.098  1.00  0.00     0.171 HD
ATOM     23  O   UNL     1     -75.065 -17.366  89.252  1.00  0.00    -0.248 OA
ATOM     24  N   UNL     1     -76.038 -16.413  87.349  1.00  0.00    -0.308 N 
ATOM     25  H   UNL     1     -75.968 -15.621  86.667  1.00  0.00     0.171 HD
BRANCH  24  26
ATOM     26  C   UNL     1     -76.855 -17.539  86.982  1.00  0.00     0.043 A 
ATOM     27  C   UNL     1     -77.421 -17.581  85.702  1.00  0.00     0.028 A 
ATOM     28  C   UNL     1     -77.148 -18.567  87.897  1.00  0.00     0.040 A 
ATOM     29  C   UNL     1     -78.244 -18.642  85.327  1.00  0.00     0.023 A 
ATOM     30  C   UNL     1     -77.964 -19.654  87.524  1.00  0.00     0.076 A 
ATOM     31  C   UNL     1     -78.517 -19.679  86.224  1.00  0.00     0.053 A 
ATOM     32  Cl  UNL     1     -79.573 -20.982  85.680  1.00  0.00    -0.084 Cl
BRANCH  30  33
ATOM     33  C   UNL     1     -78.258 -20.769  88.507  1.00  0.00     0.417 C 
ATOM     34  F   UNL     1     -77.843 -20.394  89.773  1.00  0.00    -0.166 F 
ATOM     35  F   UNL     1     -79.610 -21.062  88.566  1.00  0.00    -0.166 F 
ATOM     36  F   UNL     1     -77.579 -21.915  88.129  1.00  0.00    -0.166 F 
ENDBRANCH  30  33
ENDBRANCH  24  26
ENDBRANCH   5  20
TORSDOF 6
ENDMDL
MODEL 5
REMARK VINA RESULT:    -9.826      6.261     11.718
REMARK INTER + INTRA:         -13.770
REMARK INTER:                 -13.844
REMARK INTRA:                   0.074
REMARK UNBOUND:                -0.497
REMARK SMILES CNC(=O)c1cc(Oc2ccc(NC(=O)Nc3ccc(Cl)c(C(F)(F)F)c3)c(F)c2)ccn1
REMARK SMILES IDX 9 1 30 2 28 3 29 4 12 5 11 6 10 7 8 8 7 9 5 10 6 11 33 12
REMARK SMILES IDX 32 13 31 14 3 15 1 16 2 17 4 19 13 20 14 21 15 23 16 24
REMARK SMILES IDX 17 26 18 27 27 28 19 29 22 30 20 31 21 32 23 33 24 34 25 35
REMARK SMILES IDX 26 36
REMARK H PARENT 2 18 13 22 16 25
REMARK Flexibility Score: inf
ROOT
ATOM      1  C   UNL     1     -72.408 -14.265  92.315  1.00  0.00     0.130 A 
ATOM      2  C   UNL     1     -71.760 -14.049  91.087  1.00  0.00     0.088 A 
ATOM      3  C   UNL     1     -72.399 -14.368  89.885  1.00  0.00     0.150 A 
ATOM      4  F   UNL     1     -71.753 -14.149  88.710  1.00  0.00    -0.205 F 
ATOM      5  C   UNL     1     -73.692 -14.917  89.893  1.00  0.00     0.079 A 
ATOM      6  C   UNL     1     -74.348 -15.106  91.122  1.00  0.00     0.033 A 
ATOM      7  C   UNL     1     -73.709 -14.776  92.322  1.00  0.00     0.049 A 
ENDROOT
BRANCH   1   8
ATOM      8  O   UNL     1     -71.803 -13.932  93.536  1.00  0.00    -0.457 OA
BRANCH   8   9
ATOM      9  C   UNL     1     -72.089 -12.782  94.288  1.00  0.00     0.131 A 
ATOM     10  C   UNL     1     -72.726 -11.672  96.352  1.00  0.00     0.131 A 
ATOM     11  C   UNL     1     -72.426 -12.849  95.649  1.00  0.00     0.081 A 
ATOM     12  N   UNL     1     -72.695 -10.478  95.697  1.00  0.00    -0.251 NA
ATOM     13  C   UNL     1     -72.389 -10.389  94.376  1.00  0.00     0.116 A 
ATOM     14  C   UNL     1     -72.083 -11.540  93.648  1.00  0.00     0.067 A 
BRANCH  10  15
ATOM     15  C   UNL     1     -73.068 -11.710  97.790  1.00  0.00     0.269 C 
ATOM     16  C   UNL     1     -72.433 -12.257 100.173  1.00  0.00     0.143 C 
ATOM     17  N   UNL     1     -72.102 -12.151  98.757  1.00  0.00    -0.354 N 
ATOM     18  H   UNL     1     -71.126 -12.374  98.458  1.00  0.00     0.163 HD
ATOM     19  O   UNL     1     -74.216 -11.354  98.171  1.00  0.00    -0.268 OA
ENDBRANCH  10  15
ENDBRANCH   8   9
ENDBRANCH   1   8
BRANCH   5  20
ATOM     20  N   UNL     1     -74.349 -15.209  88.649  1.00  0.00    -0.305 N 
ATOM     21  C   UNL     1     -75.152 -16.377  88.423  1.00  0.00     0.323 C 
ATOM     22  H   UNL     1     -74.178 -14.570  87.839  1.00  0.00     0.171 HD
ATOM     23  O   UNL     1     -75.133 -17.327  89.250  1.00  0.00    -0.248 OA
ATOM     24  N   UNL     1     -75.915 -16.484  87.211  1.00  0.00    -0.308 N 
ATOM     25  H   UNL     1     -75.732 -15.780  86.459  1.00  0.00     0.171 HD
BRANCH  24  26
ATOM     26  C   UNL     1     -76.831 -17.554  86.915  1.00  0.00     0.043 A 
ATOM     27  C   UNL     1     -77.075 -18.530  87.890  1.00  0.00     0.028 A 
ATOM     28  C   UNL     1     -77.440 -17.676  85.653  1.00  0.00     0.040 A 
ATOM     29  C   UNL     1     -77.933 -19.596  87.624  1.00  0.00     0.023 A 
ATOM     30  C   UNL     1     -78.323 -18.740  85.377  1.00  0.00     0.076 A 
ATOM     31  C   UNL     1     -78.561 -19.708  86.379  1.00  0.00     0.053 A 
ATOM     32  Cl  UNL     1     -79.625 -21.088  86.114  1.00  0.00    -0.084 Cl
BRANCH  30  33
ATOM     33  C   UNL     1     -78.992 -18.854  84.023  1.00  0.00     0.417 C 
ATOM     34  F   UNL     1     -78.554 -17.831  83.200  1.00  0.00    -0.166 F 
ATOM     35  F   UNL     1     -78.702 -20.057  83.403  1.00  0.00    -0.166 F 
ATOM     36  F   UNL     1     -80.365 -18.759  84.172  1.00  0.00    -0.166 F 
ENDBRANCH  30  33
ENDBRANCH  24  26
ENDBRANCH   5  20
TORSDOF 6
ENDMDL
MODEL 6
REMARK VINA RESULT:    -9.793      4.540      9.823
REMARK INTER + INTRA:         -13.725
REMARK INTER:                 -12.879
REMARK INTRA:                  -0.846
REMARK UNBOUND:                -0.497
REMARK SMILES CNC(=O)c1cc(Oc2ccc(NC(=O)Nc3ccc(Cl)c(C(F)(F)F)c3)c(F)c2)ccn1
REMARK SMILES IDX 9 1 30 2 28 3 29 4 12 5 11 6 10 7 8 8 7 9 5 10 6 11 33 12
REMARK SMILES IDX 32 13 31 14 3 15 1 16 2 17 4 19 13 20 14 21 15 23 16 24
REMARK SMILES IDX 17 26 18 27 27 28 19 29 22 30 20 31 21 32 23 33 24 34 25 35
REMARK SMILES IDX 26 36
REMARK H PARENT 2 18 13 22 16 25
REMARK Flexibility Score: inf
ROOT
ATOM      1  C   UNL     1     -74.733 -17.915  86.843  1.00  0.00     0.130 A 
ATOM      2  C   UNL     1     -75.792 -17.159  86.312  1.00  0.00     0.088 A 
ATOM      3  C   UNL     1     -76.944 -17.793  85.837  1.00  0.00     0.150 A 
ATOM      4  F   UNL     1     -77.955 -17.041  85.330  1.00  0.00    -0.205 F 
ATOM      5  C   UNL     1     -77.051 -19.193  85.875  1.00  0.00     0.079 A 
ATOM      6  C   UNL     1     -76.001 -19.944  86.433  1.00  0.00     0.033 A 
ATOM      7  C   UNL     1     -74.855 -19.307  86.917  1.00  0.00     0.049 A 
ENDROOT
BRANCH   1   8
ATOM      8  O   UNL     1     -73.575 -17.308  87.351  1.00  0.00    -0.457 OA
BRANCH   8   9
ATOM      9  C   UNL     1     -73.561 -16.253  88.277  1.00  0.00     0.131 A 
ATOM     10  C   UNL     1     -74.293 -15.198  90.339  1.00  0.00     0.131 A 
ATOM     11  C   UNL     1     -74.325 -16.288  89.454  1.00  0.00     0.081 A 
ATOM     12  N   UNL     1     -73.526 -14.115  90.033  1.00  0.00    -0.251 NA
ATOM     13  C   UNL     1     -72.791 -14.050  88.892  1.00  0.00     0.116 A 
ATOM     14  C   UNL     1     -72.798 -15.118  87.993  1.00  0.00     0.067 A 
BRANCH  10  15
ATOM     15  C   UNL     1     -75.074 -15.213  91.594  1.00  0.00     0.269 C 
ATOM     16  C   UNL     1     -77.303 -15.316  92.779  1.00  0.00     0.143 C 
ATOM     17  N   UNL     1     -76.503 -15.360  91.561  1.00  0.00    -0.354 N 
ATOM     18  H   UNL     1     -76.990 -15.536  90.653  1.00  0.00     0.163 HD
ATOM     19  O   UNL     1     -74.483 -15.094  92.702  1.00  0.00    -0.268 OA
ENDBRANCH  10  15
ENDBRANCH   8   9
ENDBRANCH   1   8
BRANCH   5  20
ATOM     20  N   UNL     1     -78.254 -19.828  85.414  1.00  0.00    -0.305 N 
ATOM     21  C   UNL     1     -79.348 -20.189  86.270  1.00  0.00     0.323 C 
ATOM     22  H   UNL     1     -78.310 -20.106  84.407  1.00  0.00     0.171 HD
ATOM     23  O   UNL     1     -79.205 -20.167  87.521  1.00  0.00    -0.248 OA
ATOM     24  N   UNL     1     -80.577 -20.649  85.687  1.00  0.00    -0.308 N 
ATOM     25  H   UNL     1     -80.579 -20.860  84.662  1.00  0.00     0.171 HD
BRANCH  24  26
ATOM     26  C   UNL     1     -81.773 -20.944  86.431  1.00  0.00     0.043 A 
ATOM     27  C   UNL     1     -82.128 -22.281  86.647  1.00  0.00     0.028 A 
ATOM     28  C   UNL     1     -82.624 -19.924  86.895  1.00  0.00     0.040 A 
ATOM     29  C   UNL     1     -83.297 -22.601  87.336  1.00  0.00     0.023 A 
ATOM     30  C   UNL     1     -83.800 -20.233  87.609  1.00  0.00     0.076 A 
ATOM     31  C   UNL     1     -84.134 -21.590  87.821  1.00  0.00     0.053 A 
ATOM     32  Cl  UNL     1     -85.598 -22.072  88.676  1.00  0.00    -0.084 Cl
BRANCH  30  33
ATOM     33  C   UNL     1     -84.701 -19.130  88.124  1.00  0.00     0.417 C 
ATOM     34  F   UNL     1     -85.683 -18.856  87.188  1.00  0.00    -0.166 F 
ATOM     35  F   UNL     1     -85.322 -19.482  89.309  1.00  0.00    -0.166 F 
ATOM     36  F   UNL     1     -83.955 -17.984  88.345  1.00  0.00    -0.166 F 
ENDBRANCH  30  33
ENDBRANCH  24  26
ENDBRANCH   5  20
TORSDOF 6
ENDMDL
MODEL 7
REMARK VINA RESULT:    -9.789      5.312     10.918
REMARK INTER + INTRA:         -13.719
REMARK INTER:                 -13.581
REMARK INTRA:                  -0.138
REMARK UNBOUND:                -0.497
REMARK SMILES CNC(=O)c1cc(Oc2ccc(NC(=O)Nc3ccc(Cl)c(C(F)(F)F)c3)c(F)c2)ccn1
REMARK SMILES IDX 9 1 30 2 28 3 29 4 12 5 11 6 10 7 8 8 7 9 5 10 6 11 33 12
REMARK SMILES IDX 32 13 31 14 3 15 1 16 2 17 4 19 13 20 14 21 15 23 16 24
REMARK SMILES IDX 17 26 18 27 27 28 19 29 22 30 20 31 21 32 23 33 24 34 25 35
REMARK SMILES IDX 26 36
REMARK H PARENT 2 18 13 22 16 25
REMARK Flexibility Score: inf
ROOT
ATOM      1  C   UNL     1     -81.538 -20.707  86.602  1.00  0.00     0.130 A 
ATOM      2  C   UNL     1     -81.436 -21.116  87.943  1.00  0.00     0.088 A 
ATOM      3  C   UNL     1     -82.505 -20.922  88.824  1.00  0.00     0.150 A 
ATOM      4  F   UNL     1     -82.384 -21.328  90.114  1.00  0.00    -0.205 F 
ATOM      5  C   UNL     1     -83.687 -20.306  88.381  1.00  0.00     0.079 A 
ATOM      6  C   UNL     1     -83.795 -19.923  87.032  1.00  0.00     0.033 A 
ATOM      7  C   UNL     1     -82.728 -20.128  86.151  1.00  0.00     0.049 A 
ENDROOT
BRANCH   1   8
ATOM      8  O   UNL     1     -80.493 -20.910  85.688  1.00  0.00    -0.457 OA
BRANCH   8   9
ATOM      9  C   UNL     1     -79.478 -19.983  85.409  1.00  0.00     0.131 A 
ATOM     10  C   UNL     1     -77.660 -18.522  86.088  1.00  0.00     0.131 A 
ATOM     11  C   UNL     1     -78.648 -19.464  86.415  1.00  0.00     0.081 A 
ATOM     12  N   UNL     1     -77.530 -18.116  84.794  1.00  0.00    -0.251 NA
ATOM     13  C   UNL     1     -78.332 -18.590  83.805  1.00  0.00     0.116 A 
ATOM     14  C   UNL     1     -79.321 -19.530  84.096  1.00  0.00     0.067 A 
BRANCH  10  15
ATOM     15  C   UNL     1     -76.761 -17.970  87.124  1.00  0.00     0.269 C 
ATOM     16  C   UNL     1     -75.952 -17.928  89.517  1.00  0.00     0.143 C 
ATOM     17  N   UNL     1     -76.783 -18.494  88.462  1.00  0.00    -0.354 N 
ATOM     18  H   UNL     1     -77.379 -19.321  88.690  1.00  0.00     0.163 HD
ATOM     19  O   UNL     1     -75.970 -17.032  86.833  1.00  0.00    -0.268 OA
ENDBRANCH  10  15
ENDBRANCH   8   9
ENDBRANCH   1   8
BRANCH   5  20
ATOM     20  N   UNL     1     -84.789 -20.144  89.289  1.00  0.00    -0.305 N 
ATOM     21  C   UNL     1     -85.454 -18.894  89.524  1.00  0.00     0.323 C 
ATOM     22  H   UNL     1     -85.080 -20.967  89.863  1.00  0.00     0.171 HD
ATOM     23  O   UNL     1     -84.947 -17.819  89.104  1.00  0.00    -0.248 OA
ATOM     24  N   UNL     1     -86.658 -18.873  90.306  1.00  0.00    -0.308 N 
ATOM     25  H   UNL     1     -86.921 -19.749  90.815  1.00  0.00     0.171 HD
BRANCH  24  26
ATOM     26  C   UNL     1     -87.467 -17.704  90.527  1.00  0.00     0.043 A 
ATOM     27  C   UNL     1     -87.870 -17.392  91.831  1.00  0.00     0.028 A 
ATOM     28  C   UNL     1     -87.913 -16.902  89.460  1.00  0.00     0.040 A 
ATOM     29  C   UNL     1     -88.681 -16.284  92.075  1.00  0.00     0.023 A 
ATOM     30  C   UNL     1     -88.719 -15.769  89.695  1.00  0.00     0.076 A 
ATOM     31  C   UNL     1     -89.105 -15.469  91.021  1.00  0.00     0.053 A 
ATOM     32  Cl  UNL     1     -90.136 -14.092  91.407  1.00  0.00    -0.084 Cl
BRANCH  30  33
ATOM     33  C   UNL     1     -89.177 -14.898  88.544  1.00  0.00     0.417 C 
ATOM     34  F   UNL     1     -89.915 -15.657  87.652  1.00  0.00    -0.166 F 
ATOM     35  F   UNL     1     -89.970 -13.849  88.975  1.00  0.00    -0.166 F 
ATOM     36  F   UNL     1     -88.076 -14.374  87.888  1.00  0.00    -0.166 F 
ENDBRANCH  30  33
ENDBRANCH  24  26
ENDBRANCH   5  20
TORSDOF 6
ENDMDL
MODEL 8
REMARK VINA RESULT:    -9.774      6.541     11.613
REMARK INTER + INTRA:         -13.700
REMARK INTER:                 -13.626
REMARK INTRA:                  -0.073
REMARK UNBOUND:                -0.497
REMARK SMILES CNC(=O)c1cc(Oc2ccc(NC(=O)Nc3ccc(Cl)c(C(F)(F)F)c3)c(F)c2)ccn1
REMARK SMILES IDX 9 1 30 2 28 3 29 4 12 5 11 6 10 7 8 8 7 9 5 10 6 11 33 12
REMARK SMILES IDX 32 13 31 14 3 15 1 16 2 17 4 19 13 20 14 21 15 23 16 24
REMARK SMILES IDX 17 26 18 27 27 28 19 29 22 30 20 31 21 32 23 33 24 34 25 35
REMARK SMILES IDX 26 36
REMARK H PARENT 2 18 13 22 16 25
REMARK Flexibility Score: inf
ROOT
ATOM      1  C   UNL     1     -72.414 -14.206  92.335  1.00  0.00     0.130 A 
ATOM      2  C   UNL     1     -71.790 -13.988  91.094  1.00  0.00     0.088 A 
ATOM      3  C   UNL     1     -72.452 -14.310  89.905  1.00  0.00     0.150 A 
ATOM      4  F   UNL     1     -71.830 -14.088  88.719  1.00  0.00    -0.205 F 
ATOM      5  C   UNL     1     -73.742 -14.864  89.938  1.00  0.00     0.079 A 
ATOM      6  C   UNL     1     -74.373 -15.056  91.181  1.00  0.00     0.033 A 
ATOM      7  C   UNL     1     -73.713 -14.723  92.368  1.00  0.00     0.049 A 
ENDROOT
BRANCH   1   8
ATOM      8  O   UNL     1     -71.787 -13.870  93.544  1.00  0.00    -0.457 OA
BRANCH   8   9
ATOM      9  C   UNL     1     -72.068 -12.725  94.305  1.00  0.00     0.131 A 
ATOM     10  C   UNL     1     -72.712 -11.629  96.374  1.00  0.00     0.131 A 
ATOM     11  C   UNL     1     -72.419 -12.802  95.662  1.00  0.00     0.081 A 
ATOM     12  N   UNL     1     -72.663 -10.429  95.731  1.00  0.00    -0.251 NA
ATOM     13  C   UNL     1     -72.343 -10.330  94.414  1.00  0.00     0.116 A 
ATOM     14  C   UNL     1     -72.042 -11.477  93.678  1.00  0.00     0.067 A 
BRANCH  10  15
ATOM     15  C   UNL     1     -73.069 -11.678  97.809  1.00  0.00     0.269 C 
ATOM     16  C   UNL     1     -72.439 -12.194 100.200  1.00  0.00     0.143 C 
ATOM     17  N   UNL     1     -72.096 -12.078  98.787  1.00  0.00    -0.354 N 
ATOM     18  H   UNL     1     -71.109 -12.261  98.500  1.00  0.00     0.163 HD
ATOM     19  O   UNL     1     -74.235 -11.368  98.176  1.00  0.00    -0.268 OA
ENDBRANCH  10  15
ENDBRANCH   8   9
ENDBRANCH   1   8
BRANCH   5  20
ATOM     20  N   UNL     1     -74.422 -15.160  88.708  1.00  0.00    -0.305 N 
ATOM     21  C   UNL     1     -75.161 -16.367  88.471  1.00  0.00     0.323 C 
ATOM     22  H   UNL     1     -74.317 -14.488  87.913  1.00  0.00     0.171 HD
ATOM     23  O   UNL     1     -75.057 -17.338  89.267  1.00  0.00    -0.248 OA
ATOM     24  N   UNL     1     -75.956 -16.485  87.282  1.00  0.00    -0.308 N 
ATOM     25  H   UNL     1     -75.841 -15.749  86.546  1.00  0.00     0.171 HD
BRANCH  24  26
ATOM     26  C   UNL     1     -76.816 -17.599  86.982  1.00  0.00     0.043 A 
ATOM     27  C   UNL     1     -77.412 -17.678  85.717  1.00  0.00     0.028 A 
ATOM     28  C   UNL     1     -77.121 -18.576  87.947  1.00  0.00     0.040 A 
ATOM     29  C   UNL     1     -78.275 -18.727  85.405  1.00  0.00     0.023 A 
ATOM     30  C   UNL     1     -77.979 -19.652  87.639  1.00  0.00     0.076 A 
ATOM     31  C   UNL     1     -78.561 -19.716  86.352  1.00  0.00     0.053 A 
ATOM     32  Cl  UNL     1     -79.669 -21.006  85.888  1.00  0.00    -0.084 Cl
BRANCH  30  33
ATOM     33  C   UNL     1     -78.286 -20.713  88.675  1.00  0.00     0.417 C 
ATOM     34  F   UNL     1     -77.796 -20.316  89.907  1.00  0.00    -0.166 F 
ATOM     35  F   UNL     1     -79.647 -20.931  88.803  1.00  0.00    -0.166 F 
ATOM     36  F   UNL     1     -77.684 -21.907  88.313  1.00  0.00    -0.166 F 
ENDBRANCH  30  33
ENDBRANCH  24  26
ENDBRANCH   5  20
TORSDOF 6
ENDMDL
MODEL 9
REMARK VINA RESULT:    -9.764      1.745      2.185
REMARK INTER + INTRA:         -13.685
REMARK INTER:                 -12.710
REMARK INTRA:                  -0.975
REMARK UNBOUND:                -0.497
REMARK SMILES CNC(=O)c1cc(Oc2ccc(NC(=O)Nc3ccc(Cl)c(C(F)(F)F)c3)c(F)c2)ccn1
REMARK SMILES IDX 9 1 30 2 28 3 29 4 12 5 11 6 10 7 8 8 7 9 5 10 6 11 33 12
REMARK SMILES IDX 32 13 31 14 3 15 1 16 2 17 4 19 13 20 14 21 15 23 16 24
REMARK SMILES IDX 17 26 18 27 27 28 19 29 22 30 20 31 21 32 23 33 24 34 25 35
REMARK SMILES IDX 26 36
REMARK H PARENT 2 18 13 22 16 25
REMARK Flexibility Score: inf
ROOT
ATOM      1  C   UNL     1     -80.812 -20.244  85.760  1.00  0.00     0.130 A 
ATOM      2  C   UNL     1     -80.211 -20.813  86.896  1.00  0.00     0.088 A 
ATOM      3  C   UNL     1     -78.854 -20.603  87.157  1.00  0.00     0.150 A 
ATOM      4  F   UNL     1     -78.296 -21.162  88.263  1.00  0.00    -0.205 F 
ATOM      5  C   UNL     1     -78.074 -19.830  86.282  1.00  0.00     0.079 A 
ATOM      6  C   UNL     1     -78.685 -19.239  85.161  1.00  0.00     0.033 A 
ATOM      7  C   UNL     1     -80.045 -19.443  84.908  1.00  0.00     0.049 A 
ENDROOT
BRANCH   1   8
ATOM      8  O   UNL     1     -82.176 -20.415  85.484  1.00  0.00    -0.457 OA
BRANCH   8   9
ATOM      9  C   UNL     1     -83.176 -20.598  86.451  1.00  0.00     0.131 A 
ATOM     10  C   UNL     1     -84.754 -19.750  88.092  1.00  0.00     0.131 A 
ATOM     11  C   UNL     1     -83.774 -19.515  87.115  1.00  0.00     0.081 A 
ATOM     12  N   UNL     1     -85.104 -21.033  88.389  1.00  0.00    -0.251 NA
ATOM     13  C   UNL     1     -84.528 -22.098  87.773  1.00  0.00     0.116 A 
ATOM     14  C   UNL     1     -83.552 -21.899  86.795  1.00  0.00     0.067 A 
BRANCH  10  15
ATOM     15  C   UNL     1     -85.413 -18.629  88.796  1.00  0.00     0.269 C 
ATOM     16  C   UNL     1     -86.960 -17.797  90.611  1.00  0.00     0.143 C 
ATOM     17  N   UNL     1     -86.250 -18.877  89.936  1.00  0.00    -0.354 N 
ATOM     18  H   UNL     1     -86.337 -19.844  90.322  1.00  0.00     0.163 HD
ATOM     19  O   UNL     1     -85.239 -17.447  88.393  1.00  0.00    -0.268 OA
ENDBRANCH  10  15
ENDBRANCH   8   9
ENDBRANCH   1   8
BRANCH   5  20
ATOM     20  N   UNL     1     -76.688 -19.595  86.581  1.00  0.00    -0.305 N 
ATOM     21  C   UNL     1     -76.204 -18.436  87.275  1.00  0.00     0.323 C 
ATOM     22  H   UNL     1     -75.983 -20.274  86.213  1.00  0.00     0.171 HD
ATOM     23  O   UNL     1     -76.962 -17.447  87.458  1.00  0.00    -0.248 OA
ATOM     24  N   UNL     1     -74.830 -18.384  87.687  1.00  0.00    -0.308 N 
ATOM     25  H   UNL     1     -74.186 -19.125  87.323  1.00  0.00     0.171 HD
BRANCH  24  26
ATOM     26  C   UNL     1     -74.253 -17.326  88.473  1.00  0.00     0.043 A 
ATOM     27  C   UNL     1     -73.397 -16.406  87.853  1.00  0.00     0.028 A 
ATOM     28  C   UNL     1     -74.479 -17.228  89.858  1.00  0.00     0.040 A 
ATOM     29  C   UNL     1     -72.797 -15.388  88.593  1.00  0.00     0.023 A 
ATOM     30  C   UNL     1     -73.891 -16.193  90.615  1.00  0.00     0.076 A 
ATOM     31  C   UNL     1     -73.039 -15.272  89.966  1.00  0.00     0.053 A 
ATOM     32  Cl  UNL     1     -72.237 -13.964  90.835  1.00  0.00    -0.084 Cl
BRANCH  30  33
ATOM     33  C   UNL     1     -74.156 -16.081  92.102  1.00  0.00     0.417 C 
ATOM     34  F   UNL     1     -74.742 -14.859  92.379  1.00  0.00    -0.166 F 
ATOM     35  F   UNL     1     -75.005 -17.077  92.552  1.00  0.00    -0.166 F 
ATOM     36  F   UNL     1     -72.962 -16.178  92.796  1.00  0.00    -0.166 F 
ENDBRANCH  30  33
ENDBRANCH  24  26
ENDBRANCH   5  20
TORSDOF 6
ENDMDL
MODEL 10
REMARK VINA RESULT:    -9.739      2.365      3.001
REMARK INTER + INTRA:         -13.652
REMARK INTER:                 -12.724
REMARK INTRA:                  -0.928
REMARK UNBOUND:                -0.497
REMARK SMILES CNC(=O)c1cc(Oc2ccc(NC(=O)Nc3ccc(Cl)c(C(F)(F)F)c3)c(F)c2)ccn1
REMARK SMILES IDX 9 1 30 2 28 3 29 4 12 5 11 6 10 7 8 8 7 9 5 10 6 11 33 12
REMARK SMILES IDX 32 13 31 14 3 15 1 16 2 17 4 19 13 20 14 21 15 23 16 24
REMARK SMILES IDX 17 26 18 27 27 28 19 29 22 30 20 31 21 32 23 33 24 34 25 35
REMARK SMILES IDX 26 36
REMARK H PARENT 2 18 13 22 16 25
REMARK Flexibility Score: inf
ROOT
ATOM      1  C   UNL     1     -80.570 -20.760  86.637  1.00  0.00     0.130 A 
ATOM      2  C   UNL     1     -80.269 -21.114  87.964  1.00  0.00     0.088 A 
ATOM      3  C   UNL     1     -78.978 -20.934  88.468  1.00  0.00     0.150 A 
ATOM      4  F   UNL     1     -78.712 -21.282  89.754  1.00  0.00    -0.205 F 
ATOM      5  C   UNL     1     -77.964 -20.408  87.651  1.00  0.00     0.079 A 
ATOM      6  C   UNL     1     -78.275 -20.030  86.332  1.00  0.00     0.033 A 
ATOM      7  C   UNL     1     -79.570 -20.201  85.834  1.00  0.00     0.049 A 
ENDROOT
BRANCH   1   8
ATOM      8  O   UNL     1     -81.862 -20.904  86.110  1.00  0.00    -0.457 OA
BRANCH   8   9
ATOM      9  C   UNL     1     -83.039 -20.955  86.871  1.00  0.00     0.131 A 
ATOM     10  C   UNL     1     -84.771 -19.911  88.217  1.00  0.00     0.131 A 
ATOM     11  C   UNL     1     -83.603 -19.805  87.445  1.00  0.00     0.081 A 
ATOM     12  N   UNL     1     -85.335 -21.137  88.406  1.00  0.00    -0.251 NA
ATOM     13  C   UNL     1     -84.799 -22.267  87.874  1.00  0.00     0.116 A 
ATOM     14  C   UNL     1     -83.641 -22.195  87.100  1.00  0.00     0.067 A 
BRANCH  10  15
ATOM     15  C   UNL     1     -85.396 -18.715  88.821  1.00  0.00     0.269 C 
ATOM     16  C   UNL     1     -86.994 -17.692  90.489  1.00  0.00     0.143 C 
ATOM     17  N   UNL     1     -86.317 -18.849  89.916  1.00  0.00    -0.354 N 
ATOM     18  H   UNL     1     -86.490 -19.787  90.343  1.00  0.00     0.163 HD
ATOM     19  O   UNL     1     -85.121 -17.569  88.372  1.00  0.00    -0.268 OA
ENDBRANCH  10  15
ENDBRANCH   8   9
ENDBRANCH   1   8
BRANCH   5  20
ATOM     20  N   UNL     1     -76.649 -20.199  88.192  1.00  0.00    -0.305 N 
ATOM     21  C   UNL     1     -76.125 -18.911  88.544  1.00  0.00     0.323 C 
ATOM     22  H   UNL     1     -76.012 -21.024  88.271  1.00  0.00     0.171 HD
ATOM     23  O   UNL     1     -76.722 -17.863  88.178  1.00  0.00    -0.248 OA
ATOM     24  N   UNL     1     -74.876 -18.826  89.248  1.00  0.00    -0.308 N 
ATOM     25  H   UNL     1     -74.309 -19.702  89.337  1.00  0.00     0.171 HD
BRANCH  24  26
ATOM     26  C   UNL     1     -74.298 -17.605  89.742  1.00  0.00     0.043 A 
ATOM     27  C   UNL     1     -74.722 -17.103  90.979  1.00  0.00     0.028 A 
ATOM     28  C   UNL     1     -73.364 -16.872  88.987  1.00  0.00     0.040 A 
ATOM     29  C   UNL     1     -74.206 -15.906  91.472  1.00  0.00     0.023 A 
ATOM     30  C   UNL     1     -72.821 -15.668  89.482  1.00  0.00     0.076 A 
ATOM     31  C   UNL     1     -73.258 -15.186  90.737  1.00  0.00     0.053 A 
ATOM     32  Cl  UNL     1     -72.658 -13.677  91.421  1.00  0.00    -0.084 Cl
BRANCH  30  33
ATOM     33  C   UNL     1     -71.800 -14.895  88.674  1.00  0.00     0.417 C 
ATOM     34  F   UNL     1     -71.521 -15.577  87.503  1.00  0.00    -0.166 F 
ATOM     35  F   UNL     1     -72.256 -13.632  88.338  1.00  0.00    -0.166 F 
ATOM     36  F   UNL     1     -70.633 -14.757  89.406  1.00  0.00    -0.166 F 
ENDBRANCH  30  33
ENDBRANCH  24  26
ENDBRANCH   5  20
TORSDOF 6
ENDMDL
MODEL 11
REMARK VINA RESULT:    -9.724      1.721      2.648
REMARK INTER + INTRA:         -13.632
REMARK INTER:                 -13.413
REMARK INTRA:                  -0.219
REMARK UNBOUND:                -0.497
REMARK SMILES CNC(=O)c1cc(Oc2ccc(NC(=O)Nc3ccc(Cl)c(C(F)(F)F)c3)c(F)c2)ccn1
REMARK SMILES IDX 9 1 30 2 28 3 29 4 12 5 11 6 10 7 8 8 7 9 5 10 6 11 33 12
REMARK SMILES IDX 32 13 31 14 3 15 1 16 2 17 4 19 13 20 14 21 15 23 16 24
REMARK SMILES IDX 17 26 18 27 27 28 19 29 22 30 20 31 21 32 23 33 24 34 25 35
REMARK SMILES IDX 26 36
REMARK H PARENT 2 18 13 22 16 25
REMARK Flexibility Score: inf
ROOT
ATOM      1  C   UNL     1     -81.336 -20.035  85.554  1.00  0.00     0.130 A 
ATOM      2  C   UNL     1     -80.291 -20.569  86.327  1.00  0.00     0.088 A 
ATOM      3  C   UNL     1     -78.965 -20.209  86.068  1.00  0.00     0.150 A 
ATOM      4  F   UNL     1     -77.973 -20.737  86.830  1.00  0.00    -0.205 F 
ATOM      5  C   UNL     1     -78.662 -19.318  85.025  1.00  0.00     0.079 A 
ATOM      6  C   UNL     1     -79.713 -18.765  84.271  1.00  0.00     0.033 A 
ATOM      7  C   UNL     1     -81.039 -19.119  84.540  1.00  0.00     0.049 A 
ENDROOT
BRANCH   1   8
ATOM      8  O   UNL     1     -82.678 -20.357  85.805  1.00  0.00    -0.457 OA
BRANCH   8   9
ATOM      9  C   UNL     1     -83.301 -20.283  87.060  1.00  0.00     0.131 A 
ATOM     10  C   UNL     1     -83.400 -20.766  89.438  1.00  0.00     0.131 A 
ATOM     11  C   UNL     1     -82.726 -20.847  88.209  1.00  0.00     0.081 A 
ATOM     12  N   UNL     1     -84.612 -20.147  89.493  1.00  0.00    -0.251 NA
ATOM     13  C   UNL     1     -85.198 -19.609  88.392  1.00  0.00     0.116 A 
ATOM     14  C   UNL     1     -84.553 -19.670  87.155  1.00  0.00     0.067 A 
BRANCH  10  15
ATOM     15  C   UNL     1     -82.811 -21.337  90.669  1.00  0.00     0.269 C 
ATOM     16  C   UNL     1     -81.022 -22.718  91.798  1.00  0.00     0.143 C 
ATOM     17  N   UNL     1     -81.591 -22.092  90.610  1.00  0.00    -0.354 N 
ATOM     18  H   UNL     1     -81.071 -22.177  89.707  1.00  0.00     0.163 HD
ATOM     19  O   UNL     1     -83.385 -21.160  91.778  1.00  0.00    -0.268 OA
ENDBRANCH  10  15
ENDBRANCH   8   9
ENDBRANCH   1   8
BRANCH   5  20
ATOM     20  N   UNL     1     -77.298 -18.931  84.792  1.00  0.00    -0.305 N 
ATOM     21  C   UNL     1     -76.618 -17.910  85.535  1.00  0.00     0.323 C 
ATOM     22  H   UNL     1     -76.792 -19.371  83.990  1.00  0.00     0.171 HD
ATOM     23  O   UNL     1     -77.267 -17.138  86.289  1.00  0.00    -0.248 OA
ATOM     24  N   UNL     1     -75.206 -17.727  85.351  1.00  0.00    -0.308 N 
ATOM     25  H   UNL     1     -74.749 -18.238  84.559  1.00  0.00     0.171 HD
BRANCH  24  26
ATOM     26  C   UNL     1     -74.396 -16.809  86.107  1.00  0.00     0.043 A 
ATOM     27  C   UNL     1     -73.186 -16.361  85.563  1.00  0.00     0.028 A 
ATOM     28  C   UNL     1     -74.760 -16.397  87.402  1.00  0.00     0.040 A 
ATOM     29  C   UNL     1     -72.363 -15.496  86.283  1.00  0.00     0.023 A 
ATOM     30  C   UNL     1     -73.946 -15.509  88.134  1.00  0.00     0.076 A 
ATOM     31  C   UNL     1     -72.733 -15.064  87.560  1.00  0.00     0.053 A 
ATOM     32  Cl  UNL     1     -71.637 -13.978  88.412  1.00  0.00    -0.084 Cl
BRANCH  30  33
ATOM     33  C   UNL     1     -74.354 -15.053  89.519  1.00  0.00     0.417 C 
ATOM     34  F   UNL     1     -73.432 -15.501  90.448  1.00  0.00    -0.166 F 
ATOM     35  F   UNL     1     -74.421 -13.674  89.610  1.00  0.00    -0.166 F 
ATOM     36  F   UNL     1     -75.600 -15.572  89.832  1.00  0.00    -0.166 F 
ENDBRANCH  30  33
ENDBRANCH  24  26
ENDBRANCH   5  20
TORSDOF 6
ENDMDL
MODEL 12
REMARK VINA RESULT:    -9.671      4.628      9.794
REMARK INTER + INTRA:         -13.560
REMARK INTER:                 -13.089
REMARK INTRA:                  -0.471
REMARK UNBOUND:                -0.497
REMARK SMILES CNC(=O)c1cc(Oc2ccc(NC(=O)Nc3ccc(Cl)c(C(F)(F)F)c3)c(F)c2)ccn1
REMARK SMILES IDX 9 1 30 2 28 3 29 4 12 5 11 6 10 7 8 8 7 9 5 10 6 11 33 12
REMARK SMILES IDX 32 13 31 14 3 15 1 16 2 17 4 19 13 20 14 21 15 23 16 24
REMARK SMILES IDX 17 26 18 27 27 28 19 29 22 30 20 31 21 32 23 33 24 34 25 35
REMARK SMILES IDX 26 36
REMARK H PARENT 2 18 13 22 16 25
REMARK Flexibility Score: inf
ROOT
ATOM      1  C   UNL     1     -74.519 -16.784  86.173  1.00  0.00     0.130 A 
ATOM      2  C   UNL     1     -74.355 -18.179  86.174  1.00  0.00     0.088 A 
ATOM      3  C   UNL     1     -75.435 -19.018  85.885  1.00  0.00     0.150 A 
ATOM      4  F   UNL     1     -75.250 -20.364  85.890  1.00  0.00    -0.205 F 
ATOM      5  C   UNL     1     -76.699 -18.476  85.600  1.00  0.00     0.079 A 
ATOM      6  C   UNL     1     -76.853 -17.078  85.574  1.00  0.00     0.033 A 
ATOM      7  C   UNL     1     -75.768 -16.241  85.854  1.00  0.00     0.049 A 
ENDROOT
BRANCH   1   8
ATOM      8  O   UNL     1     -73.450 -15.915  86.435  1.00  0.00    -0.457 OA
BRANCH   8   9
ATOM      9  C   UNL     1     -73.177 -15.328  87.680  1.00  0.00     0.131 A 
ATOM     10  C   UNL     1     -73.718 -14.878  90.005  1.00  0.00     0.131 A 
ATOM     11  C   UNL     1     -74.023 -15.504  88.786  1.00  0.00     0.081 A 
ATOM     12  N   UNL     1     -72.607 -14.096  90.092  1.00  0.00    -0.251 NA
ATOM     13  C   UNL     1     -71.781 -13.895  89.031  1.00  0.00     0.116 A 
ATOM     14  C   UNL     1     -72.054 -14.507  87.806  1.00  0.00     0.067 A 
BRANCH  10  15
ATOM     15  C   UNL     1     -74.583 -15.059  91.191  1.00  0.00     0.269 C 
ATOM     16  C   UNL     1     -76.875 -15.419  92.189  1.00  0.00     0.143 C 
ATOM     17  N   UNL     1     -75.990 -15.298  91.037  1.00  0.00    -0.354 N 
ATOM     18  H   UNL     1     -76.399 -15.424  90.083  1.00  0.00     0.163 HD
ATOM     19  O   UNL     1     -74.081 -15.001  92.347  1.00  0.00    -0.268 OA
ENDBRANCH  10  15
ENDBRANCH   8   9
ENDBRANCH   1   8
BRANCH   5  20
ATOM     20  N   UNL     1     -77.792 -19.349  85.272  1.00  0.00    -0.305 N 
ATOM     21  C   UNL     1     -78.773 -19.793  86.220  1.00  0.00     0.323 C 
ATOM     22  H   UNL     1     -77.837 -19.739  84.303  1.00  0.00     0.171 HD
ATOM     23  O   UNL     1     -78.588 -19.614  87.453  1.00  0.00    -0.248 OA
ATOM     24  N   UNL     1     -79.927 -20.512  85.756  1.00  0.00    -0.308 N 
ATOM     25  H   UNL     1     -79.931 -20.829  84.758  1.00  0.00     0.171 HD
BRANCH  24  26
ATOM     26  C   UNL     1     -81.025 -20.920  86.591  1.00  0.00     0.043 A 
ATOM     27  C   UNL     1     -82.287 -21.106  86.013  1.00  0.00     0.028 A 
ATOM     28  C   UNL     1     -80.875 -21.078  87.981  1.00  0.00     0.040 A 
ATOM     29  C   UNL     1     -83.378 -21.471  86.800  1.00  0.00     0.023 A 
ATOM     30  C   UNL     1     -81.967 -21.464  88.786  1.00  0.00     0.076 A 
ATOM     31  C   UNL     1     -83.230 -21.655  88.179  1.00  0.00     0.053 A 
ATOM     32  Cl  UNL     1     -84.657 -22.107  89.108  1.00  0.00    -0.084 Cl
BRANCH  30  33
ATOM     33  C   UNL     1     -81.795 -21.653  90.278  1.00  0.00     0.417 C 
ATOM     34  F   UNL     1     -82.743 -20.906  90.954  1.00  0.00    -0.166 F 
ATOM     35  F   UNL     1     -81.945 -22.978  90.651  1.00  0.00    -0.166 F 
ATOM     36  F   UNL     1     -80.531 -21.233  90.659  1.00  0.00    -0.166 F 
ENDBRANCH  30  33
ENDBRANCH  24  26
ENDBRANCH   5  20
TORSDOF 6
ENDMDL
MODEL 13
REMARK VINA RESULT:    -9.626      6.376     11.149
REMARK INTER + INTRA:         -13.499
REMARK INTER:                 -13.326
REMARK INTRA:                  -0.174
REMARK UNBOUND:                -0.497
REMARK SMILES CNC(=O)c1cc(Oc2ccc(NC(=O)Nc3ccc(Cl)c(C(F)(F)F)c3)c(F)c2)ccn1
REMARK SMILES IDX 9 1 30 2 28 3 29 4 12 5 11 6 10 7 8 8 7 9 5 10 6 11 33 12
REMARK SMILES IDX 32 13 31 14 3 15 1 16 2 17 4 19 13 20 14 21 15 23 16 24
REMARK SMILES IDX 17 26 18 27 27 28 19 29 22 30 20 31 21 32 23 33 24 34 25 35
REMARK SMILES IDX 26 36
REMARK H PARENT 2 18 13 22 16 25
REMARK Flexibility Score: inf
ROOT
ATOM      1  C   UNL     1     -72.947 -15.379  93.368  1.00  0.00     0.130 A 
ATOM      2  C   UNL     1     -74.300 -15.168  93.053  1.00  0.00     0.088 A 
ATOM      3  C   UNL     1     -74.758 -15.353  91.744  1.00  0.00     0.150 A 
ATOM      4  F   UNL     1     -76.070 -15.146  91.465  1.00  0.00    -0.205 F 
ATOM      5  C   UNL     1     -73.868 -15.741  90.729  1.00  0.00     0.079 A 
ATOM      6  C   UNL     1     -72.520 -15.977  91.055  1.00  0.00     0.033 A 
ATOM      7  C   UNL     1     -72.068 -15.801  92.366  1.00  0.00     0.049 A 
ENDROOT
BRANCH   1   8
ATOM      8  O   UNL     1     -72.462 -15.226  94.676  1.00  0.00    -0.457 OA
BRANCH   8   9
ATOM      9  C   UNL     1     -72.772 -14.156  95.528  1.00  0.00     0.131 A 
ATOM     10  C   UNL     1     -73.970 -13.185  97.405  1.00  0.00     0.131 A 
ATOM     11  C   UNL     1     -73.676 -14.292  96.593  1.00  0.00     0.081 A 
ATOM     12  N   UNL     1     -73.378 -11.987  97.137  1.00  0.00    -0.251 NA
ATOM     13  C   UNL     1     -72.513 -11.826  96.102  1.00  0.00     0.116 A 
ATOM     14  C   UNL     1     -72.197 -12.907  95.278  1.00  0.00     0.067 A 
BRANCH  10  15
ATOM     15  C   UNL     1     -74.906 -13.302  98.544  1.00  0.00     0.269 C 
ATOM     16  C   UNL     1     -76.271 -14.738 100.110  1.00  0.00     0.143 C 
ATOM     17  N   UNL     1     -75.303 -14.594  99.030  1.00  0.00    -0.354 N 
ATOM     18  H   UNL     1     -74.872 -15.458  98.631  1.00  0.00     0.163 HD
ATOM     19  O   UNL     1     -75.360 -12.261  99.092  1.00  0.00    -0.268 OA
ENDBRANCH  10  15
ENDBRANCH   8   9
ENDBRANCH   1   8
BRANCH   5  20
ATOM     20  N   UNL     1     -74.358 -15.959  89.397  1.00  0.00    -0.305 N 
ATOM     21  C   UNL     1     -75.268 -17.009  89.041  1.00  0.00     0.323 C 
ATOM     22  H   UNL     1     -73.979 -15.360  88.628  1.00  0.00     0.171 HD
ATOM     23  O   UNL     1     -75.507 -17.941  89.854  1.00  0.00    -0.248 OA
ATOM     24  N   UNL     1     -75.842 -17.029  87.725  1.00  0.00    -0.308 N 
ATOM     25  H   UNL     1     -75.450 -16.367  87.015  1.00  0.00     0.171 HD
BRANCH  24  26
ATOM     26  C   UNL     1     -76.839 -17.968  87.283  1.00  0.00     0.043 A 
ATOM     27  C   UNL     1     -77.254 -18.981  88.156  1.00  0.00     0.028 A 
ATOM     28  C   UNL     1     -77.361 -17.930  85.977  1.00  0.00     0.040 A 
ATOM     29  C   UNL     1     -78.195 -19.925  87.748  1.00  0.00     0.023 A 
ATOM     30  C   UNL     1     -78.326 -18.869  85.557  1.00  0.00     0.076 A 
ATOM     31  C   UNL     1     -78.737 -19.877  86.459  1.00  0.00     0.053 A 
ATOM     32  Cl  UNL     1     -79.914 -21.110  86.013  1.00  0.00    -0.084 Cl
BRANCH  30  33
ATOM     33  C   UNL     1     -78.900 -18.809  84.157  1.00  0.00     0.417 C 
ATOM     34  F   UNL     1     -78.733 -20.033  83.533  1.00  0.00    -0.166 F 
ATOM     35  F   UNL     1     -80.252 -18.512  84.166  1.00  0.00    -0.166 F 
ATOM     36  F   UNL     1     -78.243 -17.834  83.425  1.00  0.00    -0.166 F 
ENDBRANCH  30  33
ENDBRANCH  24  26
ENDBRANCH   5  20
TORSDOF 6
ENDMDL
MODEL 14
REMARK VINA RESULT:    -9.612      6.614     11.128
REMARK INTER + INTRA:         -13.481
REMARK INTER:                 -12.798
REMARK INTRA:                  -0.683
REMARK UNBOUND:                -0.497
REMARK SMILES CNC(=O)c1cc(Oc2ccc(NC(=O)Nc3ccc(Cl)c(C(F)(F)F)c3)c(F)c2)ccn1
REMARK SMILES IDX 9 1 30 2 28 3 29 4 12 5 11 6 10 7 8 8 7 9 5 10 6 11 33 12
REMARK SMILES IDX 32 13 31 14 3 15 1 16 2 17 4 19 13 20 14 21 15 23 16 24
REMARK SMILES IDX 17 26 18 27 27 28 19 29 22 30 20 31 21 32 23 33 24 34 25 35
REMARK SMILES IDX 26 36
REMARK H PARENT 2 18 13 22 16 25
REMARK Flexibility Score: inf
ROOT
ATOM      1  C   UNL     1     -74.104 -15.377  93.888  1.00  0.00     0.130 A 
ATOM      2  C   UNL     1     -73.265 -14.788  92.927  1.00  0.00     0.088 A 
ATOM      3  C   UNL     1     -73.686 -14.670  91.599  1.00  0.00     0.150 A 
ATOM      4  F   UNL     1     -72.859 -14.095  90.689  1.00  0.00    -0.205 F 
ATOM      5  C   UNL     1     -74.948 -15.149  91.209  1.00  0.00     0.079 A 
ATOM      6  C   UNL     1     -75.795 -15.713  92.179  1.00  0.00     0.033 A 
ATOM      7  C   UNL     1     -75.375 -15.820  93.509  1.00  0.00     0.049 A 
ENDROOT
BRANCH   1   8
ATOM      8  O   UNL     1     -73.721 -15.487  95.233  1.00  0.00    -0.457 OA
BRANCH   8   9
ATOM      9  C   UNL     1     -74.191 -14.670  96.272  1.00  0.00     0.131 A 
ATOM     10  C   UNL     1     -73.988 -12.757  97.756  1.00  0.00     0.131 A 
ATOM     11  C   UNL     1     -73.488 -13.530  96.696  1.00  0.00     0.081 A 
ATOM     12  N   UNL     1     -75.147 -13.132  98.365  1.00  0.00    -0.251 NA
ATOM     13  C   UNL     1     -75.836 -14.240  97.985  1.00  0.00     0.116 A 
ATOM     14  C   UNL     1     -75.368 -15.029  96.933  1.00  0.00     0.067 A 
BRANCH  10  15
ATOM     15  C   UNL     1     -73.279 -11.543  98.213  1.00  0.00     0.269 C 
ATOM     16  C   UNL     1     -72.337 -10.139 100.091  1.00  0.00     0.143 C 
ATOM     17  N   UNL     1     -72.980 -11.355  99.605  1.00  0.00    -0.354 N 
ATOM     18  H   UNL     1     -73.194 -12.111 100.293  1.00  0.00     0.163 HD
ATOM     19  O   UNL     1     -72.934 -10.665  97.375  1.00  0.00    -0.268 OA
ENDBRANCH  10  15
ENDBRANCH   8   9
ENDBRANCH   1   8
BRANCH   5  20
ATOM     20  N   UNL     1     -75.380 -14.991  89.848  1.00  0.00    -0.305 N 
ATOM     21  C   UNL     1     -75.211 -15.992  88.834  1.00  0.00     0.323 C 
ATOM     22  H   UNL     1     -75.780 -14.068  89.562  1.00  0.00     0.171 HD
ATOM     23  O   UNL     1     -74.462 -16.983  89.042  1.00  0.00    -0.248 OA
ATOM     24  N   UNL     1     -75.841 -15.813  87.555  1.00  0.00    -0.308 N 
ATOM     25  H   UNL     1     -76.268 -14.880  87.352  1.00  0.00     0.171 HD
BRANCH  24  26
ATOM     26  C   UNL     1     -75.829 -16.788  86.497  1.00  0.00     0.043 A 
ATOM     27  C   UNL     1     -74.600 -17.262  86.022  1.00  0.00     0.028 A 
ATOM     28  C   UNL     1     -77.018 -17.229  85.886  1.00  0.00     0.040 A 
ATOM     29  C   UNL     1     -74.553 -18.183  84.976  1.00  0.00     0.023 A 
ATOM     30  C   UNL     1     -76.985 -18.172  84.839  1.00  0.00     0.076 A 
ATOM     31  C   UNL     1     -75.733 -18.644  84.383  1.00  0.00     0.053 A 
ATOM     32  Cl  UNL     1     -75.593 -19.800  83.060  1.00  0.00    -0.084 Cl
BRANCH  30  33
ATOM     33  C   UNL     1     -78.269 -18.659  84.201  1.00  0.00     0.417 C 
ATOM     34  F   UNL     1     -78.203 -18.484  82.830  1.00  0.00    -0.166 F 
ATOM     35  F   UNL     1     -78.495 -20.001  84.454  1.00  0.00    -0.166 F 
ATOM     36  F   UNL     1     -79.340 -17.935  84.698  1.00  0.00    -0.166 F 
ENDBRANCH  30  33
ENDBRANCH  24  26
ENDBRANCH   5  20
TORSDOF 6
ENDMDL
MODEL 15
REMARK VINA RESULT:    -9.491      3.156      3.583
REMARK INTER + INTRA:         -13.317
REMARK INTER:                 -12.936
REMARK INTRA:                  -0.380
REMARK UNBOUND:                -0.497
REMARK SMILES CNC(=O)c1cc(Oc2ccc(NC(=O)Nc3ccc(Cl)c(C(F)(F)F)c3)c(F)c2)ccn1
REMARK SMILES IDX 9 1 30 2 28 3 29 4 12 5 11 6 10 7 8 8 7 9 5 10 6 11 33 12
REMARK SMILES IDX 32 13 31 14 3 15 1 16 2 17 4 19 13 20 14 21 15 23 16 24
REMARK SMILES IDX 17 26 18 27 27 28 19 29 22 30 20 31 21 32 23 33 24 34 25 35
REMARK SMILES IDX 26 36
REMARK H PARENT 2 18 13 22 16 25
REMARK Flexibility Score: inf
ROOT
ATOM      1  C   UNL     1     -80.466 -20.772  86.927  1.00  0.00     0.130 A 
ATOM      2  C   UNL     1     -80.323 -21.153  88.272  1.00  0.00     0.088 A 
ATOM      3  C   UNL     1     -79.056 -21.206  88.861  1.00  0.00     0.150 A 
ATOM      4  F   UNL     1     -78.944 -21.575  90.164  1.00  0.00    -0.205 F 
ATOM      5  C   UNL     1     -77.911 -20.889  88.112  1.00  0.00     0.079 A 
ATOM      6  C   UNL     1     -78.060 -20.482  86.774  1.00  0.00     0.033 A 
ATOM      7  C   UNL     1     -79.330 -20.420  86.191  1.00  0.00     0.049 A 
ENDROOT
BRANCH   1   8
ATOM      8  O   UNL     1     -81.725 -20.685  86.315  1.00  0.00    -0.457 OA
BRANCH   8   9
ATOM      9  C   UNL     1     -82.953 -20.800  86.983  1.00  0.00     0.131 A 
ATOM     10  C   UNL     1     -84.795 -19.865  88.262  1.00  0.00     0.131 A 
ATOM     11  C   UNL     1     -83.576 -19.695  87.586  1.00  0.00     0.081 A 
ATOM     12  N   UNL     1     -85.350 -21.107  88.332  1.00  0.00    -0.251 NA
ATOM     13  C   UNL     1     -84.758 -22.195  87.772  1.00  0.00     0.116 A 
ATOM     14  C   UNL     1     -83.548 -22.059  87.090  1.00  0.00     0.067 A 
BRANCH  10  15
ATOM     15  C   UNL     1     -85.483 -18.718  88.892  1.00  0.00     0.269 C 
ATOM     16  C   UNL     1     -87.082 -17.814  90.626  1.00  0.00     0.143 C 
ATOM     17  N   UNL     1     -86.344 -18.918  90.024  1.00  0.00    -0.354 N 
ATOM     18  H   UNL     1     -86.428 -19.865  90.458  1.00  0.00     0.163 HD
ATOM     19  O   UNL     1     -85.314 -17.556  88.432  1.00  0.00    -0.268 OA
ENDBRANCH  10  15
ENDBRANCH   8   9
ENDBRANCH   1   8
BRANCH   5  20
ATOM     20  N   UNL     1     -76.619 -20.915  88.740  1.00  0.00    -0.305 N 
ATOM     21  C   UNL     1     -76.010 -19.777  89.366  1.00  0.00     0.323 C 
ATOM     22  H   UNL     1     -76.059 -21.796  88.677  1.00  0.00     0.171 HD
ATOM     23  O   UNL     1     -76.494 -18.627  89.195  1.00  0.00    -0.248 OA
ATOM     24  N   UNL     1     -74.803 -19.952  90.125  1.00  0.00    -0.308 N 
ATOM     25  H   UNL     1     -74.319 -20.878  90.059  1.00  0.00     0.171 HD
BRANCH  24  26
ATOM     26  C   UNL     1     -74.156 -18.912  90.879  1.00  0.00     0.043 A 
ATOM     27  C   UNL     1     -72.822 -19.085  91.271  1.00  0.00     0.028 A 
ATOM     28  C   UNL     1     -74.846 -17.755  91.284  1.00  0.00     0.040 A 
ATOM     29  C   UNL     1     -72.175 -18.110  92.030  1.00  0.00     0.023 A 
ATOM     30  C   UNL     1     -74.199 -16.754  92.037  1.00  0.00     0.076 A 
ATOM     31  C   UNL     1     -72.850 -16.946  92.413  1.00  0.00     0.053 A 
ATOM     32  Cl  UNL     1     -71.968 -15.764  93.379  1.00  0.00    -0.084 Cl
BRANCH  30  33
ATOM     33  C   UNL     1     -74.941 -15.501  92.452  1.00  0.00     0.417 C 
ATOM     34  F   UNL     1     -74.188 -14.386  92.130  1.00  0.00    -0.166 F 
ATOM     35  F   UNL     1     -76.165 -15.392  91.816  1.00  0.00    -0.166 F 
ATOM     36  F   UNL     1     -75.160 -15.519  93.820  1.00  0.00    -0.166 F 
ENDBRANCH  30  33
ENDBRANCH  24  26
ENDBRANCH   5  20
TORSDOF 6
ENDMDL
