MODEL 1
REMARK VINA RESULT:    -9.494      0.000      0.000
REMARK INTER + INTRA:         -14.804
REMARK INTER:                 -13.934
REMARK INTRA:                  -0.870
REMARK UNBOUND:                -0.870
REMARK SMILES COc1cc2nccc(Oc3ccc(NC(=O)C4(C(=O)Nc5ccc(F)cc5)CC4)cc3)c2cc1OC
REMARK SMILES IDX 11 1 12 2 13 3 14 4 31 5 32 6 10 7 9 8 3 9 4 10 35 11 5 12
REMARK SMILES IDX 34 13 33 14 6 15 7 16 8 17 2 18 1 19 36 20 37 21 15 22 16 23
REMARK SMILES IDX 17 25 18 26 29 27 30 28 19 29 20 30 21 31 22 33 23 34 28 35
REMARK SMILES IDX 24 36 27 37 25 38 26 39
REMARK H PARENT 15 24 21 32
REMARK Flexibility Score: inf
ROOT
ATOM      1  C   UNL     1      24.312  33.868  12.351  1.00  0.00     0.127 A 
ATOM      2  C   UNL     1      23.418  34.942  12.387  1.00  0.00     0.049 A 
ATOM      3  C   UNL     1      22.048  34.721  12.545  1.00  0.00     0.030 A 
ATOM      4  C   UNL     1      21.548  33.411  12.648  1.00  0.00     0.041 A 
ATOM      5  C   UNL     1      22.441  32.333  12.601  1.00  0.00     0.030 A 
ATOM      6  C   UNL     1      23.813  32.555  12.443  1.00  0.00     0.049 A 
ENDROOT
BRANCH   1   7
ATOM      7  O   UNL     1      25.682  34.141  12.220  1.00  0.00    -0.457 OA
BRANCH   7   8
ATOM      8  C   UNL     1      26.603  34.096  13.272  1.00  0.00     0.138 A 
ATOM      9  C   UNL     1      29.454  31.006  13.736  1.00  0.00     0.162 A 
ATOM     10  C   UNL     1      29.413  32.095  14.627  1.00  0.00     0.079 A 
ATOM     11  C   UNL     1      28.516  30.924  12.697  1.00  0.00     0.161 A 
ATOM     12  C   UNL     1      28.459  33.101  14.475  1.00  0.00     0.078 A 
ATOM     13  C   UNL     1      27.540  31.930  12.555  1.00  0.00     0.064 A 
ATOM     14  C   UNL     1      27.526  33.039  13.418  1.00  0.00     0.047 A 
ATOM     15  N   UNL     1      28.435  34.142  15.349  1.00  0.00    -0.256 NA
ATOM     16  C   UNL     1      27.532  35.147  15.239  1.00  0.00     0.115 A 
ATOM     17  C   UNL     1      26.600  35.137  14.203  1.00  0.00     0.068 A 
BRANCH   9  18
ATOM     18  O   UNL     1      30.411  29.985  13.856  1.00  0.00    -0.493 OA
ATOM     19  C   UNL     1      31.807  30.159  13.624  1.00  0.00     0.278 C 
ENDBRANCH   9  18
BRANCH  11  20
ATOM     20  O   UNL     1      28.593  29.829  11.820  1.00  0.00    -0.493 OA
ATOM     21  C   UNL     1      29.330  29.823  10.600  1.00  0.00     0.278 C 
ENDBRANCH  11  20
ENDBRANCH   7   8
ENDBRANCH   1   7
BRANCH   4  22
ATOM     22  N   UNL     1      20.147  33.165  12.860  1.00  0.00    -0.325 N 
ATOM     23  C   UNL     1      19.189  33.141  11.786  1.00  0.00     0.240 C 
ATOM     24  H   UNL     1      19.831  32.930  13.830  1.00  0.00     0.169 HD
ATOM     25  O   UNL     1      19.539  32.700  10.656  1.00  0.00    -0.274 OA
BRANCH  23  26
ATOM     26  C   UNL     1      17.769  33.620  11.968  1.00  0.00     0.128 C 
ATOM     27  C   UNL     1      16.740  33.115  10.966  1.00  0.00     0.028 C 
ATOM     28  C   UNL     1      17.195  34.561  10.915  1.00  0.00     0.028 C 
BRANCH  26  29
ATOM     29  C   UNL     1      17.237  33.683  13.369  1.00  0.00     0.240 C 
ATOM     30  O   UNL     1      17.635  32.830  14.208  1.00  0.00    -0.274 OA
ATOM     31  N   UNL     1      16.299  34.698  13.763  1.00  0.00    -0.325 N 
ATOM     32  H   UNL     1      15.699  35.132  13.040  1.00  0.00     0.169 HD
BRANCH  31  33
ATOM     33  C   UNL     1      16.071  35.052  15.131  1.00  0.00     0.041 A 
ATOM     34  C   UNL     1      14.815  34.850  15.728  1.00  0.00     0.029 A 
ATOM     35  C   UNL     1      17.123  35.571  15.903  1.00  0.00     0.029 A 
ATOM     36  C   UNL     1      14.601  35.205  17.066  1.00  0.00     0.041 A 
ATOM     37  C   UNL     1      16.913  35.922  17.235  1.00  0.00     0.041 A 
ATOM     38  C   UNL     1      15.652  35.742  17.818  1.00  0.00     0.123 A 
ATOM     39  F   UNL     1      15.438  36.095  19.110  1.00  0.00    -0.207 F 
ENDBRANCH  31  33
ENDBRANCH  26  29
ENDBRANCH  23  26
ENDBRANCH   4  22
TORSDOF 8
ENDMDL
MODEL 2
REMARK VINA RESULT:    -9.372      7.629     10.920
REMARK INTER + INTRA:         -14.626
REMARK INTER:                 -14.392
REMARK INTRA:                  -0.233
REMARK UNBOUND:                -0.870
REMARK SMILES COc1cc2nccc(Oc3ccc(NC(=O)C4(C(=O)Nc5ccc(F)cc5)CC4)cc3)c2cc1OC
REMARK SMILES IDX 11 1 12 2 13 3 14 4 31 5 32 6 10 7 9 8 3 9 4 10 35 11 5 12
REMARK SMILES IDX 34 13 33 14 6 15 7 16 8 17 2 18 1 19 36 20 37 21 15 22 16 23
REMARK SMILES IDX 17 25 18 26 29 27 30 28 19 29 20 30 21 31 22 33 23 34 28 35
REMARK SMILES IDX 24 36 27 37 25 38 26 39
REMARK H PARENT 15 24 21 32
REMARK Flexibility Score: inf
ROOT
ATOM      1  C   UNL     1      16.655  35.745  17.416  1.00  0.00     0.127 A 
ATOM      2  C   UNL     1      17.443  36.087  16.314  1.00  0.00     0.049 A 
ATOM      3  C   UNL     1      17.155  35.573  15.048  1.00  0.00     0.030 A 
ATOM      4  C   UNL     1      16.079  34.685  14.871  1.00  0.00     0.041 A 
ATOM      5  C   UNL     1      15.295  34.332  15.977  1.00  0.00     0.030 A 
ATOM      6  C   UNL     1      15.585  34.848  17.245  1.00  0.00     0.049 A 
ENDROOT
BRANCH   1   7
ATOM      7  O   UNL     1      16.967  36.310  18.663  1.00  0.00    -0.457 OA
BRANCH   7   8
ATOM      8  C   UNL     1      18.267  36.492  19.147  1.00  0.00     0.138 A 
ATOM      9  C   UNL     1      19.378  39.688  21.685  1.00  0.00     0.162 A 
ATOM     10  C   UNL     1      20.308  38.700  21.313  1.00  0.00     0.079 A 
ATOM     11  C   UNL     1      18.070  39.634  21.182  1.00  0.00     0.161 A 
ATOM     12  C   UNL     1      19.938  37.659  20.464  1.00  0.00     0.078 A 
ATOM     13  C   UNL     1      17.699  38.592  20.308  1.00  0.00     0.064 A 
ATOM     14  C   UNL     1      18.617  37.583  19.971  1.00  0.00     0.047 A 
ATOM     15  N   UNL     1      20.853  36.718  20.114  1.00  0.00    -0.256 NA
ATOM     16  C   UNL     1      20.539  35.683  19.296  1.00  0.00     0.115 A 
ATOM     17  C   UNL     1      19.244  35.558  18.797  1.00  0.00     0.068 A 
BRANCH   9  18
ATOM     18  O   UNL     1      19.719  40.741  22.550  1.00  0.00    -0.493 OA
ATOM     19  C   UNL     1      20.368  40.571  23.808  1.00  0.00     0.278 C 
ENDBRANCH   9  18
BRANCH  11  20
ATOM     20  O   UNL     1      17.163  40.630  21.583  1.00  0.00    -0.493 OA
ATOM     21  C   UNL     1      16.718  41.698  20.752  1.00  0.00     0.278 C 
ENDBRANCH  11  20
ENDBRANCH   7   8
ENDBRANCH   1   7
BRANCH   4  22
ATOM     22  N   UNL     1      15.737  34.183  13.568  1.00  0.00    -0.325 N 
ATOM     23  C   UNL     1      16.664  33.450  12.746  1.00  0.00     0.240 C 
ATOM     24  H   UNL     1      14.750  34.303  13.239  1.00  0.00     0.169 HD
ATOM     25  O   UNL     1      17.507  32.687  13.296  1.00  0.00    -0.274 OA
BRANCH  23  26
ATOM     26  C   UNL     1      16.659  33.558  11.241  1.00  0.00     0.128 C 
ATOM     27  C   UNL     1      17.824  34.302  10.602  1.00  0.00     0.028 C 
ATOM     28  C   UNL     1      16.447  34.938  10.627  1.00  0.00     0.028 C 
BRANCH  26  29
ATOM     29  C   UNL     1      16.246  32.344  10.463  1.00  0.00     0.240 C 
ATOM     30  O   UNL     1      15.325  31.616  10.921  1.00  0.00    -0.274 OA
ATOM     31  N   UNL     1      16.872  32.013   9.213  1.00  0.00    -0.325 N 
ATOM     32  H   UNL     1      17.833  32.351   9.031  1.00  0.00     0.169 HD
BRANCH  31  33
ATOM     33  C   UNL     1      16.273  31.132   8.257  1.00  0.00     0.041 A 
ATOM     34  C   UNL     1      17.062  30.264   7.483  1.00  0.00     0.029 A 
ATOM     35  C   UNL     1      14.877  31.103   8.114  1.00  0.00     0.029 A 
ATOM     36  C   UNL     1      16.466  29.410   6.547  1.00  0.00     0.041 A 
ATOM     37  C   UNL     1      14.281  30.252   7.184  1.00  0.00     0.041 A 
ATOM     38  C   UNL     1      15.075  29.407   6.398  1.00  0.00     0.123 A 
ATOM     39  F   UNL     1      14.502  28.587   5.481  1.00  0.00    -0.207 F 
ENDBRANCH  31  33
ENDBRANCH  26  29
ENDBRANCH  23  26
ENDBRANCH   4  22
TORSDOF 8
ENDMDL
MODEL 3
REMARK VINA RESULT:    -9.328      5.995      9.157
REMARK INTER + INTRA:         -14.561
REMARK INTER:                 -14.270
REMARK INTRA:                  -0.291
REMARK UNBOUND:                -0.870
REMARK SMILES COc1cc2nccc(Oc3ccc(NC(=O)C4(C(=O)Nc5ccc(F)cc5)CC4)cc3)c2cc1OC
REMARK SMILES IDX 11 1 12 2 13 3 14 4 31 5 32 6 10 7 9 8 3 9 4 10 35 11 5 12
REMARK SMILES IDX 34 13 33 14 6 15 7 16 8 17 2 18 1 19 36 20 37 21 15 22 16 23
REMARK SMILES IDX 17 25 18 26 29 27 30 28 19 29 20 30 21 31 22 33 23 34 28 35
REMARK SMILES IDX 24 36 27 37 25 38 26 39
REMARK H PARENT 15 24 21 32
REMARK Flexibility Score: inf
ROOT
ATOM      1  C   UNL     1      17.104  34.338  16.870  1.00  0.00     0.127 A 
ATOM      2  C   UNL     1      18.070  34.237  15.865  1.00  0.00     0.049 A 
ATOM      3  C   UNL     1      17.696  34.209  14.519  1.00  0.00     0.030 A 
ATOM      4  C   UNL     1      16.337  34.260  14.161  1.00  0.00     0.041 A 
ATOM      5  C   UNL     1      15.367  34.350  15.167  1.00  0.00     0.030 A 
ATOM      6  C   UNL     1      15.743  34.378  16.514  1.00  0.00     0.049 A 
ENDROOT
BRANCH   1   7
ATOM      7  O   UNL     1      17.531  34.391  18.206  1.00  0.00    -0.457 OA
BRANCH   7   8
ATOM      8  C   UNL     1      18.105  35.515  18.810  1.00  0.00     0.138 A 
ATOM      9  C   UNL     1      22.280  36.077  19.188  1.00  0.00     0.162 A 
ATOM     10  C   UNL     1      21.373  37.057  19.631  1.00  0.00     0.079 A 
ATOM     11  C   UNL     1      21.795  34.879  18.642  1.00  0.00     0.161 A 
ATOM     12  C   UNL     1      19.998  36.857  19.517  1.00  0.00     0.078 A 
ATOM     13  C   UNL     1      20.406  34.668  18.544  1.00  0.00     0.064 A 
ATOM     14  C   UNL     1      19.501  35.665  18.947  1.00  0.00     0.047 A 
ATOM     15  N   UNL     1      19.140  37.815  19.955  1.00  0.00    -0.256 NA
ATOM     16  C   UNL     1      17.796  37.669  19.860  1.00  0.00     0.115 A 
ATOM     17  C   UNL     1      17.259  36.516  19.291  1.00  0.00     0.068 A 
BRANCH   9  18
ATOM     18  O   UNL     1      23.671  36.256  19.278  1.00  0.00    -0.493 OA
ATOM     19  C   UNL     1      24.442  37.037  18.367  1.00  0.00     0.278 C 
ENDBRANCH   9  18
BRANCH  11  20
ATOM     20  O   UNL     1      22.729  33.927  18.199  1.00  0.00    -0.493 OA
ATOM     21  C   UNL     1      22.987  33.626  16.830  1.00  0.00     0.278 C 
ENDBRANCH  11  20
ENDBRANCH   7   8
ENDBRANCH   1   7
BRANCH   4  22
ATOM     22  N   UNL     1      15.934  34.282  12.781  1.00  0.00    -0.325 N 
ATOM     23  C   UNL     1      16.351  33.284  11.831  1.00  0.00     0.240 C 
ATOM     24  H   UNL     1      15.255  35.020  12.478  1.00  0.00     0.169 HD
ATOM     25  O   UNL     1      16.510  32.092  12.216  1.00  0.00    -0.274 OA
BRANCH  23  26
ATOM     26  C   UNL     1      16.601  33.614  10.379  1.00  0.00     0.128 C 
ATOM     27  C   UNL     1      17.275  34.947  10.084  1.00  0.00     0.028 C 
ATOM     28  C   UNL     1      15.804  34.759   9.763  1.00  0.00     0.028 C 
BRANCH  26  29
ATOM     29  C   UNL     1      17.088  32.506   9.494  1.00  0.00     0.240 C 
ATOM     30  O   UNL     1      18.063  31.806   9.879  1.00  0.00    -0.274 OA
ATOM     31  N   UNL     1      16.456  32.230   8.233  1.00  0.00    -0.325 N 
ATOM     32  H   UNL     1      15.947  32.992   7.752  1.00  0.00     0.169 HD
BRANCH  31  33
ATOM     33  C   UNL     1      16.603  30.979   7.552  1.00  0.00     0.041 A 
ATOM     34  C   UNL     1      17.810  30.640   6.919  1.00  0.00     0.029 A 
ATOM     35  C   UNL     1      15.542  30.060   7.545  1.00  0.00     0.029 A 
ATOM     36  C   UNL     1      17.941  29.416   6.251  1.00  0.00     0.041 A 
ATOM     37  C   UNL     1      15.669  28.840   6.883  1.00  0.00     0.041 A 
ATOM     38  C   UNL     1      16.868  28.518   6.232  1.00  0.00     0.123 A 
ATOM     39  F   UNL     1      16.994  27.339   5.574  1.00  0.00    -0.207 F 
ENDBRANCH  31  33
ENDBRANCH  26  29
ENDBRANCH  23  26
ENDBRANCH   4  22
TORSDOF 8
ENDMDL
MODEL 4
REMARK VINA RESULT:    -9.327      3.541      5.282
REMARK INTER + INTRA:         -14.559
REMARK INTER:                 -13.677
REMARK INTRA:                  -0.883
REMARK UNBOUND:                -0.870
REMARK SMILES COc1cc2nccc(Oc3ccc(NC(=O)C4(C(=O)Nc5ccc(F)cc5)CC4)cc3)c2cc1OC
REMARK SMILES IDX 11 1 12 2 13 3 14 4 31 5 32 6 10 7 9 8 3 9 4 10 35 11 5 12
REMARK SMILES IDX 34 13 33 14 6 15 7 16 8 17 2 18 1 19 36 20 37 21 15 22 16 23
REMARK SMILES IDX 17 25 18 26 29 27 30 28 19 29 20 30 21 31 22 33 23 34 28 35
REMARK SMILES IDX 24 36 27 37 25 38 26 39
REMARK H PARENT 15 24 21 32
REMARK Flexibility Score: inf
ROOT
ATOM      1  C   UNL     1      26.572  32.886  12.728  1.00  0.00     0.127 A 
ATOM      2  C   UNL     1      25.749  32.849  13.857  1.00  0.00     0.049 A 
ATOM      3  C   UNL     1      24.389  32.556  13.735  1.00  0.00     0.030 A 
ATOM      4  C   UNL     1      23.826  32.315  12.469  1.00  0.00     0.041 A 
ATOM      5  C   UNL     1      24.648  32.362  11.335  1.00  0.00     0.030 A 
ATOM      6  C   UNL     1      26.009  32.656  11.459  1.00  0.00     0.049 A 
ENDROOT
BRANCH   1   7
ATOM      7  O   UNL     1      27.938  33.158  12.904  1.00  0.00    -0.457 OA
BRANCH   7   8
ATOM      8  C   UNL     1      28.938  32.181  12.965  1.00  0.00     0.138 A 
ATOM      9  C   UNL     1      30.489  30.663  16.596  1.00  0.00     0.162 A 
ATOM     10  C   UNL     1      30.928  30.166  15.355  1.00  0.00     0.079 A 
ATOM     11  C   UNL     1      29.546  31.701  16.632  1.00  0.00     0.161 A 
ATOM     12  C   UNL     1      30.424  30.683  14.163  1.00  0.00     0.078 A 
ATOM     13  C   UNL     1      29.049  32.237  15.428  1.00  0.00     0.064 A 
ATOM     14  C   UNL     1      29.457  31.712  14.190  1.00  0.00     0.047 A 
ATOM     15  N   UNL     1      30.865  30.191  12.976  1.00  0.00    -0.256 NA
ATOM     16  C   UNL     1      30.400  30.657  11.791  1.00  0.00     0.115 A 
ATOM     17  C   UNL     1      29.434  31.662  11.767  1.00  0.00     0.068 A 
BRANCH   9  18
ATOM     18  O   UNL     1      30.970  30.153  17.813  1.00  0.00    -0.493 OA
ATOM     19  C   UNL     1      32.254  30.448  18.359  1.00  0.00     0.278 C 
ENDBRANCH   9  18
BRANCH  11  20
ATOM     20  O   UNL     1      29.120  32.165  17.889  1.00  0.00    -0.493 OA
ATOM     21  C   UNL     1      27.884  31.812  18.503  1.00  0.00     0.278 C 
ENDBRANCH  11  20
ENDBRANCH   7   8
ENDBRANCH   1   7
BRANCH   4  22
ATOM     22  N   UNL     1      22.439  31.963  12.328  1.00  0.00    -0.325 N 
ATOM     23  C   UNL     1      21.371  32.910  12.518  1.00  0.00     0.240 C 
ATOM     24  H   UNL     1      22.208  30.993  12.009  1.00  0.00     0.169 HD
ATOM     25  O   UNL     1      21.548  34.115  12.184  1.00  0.00    -0.274 OA
BRANCH  23  26
ATOM     26  C   UNL     1      20.037  32.507  13.099  1.00  0.00     0.128 C 
ATOM     27  C   UNL     1      19.694  33.057  14.476  1.00  0.00     0.028 C 
ATOM     28  C   UNL     1      20.039  31.589  14.316  1.00  0.00     0.028 C 
BRANCH  26  29
ATOM     29  C   UNL     1      18.860  32.484  12.170  1.00  0.00     0.240 C 
ATOM     30  O   UNL     1      17.699  32.493  12.663  1.00  0.00    -0.274 OA
ATOM     31  N   UNL     1      19.037  32.463  10.745  1.00  0.00    -0.325 N 
ATOM     32  H   UNL     1      19.917  32.080  10.357  1.00  0.00     0.169 HD
BRANCH  31  33
ATOM     33  C   UNL     1      18.001  32.836   9.830  1.00  0.00     0.041 A 
ATOM     34  C   UNL     1      17.269  34.021  10.015  1.00  0.00     0.029 A 
ATOM     35  C   UNL     1      17.735  32.031   8.711  1.00  0.00     0.029 A 
ATOM     36  C   UNL     1      16.254  34.373   9.116  1.00  0.00     0.041 A 
ATOM     37  C   UNL     1      16.727  32.381   7.814  1.00  0.00     0.041 A 
ATOM     38  C   UNL     1      15.983  33.551   8.017  1.00  0.00     0.123 A 
ATOM     39  F   UNL     1      14.992  33.889   7.156  1.00  0.00    -0.207 F 
ENDBRANCH  31  33
ENDBRANCH  26  29
ENDBRANCH  23  26
ENDBRANCH   4  22
TORSDOF 8
ENDMDL
MODEL 5
REMARK VINA RESULT:    -9.293      2.851      4.666
REMARK INTER + INTRA:         -14.508
REMARK INTER:                 -13.654
REMARK INTRA:                  -0.854
REMARK UNBOUND:                -0.870
REMARK SMILES COc1cc2nccc(Oc3ccc(NC(=O)C4(C(=O)Nc5ccc(F)cc5)CC4)cc3)c2cc1OC
REMARK SMILES IDX 11 1 12 2 13 3 14 4 31 5 32 6 10 7 9 8 3 9 4 10 35 11 5 12
REMARK SMILES IDX 34 13 33 14 6 15 7 16 8 17 2 18 1 19 36 20 37 21 15 22 16 23
REMARK SMILES IDX 17 25 18 26 29 27 30 28 19 29 20 30 21 31 22 33 23 34 28 35
REMARK SMILES IDX 24 36 27 37 25 38 26 39
REMARK H PARENT 15 24 21 32
REMARK Flexibility Score: inf
ROOT
ATOM      1  C   UNL     1      24.066  33.936  14.366  1.00  0.00     0.127 A 
ATOM      2  C   UNL     1      23.552  33.099  15.359  1.00  0.00     0.049 A 
ATOM      3  C   UNL     1      22.221  33.214  15.767  1.00  0.00     0.030 A 
ATOM      4  C   UNL     1      21.386  34.192  15.196  1.00  0.00     0.041 A 
ATOM      5  C   UNL     1      21.903  35.039  14.208  1.00  0.00     0.030 A 
ATOM      6  C   UNL     1      23.236  34.923  13.800  1.00  0.00     0.049 A 
ENDROOT
BRANCH   1   7
ATOM      7  O   UNL     1      25.401  33.763  13.969  1.00  0.00    -0.457 OA
BRANCH   7   8
ATOM      8  C   UNL     1      25.816  32.929  12.926  1.00  0.00     0.138 A 
ATOM      9  C   UNL     1      29.458  30.779  12.975  1.00  0.00     0.162 A 
ATOM     10  C   UNL     1      28.555  30.652  11.903  1.00  0.00     0.079 A 
ATOM     11  C   UNL     1      29.165  31.656  14.029  1.00  0.00     0.161 A 
ATOM     12  C   UNL     1      27.364  31.377  11.888  1.00  0.00     0.078 A 
ATOM     13  C   UNL     1      27.970  32.403  14.005  1.00  0.00     0.064 A 
ATOM     14  C   UNL     1      27.049  32.244  12.956  1.00  0.00     0.047 A 
ATOM     15  N   UNL     1      26.509  31.242  10.841  1.00  0.00    -0.256 NA
ATOM     16  C   UNL     1      25.336  31.920  10.784  1.00  0.00     0.115 A 
ATOM     17  C   UNL     1      24.975  32.777  11.821  1.00  0.00     0.068 A 
BRANCH   9  18
ATOM     18  O   UNL     1      30.660  30.052  13.025  1.00  0.00    -0.493 OA
ATOM     19  C   UNL     1      31.839  30.396  12.300  1.00  0.00     0.278 C 
ENDBRANCH   9  18
BRANCH  11  20
ATOM     20  O   UNL     1      30.083  31.750  15.089  1.00  0.00    -0.493 OA
ATOM     21  C   UNL     1      31.009  32.819  15.262  1.00  0.00     0.278 C 
ENDBRANCH  11  20
ENDBRANCH   7   8
ENDBRANCH   1   7
BRANCH   4  22
ATOM     22  N   UNL     1      20.001  34.294  15.567  1.00  0.00    -0.325 N 
ATOM     23  C   UNL     1      18.960  33.550  14.906  1.00  0.00     0.240 C 
ATOM     24  H   UNL     1      19.756  34.884  16.396  1.00  0.00     0.169 HD
ATOM     25  O   UNL     1      19.209  32.389  14.475  1.00  0.00    -0.274 OA
BRANCH  23  26
ATOM     26  C   UNL     1      17.572  34.111  14.715  1.00  0.00     0.128 C 
ATOM     27  C   UNL     1      17.331  35.530  15.210  1.00  0.00     0.028 C 
ATOM     28  C   UNL     1      16.727  34.358  15.961  1.00  0.00     0.028 C 
BRANCH  26  29
ATOM     29  C   UNL     1      16.884  33.822  13.414  1.00  0.00     0.240 C 
ATOM     30  O   UNL     1      15.624  33.782  13.390  1.00  0.00    -0.274 OA
ATOM     31  N   UNL     1      17.635  33.604  12.209  1.00  0.00    -0.325 N 
ATOM     32  H   UNL     1      18.609  33.262  12.282  1.00  0.00     0.169 HD
BRANCH  31  33
ATOM     33  C   UNL     1      17.056  33.722  10.904  1.00  0.00     0.041 A 
ATOM     34  C   UNL     1      16.482  34.931  10.478  1.00  0.00     0.029 A 
ATOM     35  C   UNL     1      17.095  32.630  10.023  1.00  0.00     0.029 A 
ATOM     36  C   UNL     1      15.914  35.033   9.201  1.00  0.00     0.041 A 
ATOM     37  C   UNL     1      16.534  32.730   8.752  1.00  0.00     0.041 A 
ATOM     38  C   UNL     1      15.940  33.931   8.340  1.00  0.00     0.123 A 
ATOM     39  F   UNL     1      15.378  34.030   7.109  1.00  0.00    -0.207 F 
ENDBRANCH  31  33
ENDBRANCH  26  29
ENDBRANCH  23  26
ENDBRANCH   4  22
TORSDOF 8
ENDMDL
MODEL 6
REMARK VINA RESULT:    -9.251      3.806     11.747
REMARK INTER + INTRA:         -14.447
REMARK INTER:                 -13.111
REMARK INTRA:                  -1.336
REMARK UNBOUND:                -0.870
REMARK SMILES COc1cc2nccc(Oc3ccc(NC(=O)C4(C(=O)Nc5ccc(F)cc5)CC4)cc3)c2cc1OC
REMARK SMILES IDX 11 1 12 2 13 3 14 4 31 5 32 6 10 7 9 8 3 9 4 10 35 11 5 12
REMARK SMILES IDX 34 13 33 14 6 15 7 16 8 17 2 18 1 19 36 20 37 21 15 22 16 23
REMARK SMILES IDX 17 25 18 26 29 27 30 28 19 29 20 30 21 31 22 33 23 34 28 35
REMARK SMILES IDX 24 36 27 37 25 38 26 39
REMARK H PARENT 15 24 21 32
REMARK Flexibility Score: inf
ROOT
ATOM      1  C   UNL     1      20.864  33.156  14.336  1.00  0.00     0.127 A 
ATOM      2  C   UNL     1      21.950  32.402  14.788  1.00  0.00     0.049 A 
ATOM      3  C   UNL     1      23.202  32.995  14.964  1.00  0.00     0.030 A 
ATOM      4  C   UNL     1      23.391  34.357  14.666  1.00  0.00     0.041 A 
ATOM      5  C   UNL     1      22.305  35.111  14.202  1.00  0.00     0.030 A 
ATOM      6  C   UNL     1      21.052  34.516  14.027  1.00  0.00     0.049 A 
ENDROOT
BRANCH   1   7
ATOM      7  O   UNL     1      19.618  32.523  14.203  1.00  0.00    -0.457 OA
BRANCH   7   8
ATOM      8  C   UNL     1      18.395  33.194  14.101  1.00  0.00     0.138 A 
ATOM      9  C   UNL     1      16.593  35.248  17.330  1.00  0.00     0.162 A 
ATOM     10  C   UNL     1      16.003  35.244  16.052  1.00  0.00     0.079 A 
ATOM     11  C   UNL     1      17.780  34.534  17.547  1.00  0.00     0.161 A 
ATOM     12  C   UNL     1      16.595  34.551  14.997  1.00  0.00     0.078 A 
ATOM     13  C   UNL     1      18.370  33.818  16.487  1.00  0.00     0.064 A 
ATOM     14  C   UNL     1      17.803  33.849  15.201  1.00  0.00     0.047 A 
ATOM     15  N   UNL     1      16.006  34.558  13.773  1.00  0.00    -0.256 NA
ATOM     16  C   UNL     1      16.547  33.905  12.716  1.00  0.00     0.115 A 
ATOM     17  C   UNL     1      17.745  33.209  12.865  1.00  0.00     0.068 A 
BRANCH   9  18
ATOM     18  O   UNL     1      16.026  35.948  18.408  1.00  0.00    -0.493 OA
ATOM     19  C   UNL     1      14.624  36.102  18.619  1.00  0.00     0.278 C 
ENDBRANCH   9  18
BRANCH  11  20
ATOM     20  O   UNL     1      18.349  34.569  18.832  1.00  0.00    -0.493 OA
ATOM     21  C   UNL     1      19.332  35.510  19.254  1.00  0.00     0.278 C 
ENDBRANCH  11  20
ENDBRANCH   7   8
ENDBRANCH   1   7
BRANCH   4  22
ATOM     22  N   UNL     1      24.659  34.996  14.887  1.00  0.00    -0.325 N 
ATOM     23  C   UNL     1      25.765  34.872  13.973  1.00  0.00     0.240 C 
ATOM     24  H   UNL     1      24.752  35.631  15.715  1.00  0.00     0.169 HD
ATOM     25  O   UNL     1      25.535  34.782  12.735  1.00  0.00    -0.274 OA
BRANCH  23  26
ATOM     26  C   UNL     1      27.198  34.852  14.447  1.00  0.00     0.128 C 
ATOM     27  C   UNL     1      27.430  35.047  15.939  1.00  0.00     0.028 C 
ATOM     28  C   UNL     1      27.793  36.156  14.969  1.00  0.00     0.028 C 
BRANCH  26  29
ATOM     29  C   UNL     1      28.109  33.825  13.844  1.00  0.00     0.240 C 
ATOM     30  O   UNL     1      28.534  32.888  14.573  1.00  0.00    -0.274 OA
ATOM     31  N   UNL     1      28.489  33.889  12.460  1.00  0.00    -0.325 N 
ATOM     32  H   UNL     1      28.472  34.806  11.979  1.00  0.00     0.169 HD
BRANCH  31  33
ATOM     33  C   UNL     1      29.006  32.761  11.746  1.00  0.00     0.041 A 
ATOM     34  C   UNL     1      30.361  32.701  11.377  1.00  0.00     0.029 A 
ATOM     35  C   UNL     1      28.163  31.682  11.441  1.00  0.00     0.029 A 
ATOM     36  C   UNL     1      30.855  31.595  10.675  1.00  0.00     0.041 A 
ATOM     37  C   UNL     1      28.652  30.579  10.743  1.00  0.00     0.041 A 
ATOM     38  C   UNL     1      29.999  30.535  10.357  1.00  0.00     0.123 A 
ATOM     39  F   UNL     1      30.478  29.471   9.666  1.00  0.00    -0.207 F 
ENDBRANCH  31  33
ENDBRANCH  26  29
ENDBRANCH  23  26
ENDBRANCH   4  22
TORSDOF 8
ENDMDL
MODEL 7
REMARK VINA RESULT:    -9.186      1.932      2.930
REMARK INTER + INTRA:         -14.351
REMARK INTER:                 -13.079
REMARK INTRA:                  -1.273
REMARK UNBOUND:                -0.870
REMARK SMILES COc1cc2nccc(Oc3ccc(NC(=O)C4(C(=O)Nc5ccc(F)cc5)CC4)cc3)c2cc1OC
REMARK SMILES IDX 11 1 12 2 13 3 14 4 31 5 32 6 10 7 9 8 3 9 4 10 35 11 5 12
REMARK SMILES IDX 34 13 33 14 6 15 7 16 8 17 2 18 1 19 36 20 37 21 15 22 16 23
REMARK SMILES IDX 17 25 18 26 29 27 30 28 19 29 20 30 21 31 22 33 23 34 28 35
REMARK SMILES IDX 24 36 27 37 25 38 26 39
REMARK H PARENT 15 24 21 32
REMARK Flexibility Score: inf
ROOT
ATOM      1  C   UNL     1      25.596  33.372  12.690  1.00  0.00     0.127 A 
ATOM      2  C   UNL     1      24.703  34.144  11.943  1.00  0.00     0.049 A 
ATOM      3  C   UNL     1      23.341  34.155  12.254  1.00  0.00     0.030 A 
ATOM      4  C   UNL     1      22.849  33.370  13.312  1.00  0.00     0.041 A 
ATOM      5  C   UNL     1      23.742  32.588  14.056  1.00  0.00     0.030 A 
ATOM      6  C   UNL     1      25.105  32.577  13.743  1.00  0.00     0.049 A 
ENDROOT
BRANCH   1   7
ATOM      7  O   UNL     1      26.959  33.415  12.357  1.00  0.00    -0.457 OA
BRANCH   7   8
ATOM      8  C   UNL     1      27.807  32.302  12.342  1.00  0.00     0.138 A 
ATOM      9  C   UNL     1      30.583  31.453  15.418  1.00  0.00     0.162 A 
ATOM     10  C   UNL     1      30.426  30.584  14.323  1.00  0.00     0.079 A 
ATOM     11  C   UNL     1      29.834  32.637  15.478  1.00  0.00     0.161 A 
ATOM     12  C   UNL     1      29.520  30.880  13.305  1.00  0.00     0.078 A 
ATOM     13  C   UNL     1      28.931  32.946  14.441  1.00  0.00     0.064 A 
ATOM     14  C   UNL     1      28.743  32.057  13.369  1.00  0.00     0.047 A 
ATOM     15  N   UNL     1      29.386  30.028  12.255  1.00  0.00    -0.256 NA
ATOM     16  C   UNL     1      28.514  30.269  11.245  1.00  0.00     0.115 A 
ATOM     17  C   UNL     1      27.716  31.411  11.271  1.00  0.00     0.068 A 
BRANCH   9  18
ATOM     18  O   UNL     1      31.479  31.175  16.464  1.00  0.00    -0.493 OA
ATOM     19  C   UNL     1      31.215  30.263  17.528  1.00  0.00     0.278 C 
ENDBRANCH   9  18
BRANCH  11  20
ATOM     20  O   UNL     1      30.007  33.476  16.592  1.00  0.00    -0.493 OA
ATOM     21  C   UNL     1      29.066  33.614  17.653  1.00  0.00     0.278 C 
ENDBRANCH  11  20
ENDBRANCH   7   8
ENDBRANCH   1   7
BRANCH   4  22
ATOM     22  N   UNL     1      21.459  33.406  13.679  1.00  0.00    -0.325 N 
ATOM     23  C   UNL     1      20.421  32.843  12.856  1.00  0.00     0.240 C 
ATOM     24  H   UNL     1      21.208  33.801  14.616  1.00  0.00     0.169 HD
ATOM     25  O   UNL     1      20.663  31.804  12.181  1.00  0.00    -0.274 OA
BRANCH  23  26
ATOM     26  C   UNL     1      19.042  33.452  12.778  1.00  0.00     0.128 C 
ATOM     27  C   UNL     1      17.989  32.671  12.003  1.00  0.00     0.028 C 
ATOM     28  C   UNL     1      18.560  33.950  11.419  1.00  0.00     0.028 C 
BRANCH  26  29
ATOM     29  C   UNL     1      18.498  34.089  14.022  1.00  0.00     0.240 C 
ATOM     30  O   UNL     1      18.954  35.209  14.380  1.00  0.00    -0.274 OA
ATOM     31  N   UNL     1      17.467  33.451  14.794  1.00  0.00    -0.325 N 
ATOM     32  H   UNL     1      17.368  32.422  14.742  1.00  0.00     0.169 HD
BRANCH  31  33
ATOM     33  C   UNL     1      16.647  34.162  15.728  1.00  0.00     0.041 A 
ATOM     34  C   UNL     1      15.279  34.365  15.478  1.00  0.00     0.029 A 
ATOM     35  C   UNL     1      17.203  34.633  16.928  1.00  0.00     0.029 A 
ATOM     36  C   UNL     1      14.488  35.066  16.397  1.00  0.00     0.041 A 
ATOM     37  C   UNL     1      16.418  35.329  17.844  1.00  0.00     0.041 A 
ATOM     38  C   UNL     1      15.059  35.549  17.579  1.00  0.00     0.123 A 
ATOM     39  F   UNL     1      14.293  36.238  18.460  1.00  0.00    -0.207 F 
ENDBRANCH  31  33
ENDBRANCH  26  29
ENDBRANCH  23  26
ENDBRANCH   4  22
TORSDOF 8
ENDMDL
MODEL 8
REMARK VINA RESULT:    -9.132      4.584      6.801
REMARK INTER + INTRA:         -14.272
REMARK INTER:                 -13.392
REMARK INTRA:                  -0.881
REMARK UNBOUND:                -0.870
REMARK SMILES COc1cc2nccc(Oc3ccc(NC(=O)C4(C(=O)Nc5ccc(F)cc5)CC4)cc3)c2cc1OC
REMARK SMILES IDX 11 1 12 2 13 3 14 4 31 5 32 6 10 7 9 8 3 9 4 10 35 11 5 12
REMARK SMILES IDX 34 13 33 14 6 15 7 16 8 17 2 18 1 19 36 20 37 21 15 22 16 23
REMARK SMILES IDX 17 25 18 26 29 27 30 28 19 29 20 30 21 31 22 33 23 34 28 35
REMARK SMILES IDX 24 36 27 37 25 38 26 39
REMARK H PARENT 15 24 21 32
REMARK Flexibility Score: inf
ROOT
ATOM      1  C   UNL     1      20.922  34.467  16.047  1.00  0.00     0.127 A 
ATOM      2  C   UNL     1      21.081  33.140  15.637  1.00  0.00     0.049 A 
ATOM      3  C   UNL     1      20.266  32.603  14.638  1.00  0.00     0.030 A 
ATOM      4  C   UNL     1      19.258  33.387  14.047  1.00  0.00     0.041 A 
ATOM      5  C   UNL     1      19.090  34.713  14.466  1.00  0.00     0.030 A 
ATOM      6  C   UNL     1      19.907  35.249  15.466  1.00  0.00     0.049 A 
ENDROOT
BRANCH   1   7
ATOM      7  O   UNL     1      21.783  34.970  17.034  1.00  0.00    -0.457 OA
BRANCH   7   8
ATOM      8  C   UNL     1      23.094  34.526  17.243  1.00  0.00     0.138 A 
ATOM      9  C   UNL     1      26.370  35.749  14.863  1.00  0.00     0.162 A 
ATOM     10  C   UNL     1      26.553  34.890  15.963  1.00  0.00     0.079 A 
ATOM     11  C   UNL     1      25.079  36.181  14.528  1.00  0.00     0.161 A 
ATOM     12  C   UNL     1      25.465  34.480  16.733  1.00  0.00     0.078 A 
ATOM     13  C   UNL     1      23.977  35.751  15.293  1.00  0.00     0.064 A 
ATOM     14  C   UNL     1      24.164  34.929  16.417  1.00  0.00     0.047 A 
ATOM     15  N   UNL     1      25.664  33.647  17.788  1.00  0.00    -0.256 NA
ATOM     16  C   UNL     1      24.639  33.226  18.569  1.00  0.00     0.115 A 
ATOM     17  C   UNL     1      23.340  33.654  18.306  1.00  0.00     0.068 A 
BRANCH   9  18
ATOM     18  O   UNL     1      27.448  36.190  14.078  1.00  0.00    -0.493 OA
ATOM     19  C   UNL     1      28.813  36.153  14.491  1.00  0.00     0.278 C 
ENDBRANCH   9  18
BRANCH  11  20
ATOM     20  O   UNL     1      24.934  37.047  13.430  1.00  0.00    -0.493 OA
ATOM     21  C   UNL     1      23.807  37.062  12.557  1.00  0.00     0.278 C 
ENDBRANCH  11  20
ENDBRANCH   7   8
ENDBRANCH   1   7
BRANCH   4  22
ATOM     22  N   UNL     1      18.442  32.867  12.983  1.00  0.00    -0.325 N 
ATOM     23  C   UNL     1      18.540  33.336  11.626  1.00  0.00     0.240 C 
ATOM     24  H   UNL     1      17.799  32.070  13.201  1.00  0.00     0.169 HD
ATOM     25  O   UNL     1      19.665  33.691  11.175  1.00  0.00    -0.274 OA
BRANCH  23  26
ATOM     26  C   UNL     1      17.339  33.412  10.715  1.00  0.00     0.128 C 
ATOM     27  C   UNL     1      16.962  34.790  10.189  1.00  0.00     0.028 C 
ATOM     28  C   UNL     1      16.093  34.120  11.238  1.00  0.00     0.028 C 
BRANCH  26  29
ATOM     29  C   UNL     1      17.184  32.333   9.686  1.00  0.00     0.240 C 
ATOM     30  O   UNL     1      17.959  31.339   9.728  1.00  0.00    -0.274 OA
ATOM     31  N   UNL     1      16.170  32.412   8.672  1.00  0.00    -0.325 N 
ATOM     32  H   UNL     1      15.810  33.343   8.397  1.00  0.00     0.169 HD
BRANCH  31  33
ATOM     33  C   UNL     1      15.719  31.269   7.936  1.00  0.00     0.041 A 
ATOM     34  C   UNL     1      16.401  30.839   6.785  1.00  0.00     0.029 A 
ATOM     35  C   UNL     1      14.606  30.543   8.387  1.00  0.00     0.029 A 
ATOM     36  C   UNL     1      15.949  29.722   6.070  1.00  0.00     0.041 A 
ATOM     37  C   UNL     1      14.155  29.431   7.678  1.00  0.00     0.041 A 
ATOM     38  C   UNL     1      14.824  29.020   6.518  1.00  0.00     0.123 A 
ATOM     39  F   UNL     1      14.382  27.947   5.816  1.00  0.00    -0.207 F 
ENDBRANCH  31  33
ENDBRANCH  26  29
ENDBRANCH  23  26
ENDBRANCH   4  22
TORSDOF 8
ENDMDL
MODEL 9
REMARK VINA RESULT:    -8.985      6.094     11.089
REMARK INTER + INTRA:         -14.058
REMARK INTER:                 -12.997
REMARK INTRA:                  -1.060
REMARK UNBOUND:                -0.870
REMARK SMILES COc1cc2nccc(Oc3ccc(NC(=O)C4(C(=O)Nc5ccc(F)cc5)CC4)cc3)c2cc1OC
REMARK SMILES IDX 11 1 12 2 13 3 14 4 31 5 32 6 10 7 9 8 3 9 4 10 35 11 5 12
REMARK SMILES IDX 34 13 33 14 6 15 7 16 8 17 2 18 1 19 36 20 37 21 15 22 16 23
REMARK SMILES IDX 17 25 18 26 29 27 30 28 19 29 20 30 21 31 22 33 23 34 28 35
REMARK SMILES IDX 24 36 27 37 25 38 26 39
REMARK H PARENT 15 24 21 32
REMARK Flexibility Score: inf
ROOT
ATOM      1  C   UNL     1      17.905  35.289  18.700  1.00  0.00     0.127 A 
ATOM      2  C   UNL     1      17.121  36.432  18.880  1.00  0.00     0.049 A 
ATOM      3  C   UNL     1      17.660  37.579  19.467  1.00  0.00     0.030 A 
ATOM      4  C   UNL     1      18.997  37.590  19.904  1.00  0.00     0.041 A 
ATOM      5  C   UNL     1      19.782  36.442  19.733  1.00  0.00     0.030 A 
ATOM      6  C   UNL     1      19.240  35.294  19.146  1.00  0.00     0.049 A 
ENDROOT
BRANCH   1   7
ATOM      7  O   UNL     1      17.327  34.171  18.080  1.00  0.00    -0.457 OA
BRANCH   7   8
ATOM      8  C   UNL     1      16.489  34.231  16.961  1.00  0.00     0.138 A 
ATOM      9  C   UNL     1      17.917  34.154  12.980  1.00  0.00     0.162 A 
ATOM     10  C   UNL     1      16.538  34.193  13.255  1.00  0.00     0.079 A 
ATOM     11  C   UNL     1      18.836  34.173  14.039  1.00  0.00     0.161 A 
ATOM     12  C   UNL     1      16.076  34.234  14.570  1.00  0.00     0.078 A 
ATOM     13  C   UNL     1      18.372  34.234  15.367  1.00  0.00     0.064 A 
ATOM     14  C   UNL     1      16.994  34.231  15.643  1.00  0.00     0.047 A 
ATOM     15  N   UNL     1      14.740  34.276  14.813  1.00  0.00    -0.256 NA
ATOM     16  C   UNL     1      14.243  34.311  16.074  1.00  0.00     0.115 A 
ATOM     17  C   UNL     1      15.109  34.294  17.165  1.00  0.00     0.068 A 
BRANCH   9  18
ATOM     18  O   UNL     1      18.411  34.098  11.666  1.00  0.00    -0.493 OA
ATOM     19  C   UNL     1      18.418  32.923  10.857  1.00  0.00     0.278 C 
ENDBRANCH   9  18
BRANCH  11  20
ATOM     20  O   UNL     1      20.206  34.121  13.728  1.00  0.00    -0.493 OA
ATOM     21  C   UNL     1      21.073  33.046  14.082  1.00  0.00     0.278 C 
ENDBRANCH  11  20
ENDBRANCH   7   8
ENDBRANCH   1   7
BRANCH   4  22
ATOM     22  N   UNL     1      19.585  38.777  20.464  1.00  0.00    -0.325 N 
ATOM     23  C   UNL     1      19.323  39.215  21.810  1.00  0.00     0.240 C 
ATOM     24  H   UNL     1      20.283  39.300  19.886  1.00  0.00     0.169 HD
ATOM     25  O   UNL     1      19.138  38.354  22.716  1.00  0.00    -0.274 OA
BRANCH  23  26
ATOM     26  C   UNL     1      19.267  40.677  22.180  1.00  0.00     0.128 C 
ATOM     27  C   UNL     1      20.359  41.572  21.610  1.00  0.00     0.028 C 
ATOM     28  C   UNL     1      20.365  41.224  23.087  1.00  0.00     0.028 C 
BRANCH  26  29
ATOM     29  C   UNL     1      17.919  41.336  22.189  1.00  0.00     0.240 C 
ATOM     30  O   UNL     1      17.333  41.501  23.293  1.00  0.00    -0.274 OA
ATOM     31  N   UNL     1      17.303  41.785  20.972  1.00  0.00    -0.325 N 
ATOM     32  H   UNL     1      17.571  41.333  20.080  1.00  0.00     0.169 HD
BRANCH  31  33
ATOM     33  C   UNL     1      16.244  42.749  20.950  1.00  0.00     0.041 A 
ATOM     34  C   UNL     1      16.523  44.126  20.933  1.00  0.00     0.029 A 
ATOM     35  C   UNL     1      14.909  42.318  20.906  1.00  0.00     0.029 A 
ATOM     36  C   UNL     1      15.479  45.060  20.917  1.00  0.00     0.041 A 
ATOM     37  C   UNL     1      13.869  43.244  20.887  1.00  0.00     0.041 A 
ATOM     38  C   UNL     1      14.152  44.617  20.895  1.00  0.00     0.123 A 
ATOM     39  F   UNL     1      13.144  45.524  20.892  1.00  0.00    -0.207 F 
ENDBRANCH  31  33
ENDBRANCH  26  29
ENDBRANCH  23  26
ENDBRANCH   4  22
TORSDOF 8
ENDMDL
MODEL 10
REMARK VINA RESULT:    -8.978      2.586      4.083
REMARK INTER + INTRA:         -14.047
REMARK INTER:                 -13.174
REMARK INTRA:                  -0.873
REMARK UNBOUND:                -0.870
REMARK SMILES COc1cc2nccc(Oc3ccc(NC(=O)C4(C(=O)Nc5ccc(F)cc5)CC4)cc3)c2cc1OC
REMARK SMILES IDX 11 1 12 2 13 3 14 4 31 5 32 6 10 7 9 8 3 9 4 10 35 11 5 12
REMARK SMILES IDX 34 13 33 14 6 15 7 16 8 17 2 18 1 19 36 20 37 21 15 22 16 23
REMARK SMILES IDX 17 25 18 26 29 27 30 28 19 29 20 30 21 31 22 33 23 34 28 35
REMARK SMILES IDX 24 36 27 37 25 38 26 39
REMARK H PARENT 15 24 21 32
REMARK Flexibility Score: inf
ROOT
ATOM      1  C   UNL     1      24.427  34.407  13.410  1.00  0.00     0.127 A 
ATOM      2  C   UNL     1      23.433  35.061  12.679  1.00  0.00     0.049 A 
ATOM      3  C   UNL     1      22.139  35.187  13.191  1.00  0.00     0.030 A 
ATOM      4  C   UNL     1      21.817  34.635  14.444  1.00  0.00     0.041 A 
ATOM      5  C   UNL     1      22.810  33.969  15.174  1.00  0.00     0.030 A 
ATOM      6  C   UNL     1      24.104  33.844  14.659  1.00  0.00     0.049 A 
ENDROOT
BRANCH   1   7
ATOM      7  O   UNL     1      25.718  34.331  12.866  1.00  0.00    -0.457 OA
BRANCH   7   8
ATOM      8  C   UNL     1      26.897  34.537  13.591  1.00  0.00     0.138 A 
ATOM      9  C   UNL     1      29.984  31.659  13.878  1.00  0.00     0.162 A 
ATOM     10  C   UNL     1      30.113  32.924  14.482  1.00  0.00     0.079 A 
ATOM     11  C   UNL     1      28.802  31.332  13.198  1.00  0.00     0.161 A 
ATOM     12  C   UNL     1      29.084  33.860  14.396  1.00  0.00     0.078 A 
ATOM     13  C   UNL     1      27.754  32.271  13.126  1.00  0.00     0.064 A 
ATOM     14  C   UNL     1      27.899  33.549  13.693  1.00  0.00     0.047 A 
ATOM     15  N   UNL     1      29.227  35.074  14.989  1.00  0.00    -0.256 NA
ATOM     16  C   UNL     1      28.258  36.019  14.928  1.00  0.00     0.115 A 
ATOM     17  C   UNL     1      27.077  35.763  14.233  1.00  0.00     0.068 A 
BRANCH   9  18
ATOM     18  O   UNL     1      31.009  30.700  13.937  1.00  0.00    -0.493 OA
ATOM     19  C   UNL     1      31.182  29.771  15.006  1.00  0.00     0.278 C 
ENDBRANCH   9  18
BRANCH  11  20
ATOM     20  O   UNL     1      28.712  30.065  12.597  1.00  0.00    -0.493 OA
ATOM     21  C   UNL     1      29.223  29.746  11.305  1.00  0.00     0.278 C 
ENDBRANCH  11  20
ENDBRANCH   7   8
ENDBRANCH   1   7
BRANCH   4  22
ATOM     22  N   UNL     1      20.505  34.797  15.011  1.00  0.00    -0.325 N 
ATOM     23  C   UNL     1      19.455  33.828  14.834  1.00  0.00     0.240 C 
ATOM     24  H   UNL     1      20.336  35.623  15.631  1.00  0.00     0.169 HD
ATOM     25  O   UNL     1      19.750  32.602  14.768  1.00  0.00    -0.274 OA
BRANCH  23  26
ATOM     26  C   UNL     1      18.003  34.230  14.730  1.00  0.00     0.128 C 
ATOM     27  C   UNL     1      17.632  35.607  15.263  1.00  0.00     0.028 C 
ATOM     28  C   UNL     1      17.208  34.365  16.024  1.00  0.00     0.028 C 
BRANCH  26  29
ATOM     29  C   UNL     1      17.280  33.881  13.464  1.00  0.00     0.240 C 
ATOM     30  O   UNL     1      16.023  33.783  13.490  1.00  0.00    -0.274 OA
ATOM     31  N   UNL     1      17.992  33.670  12.234  1.00  0.00    -0.325 N 
ATOM     32  H   UNL     1      18.984  33.374  12.276  1.00  0.00     0.169 HD
BRANCH  31  33
ATOM     33  C   UNL     1      17.359  33.732  10.952  1.00  0.00     0.041 A 
ATOM     34  C   UNL     1      16.668  34.885  10.544  1.00  0.00     0.029 A 
ATOM     35  C   UNL     1      17.459  32.644  10.071  1.00  0.00     0.029 A 
ATOM     36  C   UNL     1      16.047  34.932   9.289  1.00  0.00     0.041 A 
ATOM     37  C   UNL     1      16.845  32.689   8.821  1.00  0.00     0.041 A 
ATOM     38  C   UNL     1      16.136  33.833   8.429  1.00  0.00     0.123 A 
ATOM     39  F   UNL     1      15.523  33.877   7.220  1.00  0.00    -0.207 F 
ENDBRANCH  31  33
ENDBRANCH  26  29
ENDBRANCH  23  26
ENDBRANCH   4  22
TORSDOF 8
ENDMDL
MODEL 11
REMARK VINA RESULT:    -8.968      2.911      4.654
REMARK INTER + INTRA:         -14.032
REMARK INTER:                 -12.982
REMARK INTRA:                  -1.050
REMARK UNBOUND:                -0.870
REMARK SMILES COc1cc2nccc(Oc3ccc(NC(=O)C4(C(=O)Nc5ccc(F)cc5)CC4)cc3)c2cc1OC
REMARK SMILES IDX 11 1 12 2 13 3 14 4 31 5 32 6 10 7 9 8 3 9 4 10 35 11 5 12
REMARK SMILES IDX 34 13 33 14 6 15 7 16 8 17 2 18 1 19 36 20 37 21 15 22 16 23
REMARK SMILES IDX 17 25 18 26 29 27 30 28 19 29 20 30 21 31 22 33 23 34 28 35
REMARK SMILES IDX 24 36 27 37 25 38 26 39
REMARK H PARENT 15 24 21 32
REMARK Flexibility Score: inf
ROOT
ATOM      1  C   UNL     1      24.617  34.302  13.894  1.00  0.00     0.127 A 
ATOM      2  C   UNL     1      23.690  35.030  13.143  1.00  0.00     0.049 A 
ATOM      3  C   UNL     1      22.349  35.085  13.531  1.00  0.00     0.030 A 
ATOM      4  C   UNL     1      21.911  34.389  14.671  1.00  0.00     0.041 A 
ATOM      5  C   UNL     1      22.838  33.650  15.419  1.00  0.00     0.030 A 
ATOM      6  C   UNL     1      24.180  33.595  15.029  1.00  0.00     0.049 A 
ENDROOT
BRANCH   1   7
ATOM      7  O   UNL     1      25.958  34.300  13.480  1.00  0.00    -0.457 OA
BRANCH   7   8
ATOM      8  C   UNL     1      26.600  33.212  12.879  1.00  0.00     0.138 A 
ATOM      9  C   UNL     1      29.974  31.287  14.552  1.00  0.00     0.162 A 
ATOM     10  C   UNL     1      29.394  30.825  13.356  1.00  0.00     0.079 A 
ATOM     11  C   UNL     1      29.448  32.422  15.184  1.00  0.00     0.161 A 
ATOM     12  C   UNL     1      28.292  31.475  12.803  1.00  0.00     0.078 A 
ATOM     13  C   UNL     1      28.346  33.091  14.617  1.00  0.00     0.064 A 
ATOM     14  C   UNL     1      27.741  32.605  13.445  1.00  0.00     0.047 A 
ATOM     15  N   UNL     1      27.750  31.014  11.645  1.00  0.00    -0.256 NA
ATOM     16  C   UNL     1      26.675  31.609  11.073  1.00  0.00     0.115 A 
ATOM     17  C   UNL     1      26.088  32.718  11.677  1.00  0.00     0.068 A 
BRANCH   9  18
ATOM     18  O   UNL     1      31.077  30.644  15.139  1.00  0.00    -0.493 OA
ATOM     19  C   UNL     1      31.471  29.303  14.857  1.00  0.00     0.278 C 
ENDBRANCH   9  18
BRANCH  11  20
ATOM     20  O   UNL     1      30.044  32.849  16.383  1.00  0.00    -0.493 OA
ATOM     21  C   UNL     1      29.446  33.759  17.303  1.00  0.00     0.278 C 
ENDBRANCH  11  20
ENDBRANCH   7   8
ENDBRANCH   1   7
BRANCH   4  22
ATOM     22  N   UNL     1      20.546  34.473  15.114  1.00  0.00    -0.325 N 
ATOM     23  C   UNL     1      19.512  33.597  14.627  1.00  0.00     0.240 C 
ATOM     24  H   UNL     1      20.316  35.159  15.871  1.00  0.00     0.169 HD
ATOM     25  O   UNL     1      19.801  32.402  14.340  1.00  0.00    -0.274 OA
BRANCH  23  26
ATOM     26  C   UNL     1      18.086  34.059  14.453  1.00  0.00     0.128 C 
ATOM     27  C   UNL     1      17.762  35.475  14.910  1.00  0.00     0.028 C 
ATOM     28  C   UNL     1      17.255  34.290  15.711  1.00  0.00     0.028 C 
BRANCH  26  29
ATOM     29  C   UNL     1      17.390  33.684  13.179  1.00  0.00     0.240 C 
ATOM     30  O   UNL     1      16.232  33.189  13.243  1.00  0.00    -0.274 OA
ATOM     31  N   UNL     1      18.015  33.891  11.902  1.00  0.00    -0.325 N 
ATOM     32  H   UNL     1      19.048  33.924  11.851  1.00  0.00     0.169 HD
BRANCH  31  33
ATOM     33  C   UNL     1      17.276  33.933  10.676  1.00  0.00     0.041 A 
ATOM     34  C   UNL     1      16.477  35.042  10.353  1.00  0.00     0.029 A 
ATOM     35  C   UNL     1      17.378  32.871   9.763  1.00  0.00     0.029 A 
ATOM     36  C   UNL     1      15.755  35.070   9.153  1.00  0.00     0.041 A 
ATOM     37  C   UNL     1      16.662  32.897   8.568  1.00  0.00     0.041 A 
ATOM     38  C   UNL     1      15.847  33.995   8.263  1.00  0.00     0.123 A 
ATOM     39  F   UNL     1      15.137  34.020   7.107  1.00  0.00    -0.207 F 
ENDBRANCH  31  33
ENDBRANCH  26  29
ENDBRANCH  23  26
ENDBRANCH   4  22
TORSDOF 8
ENDMDL
MODEL 12
REMARK VINA RESULT:    -8.936      5.657      8.998
REMARK INTER + INTRA:         -13.985
REMARK INTER:                 -13.063
REMARK INTRA:                  -0.922
REMARK UNBOUND:                -0.870
REMARK SMILES COc1cc2nccc(Oc3ccc(NC(=O)C4(C(=O)Nc5ccc(F)cc5)CC4)cc3)c2cc1OC
REMARK SMILES IDX 11 1 12 2 13 3 14 4 31 5 32 6 10 7 9 8 3 9 4 10 35 11 5 12
REMARK SMILES IDX 34 13 33 14 6 15 7 16 8 17 2 18 1 19 36 20 37 21 15 22 16 23
REMARK SMILES IDX 17 25 18 26 29 27 30 28 19 29 20 30 21 31 22 33 23 34 28 35
REMARK SMILES IDX 24 36 27 37 25 38 26 39
REMARK H PARENT 15 24 21 32
REMARK Flexibility Score: inf
ROOT
ATOM      1  C   UNL     1      21.284  33.149  16.335  1.00  0.00     0.127 A 
ATOM      2  C   UNL     1      19.890  33.247  16.302  1.00  0.00     0.049 A 
ATOM      3  C   UNL     1      19.189  33.005  15.118  1.00  0.00     0.030 A 
ATOM      4  C   UNL     1      19.881  32.679  13.938  1.00  0.00     0.041 A 
ATOM      5  C   UNL     1      21.279  32.591  13.967  1.00  0.00     0.030 A 
ATOM      6  C   UNL     1      21.980  32.835  15.152  1.00  0.00     0.049 A 
ENDROOT
BRANCH   1   7
ATOM      7  O   UNL     1      21.942  33.375  17.554  1.00  0.00    -0.457 OA
BRANCH   7   8
ATOM      8  C   UNL     1      22.418  34.620  17.979  1.00  0.00     0.138 A 
ATOM      9  C   UNL     1      20.058  37.406  20.114  1.00  0.00     0.162 A 
ATOM     10  C   UNL     1      21.411  37.669  19.828  1.00  0.00     0.079 A 
ATOM     11  C   UNL     1      19.471  36.217  19.656  1.00  0.00     0.161 A 
ATOM     12  C   UNL     1      22.177  36.752  19.110  1.00  0.00     0.078 A 
ATOM     13  C   UNL     1      20.239  35.299  18.914  1.00  0.00     0.064 A 
ATOM     14  C   UNL     1      21.601  35.542  18.666  1.00  0.00     0.047 A 
ATOM     15  N   UNL     1      23.480  37.028  18.842  1.00  0.00    -0.256 NA
ATOM     16  C   UNL     1      24.267  36.166  18.153  1.00  0.00     0.115 A 
ATOM     17  C   UNL     1      23.747  34.952  17.707  1.00  0.00     0.068 A 
BRANCH   9  18
ATOM     18  O   UNL     1      19.265  38.305  20.846  1.00  0.00    -0.493 OA
ATOM     19  C   UNL     1      19.683  38.955  22.045  1.00  0.00     0.278 C 
ENDBRANCH   9  18
BRANCH  11  20
ATOM     20  O   UNL     1      18.121  35.981  19.969  1.00  0.00    -0.493 OA
ATOM     21  C   UNL     1      17.076  35.880  19.007  1.00  0.00     0.278 C 
ENDBRANCH  11  20
ENDBRANCH   7   8
ENDBRANCH   1   7
BRANCH   4  22
ATOM     22  N   UNL     1      19.174  32.378  12.723  1.00  0.00    -0.325 N 
ATOM     23  C   UNL     1      19.001  33.337  11.663  1.00  0.00     0.240 C 
ATOM     24  H   UNL     1      18.833  31.398  12.583  1.00  0.00     0.169 HD
ATOM     25  O   UNL     1      19.915  34.177  11.435  1.00  0.00    -0.274 OA
BRANCH  23  26
ATOM     26  C   UNL     1      17.758  33.368  10.806  1.00  0.00     0.128 C 
ATOM     27  C   UNL     1      17.324  34.728  10.275  1.00  0.00     0.028 C 
ATOM     28  C   UNL     1      16.520  34.056  11.373  1.00  0.00     0.028 C 
BRANCH  26  29
ATOM     29  C   UNL     1      17.585  32.268   9.802  1.00  0.00     0.240 C 
ATOM     30  O   UNL     1      18.171  31.169   9.999  1.00  0.00    -0.274 OA
ATOM     31  N   UNL     1      16.760  32.445   8.639  1.00  0.00    -0.325 N 
ATOM     32  H   UNL     1      16.602  33.403   8.280  1.00  0.00     0.169 HD
BRANCH  31  33
ATOM     33  C   UNL     1      16.244  31.346   7.881  1.00  0.00     0.041 A 
ATOM     34  C   UNL     1      14.871  31.049   7.884  1.00  0.00     0.029 A 
ATOM     35  C   UNL     1      17.112  30.575   7.091  1.00  0.00     0.029 A 
ATOM     36  C   UNL     1      14.378  29.968   7.142  1.00  0.00     0.041 A 
ATOM     37  C   UNL     1      16.624  29.500   6.351  1.00  0.00     0.041 A 
ATOM     38  C   UNL     1      15.257  29.194   6.377  1.00  0.00     0.123 A 
ATOM     39  F   UNL     1      14.778  28.140   5.670  1.00  0.00    -0.207 F 
ENDBRANCH  31  33
ENDBRANCH  26  29
ENDBRANCH  23  26
ENDBRANCH   4  22
TORSDOF 8
ENDMDL
MODEL 13
REMARK VINA RESULT:    -8.933      3.674     11.703
REMARK INTER + INTRA:         -13.981
REMARK INTER:                 -13.237
REMARK INTRA:                  -0.744
REMARK UNBOUND:                -0.870
REMARK SMILES COc1cc2nccc(Oc3ccc(NC(=O)C4(C(=O)Nc5ccc(F)cc5)CC4)cc3)c2cc1OC
REMARK SMILES IDX 11 1 12 2 13 3 14 4 31 5 32 6 10 7 9 8 3 9 4 10 35 11 5 12
REMARK SMILES IDX 34 13 33 14 6 15 7 16 8 17 2 18 1 19 36 20 37 21 15 22 16 23
REMARK SMILES IDX 17 25 18 26 29 27 30 28 19 29 20 30 21 31 22 33 23 34 28 35
REMARK SMILES IDX 24 36 27 37 25 38 26 39
REMARK H PARENT 15 24 21 32
REMARK Flexibility Score: inf
ROOT
ATOM      1  C   UNL     1      22.664  34.504  13.411  1.00  0.00     0.127 A 
ATOM      2  C   UNL     1      23.477  33.586  14.081  1.00  0.00     0.049 A 
ATOM      3  C   UNL     1      24.781  33.342  13.646  1.00  0.00     0.030 A 
ATOM      4  C   UNL     1      25.286  34.003  12.512  1.00  0.00     0.041 A 
ATOM      5  C   UNL     1      24.469  34.915  11.832  1.00  0.00     0.030 A 
ATOM      6  C   UNL     1      23.163  35.159  12.269  1.00  0.00     0.049 A 
ENDROOT
BRANCH   1   7
ATOM      7  O   UNL     1      21.370  34.737  13.903  1.00  0.00    -0.457 OA
BRANCH   7   8
ATOM      8  C   UNL     1      20.201  34.229  13.326  1.00  0.00     0.138 A 
ATOM      9  C   UNL     1      16.341  34.902  14.921  1.00  0.00     0.162 A 
ATOM     10  C   UNL     1      16.517  34.178  13.727  1.00  0.00     0.079 A 
ATOM     11  C   UNL     1      17.463  35.381  15.613  1.00  0.00     0.161 A 
ATOM     12  C   UNL     1      17.794  33.948  13.217  1.00  0.00     0.078 A 
ATOM     13  C   UNL     1      18.755  35.132  15.109  1.00  0.00     0.064 A 
ATOM     14  C   UNL     1      18.928  34.446  13.895  1.00  0.00     0.047 A 
ATOM     15  N   UNL     1      17.941  33.243  12.065  1.00  0.00    -0.256 NA
ATOM     16  C   UNL     1      19.160  32.999  11.526  1.00  0.00     0.115 A 
ATOM     17  C   UNL     1      20.308  33.483  12.151  1.00  0.00     0.068 A 
BRANCH   9  18
ATOM     18  O   UNL     1      15.067  35.161  15.452  1.00  0.00    -0.493 OA
ATOM     19  C   UNL     1      14.146  34.152  15.864  1.00  0.00     0.278 C 
ENDBRANCH   9  18
BRANCH  11  20
ATOM     20  O   UNL     1      17.251  36.109  16.797  1.00  0.00    -0.493 OA
ATOM     21  C   UNL     1      17.305  35.553  18.107  1.00  0.00     0.278 C 
ENDBRANCH  11  20
ENDBRANCH   7   8
ENDBRANCH   1   7
BRANCH   4  22
ATOM     22  N   UNL     1      26.642  33.802  12.078  1.00  0.00    -0.325 N 
ATOM     23  C   UNL     1      27.253  32.500  12.008  1.00  0.00     0.240 C 
ATOM     24  H   UNL     1      27.178  34.634  11.737  1.00  0.00     0.169 HD
ATOM     25  O   UNL     1      26.547  31.502  11.696  1.00  0.00    -0.274 OA
BRANCH  23  26
ATOM     26  C   UNL     1      28.721  32.288  12.291  1.00  0.00     0.128 C 
ATOM     27  C   UNL     1      29.638  33.488  12.094  1.00  0.00     0.028 C 
ATOM     28  C   UNL     1      29.686  32.333  11.111  1.00  0.00     0.028 C 
BRANCH  26  29
ATOM     29  C   UNL     1      29.080  31.470  13.495  1.00  0.00     0.240 C 
ATOM     30  O   UNL     1      29.177  30.219  13.372  1.00  0.00    -0.274 OA
ATOM     31  N   UNL     1      29.323  32.089  14.769  1.00  0.00    -0.325 N 
ATOM     32  H   UNL     1      28.889  33.007  14.969  1.00  0.00     0.169 HD
BRANCH  31  33
ATOM     33  C   UNL     1      30.040  31.436  15.823  1.00  0.00     0.041 A 
ATOM     34  C   UNL     1      31.358  30.992  15.630  1.00  0.00     0.029 A 
ATOM     35  C   UNL     1      29.435  31.270  17.079  1.00  0.00     0.029 A 
ATOM     36  C   UNL     1      32.048  30.350  16.667  1.00  0.00     0.041 A 
ATOM     37  C   UNL     1      30.119  30.634  18.112  1.00  0.00     0.041 A 
ATOM     38  C   UNL     1      31.426  30.171  17.907  1.00  0.00     0.123 A 
ATOM     39  F   UNL     1      32.092  29.538  18.905  1.00  0.00    -0.207 F 
ENDBRANCH  31  33
ENDBRANCH  26  29
ENDBRANCH  23  26
ENDBRANCH   4  22
TORSDOF 8
ENDMDL
MODEL 14
REMARK VINA RESULT:    -8.922      3.781     11.408
REMARK INTER + INTRA:         -13.965
REMARK INTER:                 -12.784
REMARK INTRA:                  -1.181
REMARK UNBOUND:                -0.870
REMARK SMILES COc1cc2nccc(Oc3ccc(NC(=O)C4(C(=O)Nc5ccc(F)cc5)CC4)cc3)c2cc1OC
REMARK SMILES IDX 11 1 12 2 13 3 14 4 31 5 32 6 10 7 9 8 3 9 4 10 35 11 5 12
REMARK SMILES IDX 34 13 33 14 6 15 7 16 8 17 2 18 1 19 36 20 37 21 15 22 16 23
REMARK SMILES IDX 17 25 18 26 29 27 30 28 19 29 20 30 21 31 22 33 23 34 28 35
REMARK SMILES IDX 24 36 27 37 25 38 26 39
REMARK H PARENT 15 24 21 32
REMARK Flexibility Score: inf
ROOT
ATOM      1  C   UNL     1      23.746  33.002  13.500  1.00  0.00     0.127 A 
ATOM      2  C   UNL     1      23.863  33.050  12.108  1.00  0.00     0.049 A 
ATOM      3  C   UNL     1      25.119  32.996  11.499  1.00  0.00     0.030 A 
ATOM      4  C   UNL     1      26.284  32.913  12.282  1.00  0.00     0.041 A 
ATOM      5  C   UNL     1      26.169  32.875  13.678  1.00  0.00     0.030 A 
ATOM      6  C   UNL     1      24.911  32.930  14.286  1.00  0.00     0.049 A 
ENDROOT
BRANCH   1   7
ATOM      7  O   UNL     1      22.461  33.031  14.065  1.00  0.00    -0.457 OA
BRANCH   7   8
ATOM      8  C   UNL     1      21.858  34.173  14.601  1.00  0.00     0.138 A 
ATOM      9  C   UNL     1      17.678  34.822  14.584  1.00  0.00     0.162 A 
ATOM     10  C   UNL     1      18.553  35.744  15.188  1.00  0.00     0.079 A 
ATOM     11  C   UNL     1      18.199  33.686  13.948  1.00  0.00     0.161 A 
ATOM     12  C   UNL     1      19.931  35.530  15.175  1.00  0.00     0.078 A 
ATOM     13  C   UNL     1      19.592  33.478  13.918  1.00  0.00     0.064 A 
ATOM     14  C   UNL     1      20.463  34.377  14.558  1.00  0.00     0.047 A 
ATOM     15  N   UNL     1      20.757  36.436  15.760  1.00  0.00    -0.256 NA
ATOM     16  C   UNL     1      22.102  36.269  15.779  1.00  0.00     0.115 A 
ATOM     17  C   UNL     1      22.673  35.139  15.196  1.00  0.00     0.068 A 
BRANCH   9  18
ATOM     18  O   UNL     1      16.285  35.004  14.592  1.00  0.00    -0.493 OA
ATOM     19  C   UNL     1      15.475  34.961  15.766  1.00  0.00     0.278 C 
ENDBRANCH   9  18
BRANCH  11  20
ATOM     20  O   UNL     1      17.296  32.779  13.366  1.00  0.00    -0.493 OA
ATOM     21  C   UNL     1      16.989  32.728  11.975  1.00  0.00     0.278 C 
ENDBRANCH  11  20
ENDBRANCH   7   8
ENDBRANCH   1   7
BRANCH   4  22
ATOM     22  N   UNL     1      27.582  32.806  11.672  1.00  0.00    -0.325 N 
ATOM     23  C   UNL     1      28.483  31.716  11.942  1.00  0.00     0.240 C 
ATOM     24  H   UNL     1      27.848  33.520  10.954  1.00  0.00     0.169 HD
ATOM     25  O   UNL     1      28.011  30.565  12.160  1.00  0.00    -0.274 OA
BRANCH  23  26
ATOM     26  C   UNL     1      29.980  31.900  11.966  1.00  0.00     0.128 C 
ATOM     27  C   UNL     1      30.543  33.055  11.147  1.00  0.00     0.028 C 
ATOM     28  C   UNL     1      30.752  31.626  10.679  1.00  0.00     0.028 C 
BRANCH  26  29
ATOM     29  C   UNL     1      30.676  31.726  13.283  1.00  0.00     0.240 C 
ATOM     30  O   UNL     1      31.484  32.615  13.665  1.00  0.00    -0.274 OA
ATOM     31  N   UNL     1      30.426  30.577  14.109  1.00  0.00    -0.325 N 
ATOM     32  H   UNL     1      30.093  29.704  13.663  1.00  0.00     0.169 HD
BRANCH  31  33
ATOM     33  C   UNL     1      30.734  30.547  15.507  1.00  0.00     0.041 A 
ATOM     34  C   UNL     1      29.838  31.072  16.454  1.00  0.00     0.029 A 
ATOM     35  C   UNL     1      31.927  29.952  15.946  1.00  0.00     0.029 A 
ATOM     36  C   UNL     1      30.152  31.041  17.819  1.00  0.00     0.041 A 
ATOM     37  C   UNL     1      32.241  29.919  17.303  1.00  0.00     0.041 A 
ATOM     38  C   UNL     1      31.355  30.466  18.241  1.00  0.00     0.123 A 
ATOM     39  F   UNL     1      31.661  30.449  19.562  1.00  0.00    -0.207 F 
ENDBRANCH  31  33
ENDBRANCH  26  29
ENDBRANCH  23  26
ENDBRANCH   4  22
TORSDOF 8
ENDMDL
MODEL 15
REMARK VINA RESULT:    -8.739      2.818      4.513
REMARK INTER + INTRA:         -13.696
REMARK INTER:                 -12.636
REMARK INTRA:                  -1.060
REMARK UNBOUND:                -0.870
REMARK SMILES COc1cc2nccc(Oc3ccc(NC(=O)C4(C(=O)Nc5ccc(F)cc5)CC4)cc3)c2cc1OC
REMARK SMILES IDX 11 1 12 2 13 3 14 4 31 5 32 6 10 7 9 8 3 9 4 10 35 11 5 12
REMARK SMILES IDX 34 13 33 14 6 15 7 16 8 17 2 18 1 19 36 20 37 21 15 22 16 23
REMARK SMILES IDX 17 25 18 26 29 27 30 28 19 29 20 30 21 31 22 33 23 34 28 35
REMARK SMILES IDX 24 36 27 37 25 38 26 39
REMARK H PARENT 15 24 21 32
REMARK Flexibility Score: inf
ROOT
ATOM      1  C   UNL     1      25.267  36.066  14.095  1.00  0.00     0.127 A 
ATOM      2  C   UNL     1      25.040  35.708  15.427  1.00  0.00     0.049 A 
ATOM      3  C   UNL     1      23.742  35.483  15.891  1.00  0.00     0.030 A 
ATOM      4  C   UNL     1      22.644  35.635  15.026  1.00  0.00     0.041 A 
ATOM      5  C   UNL     1      22.869  36.004  13.693  1.00  0.00     0.030 A 
ATOM      6  C   UNL     1      24.169  36.229  13.231  1.00  0.00     0.049 A 
ENDROOT
BRANCH   1   7
ATOM      7  O   UNL     1      26.591  36.254  13.669  1.00  0.00    -0.457 OA
BRANCH   7   8
ATOM      8  C   UNL     1      27.683  35.505  14.121  1.00  0.00     0.138 A 
ATOM      9  C   UNL     1      28.369  31.486  12.995  1.00  0.00     0.162 A 
ATOM     10  C   UNL     1      29.275  32.171  13.825  1.00  0.00     0.079 A 
ATOM     11  C   UNL     1      27.203  32.131  12.559  1.00  0.00     0.161 A 
ATOM     12  C   UNL     1      29.033  33.491  14.204  1.00  0.00     0.078 A 
ATOM     13  C   UNL     1      26.948  33.458  12.956  1.00  0.00     0.064 A 
ATOM     14  C   UNL     1      27.873  34.156  13.751  1.00  0.00     0.047 A 
ATOM     15  N   UNL     1      29.919  34.132  15.010  1.00  0.00    -0.256 NA
ATOM     16  C   UNL     1      29.730  35.417  15.400  1.00  0.00     0.115 A 
ATOM     17  C   UNL     1      28.608  36.120  14.967  1.00  0.00     0.068 A 
BRANCH   9  18
ATOM     18  O   UNL     1      28.593  30.160  12.586  1.00  0.00    -0.493 OA
ATOM     19  C   UNL     1      29.345  29.790  11.432  1.00  0.00     0.278 C 
ENDBRANCH   9  18
BRANCH  11  20
ATOM     20  O   UNL     1      26.326  31.421  11.721  1.00  0.00    -0.493 OA
ATOM     21  C   UNL     1      25.171  31.981  11.102  1.00  0.00     0.278 C 
ENDBRANCH  11  20
ENDBRANCH   7   8
ENDBRANCH   1   7
BRANCH   4  22
ATOM     22  N   UNL     1      21.305  35.359  15.471  1.00  0.00    -0.325 N 
ATOM     23  C   UNL     1      20.544  34.230  15.002  1.00  0.00     0.240 C 
ATOM     24  H   UNL     1      20.899  35.972  16.217  1.00  0.00     0.169 HD
ATOM     25  O   UNL     1      21.142  33.151  14.735  1.00  0.00    -0.274 OA
BRANCH  23  26
ATOM     26  C   UNL     1      19.047  34.291  14.825  1.00  0.00     0.128 C 
ATOM     27  C   UNL     1      18.368  35.611  15.163  1.00  0.00     0.028 C 
ATOM     28  C   UNL     1      18.186  34.415  16.078  1.00  0.00     0.028 C 
BRANCH  26  29
ATOM     29  C   UNL     1      18.469  33.633  13.607  1.00  0.00     0.240 C 
ATOM     30  O   UNL     1      17.494  32.847  13.747  1.00  0.00    -0.274 OA
ATOM     31  N   UNL     1      19.001  33.895  12.298  1.00  0.00    -0.325 N 
ATOM     32  H   UNL     1      19.985  34.204  12.212  1.00  0.00     0.169 HD
BRANCH  31  33
ATOM     33  C   UNL     1      18.268  33.628  11.097  1.00  0.00     0.041 A 
ATOM     34  C   UNL     1      17.257  34.501  10.661  1.00  0.00     0.029 A 
ATOM     35  C   UNL     1      18.586  32.503  10.321  1.00  0.00     0.029 A 
ATOM     36  C   UNL     1      16.544  34.228   9.487  1.00  0.00     0.041 A 
ATOM     37  C   UNL     1      17.879  32.230   9.152  1.00  0.00     0.041 A 
ATOM     38  C   UNL     1      16.855  33.090   8.735  1.00  0.00     0.123 A 
ATOM     39  F   UNL     1      16.154  32.823   7.605  1.00  0.00    -0.207 F 
ENDBRANCH  31  33
ENDBRANCH  26  29
ENDBRANCH  23  26
ENDBRANCH   4  22
TORSDOF 8
ENDMDL
