MODEL 1
REMARK VINA RESULT:    -8.057      0.000      0.000
REMARK INTER + INTRA:         -11.350
REMARK INTER:                 -10.647
REMARK INTRA:                  -0.703
REMARK UNBOUND:                -0.703
REMARK SMILES C[C@@H](Oc1cc(-c2cnn(C3CCNCC3)c2)cnc1N)c1c(Cl)ccc(F)c1Cl
REMARK SMILES IDX 4 1 5 2 6 3 18 4 19 5 20 6 3 7 2 8 1 9 22 10 23 11 29 12
REMARK SMILES IDX 24 13 25 14 27 15 30 16 26 17 28 18 21 19 7 22 17 23 8 24
REMARK SMILES IDX 10 25 9 26 11 27 12 28 16 29 13 30 15 31 14 32
REMARK H PARENT 21 20 21 21 14 33
REMARK Flexibility Score: inf
ROOT
ATOM      1  C   UNL     1      30.915  25.047   8.948  1.00  0.00     0.162 A 
ATOM      2  C   UNL     1      29.981  24.009   9.112  1.00  0.00     0.061 A 
ATOM      3  C   UNL     1      28.900  24.148   9.999  1.00  0.00     0.007 A 
ATOM      4  C   UNL     1      28.790  25.346  10.723  1.00  0.00     0.122 A 
ATOM      5  N   UNL     1      29.705  26.336  10.558  1.00  0.00    -0.235 NA
ATOM      6  C   UNL     1      30.753  26.220   9.701  1.00  0.00     0.166 A 
ENDROOT
BRANCH   1   7
ATOM      7  O   UNL     1      31.998  24.951   8.055  1.00  0.00    -0.482 OA
BRANCH   7   8
ATOM      8  C   UNL     1      32.000  25.416   6.702  1.00  0.00     0.203 C 
ATOM      9  C   UNL     1      30.568  25.443   6.170  1.00  0.00     0.058 C 
BRANCH   8  10
ATOM     10  C   UNL     1      32.885  24.546   5.813  1.00  0.00     0.032 A 
ATOM     11  C   UNL     1      32.669  23.144   5.704  1.00  0.00     0.049 A 
ATOM     12  C   UNL     1      33.933  25.129   5.053  1.00  0.00     0.085 A 
ATOM     13  Cl  UNL     1      31.363  22.308   6.542  1.00  0.00    -0.084 Cl
ATOM     14  C   UNL     1      33.504  22.365   4.896  1.00  0.00     0.024 A 
ATOM     15  C   UNL     1      34.758  24.325   4.255  1.00  0.00     0.142 A 
ATOM     16  Cl  UNL     1      34.253  26.865   5.064  1.00  0.00    -0.081 Cl
ATOM     17  C   UNL     1      34.546  22.950   4.183  1.00  0.00     0.042 A 
ATOM     18  F   UNL     1      35.771  24.879   3.541  1.00  0.00    -0.205 F 
ENDBRANCH   8  10
ENDBRANCH   7   8
ENDBRANCH   1   7
BRANCH   6  19
ATOM     19  N   UNL     1      31.672  27.308   9.572  1.00  0.00    -0.381 N 
ATOM     20  H   UNL     1      32.637  27.169   9.196  1.00  0.00     0.158 HD
ATOM     21  H   UNL     1      31.385  28.269   9.856  1.00  0.00     0.158 HD
ENDBRANCH   6  19
BRANCH   3  22
ATOM     22  C   UNL     1      27.901  23.058  10.163  1.00  0.00     0.021 A 
ATOM     23  C   UNL     1      27.798  21.885   9.433  1.00  0.00     0.117 A 
ATOM     24  C   UNL     1      26.868  22.985  11.087  1.00  0.00     0.143 A 
ATOM     25  N   UNL     1      26.753  21.183   9.907  1.00  0.00    -0.269 N 
ATOM     26  N   UNL     1      26.193  21.833  10.916  1.00  0.00    -0.181 NA
BRANCH  25  27
ATOM     27  C   UNL     1      26.345  19.848   9.457  1.00  0.00     0.110 C 
ATOM     28  C   UNL     1      27.002  18.748  10.323  1.00  0.00     0.042 C 
ATOM     29  C   UNL     1      26.667  19.682   7.957  1.00  0.00     0.042 C 
ATOM     30  C   UNL     1      28.252  18.174   9.645  1.00  0.00     0.083 C 
ATOM     31  C   UNL     1      26.839  18.201   7.597  1.00  0.00     0.083 C 
ATOM     32  N   UNL     1      27.947  17.561   8.336  1.00  0.00    -0.317 NA
ATOM     33  H   UNL     1      28.812  17.610   7.749  1.00  0.00     0.122 HD
ENDBRANCH  25  27
ENDBRANCH   3  22
TORSDOF 6
ENDMDL
MODEL 2
REMARK VINA RESULT:    -7.904      4.366      8.356
REMARK INTER + INTRA:         -11.148
REMARK INTER:                 -10.948
REMARK INTRA:                  -0.199
REMARK UNBOUND:                -0.703
REMARK SMILES C[C@@H](Oc1cc(-c2cnn(C3CCNCC3)c2)cnc1N)c1c(Cl)ccc(F)c1Cl
REMARK SMILES IDX 4 1 5 2 6 3 18 4 19 5 20 6 3 7 2 8 1 9 22 10 23 11 29 12
REMARK SMILES IDX 24 13 25 14 27 15 30 16 26 17 28 18 21 19 7 22 17 23 8 24
REMARK SMILES IDX 10 25 9 26 11 27 12 28 16 29 13 30 15 31 14 32
REMARK H PARENT 21 20 21 21 14 33
REMARK Flexibility Score: inf
ROOT
ATOM      1  C   UNL     1      27.321  23.662   7.800  1.00  0.00     0.162 A 
ATOM      2  C   UNL     1      28.386  23.131   7.051  1.00  0.00     0.061 A 
ATOM      3  C   UNL     1      29.205  23.968   6.273  1.00  0.00     0.007 A 
ATOM      4  C   UNL     1      28.921  25.342   6.258  1.00  0.00     0.122 A 
ATOM      5  N   UNL     1      27.883  25.838   6.982  1.00  0.00    -0.235 NA
ATOM      6  C   UNL     1      27.084  25.044   7.742  1.00  0.00     0.166 A 
ENDROOT
BRANCH   1   7
ATOM      7  O   UNL     1      26.493  22.859   8.605  1.00  0.00    -0.482 OA
BRANCH   7   8
ATOM      8  C   UNL     1      26.790  22.438   9.939  1.00  0.00     0.203 C 
ATOM      9  C   UNL     1      27.938  23.279  10.495  1.00  0.00     0.058 C 
BRANCH   8  10
ATOM     10  C   UNL     1      27.140  20.953   9.992  1.00  0.00     0.032 A 
ATOM     11  C   UNL     1      28.469  20.501   9.769  1.00  0.00     0.049 A 
ATOM     12  C   UNL     1      26.140  19.990  10.292  1.00  0.00     0.085 A 
ATOM     13  Cl  UNL     1      29.813  21.596   9.452  1.00  0.00    -0.084 Cl
ATOM     14  C   UNL     1      28.762  19.133   9.806  1.00  0.00     0.024 A 
ATOM     15  C   UNL     1      26.459  18.626  10.319  1.00  0.00     0.142 A 
ATOM     16  Cl  UNL     1      24.471  20.443  10.647  1.00  0.00    -0.081 Cl
ATOM     17  C   UNL     1      27.763  18.202  10.071  1.00  0.00     0.042 A 
ATOM     18  F   UNL     1      25.501  17.703  10.590  1.00  0.00    -0.205 F 
ENDBRANCH   8  10
ENDBRANCH   7   8
ENDBRANCH   1   7
BRANCH   6  19
ATOM     19  N   UNL     1      26.017  25.638   8.487  1.00  0.00    -0.381 N 
ATOM     20  H   UNL     1      26.198  26.245   9.316  1.00  0.00     0.158 HD
ATOM     21  H   UNL     1      25.027  25.467   8.204  1.00  0.00     0.158 HD
ENDBRANCH   6  19
BRANCH   3  22
ATOM     22  C   UNL     1      30.342  23.411   5.492  1.00  0.00     0.021 A 
ATOM     23  C   UNL     1      31.662  23.834   5.497  1.00  0.00     0.117 A 
ATOM     24  C   UNL     1      30.321  22.348   4.600  1.00  0.00     0.143 A 
ATOM     25  N   UNL     1      32.357  23.059   4.644  1.00  0.00    -0.269 N 
ATOM     26  N   UNL     1      31.557  22.150   4.108  1.00  0.00    -0.181 NA
BRANCH  25  27
ATOM     27  C   UNL     1      33.803  23.128   4.410  1.00  0.00     0.110 C 
ATOM     28  C   UNL     1      34.422  24.346   5.134  1.00  0.00     0.042 C 
ATOM     29  C   UNL     1      34.085  23.144   2.893  1.00  0.00     0.042 C 
ATOM     30  C   UNL     1      34.599  25.534   4.180  1.00  0.00     0.083 C 
ATOM     31  C   UNL     1      35.437  23.806   2.597  1.00  0.00     0.083 C 
ATOM     32  N   UNL     1      35.490  25.213   3.046  1.00  0.00    -0.317 NA
ATOM     33  H   UNL     1      35.224  25.830   2.244  1.00  0.00     0.122 HD
ENDBRANCH  25  27
ENDBRANCH   3  22
TORSDOF 6
ENDMDL
MODEL 3
REMARK VINA RESULT:    -7.899      1.687      2.374
REMARK INTER + INTRA:         -11.142
REMARK INTER:                 -10.270
REMARK INTRA:                  -0.872
REMARK UNBOUND:                -0.703
REMARK SMILES C[C@@H](Oc1cc(-c2cnn(C3CCNCC3)c2)cnc1N)c1c(Cl)ccc(F)c1Cl
REMARK SMILES IDX 4 1 5 2 6 3 18 4 19 5 20 6 3 7 2 8 1 9 22 10 23 11 29 12
REMARK SMILES IDX 24 13 25 14 27 15 30 16 26 17 28 18 21 19 7 22 17 23 8 24
REMARK SMILES IDX 10 25 9 26 11 27 12 28 16 29 13 30 15 31 14 32
REMARK H PARENT 21 20 21 21 14 33
REMARK Flexibility Score: inf
ROOT
ATOM      1  C   UNL     1      29.859  25.364   6.934  1.00  0.00     0.162 A 
ATOM      2  C   UNL     1      29.091  24.281   7.397  1.00  0.00     0.061 A 
ATOM      3  C   UNL     1      27.935  24.497   8.167  1.00  0.00     0.007 A 
ATOM      4  C   UNL     1      27.580  25.821   8.468  1.00  0.00     0.122 A 
ATOM      5  N   UNL     1      28.338  26.855   8.020  1.00  0.00    -0.235 NA
ATOM      6  C   UNL     1      29.456  26.665   7.271  1.00  0.00     0.166 A 
ENDROOT
BRANCH   1   7
ATOM      7  O   UNL     1      31.010  25.188   6.145  1.00  0.00    -0.482 OA
BRANCH   7   8
ATOM      8  C   UNL     1      32.104  24.321   6.457  1.00  0.00     0.203 C 
ATOM      9  C   UNL     1      32.684  24.700   7.818  1.00  0.00     0.058 C 
BRANCH   8  10
ATOM     10  C   UNL     1      33.186  24.375   5.381  1.00  0.00     0.032 A 
ATOM     11  C   UNL     1      33.755  25.611   4.970  1.00  0.00     0.049 A 
ATOM     12  C   UNL     1      33.664  23.179   4.783  1.00  0.00     0.085 A 
ATOM     13  Cl  UNL     1      33.297  27.159   5.678  1.00  0.00    -0.084 Cl
ATOM     14  C   UNL     1      34.733  25.637   3.969  1.00  0.00     0.024 A 
ATOM     15  C   UNL     1      34.642  23.233   3.780  1.00  0.00     0.142 A 
ATOM     16  Cl  UNL     1      33.074  21.585   5.259  1.00  0.00    -0.081 Cl
ATOM     17  C   UNL     1      35.167  24.457   3.373  1.00  0.00     0.042 A 
ATOM     18  F   UNL     1      35.088  22.092   3.195  1.00  0.00    -0.205 F 
ENDBRANCH   8  10
ENDBRANCH   7   8
ENDBRANCH   1   7
BRANCH   6  19
ATOM     19  N   UNL     1      30.199  27.803   6.825  1.00  0.00    -0.381 N 
ATOM     20  H   UNL     1      29.778  28.758   6.804  1.00  0.00     0.158 HD
ATOM     21  H   UNL     1      31.187  27.689   6.510  1.00  0.00     0.158 HD
ENDBRANCH   6  19
BRANCH   3  22
ATOM     22  C   UNL     1      27.111  23.354   8.644  1.00  0.00     0.021 A 
ATOM     23  C   UNL     1      27.324  22.003   8.421  1.00  0.00     0.117 A 
ATOM     24  C   UNL     1      25.960  23.401   9.419  1.00  0.00     0.143 A 
ATOM     25  N   UNL     1      26.340  21.314   9.027  1.00  0.00    -0.269 N 
ATOM     26  N   UNL     1      25.519  22.150   9.644  1.00  0.00    -0.181 NA
BRANCH  25  27
ATOM     27  C   UNL     1      26.235  19.853   9.095  1.00  0.00     0.110 C 
ATOM     28  C   UNL     1      27.013  19.299  10.311  1.00  0.00     0.042 C 
ATOM     29  C   UNL     1      26.712  19.234   7.764  1.00  0.00     0.042 C 
ATOM     30  C   UNL     1      28.404  18.796   9.904  1.00  0.00     0.083 C 
ATOM     31  C   UNL     1      27.193  17.793   7.975  1.00  0.00     0.083 C 
ATOM     32  N   UNL     1      28.336  17.707   8.909  1.00  0.00    -0.317 NA
ATOM     33  H   UNL     1      29.223  17.723   8.353  1.00  0.00     0.122 HD
ENDBRANCH  25  27
ENDBRANCH   3  22
TORSDOF 6
ENDMDL
MODEL 4
REMARK VINA RESULT:    -7.876      2.657      3.585
REMARK INTER + INTRA:         -11.112
REMARK INTER:                 -11.066
REMARK INTRA:                  -0.046
REMARK UNBOUND:                -0.703
REMARK SMILES C[C@@H](Oc1cc(-c2cnn(C3CCNCC3)c2)cnc1N)c1c(Cl)ccc(F)c1Cl
REMARK SMILES IDX 4 1 5 2 6 3 18 4 19 5 20 6 3 7 2 8 1 9 22 10 23 11 29 12
REMARK SMILES IDX 24 13 25 14 27 15 30 16 26 17 28 18 21 19 7 22 17 23 8 24
REMARK SMILES IDX 10 25 9 26 11 27 12 28 16 29 13 30 15 31 14 32
REMARK H PARENT 21 20 21 21 14 33
REMARK Flexibility Score: inf
ROOT
ATOM      1  C   UNL     1      29.019  24.141   6.394  1.00  0.00     0.162 A 
ATOM      2  C   UNL     1      28.258  23.261   7.184  1.00  0.00     0.061 A 
ATOM      3  C   UNL     1      27.377  23.753   8.162  1.00  0.00     0.007 A 
ATOM      4  C   UNL     1      27.289  25.143   8.334  1.00  0.00     0.122 A 
ATOM      5  N   UNL     1      28.038  25.979   7.569  1.00  0.00    -0.235 NA
ATOM      6  C   UNL     1      28.891  25.521   6.615  1.00  0.00     0.166 A 
ENDROOT
BRANCH   1   7
ATOM      7  O   UNL     1      29.896  23.687   5.393  1.00  0.00    -0.482 OA
BRANCH   7   8
ATOM      8  C   UNL     1      30.771  22.562   5.506  1.00  0.00     0.203 C 
ATOM      9  C   UNL     1      31.054  22.281   6.981  1.00  0.00     0.058 C 
BRANCH   8  10
ATOM     10  C   UNL     1      32.076  22.788   4.745  1.00  0.00     0.032 A 
ATOM     11  C   UNL     1      32.317  22.157   3.493  1.00  0.00     0.049 A 
ATOM     12  C   UNL     1      33.069  23.659   5.266  1.00  0.00     0.085 A 
ATOM     13  Cl  UNL     1      31.141  21.106   2.708  1.00  0.00    -0.084 Cl
ATOM     14  C   UNL     1      33.527  22.366   2.823  1.00  0.00     0.024 A 
ATOM     15  C   UNL     1      34.274  23.848   4.576  1.00  0.00     0.142 A 
ATOM     16  Cl  UNL     1      32.850  24.541   6.778  1.00  0.00    -0.081 Cl
ATOM     17  C   UNL     1      34.502  23.199   3.364  1.00  0.00     0.042 A 
ATOM     18  F   UNL     1      35.231  24.667   5.080  1.00  0.00    -0.205 F 
ENDBRANCH   8  10
ENDBRANCH   7   8
ENDBRANCH   1   7
BRANCH   6  19
ATOM     19  N   UNL     1      29.640  26.461   5.839  1.00  0.00    -0.381 N 
ATOM     20  H   UNL     1      30.598  26.242   5.487  1.00  0.00     0.158 HD
ATOM     21  H   UNL     1      29.230  27.393   5.613  1.00  0.00     0.158 HD
ENDBRANCH   6  19
BRANCH   3  22
ATOM     22  C   UNL     1      26.558  22.825   8.987  1.00  0.00     0.021 A 
ATOM     23  C   UNL     1      25.569  23.151   9.903  1.00  0.00     0.117 A 
ATOM     24  C   UNL     1      26.607  21.438   9.008  1.00  0.00     0.143 A 
ATOM     25  N   UNL     1      25.087  22.010  10.428  1.00  0.00    -0.269 N 
ATOM     26  N   UNL     1      25.698  20.969   9.884  1.00  0.00    -0.181 NA
BRANCH  25  27
ATOM     27  C   UNL     1      23.978  21.910  11.382  1.00  0.00     0.110 C 
ATOM     28  C   UNL     1      24.417  22.373  12.791  1.00  0.00     0.042 C 
ATOM     29  C   UNL     1      23.421  20.471  11.386  1.00  0.00     0.042 C 
ATOM     30  C   UNL     1      24.786  21.180  13.682  1.00  0.00     0.083 C 
ATOM     31  C   UNL     1      22.731  20.157  12.720  1.00  0.00     0.083 C 
ATOM     32  N   UNL     1      23.652  20.252  13.872  1.00  0.00    -0.317 NA
ATOM     33  H   UNL     1      24.043  19.301  14.066  1.00  0.00     0.122 HD
ENDBRANCH  25  27
ENDBRANCH   3  22
TORSDOF 6
ENDMDL
MODEL 5
REMARK VINA RESULT:    -7.839      4.515      8.857
REMARK INTER + INTRA:         -11.062
REMARK INTER:                 -10.641
REMARK INTRA:                  -0.422
REMARK UNBOUND:                -0.703
REMARK SMILES C[C@@H](Oc1cc(-c2cnn(C3CCNCC3)c2)cnc1N)c1c(Cl)ccc(F)c1Cl
REMARK SMILES IDX 4 1 5 2 6 3 18 4 19 5 20 6 3 7 2 8 1 9 22 10 23 11 29 12
REMARK SMILES IDX 24 13 25 14 27 15 30 16 26 17 28 18 21 19 7 22 17 23 8 24
REMARK SMILES IDX 10 25 9 26 11 27 12 28 16 29 13 30 15 31 14 32
REMARK H PARENT 21 20 21 21 14 33
REMARK Flexibility Score: inf
ROOT
ATOM      1  C   UNL     1      28.814  23.333   9.676  1.00  0.00     0.162 A 
ATOM      2  C   UNL     1      29.571  22.960   8.550  1.00  0.00     0.061 A 
ATOM      3  C   UNL     1      30.555  23.818   8.030  1.00  0.00     0.007 A 
ATOM      4  C   UNL     1      30.751  25.057   8.658  1.00  0.00     0.122 A 
ATOM      5  N   UNL     1      30.006  25.405   9.740  1.00  0.00    -0.235 NA
ATOM      6  C   UNL     1      29.054  24.587  10.259  1.00  0.00     0.166 A 
ENDROOT
BRANCH   1   7
ATOM      7  O   UNL     1      27.835  22.493  10.236  1.00  0.00    -0.482 OA
BRANCH   7   8
ATOM      8  C   UNL     1      26.799  21.828   9.509  1.00  0.00     0.203 C 
ATOM      9  C   UNL     1      26.304  22.733   8.382  1.00  0.00     0.058 C 
BRANCH   8  10
ATOM     10  C   UNL     1      25.643  21.427  10.421  1.00  0.00     0.032 A 
ATOM     11  C   UNL     1      25.423  20.069  10.780  1.00  0.00     0.049 A 
ATOM     12  C   UNL     1      24.772  22.415  10.952  1.00  0.00     0.085 A 
ATOM     13  Cl  UNL     1      26.469  18.755  10.243  1.00  0.00    -0.084 Cl
ATOM     14  C   UNL     1      24.346  19.724  11.604  1.00  0.00     0.024 A 
ATOM     15  C   UNL     1      23.698  22.043  11.772  1.00  0.00     0.142 A 
ATOM     16  Cl  UNL     1      24.986  24.136  10.624  1.00  0.00    -0.081 Cl
ATOM     17  C   UNL     1      23.485  20.703  12.090  1.00  0.00     0.042 A 
ATOM     18  F   UNL     1      22.855  22.984  12.267  1.00  0.00    -0.205 F 
ENDBRANCH   8  10
ENDBRANCH   7   8
ENDBRANCH   1   7
BRANCH   6  19
ATOM     19  N   UNL     1      28.315  25.016  11.407  1.00  0.00    -0.381 N 
ATOM     20  H   UNL     1      28.553  24.682  12.367  1.00  0.00     0.158 HD
ATOM     21  H   UNL     1      27.517  25.678  11.295  1.00  0.00     0.158 HD
ENDBRANCH   6  19
BRANCH   3  22
ATOM     22  C   UNL     1      31.368  23.419   6.849  1.00  0.00     0.021 A 
ATOM     23  C   UNL     1      32.617  23.893   6.480  1.00  0.00     0.117 A 
ATOM     24  C   UNL     1      31.049  22.484   5.874  1.00  0.00     0.143 A 
ATOM     25  N   UNL     1      32.987  23.270   5.347  1.00  0.00    -0.269 N 
ATOM     26  N   UNL     1      32.052  22.407   4.981  1.00  0.00    -0.181 NA
BRANCH  25  27
ATOM     27  C   UNL     1      34.275  23.431   4.664  1.00  0.00     0.110 C 
ATOM     28  C   UNL     1      34.984  24.727   5.120  1.00  0.00     0.042 C 
ATOM     29  C   UNL     1      34.064  23.387   3.136  1.00  0.00     0.042 C 
ATOM     30  C   UNL     1      34.750  25.873   4.128  1.00  0.00     0.083 C 
ATOM     31  C   UNL     1      35.192  24.129   2.409  1.00  0.00     0.083 C 
ATOM     32  N   UNL     1      35.263  25.558   2.779  1.00  0.00    -0.317 NA
ATOM     33  H   UNL     1      34.706  26.111   2.086  1.00  0.00     0.122 HD
ENDBRANCH  25  27
ENDBRANCH   3  22
TORSDOF 6
ENDMDL
MODEL 6
REMARK VINA RESULT:    -7.829      3.668      7.796
REMARK INTER + INTRA:         -11.049
REMARK INTER:                 -10.905
REMARK INTRA:                  -0.144
REMARK UNBOUND:                -0.703
REMARK SMILES C[C@@H](Oc1cc(-c2cnn(C3CCNCC3)c2)cnc1N)c1c(Cl)ccc(F)c1Cl
REMARK SMILES IDX 4 1 5 2 6 3 18 4 19 5 20 6 3 7 2 8 1 9 22 10 23 11 29 12
REMARK SMILES IDX 24 13 25 14 27 15 30 16 26 17 28 18 21 19 7 22 17 23 8 24
REMARK SMILES IDX 10 25 9 26 11 27 12 28 16 29 13 30 15 31 14 32
REMARK H PARENT 21 20 21 21 14 33
REMARK Flexibility Score: inf
ROOT
ATOM      1  C   UNL     1      29.361  24.375   6.016  1.00  0.00     0.162 A 
ATOM      2  C   UNL     1      30.173  25.512   6.174  1.00  0.00     0.061 A 
ATOM      3  C   UNL     1      29.769  26.574   7.002  1.00  0.00     0.007 A 
ATOM      4  C   UNL     1      28.530  26.470   7.653  1.00  0.00     0.122 A 
ATOM      5  N   UNL     1      27.754  25.368   7.482  1.00  0.00    -0.235 NA
ATOM      6  C   UNL     1      28.131  24.330   6.690  1.00  0.00     0.166 A 
ENDROOT
BRANCH   1   7
ATOM      7  O   UNL     1      29.740  23.285   5.212  1.00  0.00    -0.482 OA
BRANCH   7   8
ATOM      8  C   UNL     1      30.758  22.333   5.534  1.00  0.00     0.203 C 
ATOM      9  C   UNL     1      31.029  22.364   7.037  1.00  0.00     0.058 C 
BRANCH   8  10
ATOM     10  C   UNL     1      32.043  22.602   4.753  1.00  0.00     0.032 A 
ATOM     11  C   UNL     1      32.243  22.058   3.454  1.00  0.00     0.049 A 
ATOM     12  C   UNL     1      33.059  23.426   5.305  1.00  0.00     0.085 A 
ATOM     13  Cl  UNL     1      31.034  21.074   2.631  1.00  0.00    -0.084 Cl
ATOM     14  C   UNL     1      33.436  22.304   2.766  1.00  0.00     0.024 A 
ATOM     15  C   UNL     1      34.246  23.653   4.596  1.00  0.00     0.142 A 
ATOM     16  Cl  UNL     1      32.892  24.202   6.882  1.00  0.00    -0.081 Cl
ATOM     17  C   UNL     1      34.433  23.089   3.336  1.00  0.00     0.042 A 
ATOM     18  F   UNL     1      35.226  24.426   5.129  1.00  0.00    -0.205 F 
ENDBRANCH   8  10
ENDBRANCH   7   8
ENDBRANCH   1   7
BRANCH   6  19
ATOM     19  N   UNL     1      27.267  23.197   6.567  1.00  0.00    -0.381 N 
ATOM     20  H   UNL     1      26.600  22.931   7.325  1.00  0.00     0.158 HD
ATOM     21  H   UNL     1      27.294  22.613   5.703  1.00  0.00     0.158 HD
ENDBRANCH   6  19
BRANCH   3  22
ATOM     22  C   UNL     1      30.633  27.771   7.184  1.00  0.00     0.021 A 
ATOM     23  C   UNL     1      31.810  28.077   6.520  1.00  0.00     0.117 A 
ATOM     24  C   UNL     1      30.437  28.836   8.053  1.00  0.00     0.143 A 
ATOM     25  N   UNL     1      32.269  29.250   6.992  1.00  0.00    -0.269 N 
ATOM     26  N   UNL     1      31.439  29.723   7.910  1.00  0.00    -0.181 NA
BRANCH  25  27
ATOM     27  C   UNL     1      33.452  29.965   6.503  1.00  0.00     0.110 C 
ATOM     28  C   UNL     1      33.227  31.495   6.535  1.00  0.00     0.042 C 
ATOM     29  C   UNL     1      33.822  29.458   5.093  1.00  0.00     0.042 C 
ATOM     30  C   UNL     1      32.809  32.028   5.158  1.00  0.00     0.083 C 
ATOM     31  C   UNL     1      34.605  30.524   4.318  1.00  0.00     0.083 C 
ATOM     32  N   UNL     1      33.832  31.769   4.124  1.00  0.00    -0.317 NA
ATOM     33  H   UNL     1      33.348  31.720   3.198  1.00  0.00     0.122 HD
ENDBRANCH  25  27
ENDBRANCH   3  22
TORSDOF 6
ENDMDL
MODEL 7
REMARK VINA RESULT:    -7.807      1.937      2.091
REMARK INTER + INTRA:         -11.020
REMARK INTER:                 -10.399
REMARK INTRA:                  -0.620
REMARK UNBOUND:                -0.703
REMARK SMILES C[C@@H](Oc1cc(-c2cnn(C3CCNCC3)c2)cnc1N)c1c(Cl)ccc(F)c1Cl
REMARK SMILES IDX 4 1 5 2 6 3 18 4 19 5 20 6 3 7 2 8 1 9 22 10 23 11 29 12
REMARK SMILES IDX 24 13 25 14 27 15 30 16 26 17 28 18 21 19 7 22 17 23 8 24
REMARK SMILES IDX 10 25 9 26 11 27 12 28 16 29 13 30 15 31 14 32
REMARK H PARENT 21 20 21 21 14 33
REMARK Flexibility Score: inf
ROOT
ATOM      1  C   UNL     1      30.005  24.844   6.255  1.00  0.00     0.162 A 
ATOM      2  C   UNL     1      29.218  23.845   6.854  1.00  0.00     0.061 A 
ATOM      3  C   UNL     1      28.095  24.183   7.628  1.00  0.00     0.007 A 
ATOM      4  C   UNL     1      27.791  25.543   7.793  1.00  0.00     0.122 A 
ATOM      5  N   UNL     1      28.566  26.496   7.214  1.00  0.00    -0.235 NA
ATOM      6  C   UNL     1      29.653  26.187   6.459  1.00  0.00     0.166 A 
ENDROOT
BRANCH   1   7
ATOM      7  O   UNL     1      31.125  24.544   5.458  1.00  0.00    -0.482 OA
BRANCH   7   8
ATOM      8  C   UNL     1      32.182  23.650   5.818  1.00  0.00     0.203 C 
ATOM      9  C   UNL     1      32.942  24.216   7.016  1.00  0.00     0.058 C 
BRANCH   8  10
ATOM     10  C   UNL     1      33.133  23.408   4.648  1.00  0.00     0.032 A 
ATOM     11  C   UNL     1      33.086  22.200   3.899  1.00  0.00     0.049 A 
ATOM     12  C   UNL     1      34.072  24.403   4.267  1.00  0.00     0.085 A 
ATOM     13  Cl  UNL     1      31.926  20.914   4.226  1.00  0.00    -0.084 Cl
ATOM     14  C   UNL     1      33.979  21.993   2.842  1.00  0.00     0.024 A 
ATOM     15  C   UNL     1      34.958  24.169   3.207  1.00  0.00     0.142 A 
ATOM     16  Cl  UNL     1      34.176  25.964   5.086  1.00  0.00    -0.081 Cl
ATOM     17  C   UNL     1      34.913  22.968   2.503  1.00  0.00     0.042 A 
ATOM     18  F   UNL     1      35.866  25.113   2.853  1.00  0.00    -0.205 F 
ENDBRANCH   8  10
ENDBRANCH   7   8
ENDBRANCH   1   7
BRANCH   6  19
ATOM     19  N   UNL     1      30.417  27.244   5.870  1.00  0.00    -0.381 N 
ATOM     20  H   UNL     1      30.258  27.552   4.885  1.00  0.00     0.158 HD
ATOM     21  H   UNL     1      31.154  27.727   6.428  1.00  0.00     0.158 HD
ENDBRANCH   6  19
BRANCH   3  22
ATOM     22  C   UNL     1      27.251  23.127   8.250  1.00  0.00     0.021 A 
ATOM     23  C   UNL     1      27.378  21.753   8.121  1.00  0.00     0.117 A 
ATOM     24  C   UNL     1      26.164  23.298   9.096  1.00  0.00     0.143 A 
ATOM     25  N   UNL     1      26.407  21.169   8.847  1.00  0.00    -0.269 N 
ATOM     26  N   UNL     1      25.677  22.094   9.450  1.00  0.00    -0.181 NA
BRANCH  25  27
ATOM     27  C   UNL     1      26.233  19.726   9.037  1.00  0.00     0.110 C 
ATOM     28  C   UNL     1      27.037  19.228  10.260  1.00  0.00     0.042 C 
ATOM     29  C   UNL     1      26.616  18.979   7.742  1.00  0.00     0.042 C 
ATOM     30  C   UNL     1      28.382  18.622   9.837  1.00  0.00     0.083 C 
ATOM     31  C   UNL     1      27.035  17.536   8.049  1.00  0.00     0.083 C 
ATOM     32  N   UNL     1      28.214  17.463   8.937  1.00  0.00    -0.317 NA
ATOM     33  H   UNL     1      29.074  17.388   8.345  1.00  0.00     0.122 HD
ENDBRANCH  25  27
ENDBRANCH   3  22
TORSDOF 6
ENDMDL
MODEL 8
REMARK VINA RESULT:    -7.790      4.206      8.503
REMARK INTER + INTRA:         -10.998
REMARK INTER:                 -10.323
REMARK INTRA:                  -0.675
REMARK UNBOUND:                -0.703
REMARK SMILES C[C@@H](Oc1cc(-c2cnn(C3CCNCC3)c2)cnc1N)c1c(Cl)ccc(F)c1Cl
REMARK SMILES IDX 4 1 5 2 6 3 18 4 19 5 20 6 3 7 2 8 1 9 22 10 23 11 29 12
REMARK SMILES IDX 24 13 25 14 27 15 30 16 26 17 28 18 21 19 7 22 17 23 8 24
REMARK SMILES IDX 10 25 9 26 11 27 12 28 16 29 13 30 15 31 14 32
REMARK H PARENT 21 20 21 21 14 33
REMARK Flexibility Score: inf
ROOT
ATOM      1  C   UNL     1      29.024  24.074   9.825  1.00  0.00     0.162 A 
ATOM      2  C   UNL     1      29.612  23.665   8.615  1.00  0.00     0.061 A 
ATOM      3  C   UNL     1      30.780  24.285   8.139  1.00  0.00     0.007 A 
ATOM      4  C   UNL     1      31.333  25.327   8.899  1.00  0.00     0.122 A 
ATOM      5  N   UNL     1      30.748  25.714  10.062  1.00  0.00    -0.235 NA
ATOM      6  C   UNL     1      29.621  25.124  10.540  1.00  0.00     0.166 A 
ENDROOT
BRANCH   1   7
ATOM      7  O   UNL     1      27.867  23.464  10.343  1.00  0.00    -0.482 OA
BRANCH   7   8
ATOM      8  C   UNL     1      26.813  22.892   9.565  1.00  0.00     0.203 C 
ATOM      9  C   UNL     1      25.845  23.991   9.131  1.00  0.00     0.058 C 
BRANCH   8  10
ATOM     10  C   UNL     1      26.073  21.803  10.338  1.00  0.00     0.032 A 
ATOM     11  C   UNL     1      25.239  22.122  11.445  1.00  0.00     0.049 A 
ATOM     12  C   UNL     1      26.187  20.442   9.948  1.00  0.00     0.085 A 
ATOM     13  Cl  UNL     1      24.962  23.776  11.990  1.00  0.00    -0.084 Cl
ATOM     14  C   UNL     1      24.586  21.106  12.149  1.00  0.00     0.024 A 
ATOM     15  C   UNL     1      25.525  19.442  10.674  1.00  0.00     0.142 A 
ATOM     16  Cl  UNL     1      27.144  19.938   8.554  1.00  0.00    -0.081 Cl
ATOM     17  C   UNL     1      24.734  19.774  11.771  1.00  0.00     0.042 A 
ATOM     18  F   UNL     1      25.646  18.140  10.312  1.00  0.00    -0.205 F 
ENDBRANCH   8  10
ENDBRANCH   7   8
ENDBRANCH   1   7
BRANCH   6  19
ATOM     19  N   UNL     1      29.067  25.577  11.778  1.00  0.00    -0.381 N 
ATOM     20  H   UNL     1      29.193  25.039  12.664  1.00  0.00     0.158 HD
ATOM     21  H   UNL     1      28.521  26.466  11.810  1.00  0.00     0.158 HD
ENDBRANCH   6  19
BRANCH   3  22
ATOM     22  C   UNL     1      31.414  23.845   6.866  1.00  0.00     0.021 A 
ATOM     23  C   UNL     1      32.764  23.815   6.557  1.00  0.00     0.117 A 
ATOM     24  C   UNL     1      30.785  23.364   5.726  1.00  0.00     0.143 A 
ATOM     25  N   UNL     1      32.900  23.353   5.301  1.00  0.00    -0.269 N 
ATOM     26  N   UNL     1      31.710  23.065   4.796  1.00  0.00    -0.181 NA
BRANCH  25  27
ATOM     27  C   UNL     1      34.171  23.099   4.615  1.00  0.00     0.110 C 
ATOM     28  C   UNL     1      35.021  24.388   4.531  1.00  0.00     0.042 C 
ATOM     29  C   UNL     1      33.901  22.485   3.226  1.00  0.00     0.042 C 
ATOM     30  C   UNL     1      34.864  25.074   3.168  1.00  0.00     0.083 C 
ATOM     31  C   UNL     1      35.069  22.762   2.271  1.00  0.00     0.083 C 
ATOM     32  N   UNL     1      35.294  24.206   2.053  1.00  0.00    -0.317 NA
ATOM     33  H   UNL     1      34.769  24.500   1.196  1.00  0.00     0.122 HD
ENDBRANCH  25  27
ENDBRANCH   3  22
TORSDOF 6
ENDMDL
MODEL 9
REMARK VINA RESULT:    -7.762      2.689      3.780
REMARK INTER + INTRA:         -10.961
REMARK INTER:                 -10.771
REMARK INTRA:                  -0.190
REMARK UNBOUND:                -0.703
REMARK SMILES C[C@@H](Oc1cc(-c2cnn(C3CCNCC3)c2)cnc1N)c1c(Cl)ccc(F)c1Cl
REMARK SMILES IDX 4 1 5 2 6 3 18 4 19 5 20 6 3 7 2 8 1 9 22 10 23 11 29 12
REMARK SMILES IDX 24 13 25 14 27 15 30 16 26 17 28 18 21 19 7 22 17 23 8 24
REMARK SMILES IDX 10 25 9 26 11 27 12 28 16 29 13 30 15 31 14 32
REMARK H PARENT 21 20 21 21 14 33
REMARK Flexibility Score: inf
ROOT
ATOM      1  C   UNL     1      29.011  24.086   6.380  1.00  0.00     0.162 A 
ATOM      2  C   UNL     1      28.255  23.215   7.184  1.00  0.00     0.061 A 
ATOM      3  C   UNL     1      27.356  23.718   8.140  1.00  0.00     0.007 A 
ATOM      4  C   UNL     1      27.246  25.111   8.276  1.00  0.00     0.122 A 
ATOM      5  N   UNL     1      27.990  25.938   7.496  1.00  0.00    -0.235 NA
ATOM      6  C   UNL     1      28.860  25.469   6.563  1.00  0.00     0.166 A 
ENDROOT
BRANCH   1   7
ATOM      7  O   UNL     1      29.905  23.620   5.399  1.00  0.00    -0.482 OA
BRANCH   7   8
ATOM      8  C   UNL     1      30.890  22.601   5.593  1.00  0.00     0.203 C 
ATOM      9  C   UNL     1      31.030  22.304   7.085  1.00  0.00     0.058 C 
BRANCH   8  10
ATOM     10  C   UNL     1      32.237  23.005   4.999  1.00  0.00     0.032 A 
ATOM     11  C   UNL     1      33.002  24.065   5.559  1.00  0.00     0.049 A 
ATOM     12  C   UNL     1      32.768  22.306   3.882  1.00  0.00     0.085 A 
ATOM     13  Cl  UNL     1      32.488  24.968   6.983  1.00  0.00    -0.084 Cl
ATOM     14  C   UNL     1      34.225  24.428   4.987  1.00  0.00     0.024 A 
ATOM     15  C   UNL     1      33.994  22.693   3.325  1.00  0.00     0.142 A 
ATOM     16  Cl  UNL     1      31.935  20.936   3.145  1.00  0.00    -0.081 Cl
ATOM     17  C   UNL     1      34.715  23.752   3.873  1.00  0.00     0.042 A 
ATOM     18  F   UNL     1      34.495  22.038   2.248  1.00  0.00    -0.205 F 
ENDBRANCH   8  10
ENDBRANCH   7   8
ENDBRANCH   1   7
BRANCH   6  19
ATOM     19  N   UNL     1      29.602  26.401   5.771  1.00  0.00    -0.381 N 
ATOM     20  H   UNL     1      29.478  27.432   5.878  1.00  0.00     0.158 HD
ATOM     21  H   UNL     1      30.287  26.054   5.065  1.00  0.00     0.158 HD
ENDBRANCH   6  19
BRANCH   3  22
ATOM     22  C   UNL     1      26.543  22.799   8.982  1.00  0.00     0.021 A 
ATOM     23  C   UNL     1      25.551  23.135   9.890  1.00  0.00     0.117 A 
ATOM     24  C   UNL     1      26.603  21.413   9.028  1.00  0.00     0.143 A 
ATOM     25  N   UNL     1      25.077  22.000  10.435  1.00  0.00    -0.269 N 
ATOM     26  N   UNL     1      25.697  20.954   9.911  1.00  0.00    -0.181 NA
BRANCH  25  27
ATOM     27  C   UNL     1      23.967  21.909  11.389  1.00  0.00     0.110 C 
ATOM     28  C   UNL     1      24.413  22.357  12.801  1.00  0.00     0.042 C 
ATOM     29  C   UNL     1      23.391  20.477  11.385  1.00  0.00     0.042 C 
ATOM     30  C   UNL     1      24.767  21.153  13.684  1.00  0.00     0.083 C 
ATOM     31  C   UNL     1      22.698  20.165  12.717  1.00  0.00     0.083 C 
ATOM     32  N   UNL     1      23.620  20.240  13.869  1.00  0.00    -0.317 NA
ATOM     33  H   UNL     1      23.999  19.283  14.057  1.00  0.00     0.122 HD
ENDBRANCH  25  27
ENDBRANCH   3  22
TORSDOF 6
ENDMDL
MODEL 10
REMARK VINA RESULT:    -7.740      4.437      8.707
REMARK INTER + INTRA:         -10.932
REMARK INTER:                 -10.495
REMARK INTRA:                  -0.437
REMARK UNBOUND:                -0.703
REMARK SMILES C[C@@H](Oc1cc(-c2cnn(C3CCNCC3)c2)cnc1N)c1c(Cl)ccc(F)c1Cl
REMARK SMILES IDX 4 1 5 2 6 3 18 4 19 5 20 6 3 7 2 8 1 9 22 10 23 11 29 12
REMARK SMILES IDX 24 13 25 14 27 15 30 16 26 17 28 18 21 19 7 22 17 23 8 24
REMARK SMILES IDX 10 25 9 26 11 27 12 28 16 29 13 30 15 31 14 32
REMARK H PARENT 21 20 21 21 14 33
REMARK Flexibility Score: inf
ROOT
ATOM      1  C   UNL     1      27.487  23.998   7.741  1.00  0.00     0.162 A 
ATOM      2  C   UNL     1      28.633  23.326   7.281  1.00  0.00     0.061 A 
ATOM      3  C   UNL     1      29.647  24.020   6.600  1.00  0.00     0.007 A 
ATOM      4  C   UNL     1      29.476  25.396   6.383  1.00  0.00     0.122 A 
ATOM      5  N   UNL     1      28.358  26.028   6.827  1.00  0.00    -0.235 NA
ATOM      6  C   UNL     1      27.370  25.374   7.492  1.00  0.00     0.166 A 
ENDROOT
BRANCH   1   7
ATOM      7  O   UNL     1      26.461  23.341   8.444  1.00  0.00    -0.482 OA
BRANCH   7   8
ATOM      8  C   UNL     1      26.250  23.407   9.858  1.00  0.00     0.203 C 
ATOM      9  C   UNL     1      27.590  23.607  10.564  1.00  0.00     0.058 C 
BRANCH   8  10
ATOM     10  C   UNL     1      25.552  22.154  10.379  1.00  0.00     0.032 A 
ATOM     11  C   UNL     1      24.273  22.225  10.996  1.00  0.00     0.049 A 
ATOM     12  C   UNL     1      26.162  20.879  10.235  1.00  0.00     0.085 A 
ATOM     13  Cl  UNL     1      23.380  23.735  11.178  1.00  0.00    -0.084 Cl
ATOM     14  C   UNL     1      23.660  21.065  11.482  1.00  0.00     0.024 A 
ATOM     15  C   UNL     1      25.529  19.733  10.734  1.00  0.00     0.142 A 
ATOM     16  Cl  UNL     1      27.719  20.665   9.431  1.00  0.00    -0.081 Cl
ATOM     17  C   UNL     1      24.287  19.829  11.359  1.00  0.00     0.042 A 
ATOM     18  F   UNL     1      26.118  18.517  10.612  1.00  0.00    -0.205 F 
ENDBRANCH   8  10
ENDBRANCH   7   8
ENDBRANCH   1   7
BRANCH   6  19
ATOM     19  N   UNL     1      26.227  26.107   7.939  1.00  0.00    -0.381 N 
ATOM     20  H   UNL     1      25.848  25.994   8.906  1.00  0.00     0.158 HD
ATOM     21  H   UNL     1      25.750  26.774   7.294  1.00  0.00     0.158 HD
ENDBRANCH   6  19
BRANCH   3  22
ATOM     22  C   UNL     1      30.869  23.315   6.126  1.00  0.00     0.021 A 
ATOM     23  C   UNL     1      31.965  23.861   5.475  1.00  0.00     0.117 A 
ATOM     24  C   UNL     1      31.171  21.965   6.242  1.00  0.00     0.143 A 
ATOM     25  N   UNL     1      32.842  22.872   5.223  1.00  0.00    -0.269 N 
ATOM     26  N   UNL     1      32.376  21.726   5.695  1.00  0.00    -0.181 NA
BRANCH  25  27
ATOM     27  C   UNL     1      34.165  23.038   4.614  1.00  0.00     0.110 C 
ATOM     28  C   UNL     1      34.868  24.305   5.153  1.00  0.00     0.042 C 
ATOM     29  C   UNL     1      34.033  23.052   3.076  1.00  0.00     0.042 C 
ATOM     30  C   UNL     1      34.700  25.490   4.193  1.00  0.00     0.083 C 
ATOM     31  C   UNL     1      35.207  23.803   2.435  1.00  0.00     0.083 C 
ATOM     32  N   UNL     1      35.278  25.216   2.861  1.00  0.00    -0.317 NA
ATOM     33  H   UNL     1      34.766  25.802   2.162  1.00  0.00     0.122 HD
ENDBRANCH  25  27
ENDBRANCH   3  22
TORSDOF 6
ENDMDL
MODEL 11
REMARK VINA RESULT:    -7.668      4.487      8.798
REMARK INTER + INTRA:         -10.837
REMARK INTER:                 -10.260
REMARK INTRA:                  -0.576
REMARK UNBOUND:                -0.703
REMARK SMILES C[C@@H](Oc1cc(-c2cnn(C3CCNCC3)c2)cnc1N)c1c(Cl)ccc(F)c1Cl
REMARK SMILES IDX 4 1 5 2 6 3 18 4 19 5 20 6 3 7 2 8 1 9 22 10 23 11 29 12
REMARK SMILES IDX 24 13 25 14 27 15 30 16 26 17 28 18 21 19 7 22 17 23 8 24
REMARK SMILES IDX 10 25 9 26 11 27 12 28 16 29 13 30 15 31 14 32
REMARK H PARENT 21 20 21 21 14 33
REMARK Flexibility Score: inf
ROOT
ATOM      1  C   UNL     1      28.107  23.413   7.998  1.00  0.00     0.162 A 
ATOM      2  C   UNL     1      29.407  23.554   7.481  1.00  0.00     0.061 A 
ATOM      3  C   UNL     1      29.835  24.778   6.937  1.00  0.00     0.007 A 
ATOM      4  C   UNL     1      28.924  25.845   6.915  1.00  0.00     0.122 A 
ATOM      5  N   UNL     1      27.669  25.689   7.411  1.00  0.00    -0.235 NA
ATOM      6  C   UNL     1      27.240  24.516   7.944  1.00  0.00     0.166 A 
ENDROOT
BRANCH   1   7
ATOM      7  O   UNL     1      27.650  22.211   8.567  1.00  0.00    -0.482 OA
BRANCH   7   8
ATOM      8  C   UNL     1      27.887  21.789   9.914  1.00  0.00     0.203 C 
ATOM      9  C   UNL     1      29.038  20.785   9.939  1.00  0.00     0.058 C 
BRANCH   8  10
ATOM     10  C   UNL     1      26.634  21.181  10.539  1.00  0.00     0.032 A 
ATOM     11  C   UNL     1      26.224  19.856  10.228  1.00  0.00     0.049 A 
ATOM     12  C   UNL     1      25.862  21.927  11.469  1.00  0.00     0.085 A 
ATOM     13  Cl  UNL     1      27.129  18.804   9.141  1.00  0.00    -0.084 Cl
ATOM     14  C   UNL     1      25.062  19.327  10.799  1.00  0.00     0.024 A 
ATOM     15  C   UNL     1      24.699  21.374  12.024  1.00  0.00     0.142 A 
ATOM     16  Cl  UNL     1      26.310  23.557  11.975  1.00  0.00    -0.081 Cl
ATOM     17  C   UNL     1      24.301  20.083  11.686  1.00  0.00     0.042 A 
ATOM     18  F   UNL     1      23.951  22.091  12.900  1.00  0.00    -0.205 F 
ENDBRANCH   8  10
ENDBRANCH   7   8
ENDBRANCH   1   7
BRANCH   6  19
ATOM     19  N   UNL     1      25.908  24.428   8.458  1.00  0.00    -0.381 N 
ATOM     20  H   UNL     1      25.098  24.855   7.956  1.00  0.00     0.158 HD
ATOM     21  H   UNL     1      25.728  23.927   9.355  1.00  0.00     0.158 HD
ENDBRANCH   6  19
BRANCH   3  22
ATOM     22  C   UNL     1      31.215  24.936   6.405  1.00  0.00     0.021 A 
ATOM     23  C   UNL     1      32.043  23.951   5.889  1.00  0.00     0.117 A 
ATOM     24  C   UNL     1      31.959  26.103   6.306  1.00  0.00     0.143 A 
ATOM     25  N   UNL     1      33.205  24.525   5.525  1.00  0.00    -0.269 N 
ATOM     26  N   UNL     1      33.158  25.827   5.760  1.00  0.00    -0.181 NA
BRANCH  25  27
ATOM     27  C   UNL     1      34.325  23.844   4.867  1.00  0.00     0.110 C 
ATOM     28  C   UNL     1      35.333  24.866   4.294  1.00  0.00     0.042 C 
ATOM     29  C   UNL     1      33.788  22.882   3.786  1.00  0.00     0.042 C 
ATOM     30  C   UNL     1      35.099  25.104   2.796  1.00  0.00     0.083 C 
ATOM     31  C   UNL     1      34.848  22.630   2.707  1.00  0.00     0.083 C 
ATOM     32  N   UNL     1      35.249  23.866   2.004  1.00  0.00    -0.317 NA
ATOM     33  H   UNL     1      34.664  23.964   1.141  1.00  0.00     0.122 HD
ENDBRANCH  25  27
ENDBRANCH   3  22
TORSDOF 6
ENDMDL
MODEL 12
REMARK VINA RESULT:    -7.640      4.209      8.131
REMARK INTER + INTRA:         -10.800
REMARK INTER:                  -9.765
REMARK INTRA:                  -1.035
REMARK UNBOUND:                -0.703
REMARK SMILES C[C@@H](Oc1cc(-c2cnn(C3CCNCC3)c2)cnc1N)c1c(Cl)ccc(F)c1Cl
REMARK SMILES IDX 4 1 5 2 6 3 18 4 19 5 20 6 3 7 2 8 1 9 22 10 23 11 29 12
REMARK SMILES IDX 24 13 25 14 27 15 30 16 26 17 28 18 21 19 7 22 17 23 8 24
REMARK SMILES IDX 10 25 9 26 11 27 12 28 16 29 13 30 15 31 14 32
REMARK H PARENT 21 20 21 21 14 33
REMARK Flexibility Score: inf
ROOT
ATOM      1  C   UNL     1      29.599  23.771   9.820  1.00  0.00     0.162 A 
ATOM      2  C   UNL     1      30.429  23.786   8.686  1.00  0.00     0.061 A 
ATOM      3  C   UNL     1      30.223  22.878   7.632  1.00  0.00     0.007 A 
ATOM      4  C   UNL     1      29.175  21.953   7.753  1.00  0.00     0.122 A 
ATOM      5  N   UNL     1      28.387  21.947   8.859  1.00  0.00    -0.235 NA
ATOM      6  C   UNL     1      28.569  22.820   9.885  1.00  0.00     0.166 A 
ENDROOT
BRANCH   1   7
ATOM      7  O   UNL     1      29.762  24.676  10.884  1.00  0.00    -0.482 OA
BRANCH   7   8
ATOM      8  C   UNL     1      29.687  26.100  10.779  1.00  0.00     0.203 C 
ATOM      9  C   UNL     1      29.943  26.727  12.148  1.00  0.00     0.058 C 
BRANCH   8  10
ATOM     10  C   UNL     1      28.336  26.551  10.228  1.00  0.00     0.032 A 
ATOM     11  C   UNL     1      28.217  27.087   8.916  1.00  0.00     0.049 A 
ATOM     12  C   UNL     1      27.161  26.419  11.014  1.00  0.00     0.085 A 
ATOM     13  Cl  UNL     1      29.587  27.243   7.817  1.00  0.00    -0.084 Cl
ATOM     14  C   UNL     1      26.972  27.509   8.440  1.00  0.00     0.024 A 
ATOM     15  C   UNL     1      25.925  26.854  10.514  1.00  0.00     0.142 A 
ATOM     16  Cl  UNL     1      27.181  25.712  12.631  1.00  0.00    -0.081 Cl
ATOM     17  C   UNL     1      25.835  27.400   9.236  1.00  0.00     0.042 A 
ATOM     18  F   UNL     1      24.804  26.744  11.270  1.00  0.00    -0.205 F 
ENDBRANCH   8  10
ENDBRANCH   7   8
ENDBRANCH   1   7
BRANCH   6  19
ATOM     19  N   UNL     1      27.693  22.762  11.014  1.00  0.00    -0.381 N 
ATOM     20  H   UNL     1      26.814  23.324  11.056  1.00  0.00     0.158 HD
ATOM     21  H   UNL     1      27.926  22.146  11.823  1.00  0.00     0.158 HD
ENDBRANCH   6  19
BRANCH   3  22
ATOM     22  C   UNL     1      31.090  22.902   6.423  1.00  0.00     0.021 A 
ATOM     23  C   UNL     1      32.417  23.295   6.338  1.00  0.00     0.117 A 
ATOM     24  C   UNL     1      30.754  22.528   5.130  1.00  0.00     0.143 A 
ATOM     25  N   UNL     1      32.814  23.163   5.059  1.00  0.00    -0.269 N 
ATOM     26  N   UNL     1      31.821  22.688   4.325  1.00  0.00    -0.181 NA
BRANCH  25  27
ATOM     27  C   UNL     1      34.171  23.405   4.557  1.00  0.00     0.110 C 
ATOM     28  C   UNL     1      34.761  24.701   5.159  1.00  0.00     0.042 C 
ATOM     29  C   UNL     1      34.159  23.429   3.014  1.00  0.00     0.042 C 
ATOM     30  C   UNL     1      34.607  25.886   4.196  1.00  0.00     0.083 C 
ATOM     31  C   UNL     1      35.338  24.247   2.473  1.00  0.00     0.083 C 
ATOM     32  N   UNL     1      35.301  25.657   2.913  1.00  0.00    -0.317 NA
ATOM     33  H   UNL     1      34.815  26.223   2.179  1.00  0.00     0.122 HD
ENDBRANCH  25  27
ENDBRANCH   3  22
TORSDOF 6
ENDMDL
MODEL 13
REMARK VINA RESULT:    -7.623      3.691      7.474
REMARK INTER + INTRA:         -10.777
REMARK INTER:                 -10.566
REMARK INTRA:                  -0.211
REMARK UNBOUND:                -0.703
REMARK SMILES C[C@@H](Oc1cc(-c2cnn(C3CCNCC3)c2)cnc1N)c1c(Cl)ccc(F)c1Cl
REMARK SMILES IDX 4 1 5 2 6 3 18 4 19 5 20 6 3 7 2 8 1 9 22 10 23 11 29 12
REMARK SMILES IDX 24 13 25 14 27 15 30 16 26 17 28 18 21 19 7 22 17 23 8 24
REMARK SMILES IDX 10 25 9 26 11 27 12 28 16 29 13 30 15 31 14 32
REMARK H PARENT 21 20 21 21 14 33
REMARK Flexibility Score: inf
ROOT
ATOM      1  C   UNL     1      29.326  24.292   5.945  1.00  0.00     0.162 A 
ATOM      2  C   UNL     1      29.969  25.499   6.271  1.00  0.00     0.061 A 
ATOM      3  C   UNL     1      29.369  26.418   7.149  1.00  0.00     0.007 A 
ATOM      4  C   UNL     1      28.109  26.100   7.678  1.00  0.00     0.122 A 
ATOM      5  N   UNL     1      27.498  24.933   7.346  1.00  0.00    -0.235 NA
ATOM      6  C   UNL     1      28.065  24.031   6.503  1.00  0.00     0.166 A 
ENDROOT
BRANCH   1   7
ATOM      7  O   UNL     1      29.904  23.339   5.086  1.00  0.00    -0.482 OA
BRANCH   7   8
ATOM      8  C   UNL     1      30.928  22.409   5.449  1.00  0.00     0.203 C 
ATOM      9  C   UNL     1      31.026  22.327   6.972  1.00  0.00     0.058 C 
BRANCH   8  10
ATOM     10  C   UNL     1      32.276  22.798   4.847  1.00  0.00     0.032 A 
ATOM     11  C   UNL     1      33.135  23.726   5.499  1.00  0.00     0.049 A 
ATOM     12  C   UNL     1      32.712  22.218   3.626  1.00  0.00     0.085 A 
ATOM     13  Cl  UNL     1      32.742  24.468   7.050  1.00  0.00    -0.084 Cl
ATOM     14  C   UNL     1      34.357  24.080   4.919  1.00  0.00     0.024 A 
ATOM     15  C   UNL     1      33.940  22.593   3.065  1.00  0.00     0.142 A 
ATOM     16  Cl  UNL     1      31.756  21.011   2.762  1.00  0.00    -0.081 Cl
ATOM     17  C   UNL     1      34.754  23.524   3.707  1.00  0.00     0.042 A 
ATOM     18  F   UNL     1      34.350  22.052   1.890  1.00  0.00    -0.205 F 
ENDBRANCH   8  10
ENDBRANCH   7   8
ENDBRANCH   1   7
BRANCH   6  19
ATOM     19  N   UNL     1      27.368  22.818   6.207  1.00  0.00    -0.381 N 
ATOM     20  H   UNL     1      26.335  22.802   6.054  1.00  0.00     0.158 HD
ATOM     21  H   UNL     1      27.893  21.918   6.140  1.00  0.00     0.158 HD
ENDBRANCH   6  19
BRANCH   3  22
ATOM     22  C   UNL     1      30.054  27.689   7.509  1.00  0.00     0.021 A 
ATOM     23  C   UNL     1      31.239  28.189   6.994  1.00  0.00     0.117 A 
ATOM     24  C   UNL     1      29.645  28.642   8.431  1.00  0.00     0.143 A 
ATOM     25  N   UNL     1      31.499  29.363   7.598  1.00  0.00    -0.269 N 
ATOM     26  N   UNL     1      30.535  29.651   8.459  1.00  0.00    -0.181 NA
BRANCH  25  27
ATOM     27  C   UNL     1      32.623  30.253   7.288  1.00  0.00     0.110 C 
ATOM     28  C   UNL     1      33.007  30.158   5.793  1.00  0.00     0.042 C 
ATOM     29  C   UNL     1      33.811  29.937   8.220  1.00  0.00     0.042 C 
ATOM     30  C   UNL     1      34.197  29.213   5.581  1.00  0.00     0.083 C 
ATOM     31  C   UNL     1      35.136  30.365   7.576  1.00  0.00     0.083 C 
ATOM     32  N   UNL     1      35.404  29.662   6.304  1.00  0.00    -0.317 NA
ATOM     33  H   UNL     1      35.991  28.819   6.506  1.00  0.00     0.122 HD
ENDBRANCH  25  27
ENDBRANCH   3  22
TORSDOF 6
ENDMDL
MODEL 14
REMARK VINA RESULT:    -7.514      4.526      8.032
REMARK INTER + INTRA:         -10.633
REMARK INTER:                  -9.601
REMARK INTRA:                  -1.032
REMARK UNBOUND:                -0.703
REMARK SMILES C[C@@H](Oc1cc(-c2cnn(C3CCNCC3)c2)cnc1N)c1c(Cl)ccc(F)c1Cl
REMARK SMILES IDX 4 1 5 2 6 3 18 4 19 5 20 6 3 7 2 8 1 9 22 10 23 11 29 12
REMARK SMILES IDX 24 13 25 14 27 15 30 16 26 17 28 18 21 19 7 22 17 23 8 24
REMARK SMILES IDX 10 25 9 26 11 27 12 28 16 29 13 30 15 31 14 32
REMARK H PARENT 21 20 21 21 14 33
REMARK Flexibility Score: inf
ROOT
ATOM      1  C   UNL     1      28.729  26.907   8.521  1.00  0.00     0.162 A 
ATOM      2  C   UNL     1      29.288  26.066   7.543  1.00  0.00     0.061 A 
ATOM      3  C   UNL     1      30.594  25.567   7.687  1.00  0.00     0.007 A 
ATOM      4  C   UNL     1      31.324  25.942   8.825  1.00  0.00     0.122 A 
ATOM      5  N   UNL     1      30.771  26.762   9.756  1.00  0.00    -0.235 NA
ATOM      6  C   UNL     1      29.509  27.250   9.636  1.00  0.00     0.166 A 
ENDROOT
BRANCH   1   7
ATOM      7  O   UNL     1      27.419  27.410   8.422  1.00  0.00    -0.482 OA
BRANCH   7   8
ATOM      8  C   UNL     1      26.245  26.625   8.196  1.00  0.00     0.203 C 
ATOM      9  C   UNL     1      25.015  27.531   8.202  1.00  0.00     0.058 C 
BRANCH   8  10
ATOM     10  C   UNL     1      26.101  25.521   9.241  1.00  0.00     0.032 A 
ATOM     11  C   UNL     1      26.267  24.151   8.893  1.00  0.00     0.049 A 
ATOM     12  C   UNL     1      25.819  25.845  10.594  1.00  0.00     0.085 A 
ATOM     13  Cl  UNL     1      26.682  23.620   7.265  1.00  0.00    -0.084 Cl
ATOM     14  C   UNL     1      26.113  23.156   9.864  1.00  0.00     0.024 A 
ATOM     15  C   UNL     1      25.666  24.828  11.547  1.00  0.00     0.142 A 
ATOM     16  Cl  UNL     1      25.653  27.512  11.150  1.00  0.00    -0.081 Cl
ATOM     17  C   UNL     1      25.807  23.492  11.180  1.00  0.00     0.042 A 
ATOM     18  F   UNL     1      25.381  25.136  12.837  1.00  0.00    -0.205 F 
ENDBRANCH   8  10
ENDBRANCH   7   8
ENDBRANCH   1   7
BRANCH   6  19
ATOM     19  N   UNL     1      28.989  28.101  10.662  1.00  0.00    -0.381 N 
ATOM     20  H   UNL     1      28.899  27.775  11.650  1.00  0.00     0.158 HD
ATOM     21  H   UNL     1      28.688  29.072  10.431  1.00  0.00     0.158 HD
ENDBRANCH   6  19
BRANCH   3  22
ATOM     22  C   UNL     1      31.183  24.663   6.662  1.00  0.00     0.021 A 
ATOM     23  C   UNL     1      32.510  24.572   6.273  1.00  0.00     0.117 A 
ATOM     24  C   UNL     1      30.527  23.717   5.885  1.00  0.00     0.143 A 
ATOM     25  N   UNL     1      32.606  23.631   5.316  1.00  0.00    -0.269 N 
ATOM     26  N   UNL     1      31.415  23.100   5.085  1.00  0.00    -0.181 NA
BRANCH  25  27
ATOM     27  C   UNL     1      33.850  23.175   4.688  1.00  0.00     0.110 C 
ATOM     28  C   UNL     1      34.931  24.279   4.735  1.00  0.00     0.042 C 
ATOM     29  C   UNL     1      33.563  22.699   3.248  1.00  0.00     0.042 C 
ATOM     30  C   UNL     1      34.998  25.055   3.413  1.00  0.00     0.083 C 
ATOM     31  C   UNL     1      34.824  22.797   2.380  1.00  0.00     0.083 C 
ATOM     32  N   UNL     1      35.331  24.181   2.269  1.00  0.00    -0.317 NA
ATOM     33  H   UNL     1      34.930  24.615   1.405  1.00  0.00     0.122 HD
ENDBRANCH  25  27
ENDBRANCH   3  22
TORSDOF 6
ENDMDL
MODEL 15
REMARK VINA RESULT:    -7.510      4.536      7.343
REMARK INTER + INTRA:         -10.628
REMARK INTER:                  -9.592
REMARK INTRA:                  -1.036
REMARK UNBOUND:                -0.703
REMARK SMILES C[C@@H](Oc1cc(-c2cnn(C3CCNCC3)c2)cnc1N)c1c(Cl)ccc(F)c1Cl
REMARK SMILES IDX 4 1 5 2 6 3 18 4 19 5 20 6 3 7 2 8 1 9 22 10 23 11 29 12
REMARK SMILES IDX 24 13 25 14 27 15 30 16 26 17 28 18 21 19 7 22 17 23 8 24
REMARK SMILES IDX 10 25 9 26 11 27 12 28 16 29 13 30 15 31 14 32
REMARK H PARENT 21 20 21 21 14 33
REMARK Flexibility Score: inf
ROOT
ATOM      1  C   UNL     1      30.701  28.452   7.897  1.00  0.00     0.162 A 
ATOM      2  C   UNL     1      31.320  27.352   7.277  1.00  0.00     0.061 A 
ATOM      3  C   UNL     1      30.647  26.124   7.154  1.00  0.00     0.007 A 
ATOM      4  C   UNL     1      29.349  26.027   7.678  1.00  0.00     0.122 A 
ATOM      5  N   UNL     1      28.768  27.097   8.282  1.00  0.00    -0.235 NA
ATOM      6  C   UNL     1      29.402  28.293   8.405  1.00  0.00     0.166 A 
ENDROOT
BRANCH   1   7
ATOM      7  O   UNL     1      31.335  29.701   8.021  1.00  0.00    -0.482 OA
BRANCH   7   8
ATOM      8  C   UNL     1      32.729  29.947   7.815  1.00  0.00     0.203 C 
ATOM      9  C   UNL     1      33.324  30.594   9.064  1.00  0.00     0.058 C 
BRANCH   8  10
ATOM     10  C   UNL     1      32.967  30.829   6.591  1.00  0.00     0.032 A 
ATOM     11  C   UNL     1      32.238  32.034   6.399  1.00  0.00     0.049 A 
ATOM     12  C   UNL     1      33.946  30.470   5.627  1.00  0.00     0.085 A 
ATOM     13  Cl  UNL     1      31.043  32.625   7.552  1.00  0.00    -0.084 Cl
ATOM     14  C   UNL     1      32.460  32.817   5.261  1.00  0.00     0.024 A 
ATOM     15  C   UNL     1      34.146  31.269   4.493  1.00  0.00     0.142 A 
ATOM     16  Cl  UNL     1      34.951  29.029   5.795  1.00  0.00    -0.081 Cl
ATOM     17  C   UNL     1      33.403  32.433   4.311  1.00  0.00     0.042 A 
ATOM     18  F   UNL     1      35.070  30.919   3.563  1.00  0.00    -0.205 F 
ENDBRANCH   8  10
ENDBRANCH   7   8
ENDBRANCH   1   7
BRANCH   6  19
ATOM     19  N   UNL     1      28.725  29.379   9.043  1.00  0.00    -0.381 N 
ATOM     20  H   UNL     1      29.093  29.817   9.917  1.00  0.00     0.158 HD
ATOM     21  H   UNL     1      27.841  29.753   8.635  1.00  0.00     0.158 HD
ENDBRANCH   6  19
BRANCH   3  22
ATOM     22  C   UNL     1      31.292  24.963   6.484  1.00  0.00     0.021 A 
ATOM     23  C   UNL     1      32.560  24.903   5.926  1.00  0.00     0.117 A 
ATOM     24  C   UNL     1      30.763  23.696   6.284  1.00  0.00     0.143 A 
ATOM     25  N   UNL     1      32.741  23.668   5.424  1.00  0.00    -0.269 N 
ATOM     26  N   UNL     1      31.666  22.928   5.647  1.00  0.00    -0.181 NA
BRANCH  25  27
ATOM     27  C   UNL     1      33.976  23.167   4.811  1.00  0.00     0.110 C 
ATOM     28  C   UNL     1      35.009  24.305   4.639  1.00  0.00     0.042 C 
ATOM     29  C   UNL     1      33.649  22.468   3.475  1.00  0.00     0.042 C 
ATOM     30  C   UNL     1      34.986  24.872   3.214  1.00  0.00     0.083 C 
ATOM     31  C   UNL     1      34.866  22.479   2.542  1.00  0.00     0.083 C 
ATOM     32  N   UNL     1      35.307  23.847   2.200  1.00  0.00    -0.317 NA
ATOM     33  H   UNL     1      34.851  24.131   1.301  1.00  0.00     0.122 HD
ENDBRANCH  25  27
ENDBRANCH   3  22
TORSDOF 6
ENDMDL
