MODEL 1
REMARK VINA RESULT:   -11.070      0.000      0.000
REMARK INTER + INTRA:         -15.670
REMARK INTER:                 -14.952
REMARK INTRA:                  -0.718
REMARK UNBOUND:                -0.718
REMARK SMILES CNC(=O)c1cc(Oc2ccc(NC(=O)Nc3ccc(Cl)c(C(F)(F)F)c3)c(F)c2)ccn1
REMARK SMILES IDX 9 1 30 2 28 3 29 4 12 5 11 6 10 7 8 8 7 9 5 10 6 11 33 12
REMARK SMILES IDX 32 13 31 14 3 15 1 16 2 17 4 19 13 20 14 21 15 23 16 24
REMARK SMILES IDX 17 26 18 27 27 28 19 29 22 30 20 31 21 32 23 33 24 34 25 35
REMARK SMILES IDX 26 36
REMARK H PARENT 2 18 13 22 16 25
REMARK Flexibility Score: inf
ROOT
ATOM      1  C   UNL     1      34.565   5.729   7.230  1.00  0.00     0.130 A 
ATOM      2  C   UNL     1      34.512   7.035   7.747  1.00  0.00     0.088 A 
ATOM      3  C   UNL     1      33.502   7.400   8.642  1.00  0.00     0.150 A 
ATOM      4  F   UNL     1      33.473   8.668   9.129  1.00  0.00    -0.205 F 
ATOM      5  C   UNL     1      32.523   6.469   9.026  1.00  0.00     0.079 A 
ATOM      6  C   UNL     1      32.595   5.156   8.528  1.00  0.00     0.033 A 
ATOM      7  C   UNL     1      33.613   4.790   7.641  1.00  0.00     0.049 A 
ENDROOT
BRANCH   1   8
ATOM      8  O   UNL     1      35.580   5.324   6.351  1.00  0.00    -0.457 OA
BRANCH   8   9
ATOM      9  C   UNL     1      35.537   5.464   4.955  1.00  0.00     0.131 A 
ATOM     10  C   UNL     1      35.015   4.639   2.731  1.00  0.00     0.131 A 
ATOM     11  C   UNL     1      35.015   4.461   4.123  1.00  0.00     0.081 A 
ATOM     12  N   UNL     1      35.534   5.784   2.206  1.00  0.00    -0.251 NA
ATOM     13  C   UNL     1      36.061   6.762   2.989  1.00  0.00     0.116 A 
ATOM     14  C   UNL     1      36.073   6.618   4.377  1.00  0.00     0.067 A 
BRANCH  10  15
ATOM     15  C   UNL     1      34.457   3.607   1.831  1.00  0.00     0.269 C 
ATOM     16  C   UNL     1      34.441   1.229   0.980  1.00  0.00     0.143 C 
ATOM     17  N   UNL     1      34.929   2.252   1.896  1.00  0.00    -0.354 N 
ATOM     18  H   UNL     1      35.614   1.971   2.634  1.00  0.00     0.163 HD
ATOM     19  O   UNL     1      33.562   3.918   0.999  1.00  0.00    -0.268 OA
ENDBRANCH  10  15
ENDBRANCH   8   9
ENDBRANCH   1   8
BRANCH   5  20
ATOM     20  N   UNL     1      31.510   6.849   9.972  1.00  0.00    -0.305 N 
ATOM     21  C   UNL     1      30.427   7.740   9.669  1.00  0.00     0.323 C 
ATOM     22  H   UNL     1      31.605   6.512  10.957  1.00  0.00     0.171 HD
ATOM     23  O   UNL     1      30.442   8.416   8.606  1.00  0.00    -0.248 OA
ATOM     24  N   UNL     1      29.367   7.910  10.623  1.00  0.00    -0.308 N 
ATOM     25  H   UNL     1      29.504   7.503  11.578  1.00  0.00     0.171 HD
BRANCH  24  26
ATOM     26  C   UNL     1      28.182   8.694  10.396  1.00  0.00     0.043 A 
ATOM     27  C   UNL     1      28.305  10.077  10.215  1.00  0.00     0.028 A 
ATOM     28  C   UNL     1      26.900   8.114  10.410  1.00  0.00     0.040 A 
ATOM     29  C   UNL     1      27.174  10.869  10.023  1.00  0.00     0.023 A 
ATOM     30  C   UNL     1      25.749   8.901  10.201  1.00  0.00     0.076 A 
ATOM     31  C   UNL     1      25.899  10.294  10.011  1.00  0.00     0.053 A 
ATOM     32  Cl  UNL     1      24.516  11.361   9.773  1.00  0.00    -0.084 Cl
BRANCH  30  33
ATOM     33  C   UNL     1      24.374   8.268  10.196  1.00  0.00     0.417 C 
ATOM     34  F   UNL     1      23.553   8.931  11.092  1.00  0.00    -0.166 F 
ATOM     35  F   UNL     1      23.782   8.327   8.946  1.00  0.00    -0.166 F 
ATOM     36  F   UNL     1      24.471   6.938  10.571  1.00  0.00    -0.166 F 
ENDBRANCH  30  33
ENDBRANCH  24  26
ENDBRANCH   5  20
TORSDOF 6
ENDMDL
MODEL 2
REMARK VINA RESULT:   -10.684      1.230      1.678
REMARK INTER + INTRA:         -15.149
REMARK INTER:                 -14.706
REMARK INTRA:                  -0.443
REMARK UNBOUND:                -0.718
REMARK SMILES CNC(=O)c1cc(Oc2ccc(NC(=O)Nc3ccc(Cl)c(C(F)(F)F)c3)c(F)c2)ccn1
REMARK SMILES IDX 9 1 30 2 28 3 29 4 12 5 11 6 10 7 8 8 7 9 5 10 6 11 33 12
REMARK SMILES IDX 32 13 31 14 3 15 1 16 2 17 4 19 13 20 14 21 15 23 16 24
REMARK SMILES IDX 17 26 18 27 27 28 19 29 22 30 20 31 21 32 23 33 24 34 25 35
REMARK SMILES IDX 26 36
REMARK H PARENT 2 18 13 22 16 25
REMARK Flexibility Score: inf
ROOT
ATOM      1  C   UNL     1      34.386   6.303   7.375  1.00  0.00     0.130 A 
ATOM      2  C   UNL     1      34.215   7.547   8.005  1.00  0.00     0.088 A 
ATOM      3  C   UNL     1      33.134   7.760   8.866  1.00  0.00     0.150 A 
ATOM      4  F   UNL     1      32.992   8.971   9.465  1.00  0.00    -0.205 F 
ATOM      5  C   UNL     1      32.202   6.737   9.102  1.00  0.00     0.079 A 
ATOM      6  C   UNL     1      32.392   5.484   8.491  1.00  0.00     0.033 A 
ATOM      7  C   UNL     1      33.480   5.271   7.638  1.00  0.00     0.049 A 
ENDROOT
BRANCH   1   8
ATOM      8  O   UNL     1      35.474   6.049   6.525  1.00  0.00    -0.457 OA
BRANCH   8   9
ATOM      9  C   UNL     1      35.759   4.810   5.932  1.00  0.00     0.131 A 
ATOM     10  C   UNL     1      35.576   3.210   4.113  1.00  0.00     0.131 A 
ATOM     11  C   UNL     1      35.282   4.471   4.655  1.00  0.00     0.081 A 
ATOM     12  N   UNL     1      36.313   2.327   4.844  1.00  0.00    -0.251 NA
ATOM     13  C   UNL     1      36.770   2.625   6.088  1.00  0.00     0.116 A 
ATOM     14  C   UNL     1      36.499   3.871   6.654  1.00  0.00     0.067 A 
BRANCH  10  15
ATOM     15  C   UNL     1      35.102   2.831   2.765  1.00  0.00     0.269 C 
ATOM     16  C   UNL     1      34.643   1.053   1.030  1.00  0.00     0.143 C 
ATOM     17  N   UNL     1      35.048   1.450   2.374  1.00  0.00    -0.354 N 
ATOM     18  H   UNL     1      35.269   0.700   3.067  1.00  0.00     0.163 HD
ATOM     19  O   UNL     1      34.745   3.726   1.952  1.00  0.00    -0.268 OA
ENDBRANCH  10  15
ENDBRANCH   8   9
ENDBRANCH   1   8
BRANCH   5  20
ATOM     20  N   UNL     1      31.115   6.960  10.015  1.00  0.00    -0.305 N 
ATOM     21  C   UNL     1      30.007   7.828   9.742  1.00  0.00     0.323 C 
ATOM     22  H   UNL     1      31.168   6.518  10.961  1.00  0.00     0.171 HD
ATOM     23  O   UNL     1      30.050   8.621   8.763  1.00  0.00    -0.248 OA
ATOM     24  N   UNL     1      28.883   7.840  10.636  1.00  0.00    -0.308 N 
ATOM     25  H   UNL     1      28.983   7.333  11.547  1.00  0.00     0.171 HD
BRANCH  24  26
ATOM     26  C   UNL     1      27.674   8.588  10.418  1.00  0.00     0.043 A 
ATOM     27  C   UNL     1      27.757   9.972  10.219  1.00  0.00     0.028 A 
ATOM     28  C   UNL     1      26.408   7.975  10.460  1.00  0.00     0.040 A 
ATOM     29  C   UNL     1      26.602  10.731  10.037  1.00  0.00     0.023 A 
ATOM     30  C   UNL     1      25.233   8.728  10.260  1.00  0.00     0.076 A 
ATOM     31  C   UNL     1      25.342  10.122  10.052  1.00  0.00     0.053 A 
ATOM     32  Cl  UNL     1      23.928  11.149   9.824  1.00  0.00    -0.084 Cl
BRANCH  30  33
ATOM     33  C   UNL     1      23.875   8.058  10.285  1.00  0.00     0.417 C 
ATOM     34  F   UNL     1      24.016   6.737  10.670  1.00  0.00    -0.166 F 
ATOM     35  F   UNL     1      23.011   8.676  11.173  1.00  0.00    -0.166 F 
ATOM     36  F   UNL     1      23.310   8.104   9.022  1.00  0.00    -0.166 F 
ENDBRANCH  30  33
ENDBRANCH  24  26
ENDBRANCH   5  20
TORSDOF 6
ENDMDL
MODEL 3
REMARK VINA RESULT:   -10.329      2.264      2.927
REMARK INTER + INTRA:         -14.670
REMARK INTER:                 -14.111
REMARK INTRA:                  -0.559
REMARK UNBOUND:                -0.718
REMARK SMILES CNC(=O)c1cc(Oc2ccc(NC(=O)Nc3ccc(Cl)c(C(F)(F)F)c3)c(F)c2)ccn1
REMARK SMILES IDX 9 1 30 2 28 3 29 4 12 5 11 6 10 7 8 8 7 9 5 10 6 11 33 12
REMARK SMILES IDX 32 13 31 14 3 15 1 16 2 17 4 19 13 20 14 21 15 23 16 24
REMARK SMILES IDX 17 26 18 27 27 28 19 29 22 30 20 31 21 32 23 33 24 34 25 35
REMARK SMILES IDX 26 36
REMARK H PARENT 2 18 13 22 16 25
REMARK Flexibility Score: inf
ROOT
ATOM      1  C   UNL     1      34.696   5.876   6.728  1.00  0.00     0.130 A 
ATOM      2  C   UNL     1      33.918   4.826   7.247  1.00  0.00     0.088 A 
ATOM      3  C   UNL     1      32.948   5.081   8.221  1.00  0.00     0.150 A 
ATOM      4  F   UNL     1      32.207   4.050   8.705  1.00  0.00    -0.205 F 
ATOM      5  C   UNL     1      32.748   6.386   8.699  1.00  0.00     0.079 A 
ATOM      6  C   UNL     1      33.509   7.437   8.158  1.00  0.00     0.033 A 
ATOM      7  C   UNL     1      34.472   7.181   7.177  1.00  0.00     0.049 A 
ENDROOT
BRANCH   1   8
ATOM      8  O   UNL     1      35.660   5.657   5.733  1.00  0.00    -0.457 OA
BRANCH   8   9
ATOM      9  C   UNL     1      35.989   4.404   5.194  1.00  0.00     0.131 A 
ATOM     10  C   UNL     1      35.713   2.635   3.552  1.00  0.00     0.131 A 
ATOM     11  C   UNL     1      35.365   3.905   4.039  1.00  0.00     0.081 A 
ATOM     12  N   UNL     1      36.648   1.900   4.216  1.00  0.00    -0.251 NA
ATOM     13  C   UNL     1      37.253   2.354   5.345  1.00  0.00     0.116 A 
ATOM     14  C   UNL     1      36.932   3.613   5.854  1.00  0.00     0.067 A 
BRANCH  10  15
ATOM     15  C   UNL     1      35.084   2.090   2.329  1.00  0.00     0.269 C 
ATOM     16  C   UNL     1      34.117   0.135   1.056  1.00  0.00     0.143 C 
ATOM     17  N   UNL     1      34.682   0.713   2.270  1.00  0.00    -0.354 N 
ATOM     18  H   UNL     1      34.759   0.107   3.118  1.00  0.00     0.163 HD
ATOM     19  O   UNL     1      34.902   2.839   1.331  1.00  0.00    -0.268 OA
ENDBRANCH  10  15
ENDBRANCH   8   9
ENDBRANCH   1   8
BRANCH   5  20
ATOM     20  N   UNL     1      31.725   6.637   9.676  1.00  0.00    -0.305 N 
ATOM     21  C   UNL     1      30.664   7.587   9.498  1.00  0.00     0.323 C 
ATOM     22  H   UNL     1      31.794   6.150  10.599  1.00  0.00     0.171 HD
ATOM     23  O   UNL     1      30.712   8.418   8.553  1.00  0.00    -0.248 OA
ATOM     24  N   UNL     1      29.590   7.631  10.450  1.00  0.00    -0.308 N 
ATOM     25  H   UNL     1      29.701   7.078  11.332  1.00  0.00     0.171 HD
BRANCH  24  26
ATOM     26  C   UNL     1      28.424   8.465  10.327  1.00  0.00     0.043 A 
ATOM     27  C   UNL     1      27.227   7.899   9.869  1.00  0.00     0.028 A 
ATOM     28  C   UNL     1      28.471   9.844  10.598  1.00  0.00     0.040 A 
ATOM     29  C   UNL     1      26.088   8.686   9.709  1.00  0.00     0.023 A 
ATOM     30  C   UNL     1      27.322  10.649  10.457  1.00  0.00     0.076 A 
ATOM     31  C   UNL     1      26.123  10.053  10.001  1.00  0.00     0.053 A 
ATOM     32  Cl  UNL     1      24.646  10.985   9.766  1.00  0.00    -0.084 Cl
BRANCH  30  33
ATOM     33  C   UNL     1      27.374  12.129  10.771  1.00  0.00     0.417 C 
ATOM     34  F   UNL     1      27.183  12.858   9.610  1.00  0.00    -0.166 F 
ATOM     35  F   UNL     1      26.397  12.500  11.678  1.00  0.00    -0.166 F 
ATOM     36  F   UNL     1      28.611  12.448  11.306  1.00  0.00    -0.166 F 
ENDBRANCH  30  33
ENDBRANCH  24  26
ENDBRANCH   5  20
TORSDOF 6
ENDMDL
MODEL 4
REMARK VINA RESULT:   -10.258      1.333      1.815
REMARK INTER + INTRA:         -14.574
REMARK INTER:                 -13.826
REMARK INTRA:                  -0.749
REMARK UNBOUND:                -0.718
REMARK SMILES CNC(=O)c1cc(Oc2ccc(NC(=O)Nc3ccc(Cl)c(C(F)(F)F)c3)c(F)c2)ccn1
REMARK SMILES IDX 9 1 30 2 28 3 29 4 12 5 11 6 10 7 8 8 7 9 5 10 6 11 33 12
REMARK SMILES IDX 32 13 31 14 3 15 1 16 2 17 4 19 13 20 14 21 15 23 16 24
REMARK SMILES IDX 17 26 18 27 27 28 19 29 22 30 20 31 21 32 23 33 24 34 25 35
REMARK SMILES IDX 26 36
REMARK H PARENT 2 18 13 22 16 25
REMARK Flexibility Score: inf
ROOT
ATOM      1  C   UNL     1      34.585   6.474   7.300  1.00  0.00     0.130 A 
ATOM      2  C   UNL     1      34.625   7.846   7.601  1.00  0.00     0.088 A 
ATOM      3  C   UNL     1      33.656   8.415   8.434  1.00  0.00     0.150 A 
ATOM      4  F   UNL     1      33.717   9.742   8.713  1.00  0.00    -0.205 F 
ATOM      5  C   UNL     1      32.627   7.623   8.969  1.00  0.00     0.079 A 
ATOM      6  C   UNL     1      32.606   6.245   8.687  1.00  0.00     0.033 A 
ATOM      7  C   UNL     1      33.582   5.678   7.862  1.00  0.00     0.049 A 
ENDROOT
BRANCH   1   8
ATOM      8  O   UNL     1      35.557   5.869   6.489  1.00  0.00    -0.457 OA
BRANCH   8   9
ATOM      9  C   UNL     1      35.572   5.910   5.086  1.00  0.00     0.131 A 
ATOM     10  C   UNL     1      35.089   4.954   2.906  1.00  0.00     0.131 A 
ATOM     11  C   UNL     1      35.029   4.877   4.307  1.00  0.00     0.081 A 
ATOM     12  N   UNL     1      35.686   6.031   2.324  1.00  0.00    -0.251 NA
ATOM     13  C   UNL     1      36.235   7.035   3.057  1.00  0.00     0.116 A 
ATOM     14  C   UNL     1      36.189   6.990   4.451  1.00  0.00     0.067 A 
BRANCH  10  15
ATOM     15  C   UNL     1      34.510   3.889   2.059  1.00  0.00     0.269 C 
ATOM     16  C   UNL     1      34.586   1.529   1.161  1.00  0.00     0.143 C 
ATOM     17  N   UNL     1      35.099   2.579   2.033  1.00  0.00    -0.354 N 
ATOM     18  H   UNL     1      35.892   2.349   2.673  1.00  0.00     0.163 HD
ATOM     19  O   UNL     1      33.494   4.133   1.353  1.00  0.00    -0.268 OA
ENDBRANCH  10  15
ENDBRANCH   8   9
ENDBRANCH   1   8
BRANCH   5  20
ATOM     20  N   UNL     1      31.657   8.215   9.849  1.00  0.00    -0.305 N 
ATOM     21  C   UNL     1      30.253   8.281   9.564  1.00  0.00     0.323 C 
ATOM     22  H   UNL     1      32.002   8.685  10.717  1.00  0.00     0.171 HD
ATOM     23  O   UNL     1      29.830   8.019   8.406  1.00  0.00    -0.248 OA
ATOM     24  N   UNL     1      29.346   8.723  10.585  1.00  0.00    -0.308 N 
ATOM     25  H   UNL     1      29.759   9.138  11.454  1.00  0.00     0.171 HD
BRANCH  24  26
ATOM     26  C   UNL     1      27.913   8.738  10.455  1.00  0.00     0.043 A 
ATOM     27  C   UNL     1      27.242   7.539  10.182  1.00  0.00     0.028 A 
ATOM     28  C   UNL     1      27.177   9.934  10.534  1.00  0.00     0.040 A 
ATOM     29  C   UNL     1      25.858   7.524  10.018  1.00  0.00     0.023 A 
ATOM     30  C   UNL     1      25.774   9.930  10.387  1.00  0.00     0.076 A 
ATOM     31  C   UNL     1      25.118   8.707  10.122  1.00  0.00     0.053 A 
ATOM     32  Cl  UNL     1      23.373   8.610   9.894  1.00  0.00    -0.084 Cl
BRANCH  30  33
ATOM     33  C   UNL     1      24.985  11.218  10.495  1.00  0.00     0.417 C 
ATOM     34  F   UNL     1      24.127  11.149  11.579  1.00  0.00    -0.166 F 
ATOM     35  F   UNL     1      25.810  12.316  10.669  1.00  0.00    -0.166 F 
ATOM     36  F   UNL     1      24.242  11.408   9.342  1.00  0.00    -0.166 F 
ENDBRANCH  30  33
ENDBRANCH  24  26
ENDBRANCH   5  20
TORSDOF 6
ENDMDL
MODEL 5
REMARK VINA RESULT:   -10.114      1.350      2.319
REMARK INTER + INTRA:         -14.380
REMARK INTER:                 -13.773
REMARK INTRA:                  -0.607
REMARK UNBOUND:                -0.718
REMARK SMILES CNC(=O)c1cc(Oc2ccc(NC(=O)Nc3ccc(Cl)c(C(F)(F)F)c3)c(F)c2)ccn1
REMARK SMILES IDX 9 1 30 2 28 3 29 4 12 5 11 6 10 7 8 8 7 9 5 10 6 11 33 12
REMARK SMILES IDX 32 13 31 14 3 15 1 16 2 17 4 19 13 20 14 21 15 23 16 24
REMARK SMILES IDX 17 26 18 27 27 28 19 29 22 30 20 31 21 32 23 33 24 34 25 35
REMARK SMILES IDX 26 36
REMARK H PARENT 2 18 13 22 16 25
REMARK Flexibility Score: inf
ROOT
ATOM      1  C   UNL     1      34.762   5.691   7.116  1.00  0.00     0.130 A 
ATOM      2  C   UNL     1      34.714   6.986   7.661  1.00  0.00     0.088 A 
ATOM      3  C   UNL     1      33.697   7.339   8.553  1.00  0.00     0.150 A 
ATOM      4  F   UNL     1      33.673   8.596   9.069  1.00  0.00    -0.205 F 
ATOM      5  C   UNL     1      32.707   6.408   8.906  1.00  0.00     0.079 A 
ATOM      6  C   UNL     1      32.774   5.106   8.380  1.00  0.00     0.033 A 
ATOM      7  C   UNL     1      33.798   4.752   7.496  1.00  0.00     0.049 A 
ENDROOT
BRANCH   1   8
ATOM      8  O   UNL     1      35.783   5.298   6.238  1.00  0.00    -0.457 OA
BRANCH   8   9
ATOM      9  C   UNL     1      35.705   5.353   4.838  1.00  0.00     0.131 A 
ATOM     10  C   UNL     1      36.040   6.480   2.713  1.00  0.00     0.131 A 
ATOM     11  C   UNL     1      36.161   6.464   4.112  1.00  0.00     0.081 A 
ATOM     12  N   UNL     1      35.470   5.416   2.082  1.00  0.00    -0.251 NA
ATOM     13  C   UNL     1      35.005   4.337   2.764  1.00  0.00     0.116 A 
ATOM     14  C   UNL     1      35.113   4.288   4.154  1.00  0.00     0.067 A 
BRANCH  10  15
ATOM     15  C   UNL     1      36.526   7.629   1.920  1.00  0.00     0.269 C 
ATOM     16  C   UNL     1      37.799   8.530  -0.068  1.00  0.00     0.143 C 
ATOM     17  N   UNL     1      37.255   7.416   0.700  1.00  0.00    -0.354 N 
ATOM     18  H   UNL     1      37.378   6.448   0.326  1.00  0.00     0.163 HD
ATOM     19  O   UNL     1      36.301   8.805   2.316  1.00  0.00    -0.268 OA
ENDBRANCH  10  15
ENDBRANCH   8   9
ENDBRANCH   1   8
BRANCH   5  20
ATOM     20  N   UNL     1      31.687   6.775   9.850  1.00  0.00    -0.305 N 
ATOM     21  C   UNL     1      30.623   7.693   9.561  1.00  0.00     0.323 C 
ATOM     22  H   UNL     1      31.763   6.406  10.825  1.00  0.00     0.171 HD
ATOM     23  O   UNL     1      30.664   8.402   8.520  1.00  0.00    -0.248 OA
ATOM     24  N   UNL     1      29.553   7.851  10.505  1.00  0.00    -0.308 N 
ATOM     25  H   UNL     1      29.669   7.412  11.448  1.00  0.00     0.171 HD
BRANCH  24  26
ATOM     26  C   UNL     1      28.383   8.661  10.286  1.00  0.00     0.043 A 
ATOM     27  C   UNL     1      28.538  10.037  10.075  1.00  0.00     0.028 A 
ATOM     28  C   UNL     1      27.088   8.115  10.338  1.00  0.00     0.040 A 
ATOM     29  C   UNL     1      27.424  10.854   9.891  1.00  0.00     0.023 A 
ATOM     30  C   UNL     1      25.953   8.928  10.136  1.00  0.00     0.076 A 
ATOM     31  C   UNL     1      26.135  10.313   9.917  1.00  0.00     0.053 A 
ATOM     32  Cl  UNL     1      24.775  11.411   9.685  1.00  0.00    -0.084 Cl
BRANCH  30  33
ATOM     33  C   UNL     1      24.562   8.331  10.172  1.00  0.00     0.417 C 
ATOM     34  F   UNL     1      23.761   9.068  11.027  1.00  0.00    -0.166 F 
ATOM     35  F   UNL     1      23.969   8.328   8.922  1.00  0.00    -0.166 F 
ATOM     36  F   UNL     1      24.627   7.025  10.628  1.00  0.00    -0.166 F 
ENDBRANCH  30  33
ENDBRANCH  24  26
ENDBRANCH   5  20
TORSDOF 6
ENDMDL
MODEL 6
REMARK VINA RESULT:    -9.906      1.728      2.167
REMARK INTER + INTRA:         -14.099
REMARK INTER:                 -14.279
REMARK INTRA:                   0.180
REMARK UNBOUND:                -0.718
REMARK SMILES CNC(=O)c1cc(Oc2ccc(NC(=O)Nc3ccc(Cl)c(C(F)(F)F)c3)c(F)c2)ccn1
REMARK SMILES IDX 9 1 30 2 28 3 29 4 12 5 11 6 10 7 8 8 7 9 5 10 6 11 33 12
REMARK SMILES IDX 32 13 31 14 3 15 1 16 2 17 4 19 13 20 14 21 15 23 16 24
REMARK SMILES IDX 17 26 18 27 27 28 19 29 22 30 20 31 21 32 23 33 24 34 25 35
REMARK SMILES IDX 26 36
REMARK H PARENT 2 18 13 22 16 25
REMARK Flexibility Score: inf
ROOT
ATOM      1  C   UNL     1      34.924   5.463   6.703  1.00  0.00     0.130 A 
ATOM      2  C   UNL     1      34.245   4.399   7.322  1.00  0.00     0.088 A 
ATOM      3  C   UNL     1      33.168   4.651   8.177  1.00  0.00     0.150 A 
ATOM      4  F   UNL     1      32.526   3.607   8.761  1.00  0.00    -0.205 F 
ATOM      5  C   UNL     1      32.760   5.970   8.435  1.00  0.00     0.079 A 
ATOM      6  C   UNL     1      33.425   7.030   7.793  1.00  0.00     0.033 A 
ATOM      7  C   UNL     1      34.495   6.774   6.930  1.00  0.00     0.049 A 
ENDROOT
BRANCH   1   8
ATOM      8  O   UNL     1      35.992   5.242   5.821  1.00  0.00    -0.457 OA
BRANCH   8   9
ATOM      9  C   UNL     1      35.862   4.794   4.497  1.00  0.00     0.131 A 
ATOM     10  C   UNL     1      35.444   3.058   2.851  1.00  0.00     0.131 A 
ATOM     11  C   UNL     1      35.541   3.462   4.192  1.00  0.00     0.081 A 
ATOM     12  N   UNL     1      35.676   3.967   1.863  1.00  0.00    -0.251 NA
ATOM     13  C   UNL     1      36.006   5.257   2.133  1.00  0.00     0.116 A 
ATOM     14  C   UNL     1      36.107   5.692   3.455  1.00  0.00     0.067 A 
BRANCH  10  15
ATOM     15  C   UNL     1      35.091   1.666   2.499  1.00  0.00     0.269 C 
ATOM     16  C   UNL     1      33.997   0.021   0.925  1.00  0.00     0.143 C 
ATOM     17  N   UNL     1      34.411   1.376   1.267  1.00  0.00    -0.354 N 
ATOM     18  H   UNL     1      34.231   2.139   0.577  1.00  0.00     0.163 HD
ATOM     19  O   UNL     1      35.388   0.726   3.285  1.00  0.00    -0.268 OA
ENDBRANCH  10  15
ENDBRANCH   8   9
ENDBRANCH   1   8
BRANCH   5  20
ATOM     20  N   UNL     1      31.630   6.212   9.290  1.00  0.00    -0.305 N 
ATOM     21  C   UNL     1      31.005   7.494   9.445  1.00  0.00     0.323 C 
ATOM     22  H   UNL     1      31.286   5.425   9.885  1.00  0.00     0.171 HD
ATOM     23  O   UNL     1      31.567   8.530   9.002  1.00  0.00    -0.248 OA
ATOM     24  N   UNL     1      29.773   7.593  10.176  1.00  0.00    -0.308 N 
ATOM     25  H   UNL     1      29.457   6.749  10.711  1.00  0.00     0.171 HD
BRANCH  24  26
ATOM     26  C   UNL     1      29.000   8.799  10.315  1.00  0.00     0.043 A 
ATOM     27  C   UNL     1      29.643   9.976  10.717  1.00  0.00     0.028 A 
ATOM     28  C   UNL     1      27.608   8.810  10.116  1.00  0.00     0.040 A 
ATOM     29  C   UNL     1      28.919  11.154  10.892  1.00  0.00     0.023 A 
ATOM     30  C   UNL     1      26.865   9.999  10.272  1.00  0.00     0.076 A 
ATOM     31  C   UNL     1      27.538  11.177  10.670  1.00  0.00     0.053 A 
ATOM     32  Cl  UNL     1      26.689  12.701  10.920  1.00  0.00    -0.084 Cl
BRANCH  30  33
ATOM     33  C   UNL     1      25.370  10.010  10.035  1.00  0.00     0.417 C 
ATOM     34  F   UNL     1      24.977   8.802   9.485  1.00  0.00    -0.166 F 
ATOM     35  F   UNL     1      24.662  10.198  11.209  1.00  0.00    -0.166 F 
ATOM     36  F   UNL     1      25.044  11.032   9.159  1.00  0.00    -0.166 F 
ENDBRANCH  30  33
ENDBRANCH  24  26
ENDBRANCH   5  20
TORSDOF 6
ENDMDL
MODEL 7
REMARK VINA RESULT:    -9.822      7.777     10.428
REMARK INTER + INTRA:         -13.985
REMARK INTER:                 -12.901
REMARK INTRA:                  -1.084
REMARK UNBOUND:                -0.718
REMARK SMILES CNC(=O)c1cc(Oc2ccc(NC(=O)Nc3ccc(Cl)c(C(F)(F)F)c3)c(F)c2)ccn1
REMARK SMILES IDX 9 1 30 2 28 3 29 4 12 5 11 6 10 7 8 8 7 9 5 10 6 11 33 12
REMARK SMILES IDX 32 13 31 14 3 15 1 16 2 17 4 19 13 20 14 21 15 23 16 24
REMARK SMILES IDX 17 26 18 27 27 28 19 29 22 30 20 31 21 32 23 33 24 34 25 35
REMARK SMILES IDX 26 36
REMARK H PARENT 2 18 13 22 16 25
REMARK Flexibility Score: inf
ROOT
ATOM      1  C   UNL     1      33.570  13.892  11.684  1.00  0.00     0.130 A 
ATOM      2  C   UNL     1      33.415  12.805  10.807  1.00  0.00     0.088 A 
ATOM      3  C   UNL     1      32.191  12.580  10.170  1.00  0.00     0.150 A 
ATOM      4  F   UNL     1      32.066  11.524   9.324  1.00  0.00    -0.205 F 
ATOM      5  C   UNL     1      31.100  13.431  10.408  1.00  0.00     0.079 A 
ATOM      6  C   UNL     1      31.266  14.533  11.265  1.00  0.00     0.033 A 
ATOM      7  C   UNL     1      32.495  14.762  11.893  1.00  0.00     0.049 A 
ENDROOT
BRANCH   1   8
ATOM      8  O   UNL     1      34.792  14.159  12.319  1.00  0.00    -0.457 OA
BRANCH   8   9
ATOM      9  C   UNL     1      35.666  15.200  11.974  1.00  0.00     0.131 A 
ATOM     10  C   UNL     1      37.030  17.131  12.533  1.00  0.00     0.131 A 
ATOM     11  C   UNL     1      36.176  16.091  12.932  1.00  0.00     0.081 A 
ATOM     12  N   UNL     1      37.344  17.266  11.214  1.00  0.00    -0.251 NA
ATOM     13  C   UNL     1      36.851  16.427  10.266  1.00  0.00     0.116 A 
ATOM     14  C   UNL     1      36.001  15.381  10.629  1.00  0.00     0.067 A 
BRANCH  10  15
ATOM     15  C   UNL     1      37.595  18.074  13.522  1.00  0.00     0.269 C 
ATOM     16  C   UNL     1      37.286  19.997  15.131  1.00  0.00     0.143 C 
ATOM     17  N   UNL     1      36.746  19.015  14.198  1.00  0.00    -0.354 N 
ATOM     18  H   UNL     1      35.712  18.986  14.052  1.00  0.00     0.163 HD
ATOM     19  O   UNL     1      38.831  18.054  13.773  1.00  0.00    -0.268 OA
ENDBRANCH  10  15
ENDBRANCH   8   9
ENDBRANCH   1   8
BRANCH   5  20
ATOM     20  N   UNL     1      29.858  13.207   9.721  1.00  0.00    -0.305 N 
ATOM     21  C   UNL     1      28.764  12.458  10.269  1.00  0.00     0.323 C 
ATOM     22  H   UNL     1      29.770  13.551   8.737  1.00  0.00     0.171 HD
ATOM     23  O   UNL     1      28.931  11.762  11.306  1.00  0.00    -0.248 OA
ATOM     24  N   UNL     1      27.502  12.448   9.583  1.00  0.00    -0.308 N 
ATOM     25  H   UNL     1      27.471  12.856   8.619  1.00  0.00     0.171 HD
BRANCH  24  26
ATOM     26  C   UNL     1      26.307  11.821  10.082  1.00  0.00     0.043 A 
ATOM     27  C   UNL     1      25.450  12.553  10.912  1.00  0.00     0.028 A 
ATOM     28  C   UNL     1      26.010  10.474   9.805  1.00  0.00     0.040 A 
ATOM     29  C   UNL     1      24.300  11.964  11.437  1.00  0.00     0.023 A 
ATOM     30  C   UNL     1      24.842   9.871  10.315  1.00  0.00     0.076 A 
ATOM     31  C   UNL     1      23.987  10.633  11.144  1.00  0.00     0.053 A 
ATOM     32  Cl  UNL     1      22.521   9.956  11.851  1.00  0.00    -0.084 Cl
BRANCH  30  33
ATOM     33  C   UNL     1      24.517   8.427   9.995  1.00  0.00     0.417 C 
ATOM     34  F   UNL     1      25.534   7.880   9.233  1.00  0.00    -0.166 F 
ATOM     35  F   UNL     1      24.379   7.663  11.141  1.00  0.00    -0.166 F 
ATOM     36  F   UNL     1      23.332   8.363   9.282  1.00  0.00    -0.166 F 
ENDBRANCH  30  33
ENDBRANCH  24  26
ENDBRANCH   5  20
TORSDOF 6
ENDMDL
MODEL 8
REMARK VINA RESULT:    -9.740      4.832     11.706
REMARK INTER + INTRA:         -13.874
REMARK INTER:                 -13.027
REMARK INTRA:                  -0.846
REMARK UNBOUND:                -0.718
REMARK SMILES CNC(=O)c1cc(Oc2ccc(NC(=O)Nc3ccc(Cl)c(C(F)(F)F)c3)c(F)c2)ccn1
REMARK SMILES IDX 9 1 30 2 28 3 29 4 12 5 11 6 10 7 8 8 7 9 5 10 6 11 33 12
REMARK SMILES IDX 32 13 31 14 3 15 1 16 2 17 4 19 13 20 14 21 15 23 16 24
REMARK SMILES IDX 17 26 18 27 27 28 19 29 22 30 20 31 21 32 23 33 24 34 25 35
REMARK SMILES IDX 26 36
REMARK H PARENT 2 18 13 22 16 25
REMARK Flexibility Score: inf
ROOT
ATOM      1  C   UNL     1      27.089   9.394   9.700  1.00  0.00     0.130 A 
ATOM      2  C   UNL     1      27.904  10.011   8.736  1.00  0.00     0.088 A 
ATOM      3  C   UNL     1      29.294   9.869   8.789  1.00  0.00     0.150 A 
ATOM      4  F   UNL     1      30.060  10.473   7.844  1.00  0.00    -0.205 F 
ATOM      5  C   UNL     1      29.891   9.117   9.814  1.00  0.00     0.079 A 
ATOM      6  C   UNL     1      29.071   8.478  10.762  1.00  0.00     0.033 A 
ATOM      7  C   UNL     1      27.681   8.614  10.699  1.00  0.00     0.049 A 
ENDROOT
BRANCH   1   8
ATOM      8  O   UNL     1      25.691   9.497   9.660  1.00  0.00    -0.457 OA
BRANCH   8   9
ATOM      9  C   UNL     1      24.936  10.470  10.332  1.00  0.00     0.131 A 
ATOM     10  C   UNL     1      24.612  12.719  11.190  1.00  0.00     0.131 A 
ATOM     11  C   UNL     1      25.395  11.787  10.489  1.00  0.00     0.081 A 
ATOM     12  N   UNL     1      23.420  12.325  11.718  1.00  0.00    -0.251 NA
ATOM     13  C   UNL     1      22.963  11.051  11.595  1.00  0.00     0.116 A 
ATOM     14  C   UNL     1      23.715  10.101  10.901  1.00  0.00     0.067 A 
BRANCH  10  15
ATOM     15  C   UNL     1      25.062  14.118  11.357  1.00  0.00     0.269 C 
ATOM     16  C   UNL     1      24.714  16.423  12.332  1.00  0.00     0.143 C 
ATOM     17  N   UNL     1      24.329  15.023  12.199  1.00  0.00    -0.354 N 
ATOM     18  H   UNL     1      23.518  14.676  12.759  1.00  0.00     0.163 HD
ATOM     19  O   UNL     1      26.094  14.521  10.756  1.00  0.00    -0.268 OA
ENDBRANCH  10  15
ENDBRANCH   8   9
ENDBRANCH   1   8
BRANCH   5  20
ATOM     20  N   UNL     1      31.319   8.952   9.837  1.00  0.00    -0.305 N 
ATOM     21  C   UNL     1      32.030   8.023   9.008  1.00  0.00     0.323 C 
ATOM     22  H   UNL     1      31.865   9.491  10.547  1.00  0.00     0.171 HD
ATOM     23  O   UNL     1      31.403   7.135   8.370  1.00  0.00    -0.248 OA
ATOM     24  N   UNL     1      33.465   8.065   8.972  1.00  0.00    -0.308 N 
ATOM     25  H   UNL     1      33.950   8.667   9.679  1.00  0.00     0.171 HD
BRANCH  24  26
ATOM     26  C   UNL     1      34.285   7.257   8.109  1.00  0.00     0.043 A 
ATOM     27  C   UNL     1      35.085   7.885   7.146  1.00  0.00     0.028 A 
ATOM     28  C   UNL     1      34.257   5.852   8.168  1.00  0.00     0.040 A 
ATOM     29  C   UNL     1      35.866   7.130   6.273  1.00  0.00     0.023 A 
ATOM     30  C   UNL     1      35.056   5.076   7.302  1.00  0.00     0.076 A 
ATOM     31  C   UNL     1      35.862   5.733   6.344  1.00  0.00     0.053 A 
ATOM     32  Cl  UNL     1      36.869   4.847   5.202  1.00  0.00    -0.084 Cl
BRANCH  30  33
ATOM     33  C   UNL     1      35.038   3.564   7.385  1.00  0.00     0.417 C 
ATOM     34  F   UNL     1      34.754   3.033   6.139  1.00  0.00    -0.166 F 
ATOM     35  F   UNL     1      36.255   3.055   7.803  1.00  0.00    -0.166 F 
ATOM     36  F   UNL     1      34.063   3.158   8.282  1.00  0.00    -0.166 F 
ENDBRANCH  30  33
ENDBRANCH  24  26
ENDBRANCH   5  20
TORSDOF 6
ENDMDL
MODEL 9
REMARK VINA RESULT:    -9.711      3.704      4.841
REMARK INTER + INTRA:         -13.836
REMARK INTER:                 -14.424
REMARK INTRA:                   0.588
REMARK UNBOUND:                -0.718
REMARK SMILES CNC(=O)c1cc(Oc2ccc(NC(=O)Nc3ccc(Cl)c(C(F)(F)F)c3)c(F)c2)ccn1
REMARK SMILES IDX 9 1 30 2 28 3 29 4 12 5 11 6 10 7 8 8 7 9 5 10 6 11 33 12
REMARK SMILES IDX 32 13 31 14 3 15 1 16 2 17 4 19 13 20 14 21 15 23 16 24
REMARK SMILES IDX 17 26 18 27 27 28 19 29 22 30 20 31 21 32 23 33 24 34 25 35
REMARK SMILES IDX 26 36
REMARK H PARENT 2 18 13 22 16 25
REMARK Flexibility Score: inf
ROOT
ATOM      1  C   UNL     1      34.421   8.223   8.127  1.00  0.00     0.130 A 
ATOM      2  C   UNL     1      33.832   6.971   7.880  1.00  0.00     0.088 A 
ATOM      3  C   UNL     1      32.598   6.646   8.451  1.00  0.00     0.150 A 
ATOM      4  F   UNL     1      32.047   5.431   8.194  1.00  0.00    -0.205 F 
ATOM      5  C   UNL     1      31.939   7.562   9.287  1.00  0.00     0.079 A 
ATOM      6  C   UNL     1      32.519   8.824   9.511  1.00  0.00     0.033 A 
ATOM      7  C   UNL     1      33.749   9.150   8.930  1.00  0.00     0.049 A 
ENDROOT
BRANCH   1   8
ATOM      8  O   UNL     1      35.646   8.589   7.549  1.00  0.00    -0.457 OA
BRANCH   8   9
ATOM      9  C   UNL     1      35.791   9.449   6.450  1.00  0.00     0.131 A 
ATOM     10  C   UNL     1      35.234  11.466   5.217  1.00  0.00     0.131 A 
ATOM     11  C   UNL     1      35.070  10.650   6.347  1.00  0.00     0.081 A 
ATOM     12  N   UNL     1      36.085  11.073   4.229  1.00  0.00    -0.251 NA
ATOM     13  C   UNL     1      36.781   9.907   4.297  1.00  0.00     0.116 A 
ATOM     14  C   UNL     1      36.643   9.075   5.409  1.00  0.00     0.067 A 
BRANCH  10  15
ATOM     15  C   UNL     1      34.501  12.744   5.088  1.00  0.00     0.269 C 
ATOM     16  C   UNL     1      32.442  14.018   4.366  1.00  0.00     0.143 C 
ATOM     17  N   UNL     1      33.164  12.766   4.562  1.00  0.00    -0.354 N 
ATOM     18  H   UNL     1      32.674  11.871   4.340  1.00  0.00     0.163 HD
ATOM     19  O   UNL     1      35.053  13.822   5.440  1.00  0.00    -0.268 OA
ENDBRANCH  10  15
ENDBRANCH   8   9
ENDBRANCH   1   8
BRANCH   5  20
ATOM     20  N   UNL     1      30.656   7.227   9.840  1.00  0.00    -0.305 N 
ATOM     21  C   UNL     1      29.546   8.134   9.893  1.00  0.00     0.323 C 
ATOM     22  H   UNL     1      30.544   6.292  10.293  1.00  0.00     0.171 HD
ATOM     23  O   UNL     1      29.718   9.359   9.654  1.00  0.00    -0.248 OA
ATOM     24  N   UNL     1      28.256   7.647  10.294  1.00  0.00    -0.308 N 
ATOM     25  H   UNL     1      28.205   6.680  10.692  1.00  0.00     0.171 HD
BRANCH  24  26
ATOM     26  C   UNL     1      27.049   8.431  10.290  1.00  0.00     0.043 A 
ATOM     27  C   UNL     1      27.146   9.828  10.293  1.00  0.00     0.028 A 
ATOM     28  C   UNL     1      25.778   7.830  10.343  1.00  0.00     0.040 A 
ATOM     29  C   UNL     1      25.996  10.617  10.321  1.00  0.00     0.023 A 
ATOM     30  C   UNL     1      24.608   8.616  10.354  1.00  0.00     0.076 A 
ATOM     31  C   UNL     1      24.730  10.024  10.348  1.00  0.00     0.053 A 
ATOM     32  Cl  UNL     1      23.324  11.086  10.391  1.00  0.00    -0.084 Cl
BRANCH  30  33
ATOM     33  C   UNL     1      23.242   7.962  10.390  1.00  0.00     0.417 C 
ATOM     34  F   UNL     1      22.405   8.678  11.228  1.00  0.00    -0.166 F 
ATOM     35  F   UNL     1      22.658   7.916   9.136  1.00  0.00    -0.166 F 
ATOM     36  F   UNL     1      23.358   6.666  10.865  1.00  0.00    -0.166 F 
ENDBRANCH  30  33
ENDBRANCH  24  26
ENDBRANCH   5  20
TORSDOF 6
ENDMDL
MODEL 10
REMARK VINA RESULT:    -9.662      6.952      9.979
REMARK INTER + INTRA:         -13.769
REMARK INTER:                 -13.038
REMARK INTRA:                  -0.731
REMARK UNBOUND:                -0.718
REMARK SMILES CNC(=O)c1cc(Oc2ccc(NC(=O)Nc3ccc(Cl)c(C(F)(F)F)c3)c(F)c2)ccn1
REMARK SMILES IDX 9 1 30 2 28 3 29 4 12 5 11 6 10 7 8 8 7 9 5 10 6 11 33 12
REMARK SMILES IDX 32 13 31 14 3 15 1 16 2 17 4 19 13 20 14 21 15 23 16 24
REMARK SMILES IDX 17 26 18 27 27 28 19 29 22 30 20 31 21 32 23 33 24 34 25 35
REMARK SMILES IDX 26 36
REMARK H PARENT 2 18 13 22 16 25
REMARK Flexibility Score: inf
ROOT
ATOM      1  C   UNL     1      34.130  12.872  11.649  1.00  0.00     0.130 A 
ATOM      2  C   UNL     1      32.991  13.491  11.106  1.00  0.00     0.088 A 
ATOM      3  C   UNL     1      32.066  12.746  10.367  1.00  0.00     0.150 A 
ATOM      4  F   UNL     1      30.972  13.367   9.855  1.00  0.00    -0.205 F 
ATOM      5  C   UNL     1      32.271  11.374  10.150  1.00  0.00     0.079 A 
ATOM      6  C   UNL     1      33.398  10.753  10.717  1.00  0.00     0.033 A 
ATOM      7  C   UNL     1      34.316  11.498  11.465  1.00  0.00     0.049 A 
ENDROOT
BRANCH   1   8
ATOM      8  O   UNL     1      35.062  13.586  12.416  1.00  0.00    -0.457 OA
BRANCH   8   9
ATOM      9  C   UNL     1      35.737  14.740  11.991  1.00  0.00     0.131 A 
ATOM     10  C   UNL     1      36.905  16.825  12.426  1.00  0.00     0.131 A 
ATOM     11  C   UNL     1      36.256  15.674  12.901  1.00  0.00     0.081 A 
ATOM     12  N   UNL     1      37.011  17.023  11.082  1.00  0.00    -0.251 NA
ATOM     13  C   UNL     1      36.502  16.142  10.181  1.00  0.00     0.116 A 
ATOM     14  C   UNL     1      35.854  14.986  10.621  1.00  0.00     0.067 A 
BRANCH  10  15
ATOM     15  C   UNL     1      37.475  17.819  13.361  1.00  0.00     0.269 C 
ATOM     16  C   UNL     1      37.153  19.726  14.986  1.00  0.00     0.143 C 
ATOM     17  N   UNL     1      36.615  18.696  14.105  1.00  0.00    -0.354 N 
ATOM     18  H   UNL     1      35.578  18.584  14.048  1.00  0.00     0.163 HD
ATOM     19  O   UNL     1      38.725  17.898  13.505  1.00  0.00    -0.268 OA
ENDBRANCH  10  15
ENDBRANCH   8   9
ENDBRANCH   1   8
BRANCH   5  20
ATOM     20  N   UNL     1      31.296  10.615   9.417  1.00  0.00    -0.305 N 
ATOM     21  C   UNL     1      30.017  10.236   9.943  1.00  0.00     0.323 C 
ATOM     22  H   UNL     1      31.560  10.260   8.469  1.00  0.00     0.171 HD
ATOM     23  O   UNL     1      29.777  10.361  11.173  1.00  0.00    -0.248 OA
ATOM     24  N   UNL     1      29.044   9.641   9.070  1.00  0.00    -0.308 N 
ATOM     25  H   UNL     1      29.361   9.355   8.114  1.00  0.00     0.171 HD
BRANCH  24  26
ATOM     26  C   UNL     1      27.697   9.310   9.454  1.00  0.00     0.043 A 
ATOM     27  C   UNL     1      27.274   7.978   9.373  1.00  0.00     0.028 A 
ATOM     28  C   UNL     1      26.779  10.300   9.850  1.00  0.00     0.040 A 
ATOM     29  C   UNL     1      25.966   7.629   9.706  1.00  0.00     0.023 A 
ATOM     30  C   UNL     1      25.458   9.959  10.207  1.00  0.00     0.076 A 
ATOM     31  C   UNL     1      25.056   8.606  10.126  1.00  0.00     0.053 A 
ATOM     32  Cl  UNL     1      23.418   8.090  10.522  1.00  0.00    -0.084 Cl
BRANCH  30  33
ATOM     33  C   UNL     1      24.481  11.026  10.653  1.00  0.00     0.417 C 
ATOM     34  F   UNL     1      23.407  11.067   9.782  1.00  0.00    -0.166 F 
ATOM     35  F   UNL     1      23.994  10.781  11.926  1.00  0.00    -0.166 F 
ATOM     36  F   UNL     1      25.108  12.261  10.656  1.00  0.00    -0.166 F 
ENDBRANCH  30  33
ENDBRANCH  24  26
ENDBRANCH   5  20
TORSDOF 6
ENDMDL
MODEL 11
REMARK VINA RESULT:    -9.624      3.195      3.551
REMARK INTER + INTRA:         -13.717
REMARK INTER:                 -13.895
REMARK INTRA:                   0.177
REMARK UNBOUND:                -0.718
REMARK SMILES CNC(=O)c1cc(Oc2ccc(NC(=O)Nc3ccc(Cl)c(C(F)(F)F)c3)c(F)c2)ccn1
REMARK SMILES IDX 9 1 30 2 28 3 29 4 12 5 11 6 10 7 8 8 7 9 5 10 6 11 33 12
REMARK SMILES IDX 32 13 31 14 3 15 1 16 2 17 4 19 13 20 14 21 15 23 16 24
REMARK SMILES IDX 17 26 18 27 27 28 19 29 22 30 20 31 21 32 23 33 24 34 25 35
REMARK SMILES IDX 26 36
REMARK H PARENT 2 18 13 22 16 25
REMARK Flexibility Score: inf
ROOT
ATOM      1  C   UNL     1      34.747   7.788   7.980  1.00  0.00     0.130 A 
ATOM      2  C   UNL     1      34.269   8.669   8.965  1.00  0.00     0.088 A 
ATOM      3  C   UNL     1      33.021   8.455   9.558  1.00  0.00     0.150 A 
ATOM      4  F   UNL     1      32.581   9.319  10.510  1.00  0.00    -0.205 F 
ATOM      5  C   UNL     1      32.226   7.366   9.166  1.00  0.00     0.079 A 
ATOM      6  C   UNL     1      32.719   6.472   8.198  1.00  0.00     0.033 A 
ATOM      7  C   UNL     1      33.973   6.682   7.616  1.00  0.00     0.049 A 
ENDROOT
BRANCH   1   8
ATOM      8  O   UNL     1      36.006   7.961   7.385  1.00  0.00    -0.457 OA
BRANCH   8   9
ATOM      9  C   UNL     1      36.315   8.938   6.427  1.00  0.00     0.131 A 
ATOM     10  C   UNL     1      36.363   9.764   4.143  1.00  0.00     0.131 A 
ATOM     11  C   UNL     1      36.013   8.766   5.066  1.00  0.00     0.081 A 
ATOM     12  N   UNL     1      37.004  10.883   4.583  1.00  0.00    -0.251 NA
ATOM     13  C   UNL     1      37.323  11.065   5.891  1.00  0.00     0.116 A 
ATOM     14  C   UNL     1      36.986  10.094   6.835  1.00  0.00     0.067 A 
BRANCH  10  15
ATOM     15  C   UNL     1      36.043   9.619   2.707  1.00  0.00     0.269 C 
ATOM     16  C   UNL     1      35.136  10.596   0.561  1.00  0.00     0.143 C 
ATOM     17  N   UNL     1      35.518  10.730   1.962  1.00  0.00    -0.354 N 
ATOM     18  H   UNL     1      35.434  11.669   2.412  1.00  0.00     0.163 HD
ATOM     19  O   UNL     1      36.229   8.512   2.132  1.00  0.00    -0.268 OA
ENDBRANCH  10  15
ENDBRANCH   8   9
ENDBRANCH   1   8
BRANCH   5  20
ATOM     20  N   UNL     1      30.960   7.140   9.806  1.00  0.00    -0.305 N 
ATOM     21  C   UNL     1      29.866   8.068   9.765  1.00  0.00     0.323 C 
ATOM     22  H   UNL     1      30.850   6.282  10.394  1.00  0.00     0.171 HD
ATOM     23  O   UNL     1      30.048   9.242   9.345  1.00  0.00    -0.248 OA
ATOM     24  N   UNL     1      28.585   7.671  10.278  1.00  0.00    -0.308 N 
ATOM     25  H   UNL     1      28.534   6.773  10.814  1.00  0.00     0.171 HD
BRANCH  24  26
ATOM     26  C   UNL     1      27.391   8.471  10.202  1.00  0.00     0.043 A 
ATOM     27  C   UNL     1      27.510   9.857  10.043  1.00  0.00     0.028 A 
ATOM     28  C   UNL     1      26.112   7.903  10.343  1.00  0.00     0.040 A 
ATOM     29  C   UNL     1      26.375  10.664   9.998  1.00  0.00     0.023 A 
ATOM     30  C   UNL     1      24.954   8.706  10.281  1.00  0.00     0.076 A 
ATOM     31  C   UNL     1      25.099  10.102  10.112  1.00  0.00     0.053 A 
ATOM     32  Cl  UNL     1      23.712  11.187  10.054  1.00  0.00    -0.084 Cl
BRANCH  30  33
ATOM     33  C   UNL     1      23.579   8.085  10.412  1.00  0.00     0.417 C 
ATOM     34  F   UNL     1      22.840   8.786  11.349  1.00  0.00    -0.166 F 
ATOM     35  F   UNL     1      22.887   8.106   9.214  1.00  0.00    -0.166 F 
ATOM     36  F   UNL     1      23.699   6.768  10.825  1.00  0.00    -0.166 F 
ENDBRANCH  30  33
ENDBRANCH  24  26
ENDBRANCH   5  20
TORSDOF 6
ENDMDL
MODEL 12
REMARK VINA RESULT:    -9.499      2.557      3.789
REMARK INTER + INTRA:         -13.548
REMARK INTER:                 -12.702
REMARK INTRA:                  -0.846
REMARK UNBOUND:                -0.718
REMARK SMILES CNC(=O)c1cc(Oc2ccc(NC(=O)Nc3ccc(Cl)c(C(F)(F)F)c3)c(F)c2)ccn1
REMARK SMILES IDX 9 1 30 2 28 3 29 4 12 5 11 6 10 7 8 8 7 9 5 10 6 11 33 12
REMARK SMILES IDX 32 13 31 14 3 15 1 16 2 17 4 19 13 20 14 21 15 23 16 24
REMARK SMILES IDX 17 26 18 27 27 28 19 29 22 30 20 31 21 32 23 33 24 34 25 35
REMARK SMILES IDX 26 36
REMARK H PARENT 2 18 13 22 16 25
REMARK Flexibility Score: inf
ROOT
ATOM      1  C   UNL     1      35.177   6.774   7.043  1.00  0.00     0.130 A 
ATOM      2  C   UNL     1      35.013   7.847   7.936  1.00  0.00     0.088 A 
ATOM      3  C   UNL     1      33.910   7.890   8.794  1.00  0.00     0.150 A 
ATOM      4  F   UNL     1      33.774   8.936   9.649  1.00  0.00    -0.205 F 
ATOM      5  C   UNL     1      32.948   6.866   8.766  1.00  0.00     0.079 A 
ATOM      6  C   UNL     1      33.130   5.780   7.891  1.00  0.00     0.033 A 
ATOM      7  C   UNL     1      34.240   5.735   7.041  1.00  0.00     0.049 A 
ENDROOT
BRANCH   1   8
ATOM      8  O   UNL     1      36.285   6.689   6.188  1.00  0.00    -0.457 OA
BRANCH   8   9
ATOM      9  C   UNL     1      36.260   6.958   4.811  1.00  0.00     0.131 A 
ATOM     10  C   UNL     1      36.203   8.487   2.924  1.00  0.00     0.131 A 
ATOM     11  C   UNL     1      36.251   8.270   4.310  1.00  0.00     0.081 A 
ATOM     12  N   UNL     1      36.156   7.416   2.084  1.00  0.00    -0.251 NA
ATOM     13  C   UNL     1      36.146   6.137   2.544  1.00  0.00     0.116 A 
ATOM     14  C   UNL     1      36.196   5.887   3.916  1.00  0.00     0.067 A 
BRANCH  10  15
ATOM     15  C   UNL     1      36.208   9.857   2.367  1.00  0.00     0.269 C 
ATOM     16  C   UNL     1      35.190  11.603   0.852  1.00  0.00     0.143 C 
ATOM     17  N   UNL     1      35.175  10.279   1.464  1.00  0.00    -0.354 N 
ATOM     18  H   UNL     1      34.370   9.646   1.256  1.00  0.00     0.163 HD
ATOM     19  O   UNL     1      37.127  10.659   2.686  1.00  0.00    -0.268 OA
ENDBRANCH  10  15
ENDBRANCH   8   9
ENDBRANCH   1   8
BRANCH   5  20
ATOM     20  N   UNL     1      31.838   6.907   9.676  1.00  0.00    -0.305 N 
ATOM     21  C   UNL     1      30.729   7.808   9.546  1.00  0.00     0.323 C 
ATOM     22  H   UNL     1      31.871   6.292  10.522  1.00  0.00     0.171 HD
ATOM     23  O   UNL     1      30.790   8.774   8.739  1.00  0.00    -0.248 OA
ATOM     24  N   UNL     1      29.584   7.645  10.397  1.00  0.00    -0.308 N 
ATOM     25  H   UNL     1      29.666   6.974  11.197  1.00  0.00     0.171 HD
BRANCH  24  26
ATOM     26  C   UNL     1      28.374   8.418  10.296  1.00  0.00     0.043 A 
ATOM     27  C   UNL     1      27.205   7.794   9.844  1.00  0.00     0.028 A 
ATOM     28  C   UNL     1      28.352   9.795  10.582  1.00  0.00     0.040 A 
ATOM     29  C   UNL     1      26.024   8.522   9.704  1.00  0.00     0.023 A 
ATOM     30  C   UNL     1      27.161  10.539  10.461  1.00  0.00     0.076 A 
ATOM     31  C   UNL     1      25.990   9.886  10.011  1.00  0.00     0.053 A 
ATOM     32  Cl  UNL     1      24.463  10.741   9.801  1.00  0.00    -0.084 Cl
BRANCH  30  33
ATOM     33  C   UNL     1      27.139  12.017  10.791  1.00  0.00     0.417 C 
ATOM     34  F   UNL     1      26.940  12.749   9.634  1.00  0.00    -0.166 F 
ATOM     35  F   UNL     1      26.125  12.333  11.679  1.00  0.00    -0.166 F 
ATOM     36  F   UNL     1      28.347  12.386  11.358  1.00  0.00    -0.166 F 
ENDBRANCH  30  33
ENDBRANCH  24  26
ENDBRANCH   5  20
TORSDOF 6
ENDMDL
MODEL 13
REMARK VINA RESULT:    -9.474      4.700     11.510
REMARK INTER + INTRA:         -13.515
REMARK INTER:                 -13.589
REMARK INTRA:                   0.074
REMARK UNBOUND:                -0.718
REMARK SMILES CNC(=O)c1cc(Oc2ccc(NC(=O)Nc3ccc(Cl)c(C(F)(F)F)c3)c(F)c2)ccn1
REMARK SMILES IDX 9 1 30 2 28 3 29 4 12 5 11 6 10 7 8 8 7 9 5 10 6 11 33 12
REMARK SMILES IDX 32 13 31 14 3 15 1 16 2 17 4 19 13 20 14 21 15 23 16 24
REMARK SMILES IDX 17 26 18 27 27 28 19 29 22 30 20 31 21 32 23 33 24 34 25 35
REMARK SMILES IDX 26 36
REMARK H PARENT 2 18 13 22 16 25
REMARK Flexibility Score: inf
ROOT
ATOM      1  C   UNL     1      26.269  11.146  10.382  1.00  0.00     0.130 A 
ATOM      2  C   UNL     1      25.912   9.851   9.968  1.00  0.00     0.088 A 
ATOM      3  C   UNL     1      26.858   8.822   9.971  1.00  0.00     0.150 A 
ATOM      4  F   UNL     1      26.488   7.578   9.569  1.00  0.00    -0.205 F 
ATOM      5  C   UNL     1      28.179   9.073  10.377  1.00  0.00     0.079 A 
ATOM      6  C   UNL     1      28.526  10.364  10.815  1.00  0.00     0.033 A 
ATOM      7  C   UNL     1      27.574  11.388  10.821  1.00  0.00     0.049 A 
ENDROOT
BRANCH   1   8
ATOM      8  O   UNL     1      25.336  12.193  10.414  1.00  0.00    -0.457 OA
BRANCH   8   9
ATOM      9  C   UNL     1      25.633  13.523  10.748  1.00  0.00     0.131 A 
ATOM     10  C   UNL     1      27.103  15.457  10.753  1.00  0.00     0.131 A 
ATOM     11  C   UNL     1      26.844  14.130  10.376  1.00  0.00     0.081 A 
ATOM     12  N   UNL     1      26.176  16.135  11.486  1.00  0.00    -0.251 NA
ATOM     13  C   UNL     1      25.005  15.564  11.872  1.00  0.00     0.116 A 
ATOM     14  C   UNL     1      24.714  14.248  11.511  1.00  0.00     0.067 A 
BRANCH  10  15
ATOM     15  C   UNL     1      28.362  16.127  10.363  1.00  0.00     0.269 C 
ATOM     16  C   UNL     1      29.677  17.514   8.710  1.00  0.00     0.143 C 
ATOM     17  N   UNL     1      28.433  16.894   9.150  1.00  0.00    -0.354 N 
ATOM     18  H   UNL     1      27.573  17.048   8.577  1.00  0.00     0.163 HD
ATOM     19  O   UNL     1      29.381  16.024  11.098  1.00  0.00    -0.268 OA
ENDBRANCH  10  15
ENDBRANCH   8   9
ENDBRANCH   1   8
BRANCH   5  20
ATOM     20  N   UNL     1      29.132   7.999  10.406  1.00  0.00    -0.305 N 
ATOM     21  C   UNL     1      30.249   7.895   9.511  1.00  0.00     0.323 C 
ATOM     22  H   UNL     1      28.966   7.210  11.072  1.00  0.00     0.171 HD
ATOM     23  O   UNL     1      30.317   8.639   8.496  1.00  0.00    -0.248 OA
ATOM     24  N   UNL     1      31.245   6.887   9.740  1.00  0.00    -0.308 N 
ATOM     25  H   UNL     1      31.037   6.155  10.460  1.00  0.00     0.171 HD
BRANCH  24  26
ATOM     26  C   UNL     1      32.456   6.747   8.976  1.00  0.00     0.043 A 
ATOM     27  C   UNL     1      33.145   7.899   8.577  1.00  0.00     0.028 A 
ATOM     28  C   UNL     1      32.931   5.487   8.570  1.00  0.00     0.040 A 
ATOM     29  C   UNL     1      34.305   7.800   7.809  1.00  0.00     0.023 A 
ATOM     30  C   UNL     1      34.112   5.371   7.808  1.00  0.00     0.076 A 
ATOM     31  C   UNL     1      34.796   6.548   7.424  1.00  0.00     0.053 A 
ATOM     32  Cl  UNL     1      36.262   6.503   6.447  1.00  0.00    -0.084 Cl
BRANCH  30  33
ATOM     33  C   UNL     1      34.630   4.010   7.392  1.00  0.00     0.417 C 
ATOM     34  F   UNL     1      33.847   3.021   7.960  1.00  0.00    -0.166 F 
ATOM     35  F   UNL     1      34.603   3.845   6.018  1.00  0.00    -0.166 F 
ATOM     36  F   UNL     1      35.937   3.857   7.825  1.00  0.00    -0.166 F 
ENDBRANCH  30  33
ENDBRANCH  24  26
ENDBRANCH   5  20
TORSDOF 6
ENDMDL
MODEL 14
REMARK VINA RESULT:    -9.469      6.983     10.369
REMARK INTER + INTRA:         -13.509
REMARK INTER:                 -12.802
REMARK INTRA:                  -0.707
REMARK UNBOUND:                -0.718
REMARK SMILES CNC(=O)c1cc(Oc2ccc(NC(=O)Nc3ccc(Cl)c(C(F)(F)F)c3)c(F)c2)ccn1
REMARK SMILES IDX 9 1 30 2 28 3 29 4 12 5 11 6 10 7 8 8 7 9 5 10 6 11 33 12
REMARK SMILES IDX 32 13 31 14 3 15 1 16 2 17 4 19 13 20 14 21 15 23 16 24
REMARK SMILES IDX 17 26 18 27 27 28 19 29 22 30 20 31 21 32 23 33 24 34 25 35
REMARK SMILES IDX 26 36
REMARK H PARENT 2 18 13 22 16 25
REMARK Flexibility Score: inf
ROOT
ATOM      1  C   UNL     1      33.451  13.875  10.522  1.00  0.00     0.130 A 
ATOM      2  C   UNL     1      33.561  12.577  11.049  1.00  0.00     0.088 A 
ATOM      3  C   UNL     1      32.681  11.571  10.639  1.00  0.00     0.150 A 
ATOM      4  F   UNL     1      32.809  10.324  11.161  1.00  0.00    -0.205 F 
ATOM      5  C   UNL     1      31.670  11.850   9.705  1.00  0.00     0.079 A 
ATOM      6  C   UNL     1      31.579  13.143   9.161  1.00  0.00     0.033 A 
ATOM      7  C   UNL     1      32.468  14.145   9.564  1.00  0.00     0.049 A 
ENDROOT
BRANCH   1   8
ATOM      8  O   UNL     1      34.335  14.899  10.894  1.00  0.00    -0.457 OA
BRANCH   8   9
ATOM      9  C   UNL     1      34.026  15.947  11.775  1.00  0.00     0.131 A 
ATOM     10  C   UNL     1      32.481  17.174  13.191  1.00  0.00     0.131 A 
ATOM     11  C   UNL     1      32.746  16.096  12.332  1.00  0.00     0.081 A 
ATOM     12  N   UNL     1      33.472  18.069  13.463  1.00  0.00    -0.251 NA
ATOM     13  C   UNL     1      34.713  17.956  12.922  1.00  0.00     0.116 A 
ATOM     14  C   UNL     1      35.011  16.894  12.067  1.00  0.00     0.067 A 
BRANCH  10  15
ATOM     15  C   UNL     1      31.147  17.348  13.806  1.00  0.00     0.269 C 
ATOM     16  C   UNL     1      29.286  18.863  14.596  1.00  0.00     0.143 C 
ATOM     17  N   UNL     1      30.572  18.658  13.938  1.00  0.00    -0.354 N 
ATOM     18  H   UNL     1      31.058  19.487  13.530  1.00  0.00     0.163 HD
ATOM     19  O   UNL     1      30.511  16.340  14.218  1.00  0.00    -0.268 OA
ENDBRANCH  10  15
ENDBRANCH   8   9
ENDBRANCH   1   8
BRANCH   5  20
ATOM     20  N   UNL     1      30.793  10.798   9.270  1.00  0.00    -0.305 N 
ATOM     21  C   UNL     1      29.489  10.564   9.820  1.00  0.00     0.323 C 
ATOM     22  H   UNL     1      31.151  10.122   8.557  1.00  0.00     0.171 HD
ATOM     23  O   UNL     1      29.139  11.141  10.884  1.00  0.00    -0.248 OA
ATOM     24  N   UNL     1      28.620   9.609   9.192  1.00  0.00    -0.308 N 
ATOM     25  H   UNL     1      29.029   8.996   8.448  1.00  0.00     0.171 HD
BRANCH  24  26
ATOM     26  C   UNL     1      27.259   9.360   9.588  1.00  0.00     0.043 A 
ATOM     27  C   UNL     1      26.774   8.046   9.568  1.00  0.00     0.028 A 
ATOM     28  C   UNL     1      26.388  10.408   9.936  1.00  0.00     0.040 A 
ATOM     29  C   UNL     1      25.452   7.774   9.915  1.00  0.00     0.023 A 
ATOM     30  C   UNL     1      25.053  10.145  10.306  1.00  0.00     0.076 A 
ATOM     31  C   UNL     1      24.588   8.810  10.287  1.00  0.00     0.053 A 
ATOM     32  Cl  UNL     1      22.928   8.389  10.704  1.00  0.00    -0.084 Cl
BRANCH  30  33
ATOM     33  C   UNL     1      24.126  11.276  10.700  1.00  0.00     0.417 C 
ATOM     34  F   UNL     1      24.806  12.479  10.634  1.00  0.00    -0.166 F 
ATOM     35  F   UNL     1      23.026  11.357   9.864  1.00  0.00    -0.166 F 
ATOM     36  F   UNL     1      23.677  11.080  11.996  1.00  0.00    -0.166 F 
ENDBRANCH  30  33
ENDBRANCH  24  26
ENDBRANCH   5  20
TORSDOF 6
ENDMDL
MODEL 15
REMARK VINA RESULT:    -9.387      6.469      9.409
REMARK INTER + INTRA:         -13.397
REMARK INTER:                 -12.752
REMARK INTRA:                  -0.645
REMARK UNBOUND:                -0.718
REMARK SMILES CNC(=O)c1cc(Oc2ccc(NC(=O)Nc3ccc(Cl)c(C(F)(F)F)c3)c(F)c2)ccn1
REMARK SMILES IDX 9 1 30 2 28 3 29 4 12 5 11 6 10 7 8 8 7 9 5 10 6 11 33 12
REMARK SMILES IDX 32 13 31 14 3 15 1 16 2 17 4 19 13 20 14 21 15 23 16 24
REMARK SMILES IDX 17 26 18 27 27 28 19 29 22 30 20 31 21 32 23 33 24 34 25 35
REMARK SMILES IDX 26 36
REMARK H PARENT 2 18 13 22 16 25
REMARK Flexibility Score: inf
ROOT
ATOM      1  C   UNL     1      33.886  12.342  10.669  1.00  0.00     0.130 A 
ATOM      2  C   UNL     1      32.959  12.770   9.703  1.00  0.00     0.088 A 
ATOM      3  C   UNL     1      31.964  11.901   9.245  1.00  0.00     0.150 A 
ATOM      4  F   UNL     1      31.078  12.339   8.313  1.00  0.00    -0.205 F 
ATOM      5  C   UNL     1      31.887  10.588   9.737  1.00  0.00     0.079 A 
ATOM      6  C   UNL     1      32.799  10.172  10.722  1.00  0.00     0.033 A 
ATOM      7  C   UNL     1      33.787  11.046  11.187  1.00  0.00     0.049 A 
ENDROOT
BRANCH   1   8
ATOM      8  O   UNL     1      34.879  13.197  11.168  1.00  0.00    -0.457 OA
BRANCH   8   9
ATOM      9  C   UNL     1      34.671  14.527  11.565  1.00  0.00     0.131 A 
ATOM     10  C   UNL     1      33.246  16.339  12.330  1.00  0.00     0.131 A 
ATOM     11  C   UNL     1      33.408  14.993  11.963  1.00  0.00     0.081 A 
ATOM     12  N   UNL     1      34.320  17.176  12.283  1.00  0.00    -0.251 NA
ATOM     13  C   UNL     1      35.548  16.752  11.884  1.00  0.00     0.116 A 
ATOM     14  C   UNL     1      35.744  15.421  11.516  1.00  0.00     0.067 A 
BRANCH  10  15
ATOM     15  C   UNL     1      31.932  16.855  12.770  1.00  0.00     0.269 C 
ATOM     16  C   UNL     1      29.461  16.496  13.152  1.00  0.00     0.143 C 
ATOM     17  N   UNL     1      30.780  15.997  12.783  1.00  0.00    -0.354 N 
ATOM     18  H   UNL     1      30.880  14.982  12.556  1.00  0.00     0.163 HD
ATOM     19  O   UNL     1      31.821  18.057  13.135  1.00  0.00    -0.268 OA
ENDBRANCH  10  15
ENDBRANCH   8   9
ENDBRANCH   1   8
BRANCH   5  20
ATOM     20  N   UNL     1      30.839   9.717   9.280  1.00  0.00    -0.305 N 
ATOM     21  C   UNL     1      29.528   9.669   9.862  1.00  0.00     0.323 C 
ATOM     22  H   UNL     1      31.064   9.029   8.526  1.00  0.00     0.171 HD
ATOM     23  O   UNL     1      29.303  10.240  10.962  1.00  0.00    -0.248 OA
ATOM     24  N   UNL     1      28.499   8.902   9.218  1.00  0.00    -0.308 N 
ATOM     25  H   UNL     1      28.784   8.271   8.433  1.00  0.00     0.171 HD
BRANCH  24  26
ATOM     26  C   UNL     1      27.126   8.857   9.646  1.00  0.00     0.043 A 
ATOM     27  C   UNL     1      26.455   7.628   9.655  1.00  0.00     0.028 A 
ATOM     28  C   UNL     1      26.423  10.025   9.997  1.00  0.00     0.040 A 
ATOM     29  C   UNL     1      25.116   7.555  10.033  1.00  0.00     0.023 A 
ATOM     30  C   UNL     1      25.073   9.963  10.398  1.00  0.00     0.076 A 
ATOM     31  C   UNL     1      24.420   8.709  10.408  1.00  0.00     0.053 A 
ATOM     32  Cl  UNL     1      22.727   8.538  10.866  1.00  0.00    -0.084 Cl
BRANCH  30  33
ATOM     33  C   UNL     1      24.329  11.221  10.796  1.00  0.00     0.417 C 
ATOM     34  F   UNL     1      23.209  11.371   9.997  1.00  0.00    -0.166 F 
ATOM     35  F   UNL     1      23.914  11.180  12.115  1.00  0.00    -0.166 F 
ATOM     36  F   UNL     1      25.153  12.321  10.631  1.00  0.00    -0.166 F 
ENDBRANCH  30  33
ENDBRANCH  24  26
ENDBRANCH   5  20
TORSDOF 6
ENDMDL
