MODEL 1
REMARK VINA RESULT:    -7.829      0.000      0.000
REMARK INTER + INTRA:         -15.025
REMARK INTER:                 -12.634
REMARK INTRA:                  -2.391
REMARK UNBOUND:                -2.391
REMARK SMILES O=C(O[C@H]1C[N+]2(CCCOc3ccccc3)CCC1CC2)C(O)(c1cccs1)c1cccs1
REMARK SMILES IDX 4 1 5 2 6 3 17 4 18 5 19 6 20 7 21 8 3 9 2 10 1 11 22 12
REMARK SMILES IDX 23 13 24 15 25 16 28 17 26 18 27 19 29 20 30 21 33 22 31 23
REMARK SMILES IDX 32 24 7 25 8 26 9 27 10 28 11 29 12 30 16 31 13 32 15 33
REMARK SMILES IDX 14 34
REMARK H PARENT 23 14
REMARK Flexibility Score: inf
ROOT
ATOM      1  C   UNL     1      10.851  10.600  19.832  1.00  0.00     0.235 C 
ATOM      2  C   UNL     1      10.741  11.957  19.083  1.00  0.00     0.310 C 
ATOM      3  N   UNL     1       9.404  12.130  18.428  1.00  0.00    -0.320 N 
ATOM      4  C   UNL     1       9.220  11.024  17.440  1.00  0.00     0.264 C 
ATOM      5  C   UNL     1       9.293   9.636  18.128  1.00  0.00     0.069 C 
ATOM      6  C   UNL     1       9.540   9.820  19.636  1.00  0.00     0.047 C 
ATOM      7  C   UNL     1       8.397  10.671  20.214  1.00  0.00     0.069 C 
ATOM      8  C   UNL     1       8.341  12.034  19.476  1.00  0.00     0.264 C 
ENDROOT
BRANCH   1   9
ATOM      9  O   UNL     1      11.948   9.829  19.341  1.00  0.00    -0.453 OA
BRANCH   9  10
ATOM     10  C   UNL     1      13.283  10.231  19.456  1.00  0.00     0.349 C 
ATOM     11  O   UNL     1      13.809  10.365  20.597  1.00  0.00    -0.248 OA
BRANCH  10  12
ATOM     12  C   UNL     1      14.105  10.431  18.197  1.00  0.00     0.231 C 
BRANCH  12  13
ATOM     13  O   UNL     1      15.094   9.428  18.128  1.00  0.00    -0.369 OA
ATOM     14  H   UNL     1      15.849   9.690  18.720  1.00  0.00     0.213 HD
ENDBRANCH  12  13
BRANCH  12  15
ATOM     15  C   UNL     1      14.769  11.796  18.211  1.00  0.00     0.053 A 
ATOM     16  C   UNL     1      16.117  12.073  17.986  1.00  0.00     0.019 A 
ATOM     17  S   UNL     1      14.017  13.230  18.676  1.00  0.00    -0.145 S 
ATOM     18  C   UNL     1      16.448  13.420  18.170  1.00  0.00     0.012 A 
ATOM     19  C   UNL     1      15.375  14.212  18.558  1.00  0.00     0.065 A 
ENDBRANCH  12  15
BRANCH  12  20
ATOM     20  C   UNL     1      13.227  10.309  16.969  1.00  0.00     0.053 A 
ATOM     21  C   UNL     1      12.937  11.336  16.074  1.00  0.00     0.019 A 
ATOM     22  S   UNL     1      12.586   8.880  16.339  1.00  0.00    -0.145 S 
ATOM     23  C   UNL     1      12.189  10.920  14.966  1.00  0.00     0.012 A 
ATOM     24  C   UNL     1      11.902   9.561  14.964  1.00  0.00     0.065 A 
ENDBRANCH  12  20
ENDBRANCH  10  12
ENDBRANCH   9  10
ENDBRANCH   1   9
BRANCH   3  25
ATOM     25  C   UNL     1       9.402  13.468  17.755  1.00  0.00     0.267 C 
BRANCH  25  26
ATOM     26  C   UNL     1       9.617  13.447  16.223  1.00  0.00     0.103 C 
BRANCH  26  27
ATOM     27  C   UNL     1      10.799  14.341  15.831  1.00  0.00     0.235 C 
BRANCH  27  28
ATOM     28  O   UNL     1      10.712  14.716  14.455  1.00  0.00    -0.493 OA
BRANCH  28  29
ATOM     29  C   UNL     1      11.448  14.145  13.404  1.00  0.00     0.119 A 
ATOM     30  C   UNL     1      12.854  14.218  13.329  1.00  0.00     0.046 A 
ATOM     31  C   UNL     1      10.744  13.483  12.389  1.00  0.00     0.046 A 
ATOM     32  C   UNL     1      13.532  13.629  12.256  1.00  0.00     0.004 A 
ATOM     33  C   UNL     1      11.426  12.896  11.319  1.00  0.00     0.004 A 
ATOM     34  C   UNL     1      12.820  12.968  11.252  1.00  0.00     0.000 A 
ENDBRANCH  28  29
ENDBRANCH  27  28
ENDBRANCH  26  27
ENDBRANCH  25  26
ENDBRANCH   3  25
TORSDOF 11
ENDMDL
MODEL 2
REMARK VINA RESULT:    -7.663      2.716      5.856
REMARK INTER + INTRA:         -14.758
REMARK INTER:                 -12.512
REMARK INTRA:                  -2.246
REMARK UNBOUND:                -2.391
REMARK SMILES O=C(O[C@H]1C[N+]2(CCCOc3ccccc3)CCC1CC2)C(O)(c1cccs1)c1cccs1
REMARK SMILES IDX 4 1 5 2 6 3 17 4 18 5 19 6 20 7 21 8 3 9 2 10 1 11 22 12
REMARK SMILES IDX 23 13 24 15 25 16 28 17 26 18 27 19 29 20 30 21 33 22 31 23
REMARK SMILES IDX 32 24 7 25 8 26 9 27 10 28 11 29 12 30 16 31 13 32 15 33
REMARK SMILES IDX 14 34
REMARK H PARENT 23 14
REMARK Flexibility Score: inf
ROOT
ATOM      1  C   UNL     1      11.391  12.180  13.899  1.00  0.00     0.235 C 
ATOM      2  C   UNL     1      10.358  13.237  13.415  1.00  0.00     0.310 C 
ATOM      3  N   UNL     1      10.965  14.602  13.301  1.00  0.00    -0.320 N 
ATOM      4  C   UNL     1      11.466  15.006  14.650  1.00  0.00     0.264 C 
ATOM      5  C   UNL     1      12.523  14.005  15.182  1.00  0.00     0.069 C 
ATOM      6  C   UNL     1      12.735  12.882  14.150  1.00  0.00     0.047 C 
ATOM      7  C   UNL     1      13.186  13.520  12.826  1.00  0.00     0.069 C 
ATOM      8  C   UNL     1      12.116  14.537  12.349  1.00  0.00     0.264 C 
ENDROOT
BRANCH   1   9
ATOM      9  O   UNL     1      10.949  11.540  15.097  1.00  0.00    -0.453 OA
BRANCH   9  10
ATOM     10  C   UNL     1      11.327  10.243  15.460  1.00  0.00     0.349 C 
ATOM     11  O   UNL     1      11.713   9.424  14.578  1.00  0.00    -0.248 OA
BRANCH  10  12
ATOM     12  C   UNL     1      11.333   9.859  16.927  1.00  0.00     0.231 C 
BRANCH  12  13
ATOM     13  O   UNL     1      10.993   8.496  17.048  1.00  0.00    -0.369 OA
ATOM     14  H   UNL     1      10.029   8.392  16.828  1.00  0.00     0.213 HD
ENDBRANCH  12  13
BRANCH  12  15
ATOM     15  C   UNL     1      10.333  10.701  17.698  1.00  0.00     0.053 A 
ATOM     16  C   UNL     1      10.583  11.909  18.349  1.00  0.00     0.019 A 
ATOM     17  S   UNL     1       8.755  10.235  18.060  1.00  0.00    -0.145 S 
ATOM     18  C   UNL     1       9.482  12.395  19.064  1.00  0.00     0.012 A 
ATOM     19  C   UNL     1       8.367  11.570  19.002  1.00  0.00     0.065 A 
ENDBRANCH  12  15
BRANCH  12  20
ATOM     20  C   UNL     1      12.716  10.051  17.515  1.00  0.00     0.053 A 
ATOM     21  C   UNL     1      13.754  10.769  16.927  1.00  0.00     0.019 A 
ATOM     22  S   UNL     1      13.212   9.604  19.066  1.00  0.00    -0.145 S 
ATOM     23  C   UNL     1      14.890  10.879  17.739  1.00  0.00     0.012 A 
ATOM     24  C   UNL     1      14.752  10.271  18.980  1.00  0.00     0.065 A 
ENDBRANCH  12  20
ENDBRANCH  10  12
ENDBRANCH   9  10
ENDBRANCH   1   9
BRANCH   3  25
ATOM     25  C   UNL     1       9.895  15.531  12.816  1.00  0.00     0.267 C 
BRANCH  25  26
ATOM     26  C   UNL     1       8.706  14.862  12.086  1.00  0.00     0.103 C 
BRANCH  26  27
ATOM     27  C   UNL     1       7.375  15.442  12.575  1.00  0.00     0.235 C 
BRANCH  27  28
ATOM     28  O   UNL     1       6.860  14.672  13.663  1.00  0.00    -0.493 OA
BRANCH  28  29
ATOM     29  C   UNL     1       6.939  15.023  15.021  1.00  0.00     0.119 A 
ATOM     30  C   UNL     1       7.940  14.526  15.882  1.00  0.00     0.046 A 
ATOM     31  C   UNL     1       5.973  15.899  15.534  1.00  0.00     0.046 A 
ATOM     32  C   UNL     1       7.967  14.912  17.226  1.00  0.00     0.004 A 
ATOM     33  C   UNL     1       6.003  16.281  16.879  1.00  0.00     0.004 A 
ATOM     34  C   UNL     1       7.000  15.788  17.724  1.00  0.00     0.000 A 
ENDBRANCH  28  29
ENDBRANCH  27  28
ENDBRANCH  26  27
ENDBRANCH  25  26
ENDBRANCH   3  25
TORSDOF 11
ENDMDL
MODEL 3
REMARK VINA RESULT:    -7.579      1.362      3.140
REMARK INTER + INTRA:         -14.622
REMARK INTER:                 -12.528
REMARK INTRA:                  -2.094
REMARK UNBOUND:                -2.391
REMARK SMILES O=C(O[C@H]1C[N+]2(CCCOc3ccccc3)CCC1CC2)C(O)(c1cccs1)c1cccs1
REMARK SMILES IDX 4 1 5 2 6 3 17 4 18 5 19 6 20 7 21 8 3 9 2 10 1 11 22 12
REMARK SMILES IDX 23 13 24 15 25 16 28 17 26 18 27 19 29 20 30 21 33 22 31 23
REMARK SMILES IDX 32 24 7 25 8 26 9 27 10 28 11 29 12 30 16 31 13 32 15 33
REMARK SMILES IDX 14 34
REMARK H PARENT 23 14
REMARK Flexibility Score: inf
ROOT
ATOM      1  C   UNL     1      11.072  11.241  19.826  1.00  0.00     0.235 C 
ATOM      2  C   UNL     1      10.349  12.242  18.883  1.00  0.00     0.310 C 
ATOM      3  N   UNL     1       9.191  11.609  18.175  1.00  0.00    -0.320 N 
ATOM      4  C   UNL     1       9.707  10.470  17.356  1.00  0.00     0.264 C 
ATOM      5  C   UNL     1      10.421   9.417  18.244  1.00  0.00     0.069 C 
ATOM      6  C   UNL     1      10.384   9.871  19.714  1.00  0.00     0.047 C 
ATOM      7  C   UNL     1       8.914  10.049  20.130  1.00  0.00     0.069 C 
ATOM      8  C   UNL     1       8.233  11.084  19.197  1.00  0.00     0.264 C 
ENDROOT
BRANCH   1   9
ATOM      9  O   UNL     1      12.453  11.117  19.484  1.00  0.00    -0.453 OA
BRANCH   9  10
ATOM     10  C   UNL     1      13.292  12.214  19.260  1.00  0.00     0.349 C 
ATOM     11  O   UNL     1      13.656  12.941  20.228  1.00  0.00    -0.248 OA
BRANCH  10  12
ATOM     12  C   UNL     1      13.813  12.472  17.860  1.00  0.00     0.231 C 
BRANCH  12  13
ATOM     13  O   UNL     1      13.030  13.478  17.256  1.00  0.00    -0.369 OA
ATOM     14  H   UNL     1      12.114  13.120  17.114  1.00  0.00     0.213 HD
ENDBRANCH  12  13
BRANCH  12  15
ATOM     15  C   UNL     1      13.741  11.206  17.027  1.00  0.00     0.053 A 
ATOM     16  C   UNL     1      12.992  11.010  15.867  1.00  0.00     0.019 A 
ATOM     17  S   UNL     1      14.430   9.729  17.454  1.00  0.00    -0.145 S 
ATOM     18  C   UNL     1      13.049   9.698  15.382  1.00  0.00     0.012 A 
ATOM     19  C   UNL     1      13.822   8.846  16.160  1.00  0.00     0.065 A 
ENDBRANCH  12  15
BRANCH  12  20
ATOM     20  C   UNL     1      15.245  12.962  17.913  1.00  0.00     0.053 A 
ATOM     21  C   UNL     1      16.350  12.198  18.283  1.00  0.00     0.019 A 
ATOM     22  S   UNL     1      15.813  14.451  17.357  1.00  0.00    -0.145 S 
ATOM     23  C   UNL     1      17.570  12.869  18.137  1.00  0.00     0.012 A 
ATOM     24  C   UNL     1      17.444  14.155  17.629  1.00  0.00     0.065 A 
ENDBRANCH  12  20
ENDBRANCH  10  12
ENDBRANCH   9  10
ENDBRANCH   1   9
BRANCH   3  25
ATOM     25  C   UNL     1       8.562  12.658  17.311  1.00  0.00     0.267 C 
BRANCH  25  26
ATOM     26  C   UNL     1       9.522  13.741  16.765  1.00  0.00     0.103 C 
BRANCH  26  27
ATOM     27  C   UNL     1       9.748  13.554  15.260  1.00  0.00     0.235 C 
BRANCH  27  28
ATOM     28  O   UNL     1      11.074  13.944  14.898  1.00  0.00    -0.493 OA
BRANCH  28  29
ATOM     29  C   UNL     1      11.700  13.666  13.672  1.00  0.00     0.119 A 
ATOM     30  C   UNL     1      13.074  13.893  13.446  1.00  0.00     0.046 A 
ATOM     31  C   UNL     1      10.916  13.147  12.633  1.00  0.00     0.046 A 
ATOM     32  C   UNL     1      13.640  13.596  12.202  1.00  0.00     0.004 A 
ATOM     33  C   UNL     1      11.486  12.852  11.391  1.00  0.00     0.004 A 
ATOM     34  C   UNL     1      12.849  13.076  11.176  1.00  0.00     0.000 A 
ENDBRANCH  28  29
ENDBRANCH  27  28
ENDBRANCH  26  27
ENDBRANCH  25  26
ENDBRANCH   3  25
TORSDOF 11
ENDMDL
MODEL 4
REMARK VINA RESULT:    -7.492      2.350      5.734
REMARK INTER + INTRA:         -14.481
REMARK INTER:                 -11.972
REMARK INTRA:                  -2.509
REMARK UNBOUND:                -2.391
REMARK SMILES O=C(O[C@H]1C[N+]2(CCCOc3ccccc3)CCC1CC2)C(O)(c1cccs1)c1cccs1
REMARK SMILES IDX 4 1 5 2 6 3 17 4 18 5 19 6 20 7 21 8 3 9 2 10 1 11 22 12
REMARK SMILES IDX 23 13 24 15 25 16 28 17 26 18 27 19 29 20 30 21 33 22 31 23
REMARK SMILES IDX 32 24 7 25 8 26 9 27 10 28 11 29 12 30 16 31 13 32 15 33
REMARK SMILES IDX 14 34
REMARK H PARENT 23 14
REMARK Flexibility Score: inf
ROOT
ATOM      1  C   UNL     1       9.126  14.715  16.056  1.00  0.00     0.235 C 
ATOM      2  C   UNL     1       9.118  13.290  16.677  1.00  0.00     0.310 C 
ATOM      3  N   UNL     1       9.221  13.329  18.171  1.00  0.00    -0.320 N 
ATOM      4  C   UNL     1      10.506  14.000  18.535  1.00  0.00     0.264 C 
ATOM      5  C   UNL     1      10.569  15.442  17.966  1.00  0.00     0.069 C 
ATOM      6  C   UNL     1       9.277  15.746  17.188  1.00  0.00     0.047 C 
ATOM      7  C   UNL     1       8.084  15.573  18.142  1.00  0.00     0.069 C 
ATOM      8  C   UNL     1       8.080  14.130  18.710  1.00  0.00     0.264 C 
ENDROOT
BRANCH   1   9
ATOM      9  O   UNL     1      10.197  14.864  15.123  1.00  0.00    -0.453 OA
BRANCH   9  10
ATOM     10  C   UNL     1      10.277  14.147  13.924  1.00  0.00     0.349 C 
ATOM     11  O   UNL     1       9.374  14.272  13.049  1.00  0.00    -0.248 OA
BRANCH  10  12
ATOM     12  C   UNL     1      11.492  13.278  13.664  1.00  0.00     0.231 C 
BRANCH  12  13
ATOM     13  O   UNL     1      11.070  11.953  13.431  1.00  0.00    -0.369 OA
ATOM     14  H   UNL     1      11.832  11.343  13.615  1.00  0.00     0.213 HD
ENDBRANCH  12  13
BRANCH  12  15
ATOM     15  C   UNL     1      12.430  13.308  14.856  1.00  0.00     0.053 A 
ATOM     16  C   UNL     1      12.615  12.298  15.800  1.00  0.00     0.019 A 
ATOM     17  S   UNL     1      13.305  14.656  15.362  1.00  0.00    -0.145 S 
ATOM     18  C   UNL     1      13.472  12.663  16.846  1.00  0.00     0.012 A 
ATOM     19  C   UNL     1      13.952  13.962  16.749  1.00  0.00     0.065 A 
ENDBRANCH  12  15
BRANCH  12  20
ATOM     20  C   UNL     1      12.228  13.758  12.430  1.00  0.00     0.053 A 
ATOM     21  C   UNL     1      12.872  12.943  11.502  1.00  0.00     0.019 A 
ATOM     22  S   UNL     1      12.255  15.338  11.834  1.00  0.00    -0.145 S 
ATOM     23  C   UNL     1      13.378  13.642  10.398  1.00  0.00     0.012 A 
ATOM     24  C   UNL     1      13.118  15.005  10.432  1.00  0.00     0.065 A 
ENDBRANCH  12  20
ENDBRANCH  10  12
ENDBRANCH   9  10
ENDBRANCH   1   9
BRANCH   3  25
ATOM     25  C   UNL     1       9.188  11.914  18.662  1.00  0.00     0.267 C 
BRANCH  25  26
ATOM     26  C   UNL     1       9.316  10.824  17.572  1.00  0.00     0.103 C 
BRANCH  26  27
ATOM     27  C   UNL     1       9.349   9.428  18.205  1.00  0.00     0.235 C 
BRANCH  27  28
ATOM     28  O   UNL     1      10.145   8.539  17.420  1.00  0.00    -0.493 OA
BRANCH  28  29
ATOM     29  C   UNL     1      11.514   8.694  17.146  1.00  0.00     0.119 A 
ATOM     30  C   UNL     1      12.048   8.600  15.844  1.00  0.00     0.046 A 
ATOM     31  C   UNL     1      12.377   8.948  18.220  1.00  0.00     0.046 A 
ATOM     32  C   UNL     1      13.421   8.765  15.634  1.00  0.00     0.004 A 
ATOM     33  C   UNL     1      13.749   9.111  18.006  1.00  0.00     0.004 A 
ATOM     34  C   UNL     1      14.271   9.020  16.713  1.00  0.00     0.000 A 
ENDBRANCH  28  29
ENDBRANCH  27  28
ENDBRANCH  26  27
ENDBRANCH  25  26
ENDBRANCH   3  25
TORSDOF 11
ENDMDL
MODEL 5
REMARK VINA RESULT:    -7.441      2.143      4.780
REMARK INTER + INTRA:         -14.399
REMARK INTER:                 -12.289
REMARK INTRA:                  -2.110
REMARK UNBOUND:                -2.391
REMARK SMILES O=C(O[C@H]1C[N+]2(CCCOc3ccccc3)CCC1CC2)C(O)(c1cccs1)c1cccs1
REMARK SMILES IDX 4 1 5 2 6 3 17 4 18 5 19 6 20 7 21 8 3 9 2 10 1 11 22 12
REMARK SMILES IDX 23 13 24 15 25 16 28 17 26 18 27 19 29 20 30 21 33 22 31 23
REMARK SMILES IDX 32 24 7 25 8 26 9 27 10 28 11 29 12 30 16 31 13 32 15 33
REMARK SMILES IDX 14 34
REMARK H PARENT 23 14
REMARK Flexibility Score: inf
ROOT
ATOM      1  C   UNL     1      14.086  11.328  18.063  1.00  0.00     0.235 C 
ATOM      2  C   UNL     1      13.965  12.633  17.228  1.00  0.00     0.310 C 
ATOM      3  N   UNL     1      14.804  13.739  17.792  1.00  0.00    -0.320 N 
ATOM      4  C   UNL     1      14.337  14.018  19.184  1.00  0.00     0.264 C 
ATOM      5  C   UNL     1      14.456  12.758  20.081  1.00  0.00     0.069 C 
ATOM      6  C   UNL     1      15.021  11.588  19.255  1.00  0.00     0.047 C 
ATOM      7  C   UNL     1      16.390  12.007  18.695  1.00  0.00     0.069 C 
ATOM      8  C   UNL     1      16.229  13.287  17.834  1.00  0.00     0.264 C 
ENDROOT
BRANCH   1   9
ATOM      9  O   UNL     1      12.808  10.899  18.536  1.00  0.00    -0.453 OA
BRANCH   9  10
ATOM     10  C   UNL     1      12.243   9.662  18.211  1.00  0.00     0.349 C 
ATOM     11  O   UNL     1      12.803   8.591  18.581  1.00  0.00    -0.248 OA
BRANCH  10  12
ATOM     12  C   UNL     1      10.918   9.626  17.474  1.00  0.00     0.231 C 
BRANCH  12  13
ATOM     13  O   UNL     1      10.702   8.324  16.978  1.00  0.00    -0.369 OA
ATOM     14  H   UNL     1      10.292   8.395  16.075  1.00  0.00     0.213 HD
ENDBRANCH  12  13
BRANCH  12  15
ATOM     15  C   UNL     1      10.928  10.612  16.320  1.00  0.00     0.053 A 
ATOM     16  C   UNL     1      11.571  10.457  15.093  1.00  0.00     0.019 A 
ATOM     17  S   UNL     1      10.294  12.172  16.379  1.00  0.00    -0.145 S 
ATOM     18  C   UNL     1      11.484  11.586  14.271  1.00  0.00     0.012 A 
ATOM     19  C   UNL     1      10.793  12.644  14.845  1.00  0.00     0.065 A 
ENDBRANCH  12  15
BRANCH  12  20
ATOM     20  C   UNL     1       9.782   9.962  18.417  1.00  0.00     0.053 A 
ATOM     21  C   UNL     1       8.430   9.995  18.078  1.00  0.00     0.019 A 
ATOM     22  S   UNL     1       9.899  10.175  20.087  1.00  0.00    -0.145 S 
ATOM     23  C   UNL     1       7.585  10.228  19.170  1.00  0.00     0.012 A 
ATOM     24  C   UNL     1       8.255  10.356  20.379  1.00  0.00     0.065 A 
ENDBRANCH  12  20
ENDBRANCH  10  12
ENDBRANCH   9  10
ENDBRANCH   1   9
BRANCH   3  25
ATOM     25  C   UNL     1      14.626  14.935  16.909  1.00  0.00     0.267 C 
BRANCH  25  26
ATOM     26  C   UNL     1      13.747  14.717  15.655  1.00  0.00     0.103 C 
BRANCH  26  27
ATOM     27  C   UNL     1      13.804  15.942  14.734  1.00  0.00     0.235 C 
BRANCH  27  28
ATOM     28  O   UNL     1      14.075  15.547  13.388  1.00  0.00    -0.493 OA
BRANCH  28  29
ATOM     29  C   UNL     1      13.218  14.794  12.569  1.00  0.00     0.119 A 
ATOM     30  C   UNL     1      11.864  15.130  12.367  1.00  0.00     0.046 A 
ATOM     31  C   UNL     1      13.740  13.657  11.937  1.00  0.00     0.046 A 
ATOM     32  C   UNL     1      11.059  14.339  11.539  1.00  0.00     0.004 A 
ATOM     33  C   UNL     1      12.933  12.870  11.110  1.00  0.00     0.004 A 
ATOM     34  C   UNL     1      11.593  13.211  10.911  1.00  0.00     0.000 A 
ENDBRANCH  28  29
ENDBRANCH  27  28
ENDBRANCH  26  27
ENDBRANCH  25  26
ENDBRANCH   3  25
TORSDOF 11
ENDMDL
MODEL 6
REMARK VINA RESULT:    -7.426      2.229      5.947
REMARK INTER + INTRA:         -14.374
REMARK INTER:                 -12.061
REMARK INTRA:                  -2.314
REMARK UNBOUND:                -2.391
REMARK SMILES O=C(O[C@H]1C[N+]2(CCCOc3ccccc3)CCC1CC2)C(O)(c1cccs1)c1cccs1
REMARK SMILES IDX 4 1 5 2 6 3 17 4 18 5 19 6 20 7 21 8 3 9 2 10 1 11 22 12
REMARK SMILES IDX 23 13 24 15 25 16 28 17 26 18 27 19 29 20 30 21 33 22 31 23
REMARK SMILES IDX 32 24 7 25 8 26 9 27 10 28 11 29 12 30 16 31 13 32 15 33
REMARK SMILES IDX 14 34
REMARK H PARENT 23 14
REMARK Flexibility Score: inf
ROOT
ATOM      1  C   UNL     1       9.966  11.184  16.826  1.00  0.00     0.235 C 
ATOM      2  C   UNL     1      11.168  11.264  17.809  1.00  0.00     0.310 C 
ATOM      3  N   UNL     1      10.722  11.307  19.238  1.00  0.00    -0.320 N 
ATOM      4  C   UNL     1       9.870  12.520  19.427  1.00  0.00     0.264 C 
ATOM      5  C   UNL     1       8.633  12.492  18.492  1.00  0.00     0.069 C 
ATOM      6  C   UNL     1       8.661  11.210  17.640  1.00  0.00     0.047 C 
ATOM      7  C   UNL     1       8.674   9.999  18.586  1.00  0.00     0.069 C 
ATOM      8  C   UNL     1       9.907  10.086  19.523  1.00  0.00     0.264 C 
ENDROOT
BRANCH   1   9
ATOM      9  O   UNL     1       9.981  12.275  15.904  1.00  0.00    -0.453 OA
BRANCH   9  10
ATOM     10  C   UNL     1      10.794  12.309  14.766  1.00  0.00     0.349 C 
ATOM     11  O   UNL     1      11.079  11.238  14.158  1.00  0.00    -0.248 OA
BRANCH  10  12
ATOM     12  C   UNL     1      11.267  13.648  14.236  1.00  0.00     0.231 C 
BRANCH  12  13
ATOM     13  O   UNL     1      10.179  14.545  14.216  1.00  0.00    -0.369 OA
ATOM     14  H   UNL     1      10.536  15.471  14.151  1.00  0.00     0.213 HD
ENDBRANCH  12  13
BRANCH  12  15
ATOM     15  C   UNL     1      11.823  13.495  12.832  1.00  0.00     0.053 A 
ATOM     16  C   UNL     1      13.167  13.398  12.471  1.00  0.00     0.019 A 
ATOM     17  S   UNL     1      10.913  13.587  11.418  1.00  0.00    -0.145 S 
ATOM     18  C   UNL     1      13.371  13.371  11.087  1.00  0.00     0.012 A 
ATOM     19  C   UNL     1      12.201  13.466  10.346  1.00  0.00     0.065 A 
ENDBRANCH  12  15
BRANCH  12  20
ATOM     20  C   UNL     1      12.334  14.227  15.142  1.00  0.00     0.053 A 
ATOM     21  C   UNL     1      13.213  13.489  15.932  1.00  0.00     0.019 A 
ATOM     22  S   UNL     1      12.797  15.848  15.232  1.00  0.00    -0.145 S 
ATOM     23  C   UNL     1      14.171  14.274  16.587  1.00  0.00     0.012 A 
ATOM     24  C   UNL     1      14.072  15.630  16.303  1.00  0.00     0.065 A 
ENDBRANCH  12  20
ENDBRANCH  10  12
ENDBRANCH   9  10
ENDBRANCH   1   9
BRANCH   3  25
ATOM     25  C   UNL     1      11.951  11.366  20.092  1.00  0.00     0.267 C 
BRANCH  25  26
ATOM     26  C   UNL     1      12.310  10.063  20.843  1.00  0.00     0.103 C 
BRANCH  26  27
ATOM     27  C   UNL     1      13.797   9.731  20.673  1.00  0.00     0.235 C 
BRANCH  27  28
ATOM     28  O   UNL     1      13.969   8.636  19.772  1.00  0.00    -0.493 OA
BRANCH  28  29
ATOM     29  C   UNL     1      13.545   8.605  18.433  1.00  0.00     0.119 A 
ATOM     30  C   UNL     1      12.477   7.798  17.988  1.00  0.00     0.046 A 
ATOM     31  C   UNL     1      14.223   9.409  17.508  1.00  0.00     0.046 A 
ATOM     32  C   UNL     1      12.102   7.810  16.641  1.00  0.00     0.004 A 
ATOM     33  C   UNL     1      13.844   9.418  16.162  1.00  0.00     0.004 A 
ATOM     34  C   UNL     1      12.783   8.619  15.728  1.00  0.00     0.000 A 
ENDBRANCH  28  29
ENDBRANCH  27  28
ENDBRANCH  26  27
ENDBRANCH  25  26
ENDBRANCH   3  25
TORSDOF 11
ENDMDL
MODEL 7
REMARK VINA RESULT:    -7.414      2.101      6.165
REMARK INTER + INTRA:         -14.356
REMARK INTER:                 -12.661
REMARK INTRA:                  -1.695
REMARK UNBOUND:                -2.391
REMARK SMILES O=C(O[C@H]1C[N+]2(CCCOc3ccccc3)CCC1CC2)C(O)(c1cccs1)c1cccs1
REMARK SMILES IDX 4 1 5 2 6 3 17 4 18 5 19 6 20 7 21 8 3 9 2 10 1 11 22 12
REMARK SMILES IDX 23 13 24 15 25 16 28 17 26 18 27 19 29 20 30 21 33 22 31 23
REMARK SMILES IDX 32 24 7 25 8 26 9 27 10 28 11 29 12 30 16 31 13 32 15 33
REMARK SMILES IDX 14 34
REMARK H PARENT 23 14
REMARK Flexibility Score: inf
ROOT
ATOM      1  C   UNL     1       9.470  12.727  17.029  1.00  0.00     0.235 C 
ATOM      2  C   UNL     1       9.695  11.189  17.027  1.00  0.00     0.310 C 
ATOM      3  N   UNL     1       9.844  10.643  18.414  1.00  0.00    -0.320 N 
ATOM      4  C   UNL     1      11.028  11.297  19.051  1.00  0.00     0.264 C 
ATOM      5  C   UNL     1      10.856  12.838  19.109  1.00  0.00     0.069 C 
ATOM      6  C   UNL     1       9.506  13.230  18.481  1.00  0.00     0.047 C 
ATOM      7  C   UNL     1       8.386  12.513  19.254  1.00  0.00     0.069 C 
ATOM      8  C   UNL     1       8.616  10.981  19.197  1.00  0.00     0.264 C 
ENDROOT
BRANCH   1   9
ATOM      9  O   UNL     1      10.473  13.395  16.262  1.00  0.00    -0.453 OA
BRANCH   9  10
ATOM     10  C   UNL     1      10.641  13.208  14.886  1.00  0.00     0.349 C 
ATOM     11  O   UNL     1       9.804  13.694  14.074  1.00  0.00    -0.248 OA
BRANCH  10  12
ATOM     12  C   UNL     1      11.873  12.481  14.384  1.00  0.00     0.231 C 
BRANCH  12  13
ATOM     13  O   UNL     1      11.494  11.210  13.904  1.00  0.00    -0.369 OA
ATOM     14  H   UNL     1      11.001  11.332  13.049  1.00  0.00     0.213 HD
ENDBRANCH  12  13
BRANCH  12  15
ATOM     15  C   UNL     1      12.884  12.317  15.504  1.00  0.00     0.053 A 
ATOM     16  C   UNL     1      13.369  11.118  16.025  1.00  0.00     0.019 A 
ATOM     17  S   UNL     1      13.484  13.573  16.454  1.00  0.00    -0.145 S 
ATOM     18  C   UNL     1      14.215  11.290  17.127  1.00  0.00     0.012 A 
ATOM     19  C   UNL     1      14.388  12.616  17.498  1.00  0.00     0.065 A 
ENDBRANCH  12  15
BRANCH  12  20
ATOM     20  C   UNL     1      12.506  13.244  13.240  1.00  0.00     0.053 A 
ATOM     21  C   UNL     1      12.754  12.737  11.966  1.00  0.00     0.019 A 
ATOM     22  S   UNL     1      12.860  14.895  13.214  1.00  0.00    -0.145 S 
ATOM     23  C   UNL     1      13.247  13.692  11.068  1.00  0.00     0.012 A 
ATOM     24  C   UNL     1      13.370  14.962  11.615  1.00  0.00     0.065 A 
ENDBRANCH  12  20
ENDBRANCH  10  12
ENDBRANCH   9  10
ENDBRANCH   1   9
BRANCH   3  25
ATOM     25  C   UNL     1      10.039   9.163  18.296  1.00  0.00     0.267 C 
BRANCH  25  26
ATOM     26  C   UNL     1      11.147   8.708  17.318  1.00  0.00     0.103 C 
BRANCH  26  27
ATOM     27  C   UNL     1      11.962   7.557  17.919  1.00  0.00     0.235 C 
BRANCH  27  28
ATOM     28  O   UNL     1      13.240   8.020  18.358  1.00  0.00    -0.493 OA
BRANCH  28  29
ATOM     29  C   UNL     1      13.572   8.373  19.677  1.00  0.00     0.119 A 
ATOM     30  C   UNL     1      13.906   9.690  20.056  1.00  0.00     0.046 A 
ATOM     31  C   UNL     1      13.576   7.363  20.649  1.00  0.00     0.046 A 
ATOM     32  C   UNL     1      14.228   9.978  21.386  1.00  0.00     0.004 A 
ATOM     33  C   UNL     1      13.899   7.656  21.977  1.00  0.00     0.004 A 
ATOM     34  C   UNL     1      14.225   8.964  22.346  1.00  0.00     0.000 A 
ENDBRANCH  28  29
ENDBRANCH  27  28
ENDBRANCH  26  27
ENDBRANCH  25  26
ENDBRANCH   3  25
TORSDOF 11
ENDMDL
MODEL 8
REMARK VINA RESULT:    -7.405      2.081      3.216
REMARK INTER + INTRA:         -14.340
REMARK INTER:                 -12.424
REMARK INTRA:                  -1.916
REMARK UNBOUND:                -2.391
REMARK SMILES O=C(O[C@H]1C[N+]2(CCCOc3ccccc3)CCC1CC2)C(O)(c1cccs1)c1cccs1
REMARK SMILES IDX 4 1 5 2 6 3 17 4 18 5 19 6 20 7 21 8 3 9 2 10 1 11 22 12
REMARK SMILES IDX 23 13 24 15 25 16 28 17 26 18 27 19 29 20 30 21 33 22 31 23
REMARK SMILES IDX 32 24 7 25 8 26 9 27 10 28 11 29 12 30 16 31 13 32 15 33
REMARK SMILES IDX 14 34
REMARK H PARENT 23 14
REMARK Flexibility Score: inf
ROOT
ATOM      1  C   UNL     1      10.294   9.916  19.125  1.00  0.00     0.235 C 
ATOM      2  C   UNL     1      10.536  11.447  19.016  1.00  0.00     0.310 C 
ATOM      3  N   UNL     1       9.252  12.211  18.905  1.00  0.00    -0.320 N 
ATOM      4  C   UNL     1       8.539  11.752  17.674  1.00  0.00     0.264 C 
ATOM      5  C   UNL     1       8.242  10.230  17.729  1.00  0.00     0.069 C 
ATOM      6  C   UNL     1       8.782   9.647  19.047  1.00  0.00     0.047 C 
ATOM      7  C   UNL     1       8.114  10.390  20.216  1.00  0.00     0.069 C 
ATOM      8  C   UNL     1       8.409  11.908  20.102  1.00  0.00     0.264 C 
ENDROOT
BRANCH   1   9
ATOM      9  O   UNL     1      10.963   9.213  18.076  1.00  0.00    -0.453 OA
BRANCH   9  10
ATOM     10  C   UNL     1      11.748   8.076  18.291  1.00  0.00     0.349 C 
ATOM     11  O   UNL     1      11.223   6.927  18.255  1.00  0.00    -0.248 OA
BRANCH  10  12
ATOM     12  C   UNL     1      13.242   8.237  18.495  1.00  0.00     0.231 C 
BRANCH  12  13
ATOM     13  O   UNL     1      13.913   7.189  17.831  1.00  0.00    -0.369 OA
ATOM     14  H   UNL     1      13.247   6.676  17.301  1.00  0.00     0.213 HD
ENDBRANCH  12  13
BRANCH  12  15
ATOM     15  C   UNL     1      13.581   8.198  19.974  1.00  0.00     0.053 A 
ATOM     16  C   UNL     1      14.427   7.293  20.615  1.00  0.00     0.019 A 
ATOM     17  S   UNL     1      12.851   9.151  21.156  1.00  0.00    -0.145 S 
ATOM     18  C   UNL     1      14.457   7.447  22.005  1.00  0.00     0.012 A 
ATOM     19  C   UNL     1      13.626   8.456  22.475  1.00  0.00     0.065 A 
ENDBRANCH  12  15
BRANCH  12  20
ATOM     20  C   UNL     1      13.716   9.547  17.902  1.00  0.00     0.053 A 
ATOM     21  C   UNL     1      13.368  10.042  16.647  1.00  0.00     0.019 A 
ATOM     22  S   UNL     1      14.595  10.746  18.702  1.00  0.00    -0.145 S 
ATOM     23  C   UNL     1      13.860  11.329  16.396  1.00  0.00     0.012 A 
ATOM     24  C   UNL     1      14.579  11.869  17.453  1.00  0.00     0.065 A 
ENDBRANCH  12  20
ENDBRANCH  10  12
ENDBRANCH   9  10
ENDBRANCH   1   9
BRANCH   3  25
ATOM     25  C   UNL     1       9.598  13.665  18.822  1.00  0.00     0.267 C 
BRANCH  25  26
ATOM     26  C   UNL     1      11.100  14.006  18.967  1.00  0.00     0.103 C 
BRANCH  26  27
ATOM     27  C   UNL     1      11.596  14.797  17.752  1.00  0.00     0.235 C 
BRANCH  27  28
ATOM     28  O   UNL     1      10.819  14.482  16.595  1.00  0.00    -0.493 OA
BRANCH  28  29
ATOM     29  C   UNL     1      11.285  13.798  15.460  1.00  0.00     0.119 A 
ATOM     30  C   UNL     1      10.690  12.610  14.986  1.00  0.00     0.046 A 
ATOM     31  C   UNL     1      12.392  14.323  14.781  1.00  0.00     0.046 A 
ATOM     32  C   UNL     1      11.200  11.973  13.850  1.00  0.00     0.004 A 
ATOM     33  C   UNL     1      12.898  13.684  13.645  1.00  0.00     0.004 A 
ATOM     34  C   UNL     1      12.302  12.509  13.179  1.00  0.00     0.000 A 
ENDBRANCH  28  29
ENDBRANCH  27  28
ENDBRANCH  26  27
ENDBRANCH  25  26
ENDBRANCH   3  25
TORSDOF 11
ENDMDL
MODEL 9
REMARK VINA RESULT:    -7.370      2.701      5.884
REMARK INTER + INTRA:         -14.284
REMARK INTER:                 -11.631
REMARK INTRA:                  -2.653
REMARK UNBOUND:                -2.391
REMARK SMILES O=C(O[C@H]1C[N+]2(CCCOc3ccccc3)CCC1CC2)C(O)(c1cccs1)c1cccs1
REMARK SMILES IDX 4 1 5 2 6 3 17 4 18 5 19 6 20 7 21 8 3 9 2 10 1 11 22 12
REMARK SMILES IDX 23 13 24 15 25 16 28 17 26 18 27 19 29 20 30 21 33 22 31 23
REMARK SMILES IDX 32 24 7 25 8 26 9 27 10 28 11 29 12 30 16 31 13 32 15 33
REMARK SMILES IDX 14 34
REMARK H PARENT 23 14
REMARK Flexibility Score: inf
ROOT
ATOM      1  C   UNL     1      12.301  12.205  20.228  1.00  0.00     0.235 C 
ATOM      2  C   UNL     1      12.492  10.690  19.937  1.00  0.00     0.310 C 
ATOM      3  N   UNL     1      13.873  10.222  20.285  1.00  0.00    -0.320 N 
ATOM      4  C   UNL     1      14.851  10.994  19.460  1.00  0.00     0.264 C 
ATOM      5  C   UNL     1      14.731  12.518  19.722  1.00  0.00     0.069 C 
ATOM      6  C   UNL     1      13.624  12.776  20.762  1.00  0.00     0.047 C 
ATOM      7  C   UNL     1      13.980  12.014  22.048  1.00  0.00     0.069 C 
ATOM      8  C   UNL     1      14.123  10.502  21.732  1.00  0.00     0.264 C 
ENDROOT
BRANCH   1   9
ATOM      9  O   UNL     1      11.910  12.910  19.049  1.00  0.00    -0.453 OA
BRANCH   9  10
ATOM     10  C   UNL     1      10.879  13.855  19.023  1.00  0.00     0.349 C 
ATOM     11  O   UNL     1      11.118  15.062  19.308  1.00  0.00    -0.248 OA
BRANCH  10  12
ATOM     12  C   UNL     1       9.494  13.424  18.582  1.00  0.00     0.231 C 
BRANCH  12  13
ATOM     13  O   UNL     1       8.537  13.999  19.443  1.00  0.00    -0.369 OA
ATOM     14  H   UNL     1       8.986  14.696  19.992  1.00  0.00     0.213 HD
ENDBRANCH  12  13
BRANCH  12  15
ATOM     15  C   UNL     1       9.371  11.912  18.627  1.00  0.00     0.053 A 
ATOM     16  C   UNL     1       9.706  11.015  17.612  1.00  0.00     0.019 A 
ATOM     17  S   UNL     1       8.635  11.039  19.865  1.00  0.00    -0.145 S 
ATOM     18  C   UNL     1       9.381   9.688  17.912  1.00  0.00     0.012 A 
ATOM     19  C   UNL     1       8.771   9.526  19.149  1.00  0.00     0.065 A 
ENDBRANCH  12  15
BRANCH  12  20
ATOM     20  C   UNL     1       9.213  13.913  17.176  1.00  0.00     0.053 A 
ATOM     21  C   UNL     1       7.950  14.147  16.637  1.00  0.00     0.019 A 
ATOM     22  S   UNL     1      10.358  14.448  16.057  1.00  0.00    -0.145 S 
ATOM     23  C   UNL     1       7.984  14.701  15.351  1.00  0.00     0.012 A 
ATOM     24  C   UNL     1       9.268  14.930  14.874  1.00  0.00     0.065 A 
ENDBRANCH  12  20
ENDBRANCH  10  12
ENDBRANCH   9  10
ENDBRANCH   1   9
BRANCH   3  25
ATOM     25  C   UNL     1      13.941   8.757  19.982  1.00  0.00     0.267 C 
BRANCH  25  26
ATOM     26  C   UNL     1      12.651   8.131  19.403  1.00  0.00     0.103 C 
BRANCH  26  27
ATOM     27  C   UNL     1      12.926   7.492  18.037  1.00  0.00     0.235 C 
BRANCH  27  28
ATOM     28  O   UNL     1      13.684   8.377  17.210  1.00  0.00    -0.493 OA
BRANCH  28  29
ATOM     29  C   UNL     1      13.151   9.369  16.372  1.00  0.00     0.119 A 
ATOM     30  C   UNL     1      12.167   9.100  15.398  1.00  0.00     0.046 A 
ATOM     31  C   UNL     1      13.630  10.679  16.513  1.00  0.00     0.046 A 
ATOM     32  C   UNL     1      11.675  10.131  14.592  1.00  0.00     0.004 A 
ATOM     33  C   UNL     1      13.135  11.707  15.704  1.00  0.00     0.004 A 
ATOM     34  C   UNL     1      12.157  11.433  14.745  1.00  0.00     0.000 A 
ENDBRANCH  28  29
ENDBRANCH  27  28
ENDBRANCH  26  27
ENDBRANCH  25  26
ENDBRANCH   3  25
TORSDOF 11
ENDMDL
MODEL 10
REMARK VINA RESULT:    -7.356      2.029      3.683
REMARK INTER + INTRA:         -14.262
REMARK INTER:                 -11.728
REMARK INTRA:                  -2.534
REMARK UNBOUND:                -2.391
REMARK SMILES O=C(O[C@H]1C[N+]2(CCCOc3ccccc3)CCC1CC2)C(O)(c1cccs1)c1cccs1
REMARK SMILES IDX 4 1 5 2 6 3 17 4 18 5 19 6 20 7 21 8 3 9 2 10 1 11 22 12
REMARK SMILES IDX 23 13 24 15 25 16 28 17 26 18 27 19 29 20 30 21 33 22 31 23
REMARK SMILES IDX 32 24 7 25 8 26 9 27 10 28 11 29 12 30 16 31 13 32 15 33
REMARK SMILES IDX 14 34
REMARK H PARENT 23 14
REMARK Flexibility Score: inf
ROOT
ATOM      1  C   UNL     1      10.999  11.490  19.284  1.00  0.00     0.235 C 
ATOM      2  C   UNL     1      10.346  12.882  19.056  1.00  0.00     0.310 C 
ATOM      3  N   UNL     1       8.939  12.765  18.556  1.00  0.00    -0.320 N 
ATOM      4  C   UNL     1       8.963  12.031  17.255  1.00  0.00     0.264 C 
ATOM      5  C   UNL     1       9.582  10.618  17.417  1.00  0.00     0.069 C 
ATOM      6  C   UNL     1       9.992  10.400  18.885  1.00  0.00     0.047 C 
ATOM      7  C   UNL     1       8.744  10.568  19.767  1.00  0.00     0.069 C 
ATOM      8  C   UNL     1       8.141  11.981  19.548  1.00  0.00     0.264 C 
ENDROOT
BRANCH   1   9
ATOM      9  O   UNL     1      12.194  11.350  18.513  1.00  0.00    -0.453 OA
BRANCH   9  10
ATOM     10  C   UNL     1      13.438  11.037  19.071  1.00  0.00     0.349 C 
ATOM     11  O   UNL     1      14.050  11.891  19.774  1.00  0.00    -0.248 OA
BRANCH  10  12
ATOM     12  C   UNL     1      14.003   9.643  18.881  1.00  0.00     0.231 C 
BRANCH  12  13
ATOM     13  O   UNL     1      15.363   9.743  18.523  1.00  0.00    -0.369 OA
ATOM     14  H   UNL     1      15.784  10.450  19.080  1.00  0.00     0.213 HD
ENDBRANCH  12  13
BRANCH  12  15
ATOM     15  C   UNL     1      13.244   8.909  17.791  1.00  0.00     0.053 A 
ATOM     16  C   UNL     1      13.264   9.188  16.425  1.00  0.00     0.019 A 
ATOM     17  S   UNL     1      12.088   7.713  18.058  1.00  0.00    -0.145 S 
ATOM     18  C   UNL     1      12.377   8.401  15.682  1.00  0.00     0.012 A 
ATOM     19  C   UNL     1      11.638   7.513  16.452  1.00  0.00     0.065 A 
ENDBRANCH  12  15
BRANCH  12  20
ATOM     20  C   UNL     1      13.916   8.859  20.174  1.00  0.00     0.053 A 
ATOM     21  C   UNL     1      14.597   7.676  20.452  1.00  0.00     0.019 A 
ATOM     22  S   UNL     1      13.138   9.349  21.590  1.00  0.00    -0.145 S 
ATOM     23  C   UNL     1      14.420   7.221  21.764  1.00  0.00     0.012 A 
ATOM     24  C   UNL     1      13.619   8.049  22.539  1.00  0.00     0.065 A 
ENDBRANCH  12  20
ENDBRANCH  10  12
ENDBRANCH   9  10
ENDBRANCH   1   9
BRANCH   3  25
ATOM     25  C   UNL     1       8.404  14.154  18.387  1.00  0.00     0.267 C 
BRANCH  25  26
ATOM     26  C   UNL     1       8.332  14.672  16.932  1.00  0.00     0.103 C 
BRANCH  26  27
ATOM     27  C   UNL     1       9.443  15.694  16.665  1.00  0.00     0.235 C 
BRANCH  27  28
ATOM     28  O   UNL     1      10.072  15.436  15.408  1.00  0.00    -0.493 OA
BRANCH  28  29
ATOM     29  C   UNL     1      10.785  14.273  15.075  1.00  0.00     0.119 A 
ATOM     30  C   UNL     1      11.944  13.862  15.766  1.00  0.00     0.046 A 
ATOM     31  C   UNL     1      10.320  13.498  14.004  1.00  0.00     0.046 A 
ATOM     32  C   UNL     1      12.612  12.693  15.386  1.00  0.00     0.004 A 
ATOM     33  C   UNL     1      10.990  12.329  13.629  1.00  0.00     0.004 A 
ATOM     34  C   UNL     1      12.135  11.927  14.320  1.00  0.00     0.000 A 
ENDBRANCH  28  29
ENDBRANCH  27  28
ENDBRANCH  26  27
ENDBRANCH  25  26
ENDBRANCH   3  25
TORSDOF 11
ENDMDL
MODEL 11
REMARK VINA RESULT:    -7.351      2.617      5.968
REMARK INTER + INTRA:         -14.253
REMARK INTER:                 -12.389
REMARK INTRA:                  -1.864
REMARK UNBOUND:                -2.391
REMARK SMILES O=C(O[C@H]1C[N+]2(CCCOc3ccccc3)CCC1CC2)C(O)(c1cccs1)c1cccs1
REMARK SMILES IDX 4 1 5 2 6 3 17 4 18 5 19 6 20 7 21 8 3 9 2 10 1 11 22 12
REMARK SMILES IDX 23 13 24 15 25 16 28 17 26 18 27 19 29 20 30 21 33 22 31 23
REMARK SMILES IDX 32 24 7 25 8 26 9 27 10 28 11 29 12 30 16 31 13 32 15 33
REMARK SMILES IDX 14 34
REMARK H PARENT 23 14
REMARK Flexibility Score: inf
ROOT
ATOM      1  C   UNL     1      12.080  12.526  12.966  1.00  0.00     0.235 C 
ATOM      2  C   UNL     1      10.852  13.478  12.949  1.00  0.00     0.310 C 
ATOM      3  N   UNL     1      11.102  14.701  12.121  1.00  0.00    -0.320 N 
ATOM      4  C   UNL     1      12.266  15.434  12.707  1.00  0.00     0.264 C 
ATOM      5  C   UNL     1      13.537  14.546  12.731  1.00  0.00     0.069 C 
ATOM      6  C   UNL     1      13.210  13.162  12.140  1.00  0.00     0.047 C 
ATOM      7  C   UNL     1      12.691  13.357  10.707  1.00  0.00     0.069 C 
ATOM      8  C   UNL     1      11.442  14.276  10.728  1.00  0.00     0.264 C 
ENDROOT
BRANCH   1   9
ATOM      9  O   UNL     1      12.531  12.292  14.301  1.00  0.00    -0.453 OA
BRANCH   9  10
ATOM     10  C   UNL     1      11.847  11.480  15.213  1.00  0.00     0.349 C 
ATOM     11  O   UNL     1      11.377  10.367  14.842  1.00  0.00    -0.248 OA
BRANCH  10  12
ATOM     12  C   UNL     1      11.743  11.920  16.660  1.00  0.00     0.231 C 
BRANCH  12  13
ATOM     13  O   UNL     1      11.391  13.285  16.701  1.00  0.00    -0.369 OA
ATOM     14  H   UNL     1      11.671  13.708  15.846  1.00  0.00     0.213 HD
ENDBRANCH  12  13
BRANCH  12  15
ATOM     15  C   UNL     1      13.067  11.717  17.371  1.00  0.00     0.053 A 
ATOM     16  C   UNL     1      14.130  10.918  16.950  1.00  0.00     0.019 A 
ATOM     17  S   UNL     1      13.435  12.296  18.911  1.00  0.00    -0.145 S 
ATOM     18  C   UNL     1      15.178  10.851  17.874  1.00  0.00     0.012 A 
ATOM     19  C   UNL     1      14.948  11.576  19.036  1.00  0.00     0.065 A 
ENDBRANCH  12  15
BRANCH  12  20
ATOM     20  C   UNL     1      10.661  11.135  17.372  1.00  0.00     0.053 A 
ATOM     21  C   UNL     1       9.304  11.452  17.383  1.00  0.00     0.019 A 
ATOM     22  S   UNL     1      10.846   9.636  18.126  1.00  0.00    -0.145 S 
ATOM     23  C   UNL     1       8.511  10.495  18.028  1.00  0.00     0.012 A 
ATOM     24  C   UNL     1       9.227   9.407  18.509  1.00  0.00     0.065 A 
ENDBRANCH  12  20
ENDBRANCH  10  12
ENDBRANCH   9  10
ENDBRANCH   1   9
BRANCH   3  25
ATOM     25  C   UNL     1       9.858  15.534  12.160  1.00  0.00     0.267 C 
BRANCH  25  26
ATOM     26  C   UNL     1       8.550  14.803  11.778  1.00  0.00     0.103 C 
BRANCH  26  27
ATOM     27  C   UNL     1       7.338  15.499  12.407  1.00  0.00     0.235 C 
BRANCH  27  28
ATOM     28  O   UNL     1       6.807  14.715  13.477  1.00  0.00    -0.493 OA
BRANCH  28  29
ATOM     29  C   UNL     1       6.949  14.999  14.846  1.00  0.00     0.119 A 
ATOM     30  C   UNL     1       8.010  14.492  15.625  1.00  0.00     0.046 A 
ATOM     31  C   UNL     1       5.986  15.815  15.454  1.00  0.00     0.046 A 
ATOM     32  C   UNL     1       8.097  14.810  16.985  1.00  0.00     0.004 A 
ATOM     33  C   UNL     1       6.077  16.130  16.813  1.00  0.00     0.004 A 
ATOM     34  C   UNL     1       7.133  15.628  17.578  1.00  0.00     0.000 A 
ENDBRANCH  28  29
ENDBRANCH  27  28
ENDBRANCH  26  27
ENDBRANCH  25  26
ENDBRANCH   3  25
TORSDOF 11
ENDMDL
MODEL 12
REMARK VINA RESULT:    -7.318      2.086      4.938
REMARK INTER + INTRA:         -14.200
REMARK INTER:                 -12.780
REMARK INTRA:                  -1.420
REMARK UNBOUND:                -2.391
REMARK SMILES O=C(O[C@H]1C[N+]2(CCCOc3ccccc3)CCC1CC2)C(O)(c1cccs1)c1cccs1
REMARK SMILES IDX 4 1 5 2 6 3 17 4 18 5 19 6 20 7 21 8 3 9 2 10 1 11 22 12
REMARK SMILES IDX 23 13 24 15 25 16 28 17 26 18 27 19 29 20 30 21 33 22 31 23
REMARK SMILES IDX 32 24 7 25 8 26 9 27 10 28 11 29 12 30 16 31 13 32 15 33
REMARK SMILES IDX 14 34
REMARK H PARENT 23 14
REMARK Flexibility Score: inf
ROOT
ATOM      1  C   UNL     1      15.284  11.388  17.611  1.00  0.00     0.235 C 
ATOM      2  C   UNL     1      14.162  12.409  17.272  1.00  0.00     0.310 C 
ATOM      3  N   UNL     1      14.352  13.710  17.990  1.00  0.00    -0.320 N 
ATOM      4  C   UNL     1      14.324  13.442  19.460  1.00  0.00     0.264 C 
ATOM      5  C   UNL     1      15.440  12.447  19.873  1.00  0.00     0.069 C 
ATOM      6  C   UNL     1      16.243  12.028  18.628  1.00  0.00     0.047 C 
ATOM      7  C   UNL     1      16.834  13.293  17.984  1.00  0.00     0.069 C 
ATOM      8  C   UNL     1      15.687  14.272  17.619  1.00  0.00     0.264 C 
ENDROOT
BRANCH   1   9
ATOM      9  O   UNL     1      14.738  10.185  18.154  1.00  0.00    -0.453 OA
BRANCH   9  10
ATOM     10  C   UNL     1      13.841   9.365  17.461  1.00  0.00     0.349 C 
ATOM     11  O   UNL     1      13.965   9.205  16.213  1.00  0.00    -0.248 OA
BRANCH  10  12
ATOM     12  C   UNL     1      12.771   8.621  18.234  1.00  0.00     0.231 C 
BRANCH  12  13
ATOM     13  O   UNL     1      12.631   7.325  17.695  1.00  0.00    -0.369 OA
ATOM     14  H   UNL     1      13.069   6.679  18.311  1.00  0.00     0.213 HD
ENDBRANCH  12  13
BRANCH  12  15
ATOM     15  C   UNL     1      11.445   9.353  18.142  1.00  0.00     0.053 A 
ATOM     16  C   UNL     1      10.175   8.811  18.334  1.00  0.00     0.019 A 
ATOM     17  S   UNL     1      11.255  10.942  17.613  1.00  0.00    -0.145 S 
ATOM     18  C   UNL     1       9.138   9.716  18.077  1.00  0.00     0.012 A 
ATOM     19  C   UNL     1       9.576  10.966  17.663  1.00  0.00     0.065 A 
ENDBRANCH  12  15
BRANCH  12  20
ATOM     20  C   UNL     1      13.172   8.482  19.688  1.00  0.00     0.053 A 
ATOM     21  C   UNL     1      14.053   7.532  20.199  1.00  0.00     0.019 A 
ATOM     22  S   UNL     1      12.789   9.553  20.936  1.00  0.00    -0.145 S 
ATOM     23  C   UNL     1      14.331   7.700  21.562  1.00  0.00     0.012 A 
ATOM     24  C   UNL     1      13.693   8.794  22.131  1.00  0.00     0.065 A 
ENDBRANCH  12  20
ENDBRANCH  10  12
ENDBRANCH   9  10
ENDBRANCH   1   9
BRANCH   3  25
ATOM     25  C   UNL     1      13.234  14.618  17.580  1.00  0.00     0.267 C 
BRANCH  25  26
ATOM     26  C   UNL     1      13.042  14.801  16.056  1.00  0.00     0.103 C 
BRANCH  26  27
ATOM     27  C   UNL     1      11.621  14.406  15.638  1.00  0.00     0.235 C 
BRANCH  27  28
ATOM     28  O   UNL     1      11.645  13.243  14.808  1.00  0.00    -0.493 OA
BRANCH  28  29
ATOM     29  C   UNL     1      11.877  13.234  13.423  1.00  0.00     0.119 A 
ATOM     30  C   UNL     1      13.161  13.394  12.861  1.00  0.00     0.046 A 
ATOM     31  C   UNL     1      10.777  13.064  12.571  1.00  0.00     0.046 A 
ATOM     32  C   UNL     1      13.328  13.376  11.473  1.00  0.00     0.004 A 
ATOM     33  C   UNL     1      10.949  13.046  11.184  1.00  0.00     0.004 A 
ATOM     34  C   UNL     1      12.224  13.202  10.634  1.00  0.00     0.000 A 
ENDBRANCH  28  29
ENDBRANCH  27  28
ENDBRANCH  26  27
ENDBRANCH  25  26
ENDBRANCH   3  25
TORSDOF 11
ENDMDL
MODEL 13
REMARK VINA RESULT:    -7.301      1.417      3.150
REMARK INTER + INTRA:         -14.173
REMARK INTER:                 -13.068
REMARK INTRA:                  -1.106
REMARK UNBOUND:                -2.391
REMARK SMILES O=C(O[C@H]1C[N+]2(CCCOc3ccccc3)CCC1CC2)C(O)(c1cccs1)c1cccs1
REMARK SMILES IDX 4 1 5 2 6 3 17 4 18 5 19 6 20 7 21 8 3 9 2 10 1 11 22 12
REMARK SMILES IDX 23 13 24 15 25 16 28 17 26 18 27 19 29 20 30 21 33 22 31 23
REMARK SMILES IDX 32 24 7 25 8 26 9 27 10 28 11 29 12 30 16 31 13 32 15 33
REMARK SMILES IDX 14 34
REMARK H PARENT 23 14
REMARK Flexibility Score: inf
ROOT
ATOM      1  C   UNL     1      10.639  10.710  19.344  1.00  0.00     0.235 C 
ATOM      2  C   UNL     1      10.632  12.042  18.542  1.00  0.00     0.310 C 
ATOM      3  N   UNL     1       9.250  12.428  18.110  1.00  0.00    -0.320 N 
ATOM      4  C   UNL     1       8.712  11.342  17.235  1.00  0.00     0.264 C 
ATOM      5  C   UNL     1       8.667   9.985  17.985  1.00  0.00     0.069 C 
ATOM      6  C   UNL     1       9.201  10.170  19.417  1.00  0.00     0.047 C 
ATOM      7  C   UNL     1       8.338  11.228  20.124  1.00  0.00     0.069 C 
ATOM      8  C   UNL     1       8.386  12.555  19.323  1.00  0.00     0.264 C 
ENDROOT
BRANCH   1   9
ATOM      9  O   UNL     1      11.487   9.742  18.726  1.00  0.00    -0.453 OA
BRANCH   9  10
ATOM     10  C   UNL     1      12.558  10.079  17.890  1.00  0.00     0.349 C 
ATOM     11  O   UNL     1      12.339  10.540  16.734  1.00  0.00    -0.248 OA
BRANCH  10  12
ATOM     12  C   UNL     1      13.974   9.949  18.416  1.00  0.00     0.231 C 
BRANCH  12  13
ATOM     13  O   UNL     1      14.739   9.201  17.498  1.00  0.00    -0.369 OA
ATOM     14  H   UNL     1      15.684   9.195  17.807  1.00  0.00     0.213 HD
ENDBRANCH  12  13
BRANCH  12  15
ATOM     15  C   UNL     1      13.976   9.252  19.763  1.00  0.00     0.053 A 
ATOM     16  C   UNL     1      14.146   9.848  21.013  1.00  0.00     0.019 A 
ATOM     17  S   UNL     1      13.944   7.582  19.987  1.00  0.00    -0.145 S 
ATOM     18  C   UNL     1      14.206   8.927  22.066  1.00  0.00     0.012 A 
ATOM     19  C   UNL     1      14.104   7.604  21.659  1.00  0.00     0.065 A 
ENDBRANCH  12  15
BRANCH  12  20
ATOM     20  C   UNL     1      14.612  11.316  18.553  1.00  0.00     0.053 A 
ATOM     21  C   UNL     1      15.832  11.700  18.000  1.00  0.00     0.019 A 
ATOM     22  S   UNL     1      13.899  12.688  19.229  1.00  0.00    -0.145 S 
ATOM     23  C   UNL     1      16.132  13.055  18.190  1.00  0.00     0.012 A 
ATOM     24  C   UNL     1      15.145  13.756  18.870  1.00  0.00     0.065 A 
ENDBRANCH  12  20
ENDBRANCH  10  12
ENDBRANCH   9  10
ENDBRANCH   1   9
BRANCH   3  25
ATOM     25  C   UNL     1       9.357  13.723  17.366  1.00  0.00     0.267 C 
BRANCH  25  26
ATOM     26  C   UNL     1       8.908  13.686  15.886  1.00  0.00     0.103 C 
BRANCH  26  27
ATOM     27  C   UNL     1      10.025  14.196  14.968  1.00  0.00     0.235 C 
BRANCH  27  28
ATOM     28  O   UNL     1      10.679  13.106  14.317  1.00  0.00    -0.493 OA
BRANCH  28  29
ATOM     29  C   UNL     1      11.429  13.193  13.133  1.00  0.00     0.119 A 
ATOM     30  C   UNL     1      10.856  13.046  11.853  1.00  0.00     0.046 A 
ATOM     31  C   UNL     1      12.806  13.429  13.240  1.00  0.00     0.046 A 
ATOM     32  C   UNL     1      11.656  13.142  10.709  1.00  0.00     0.004 A 
ATOM     33  C   UNL     1      13.602  13.525  12.094  1.00  0.00     0.004 A 
ATOM     34  C   UNL     1      13.026  13.382  10.829  1.00  0.00     0.000 A 
ENDBRANCH  28  29
ENDBRANCH  27  28
ENDBRANCH  26  27
ENDBRANCH  25  26
ENDBRANCH   3  25
TORSDOF 11
ENDMDL
MODEL 14
REMARK VINA RESULT:    -7.301      2.669      6.024
REMARK INTER + INTRA:         -14.173
REMARK INTER:                 -11.369
REMARK INTRA:                  -2.804
REMARK UNBOUND:                -2.391
REMARK SMILES O=C(O[C@H]1C[N+]2(CCCOc3ccccc3)CCC1CC2)C(O)(c1cccs1)c1cccs1
REMARK SMILES IDX 4 1 5 2 6 3 17 4 18 5 19 6 20 7 21 8 3 9 2 10 1 11 22 12
REMARK SMILES IDX 23 13 24 15 25 16 28 17 26 18 27 19 29 20 30 21 33 22 31 23
REMARK SMILES IDX 32 24 7 25 8 26 9 27 10 28 11 29 12 30 16 31 13 32 15 33
REMARK SMILES IDX 14 34
REMARK H PARENT 23 14
REMARK Flexibility Score: inf
ROOT
ATOM      1  C   UNL     1      12.680  12.903  19.909  1.00  0.00     0.235 C 
ATOM      2  C   UNL     1      12.419  11.436  20.351  1.00  0.00     0.310 C 
ATOM      3  N   UNL     1      13.501  10.920  21.250  1.00  0.00    -0.320 N 
ATOM      4  C   UNL     1      14.794  10.970  20.503  1.00  0.00     0.264 C 
ATOM      5  C   UNL     1      15.130  12.416  20.053  1.00  0.00     0.069 C 
ATOM      6  C   UNL     1      14.014  13.371  20.515  1.00  0.00     0.047 C 
ATOM      7  C   UNL     1      13.894  13.275  22.044  1.00  0.00     0.069 C 
ATOM      8  C   UNL     1      13.592  11.808  22.449  1.00  0.00     0.264 C 
ENDROOT
BRANCH   1   9
ATOM      9  O   UNL     1      12.732  13.011  18.486  1.00  0.00    -0.453 OA
BRANCH   9  10
ATOM     10  C   UNL     1      12.105  14.035  17.769  1.00  0.00     0.349 C 
ATOM     11  O   UNL     1      12.593  15.200  17.770  1.00  0.00    -0.248 OA
BRANCH  10  12
ATOM     12  C   UNL     1      10.879  13.711  16.937  1.00  0.00     0.231 C 
BRANCH  12  13
ATOM     13  O   UNL     1      10.008  14.820  16.949  1.00  0.00    -0.369 OA
ATOM     14  H   UNL     1       9.125  14.530  16.596  1.00  0.00     0.213 HD
ENDBRANCH  12  13
BRANCH  12  15
ATOM     15  C   UNL     1      10.163  12.498  17.501  1.00  0.00     0.053 A 
ATOM     16  C   UNL     1      10.233  11.189  17.025  1.00  0.00     0.019 A 
ATOM     17  S   UNL     1       9.000  12.544  18.719  1.00  0.00    -0.145 S 
ATOM     18  C   UNL     1       9.375  10.307  17.691  1.00  0.00     0.012 A 
ATOM     19  C   UNL     1       8.609  10.910  18.680  1.00  0.00     0.065 A 
ENDBRANCH  12  15
BRANCH  12  20
ATOM     20  C   UNL     1      11.274  13.441  15.500  1.00  0.00     0.053 A 
ATOM     21  C   UNL     1      12.465  12.848  15.084  1.00  0.00     0.019 A 
ATOM     22  S   UNL     1      10.289  13.624  14.141  1.00  0.00    -0.145 S 
ATOM     23  C   UNL     1      12.524  12.618  13.704  1.00  0.00     0.012 A 
ATOM     24  C   UNL     1      11.377  13.003  13.023  1.00  0.00     0.065 A 
ENDBRANCH  12  20
ENDBRANCH  10  12
ENDBRANCH   9  10
ENDBRANCH   1   9
BRANCH   3  25
ATOM     25  C   UNL     1      13.143   9.515  21.625  1.00  0.00     0.267 C 
BRANCH  25  26
ATOM     26  C   UNL     1      14.294   8.485  21.542  1.00  0.00     0.103 C 
BRANCH  26  27
ATOM     27  C   UNL     1      14.097   7.548  20.346  1.00  0.00     0.235 C 
BRANCH  27  28
ATOM     28  O   UNL     1      12.976   7.960  19.563  1.00  0.00    -0.493 OA
BRANCH  28  29
ATOM     29  C   UNL     1      13.022   8.362  18.218  1.00  0.00     0.119 A 
ATOM     30  C   UNL     1      13.950   9.307  17.733  1.00  0.00     0.046 A 
ATOM     31  C   UNL     1      12.097   7.798  17.328  1.00  0.00     0.046 A 
ATOM     32  C   UNL     1      13.947   9.667  16.382  1.00  0.00     0.004 A 
ATOM     33  C   UNL     1      12.097   8.162  15.978  1.00  0.00     0.004 A 
ATOM     34  C   UNL     1      13.022   9.096  15.505  1.00  0.00     0.000 A 
ENDBRANCH  28  29
ENDBRANCH  27  28
ENDBRANCH  26  27
ENDBRANCH  25  26
ENDBRANCH   3  25
TORSDOF 11
ENDMDL
MODEL 15
REMARK VINA RESULT:    -7.293      1.484      2.025
REMARK INTER + INTRA:         -14.160
REMARK INTER:                 -12.019
REMARK INTRA:                  -2.140
REMARK UNBOUND:                -2.391
REMARK SMILES O=C(O[C@H]1C[N+]2(CCCOc3ccccc3)CCC1CC2)C(O)(c1cccs1)c1cccs1
REMARK SMILES IDX 4 1 5 2 6 3 17 4 18 5 19 6 20 7 21 8 3 9 2 10 1 11 22 12
REMARK SMILES IDX 23 13 24 15 25 16 28 17 26 18 27 19 29 20 30 21 33 22 31 23
REMARK SMILES IDX 32 24 7 25 8 26 9 27 10 28 11 29 12 30 16 31 13 32 15 33
REMARK SMILES IDX 14 34
REMARK H PARENT 23 14
REMARK Flexibility Score: inf
ROOT
ATOM      1  C   UNL     1      10.763  10.192  19.825  1.00  0.00     0.235 C 
ATOM      2  C   UNL     1      10.761  11.713  19.507  1.00  0.00     0.310 C 
ATOM      3  N   UNL     1       9.486  12.147  18.850  1.00  0.00    -0.320 N 
ATOM      4  C   UNL     1       9.339  11.392  17.569  1.00  0.00     0.264 C 
ATOM      5  C   UNL     1       9.307   9.861  17.817  1.00  0.00     0.069 C 
ATOM      6  C   UNL     1       9.444   9.581  19.325  1.00  0.00     0.047 C 
ATOM      7  C   UNL     1       8.292  10.290  20.056  1.00  0.00     0.069 C 
ATOM      8  C   UNL     1       8.343  11.810  19.752  1.00  0.00     0.264 C 
ENDROOT
BRANCH   1   9
ATOM      9  O   UNL     1      11.866   9.537  19.198  1.00  0.00    -0.453 OA
BRANCH   9  10
ATOM     10  C   UNL     1      13.196   9.935  19.368  1.00  0.00     0.349 C 
ATOM     11  O   UNL     1      13.718   9.926  20.519  1.00  0.00    -0.248 OA
BRANCH  10  12
ATOM     12  C   UNL     1      14.018  10.308  18.150  1.00  0.00     0.231 C 
BRANCH  12  13
ATOM     13  O   UNL     1      15.009   9.326  17.945  1.00  0.00    -0.369 OA
ATOM     14  H   UNL     1      15.828   9.773  17.601  1.00  0.00     0.213 HD
ENDBRANCH  12  13
BRANCH  12  15
ATOM     15  C   UNL     1      14.677  11.660  18.350  1.00  0.00     0.053 A 
ATOM     16  C   UNL     1      15.957  12.035  17.940  1.00  0.00     0.019 A 
ATOM     17  S   UNL     1      14.039  12.919  19.269  1.00  0.00    -0.145 S 
ATOM     18  C   UNL     1      16.324  13.318  18.363  1.00  0.00     0.012 A 
ATOM     19  C   UNL     1      15.352  13.957  19.122  1.00  0.00     0.065 A 
ENDBRANCH  12  15
BRANCH  12  20
ATOM     20  C   UNL     1      13.140  10.352  16.916  1.00  0.00     0.053 A 
ATOM     21  C   UNL     1      12.794  11.501  16.208  1.00  0.00     0.019 A 
ATOM     22  S   UNL     1      12.570   9.021  16.048  1.00  0.00    -0.145 S 
ATOM     23  C   UNL     1      12.062  11.241  15.043  1.00  0.00     0.012 A 
ATOM     24  C   UNL     1      11.844   9.891  14.808  1.00  0.00     0.065 A 
ENDBRANCH  12  20
ENDBRANCH  10  12
ENDBRANCH   9  10
ENDBRANCH   1   9
BRANCH   3  25
ATOM     25  C   UNL     1       9.585  13.621  18.605  1.00  0.00     0.267 C 
BRANCH  25  26
ATOM     26  C   UNL     1       8.283  14.427  18.826  1.00  0.00     0.103 C 
BRANCH  26  27
ATOM     27  C   UNL     1       7.895  15.189  17.554  1.00  0.00     0.235 C 
BRANCH  27  28
ATOM     28  O   UNL     1       7.674  14.283  16.472  1.00  0.00    -0.493 OA
BRANCH  28  29
ATOM     29  C   UNL     1       8.214  14.405  15.181  1.00  0.00     0.119 A 
ATOM     30  C   UNL     1       9.506  13.949  14.846  1.00  0.00     0.046 A 
ATOM     31  C   UNL     1       7.429  15.014  14.192  1.00  0.00     0.046 A 
ATOM     32  C   UNL     1       9.989  14.100  13.542  1.00  0.00     0.004 A 
ATOM     33  C   UNL     1       7.916  15.163  12.890  1.00  0.00     0.004 A 
ATOM     34  C   UNL     1       9.195  14.705  12.565  1.00  0.00     0.000 A 
ENDBRANCH  28  29
ENDBRANCH  27  28
ENDBRANCH  26  27
ENDBRANCH  25  26
ENDBRANCH   3  25
TORSDOF 11
ENDMDL
