MODEL 1
REMARK VINA RESULT:   -10.165      0.000      0.000
REMARK INTER + INTRA:         -14.625
REMARK INTER:                 -13.731
REMARK INTRA:                  -0.894
REMARK UNBOUND:                -0.894
REMARK SMILES CNC(=O)c1cc(Oc2ccc(NC(=O)Nc3ccc(Cl)c(C(F)(F)F)c3)c(F)c2)ccn1
REMARK SMILES IDX 9 1 30 2 28 3 29 4 12 5 11 6 10 7 8 8 7 9 5 10 6 11 33 12
REMARK SMILES IDX 32 13 31 14 3 15 1 16 2 17 4 19 13 20 14 21 15 23 16 24
REMARK SMILES IDX 17 26 18 27 27 28 19 29 22 30 20 31 21 32 23 33 24 34 25 35
REMARK SMILES IDX 26 36
REMARK H PARENT 2 18 13 22 16 25
REMARK Flexibility Score: inf
ROOT
ATOM      1  C   UNL     1      16.818  34.427  16.109  1.00  0.00     0.130 A 
ATOM      2  C   UNL     1      17.970  34.490  15.307  1.00  0.00     0.088 A 
ATOM      3  C   UNL     1      17.866  34.438  13.914  1.00  0.00     0.150 A 
ATOM      4  F   UNL     1      18.994  34.503  13.161  1.00  0.00    -0.205 F 
ATOM      5  C   UNL     1      16.609  34.311  13.301  1.00  0.00     0.079 A 
ATOM      6  C   UNL     1      15.456  34.276  14.105  1.00  0.00     0.033 A 
ATOM      7  C   UNL     1      15.563  34.339  15.498  1.00  0.00     0.049 A 
ENDROOT
BRANCH   1   8
ATOM      8  O   UNL     1      16.887  34.502  17.508  1.00  0.00    -0.457 OA
BRANCH   8   9
ATOM      9  C   UNL     1      17.604  35.471  18.227  1.00  0.00     0.131 A 
ATOM     10  C   UNL     1      19.663  36.369  19.151  1.00  0.00     0.131 A 
ATOM     11  C   UNL     1      18.994  35.386  18.405  1.00  0.00     0.081 A 
ATOM     12  N   UNL     1      18.948  37.389  19.702  1.00  0.00    -0.251 NA
ATOM     13  C   UNL     1      17.600  37.484  19.558  1.00  0.00     0.116 A 
ATOM     14  C   UNL     1      16.905  36.525  18.819  1.00  0.00     0.067 A 
BRANCH  10  15
ATOM     15  C   UNL     1      21.128  36.314  19.343  1.00  0.00     0.269 C 
ATOM     16  C   UNL     1      23.238  34.967  19.687  1.00  0.00     0.143 C 
ATOM     17  N   UNL     1      21.803  35.050  19.437  1.00  0.00    -0.354 N 
ATOM     18  H   UNL     1      21.273  34.161  19.293  1.00  0.00     0.163 HD
ATOM     19  O   UNL     1      21.790  37.384  19.425  1.00  0.00    -0.268 OA
ENDBRANCH  10  15
ENDBRANCH   8   9
ENDBRANCH   1   8
BRANCH   5  20
ATOM     20  N   UNL     1      16.514  34.292  11.868  1.00  0.00    -0.305 N 
ATOM     21  C   UNL     1      16.797  33.139  11.062  1.00  0.00     0.323 C 
ATOM     22  H   UNL     1      16.292  35.188  11.376  1.00  0.00     0.171 HD
ATOM     23  O   UNL     1      17.368  32.137  11.571  1.00  0.00    -0.248 OA
ATOM     24  N   UNL     1      16.495  33.167   9.659  1.00  0.00    -0.308 N 
ATOM     25  H   UNL     1      16.228  34.089   9.239  1.00  0.00     0.171 HD
BRANCH  24  26
ATOM     26  C   UNL     1      16.639  32.045   8.770  1.00  0.00     0.043 A 
ATOM     27  C   UNL     1      17.866  31.839   8.127  1.00  0.00     0.028 A 
ATOM     28  C   UNL     1      15.561  31.187   8.484  1.00  0.00     0.040 A 
ATOM     29  C   UNL     1      18.028  30.780   7.235  1.00  0.00     0.023 A 
ATOM     30  C   UNL     1      15.717  30.102   7.597  1.00  0.00     0.076 A 
ATOM     31  C   UNL     1      16.968  29.908   6.968  1.00  0.00     0.053 A 
ATOM     32  Cl  UNL     1      17.247  28.598   5.822  1.00  0.00    -0.084 Cl
BRANCH  30  33
ATOM     33  C   UNL     1      14.559  29.169   7.311  1.00  0.00     0.417 C 
ATOM     34  F   UNL     1      13.415  29.646   7.926  1.00  0.00    -0.166 F 
ATOM     35  F   UNL     1      14.306  29.062   5.954  1.00  0.00    -0.166 F 
ATOM     36  F   UNL     1      14.845  27.906   7.803  1.00  0.00    -0.166 F 
ENDBRANCH  30  33
ENDBRANCH  24  26
ENDBRANCH   5  20
TORSDOF 6
ENDMDL
MODEL 2
REMARK VINA RESULT:    -9.988      1.121      2.220
REMARK INTER + INTRA:         -14.385
REMARK INTER:                 -13.748
REMARK INTRA:                  -0.637
REMARK UNBOUND:                -0.894
REMARK SMILES CNC(=O)c1cc(Oc2ccc(NC(=O)Nc3ccc(Cl)c(C(F)(F)F)c3)c(F)c2)ccn1
REMARK SMILES IDX 9 1 30 2 28 3 29 4 12 5 11 6 10 7 8 8 7 9 5 10 6 11 33 12
REMARK SMILES IDX 32 13 31 14 3 15 1 16 2 17 4 19 13 20 14 21 15 23 16 24
REMARK SMILES IDX 17 26 18 27 27 28 19 29 22 30 20 31 21 32 23 33 24 34 25 35
REMARK SMILES IDX 26 36
REMARK H PARENT 2 18 13 22 16 25
REMARK Flexibility Score: inf
ROOT
ATOM      1  C   UNL     1      16.540  34.585  16.016  1.00  0.00     0.130 A 
ATOM      2  C   UNL     1      17.743  34.660  15.293  1.00  0.00     0.088 A 
ATOM      3  C   UNL     1      17.735  34.576  13.898  1.00  0.00     0.150 A 
ATOM      4  F   UNL     1      18.910  34.654  13.221  1.00  0.00    -0.205 F 
ATOM      5  C   UNL     1      16.526  34.405  13.204  1.00  0.00     0.079 A 
ATOM      6  C   UNL     1      15.322  34.357  13.929  1.00  0.00     0.033 A 
ATOM      7  C   UNL     1      15.332  34.452  15.324  1.00  0.00     0.049 A 
ENDROOT
BRANCH   1   8
ATOM      8  O   UNL     1      16.512  34.691  17.415  1.00  0.00    -0.457 OA
BRANCH   8   9
ATOM      9  C   UNL     1      17.574  35.153  18.207  1.00  0.00     0.131 A 
ATOM     10  C   UNL     1      18.575  36.765  19.724  1.00  0.00     0.131 A 
ATOM     11  C   UNL     1      17.477  36.332  18.964  1.00  0.00     0.081 A 
ATOM     12  N   UNL     1      19.726  36.037  19.706  1.00  0.00    -0.251 NA
ATOM     13  C   UNL     1      19.850  34.903  18.968  1.00  0.00     0.116 A 
ATOM     14  C   UNL     1      18.777  34.443  18.204  1.00  0.00     0.067 A 
BRANCH  10  15
ATOM     15  C   UNL     1      18.497  37.993  20.544  1.00  0.00     0.269 C 
ATOM     16  C   UNL     1      17.666  40.358  20.863  1.00  0.00     0.143 C 
ATOM     17  N   UNL     1      17.711  39.113  20.105  1.00  0.00    -0.354 N 
ATOM     18  H   UNL     1      17.127  39.036  19.242  1.00  0.00     0.163 HD
ATOM     19  O   UNL     1      19.126  38.060  21.635  1.00  0.00    -0.268 OA
ENDBRANCH  10  15
ENDBRANCH   8   9
ENDBRANCH   1   8
BRANCH   5  20
ATOM     20  N   UNL     1      16.530  34.354  11.768  1.00  0.00    -0.305 N 
ATOM     21  C   UNL     1      16.761  33.157  11.011  1.00  0.00     0.323 C 
ATOM     22  H   UNL     1      16.426  35.251  11.243  1.00  0.00     0.171 HD
ATOM     23  O   UNL     1      17.200  32.123  11.581  1.00  0.00    -0.248 OA
ATOM     24  N   UNL     1      16.561  33.173   9.589  1.00  0.00    -0.308 N 
ATOM     25  H   UNL     1      16.410  34.102   9.131  1.00  0.00     0.171 HD
BRANCH  24  26
ATOM     26  C   UNL     1      16.662  32.017   8.738  1.00  0.00     0.043 A 
ATOM     27  C   UNL     1      17.882  31.742   8.107  1.00  0.00     0.028 A 
ATOM     28  C   UNL     1      15.552  31.193   8.476  1.00  0.00     0.040 A 
ATOM     29  C   UNL     1      18.004  30.648   7.251  1.00  0.00     0.023 A 
ATOM     30  C   UNL     1      15.667  30.074   7.626  1.00  0.00     0.076 A 
ATOM     31  C   UNL     1      16.910  29.811   7.007  1.00  0.00     0.053 A 
ATOM     32  Cl  UNL     1      17.140  28.454   5.907  1.00  0.00    -0.084 Cl
BRANCH  30  33
ATOM     33  C   UNL     1      14.473  29.179   7.365  1.00  0.00     0.417 C 
ATOM     34  F   UNL     1      14.228  29.115   6.005  1.00  0.00    -0.166 F 
ATOM     35  F   UNL     1      14.684  27.891   7.826  1.00  0.00    -0.166 F 
ATOM     36  F   UNL     1      13.356  29.694   8.002  1.00  0.00    -0.166 F 
ENDBRANCH  30  33
ENDBRANCH  24  26
ENDBRANCH   5  20
TORSDOF 6
ENDMDL
MODEL 3
REMARK VINA RESULT:    -9.500      8.110      9.983
REMARK INTER + INTRA:         -13.726
REMARK INTER:                 -12.591
REMARK INTRA:                  -1.135
REMARK UNBOUND:                -0.894
REMARK SMILES CNC(=O)c1cc(Oc2ccc(NC(=O)Nc3ccc(Cl)c(C(F)(F)F)c3)c(F)c2)ccn1
REMARK SMILES IDX 9 1 30 2 28 3 29 4 12 5 11 6 10 7 8 8 7 9 5 10 6 11 33 12
REMARK SMILES IDX 32 13 31 14 3 15 1 16 2 17 4 19 13 20 14 21 15 23 16 24
REMARK SMILES IDX 17 26 18 27 27 28 19 29 22 30 20 31 21 32 23 33 24 34 25 35
REMARK SMILES IDX 26 36
REMARK H PARENT 2 18 13 22 16 25
REMARK Flexibility Score: inf
ROOT
ATOM      1  C   UNL     1      27.357  32.742  12.128  1.00  0.00     0.130 A 
ATOM      2  C   UNL     1      26.734  33.425  13.186  1.00  0.00     0.088 A 
ATOM      3  C   UNL     1      25.394  33.174  13.498  1.00  0.00     0.150 A 
ATOM      4  F   UNL     1      24.815  33.845  14.527  1.00  0.00    -0.205 F 
ATOM      5  C   UNL     1      24.654  32.244  12.750  1.00  0.00     0.079 A 
ATOM      6  C   UNL     1      25.288  31.543  11.709  1.00  0.00     0.033 A 
ATOM      7  C   UNL     1      26.631  31.789  11.407  1.00  0.00     0.049 A 
ENDROOT
BRANCH   1   8
ATOM      8  O   UNL     1      28.706  32.953  11.807  1.00  0.00    -0.457 OA
BRANCH   8   9
ATOM      9  C   UNL     1      29.738  32.026  12.021  1.00  0.00     0.131 A 
ATOM     10  C   UNL     1      31.049  30.567  13.454  1.00  0.00     0.131 A 
ATOM     11  C   UNL     1      29.990  31.474  13.287  1.00  0.00     0.081 A 
ATOM     12  N   UNL     1      31.825  30.244  12.382  1.00  0.00    -0.251 NA
ATOM     13  C   UNL     1      31.612  30.778  11.150  1.00  0.00     0.116 A 
ATOM     14  C   UNL     1      30.566  31.680  10.949  1.00  0.00     0.067 A 
BRANCH  10  15
ATOM     15  C   UNL     1      31.328  29.957  14.772  1.00  0.00     0.269 C 
ATOM     16  C   UNL     1      32.195  30.166  17.135  1.00  0.00     0.143 C 
ATOM     17  N   UNL     1      31.852  30.754  15.846  1.00  0.00    -0.354 N 
ATOM     18  H   UNL     1      31.965  31.786  15.726  1.00  0.00     0.163 HD
ATOM     19  O   UNL     1      31.107  28.729  14.954  1.00  0.00    -0.268 OA
ENDBRANCH  10  15
ENDBRANCH   8   9
ENDBRANCH   1   8
BRANCH   5  20
ATOM     20  N   UNL     1      23.288  31.973  13.102  1.00  0.00    -0.305 N 
ATOM     21  C   UNL     1      22.166  32.691  12.569  1.00  0.00     0.323 C 
ATOM     22  H   UNL     1      23.102  31.256  13.840  1.00  0.00     0.171 HD
ATOM     23  O   UNL     1      22.347  33.760  11.927  1.00  0.00    -0.248 OA
ATOM     24  N   UNL     1      20.836  32.224  12.841  1.00  0.00    -0.308 N 
ATOM     25  H   UNL     1      20.724  31.466  13.555  1.00  0.00     0.171 HD
BRANCH  24  26
ATOM     26  C   UNL     1      19.639  32.796  12.284  1.00  0.00     0.043 A 
ATOM     27  C   UNL     1      18.940  33.761  13.019  1.00  0.00     0.028 A 
ATOM     28  C   UNL     1      19.122  32.368  11.047  1.00  0.00     0.040 A 
ATOM     29  C   UNL     1      17.760  34.313  12.522  1.00  0.00     0.023 A 
ATOM     30  C   UNL     1      17.939  32.930  10.525  1.00  0.00     0.076 A 
ATOM     31  C   UNL     1      17.256  33.909  11.281  1.00  0.00     0.053 A 
ATOM     32  Cl  UNL     1      15.755  34.645  10.723  1.00  0.00    -0.084 Cl
BRANCH  30  33
ATOM     33  C   UNL     1      17.400  32.480   9.183  1.00  0.00     0.417 C 
ATOM     34  F   UNL     1      18.169  31.436   8.699  1.00  0.00    -0.166 F 
ATOM     35  F   UNL     1      16.090  32.043   9.273  1.00  0.00    -0.166 F 
ATOM     36  F   UNL     1      17.449  33.532   8.284  1.00  0.00    -0.166 F 
ENDBRANCH  30  33
ENDBRANCH  24  26
ENDBRANCH   5  20
TORSDOF 6
ENDMDL
MODEL 4
REMARK VINA RESULT:    -9.396      8.058     10.369
REMARK INTER + INTRA:         -13.586
REMARK INTER:                 -12.856
REMARK INTRA:                  -0.729
REMARK UNBOUND:                -0.894
REMARK SMILES CNC(=O)c1cc(Oc2ccc(NC(=O)Nc3ccc(Cl)c(C(F)(F)F)c3)c(F)c2)ccn1
REMARK SMILES IDX 9 1 30 2 28 3 29 4 12 5 11 6 10 7 8 8 7 9 5 10 6 11 33 12
REMARK SMILES IDX 32 13 31 14 3 15 1 16 2 17 4 19 13 20 14 21 15 23 16 24
REMARK SMILES IDX 17 26 18 27 27 28 19 29 22 30 20 31 21 32 23 33 24 34 25 35
REMARK SMILES IDX 26 36
REMARK H PARENT 2 18 13 22 16 25
REMARK Flexibility Score: inf
ROOT
ATOM      1  C   UNL     1      27.326  32.558  11.953  1.00  0.00     0.130 A 
ATOM      2  C   UNL     1      26.838  33.289  13.050  1.00  0.00     0.088 A 
ATOM      3  C   UNL     1      25.527  33.102  13.497  1.00  0.00     0.150 A 
ATOM      4  F   UNL     1      25.079  33.818  14.561  1.00  0.00    -0.205 F 
ATOM      5  C   UNL     1      24.679  32.190  12.848  1.00  0.00     0.079 A 
ATOM      6  C   UNL     1      25.179  31.441  11.767  1.00  0.00     0.033 A 
ATOM      7  C   UNL     1      26.494  31.623  11.329  1.00  0.00     0.049 A 
ENDROOT
BRANCH   1   8
ATOM      8  O   UNL     1      28.644  32.705  11.496  1.00  0.00    -0.457 OA
BRANCH   8   9
ATOM      9  C   UNL     1      29.709  31.854  11.828  1.00  0.00     0.131 A 
ATOM     10  C   UNL     1      30.975  30.520  13.415  1.00  0.00     0.131 A 
ATOM     11  C   UNL     1      29.880  31.350  13.128  1.00  0.00     0.081 A 
ATOM     12  N   UNL     1      31.864  30.225  12.427  1.00  0.00    -0.251 NA
ATOM     13  C   UNL     1      31.731  30.714  11.166  1.00  0.00     0.116 A 
ATOM     14  C   UNL     1      30.652  31.539  10.846  1.00  0.00     0.067 A 
BRANCH  10  15
ATOM     15  C   UNL     1      31.171  29.961  14.770  1.00  0.00     0.269 C 
ATOM     16  C   UNL     1      31.674  30.303  17.222  1.00  0.00     0.143 C 
ATOM     17  N   UNL     1      31.415  30.830  15.888  1.00  0.00    -0.354 N 
ATOM     18  H   UNL     1      31.378  31.867  15.763  1.00  0.00     0.163 HD
ATOM     19  O   UNL     1      31.126  28.713  14.946  1.00  0.00    -0.268 OA
ENDBRANCH  10  15
ENDBRANCH   8   9
ENDBRANCH   1   8
BRANCH   5  20
ATOM     20  N   UNL     1      23.344  31.984  13.339  1.00  0.00    -0.305 N 
ATOM     21  C   UNL     1      22.197  32.700  12.861  1.00  0.00     0.323 C 
ATOM     22  H   UNL     1      23.210  31.323  14.138  1.00  0.00     0.171 HD
ATOM     23  O   UNL     1      22.344  33.719  12.135  1.00  0.00    -0.248 OA
ATOM     24  N   UNL     1      20.886  32.292  13.282  1.00  0.00    -0.308 N 
ATOM     25  H   UNL     1      20.822  31.587  14.053  1.00  0.00     0.171 HD
BRANCH  24  26
ATOM     26  C   UNL     1      19.658  32.864  12.797  1.00  0.00     0.043 A 
ATOM     27  C   UNL     1      19.510  33.092  11.423  1.00  0.00     0.028 A 
ATOM     28  C   UNL     1      18.629  33.255  13.673  1.00  0.00     0.040 A 
ATOM     29  C   UNL     1      18.345  33.673  10.923  1.00  0.00     0.023 A 
ATOM     30  C   UNL     1      17.439  33.828  13.179  1.00  0.00     0.076 A 
ATOM     31  C   UNL     1      17.308  34.040  11.787  1.00  0.00     0.053 A 
ATOM     32  Cl  UNL     1      15.871  34.778  11.083  1.00  0.00    -0.084 Cl
BRANCH  30  33
ATOM     33  C   UNL     1      16.326  34.227  14.125  1.00  0.00     0.417 C 
ATOM     34  F   UNL     1      16.256  35.607  14.206  1.00  0.00    -0.166 F 
ATOM     35  F   UNL     1      15.095  33.758  13.702  1.00  0.00    -0.166 F 
ATOM     36  F   UNL     1      16.579  33.713  15.386  1.00  0.00    -0.166 F 
ENDBRANCH  30  33
ENDBRANCH  24  26
ENDBRANCH   5  20
TORSDOF 6
ENDMDL
MODEL 5
REMARK VINA RESULT:    -9.394      6.260      8.524
REMARK INTER + INTRA:         -13.583
REMARK INTER:                 -13.367
REMARK INTRA:                  -0.216
REMARK UNBOUND:                -0.894
REMARK SMILES CNC(=O)c1cc(Oc2ccc(NC(=O)Nc3ccc(Cl)c(C(F)(F)F)c3)c(F)c2)ccn1
REMARK SMILES IDX 9 1 30 2 28 3 29 4 12 5 11 6 10 7 8 8 7 9 5 10 6 11 33 12
REMARK SMILES IDX 32 13 31 14 3 15 1 16 2 17 4 19 13 20 14 21 15 23 16 24
REMARK SMILES IDX 17 26 18 27 27 28 19 29 22 30 20 31 21 32 23 33 24 34 25 35
REMARK SMILES IDX 26 36
REMARK H PARENT 2 18 13 22 16 25
REMARK Flexibility Score: inf
ROOT
ATOM      1  C   UNL     1      17.522  33.765  13.140  1.00  0.00     0.130 A 
ATOM      2  C   UNL     1      18.110  32.800  13.975  1.00  0.00     0.088 A 
ATOM      3  C   UNL     1      19.304  32.174  13.601  1.00  0.00     0.150 A 
ATOM      4  F   UNL     1      19.854  31.246  14.427  1.00  0.00    -0.205 F 
ATOM      5  C   UNL     1      19.922  32.496  12.382  1.00  0.00     0.079 A 
ATOM      6  C   UNL     1      19.345  33.481  11.561  1.00  0.00     0.033 A 
ATOM      7  C   UNL     1      18.157  34.113  11.943  1.00  0.00     0.049 A 
ENDROOT
BRANCH   1   8
ATOM      8  O   UNL     1      16.340  34.428  13.498  1.00  0.00    -0.457 OA
BRANCH   8   9
ATOM      9  C   UNL     1      15.903  34.639  14.815  1.00  0.00     0.131 A 
ATOM     10  C   UNL     1      16.311  35.148  17.155  1.00  0.00     0.131 A 
ATOM     11  C   UNL     1      16.794  34.970  15.849  1.00  0.00     0.081 A 
ATOM     12  N   UNL     1      14.981  34.986  17.401  1.00  0.00    -0.251 NA
ATOM     13  C   UNL     1      14.102  34.648  16.421  1.00  0.00     0.116 A 
ATOM     14  C   UNL     1      14.549  34.467  15.112  1.00  0.00     0.067 A 
BRANCH  10  15
ATOM     15  C   UNL     1      17.222  35.513  18.261  1.00  0.00     0.269 C 
ATOM     16  C   UNL     1      18.295  37.279  19.715  1.00  0.00     0.143 C 
ATOM     17  N   UNL     1      17.358  36.884  18.670  1.00  0.00    -0.354 N 
ATOM     18  H   UNL     1      16.755  37.621  18.240  1.00  0.00     0.163 HD
ATOM     19  O   UNL     1      17.886  34.616  18.848  1.00  0.00    -0.268 OA
ENDBRANCH  10  15
ENDBRANCH   8   9
ENDBRANCH   1   8
BRANCH   5  20
ATOM     20  N   UNL     1      21.164  31.869  12.026  1.00  0.00    -0.305 N 
ATOM     21  C   UNL     1      22.453  32.372  12.407  1.00  0.00     0.323 C 
ATOM     22  H   UNL     1      21.133  31.035  11.395  1.00  0.00     0.171 HD
ATOM     23  O   UNL     1      22.561  33.530  12.891  1.00  0.00    -0.248 OA
ATOM     24  N   UNL     1      23.622  31.575  12.162  1.00  0.00    -0.308 N 
ATOM     25  H   UNL     1      23.511  30.723  11.564  1.00  0.00     0.171 HD
BRANCH  24  26
ATOM     26  C   UNL     1      24.952  31.924  12.586  1.00  0.00     0.043 A 
ATOM     27  C   UNL     1      25.116  32.700  13.741  1.00  0.00     0.028 A 
ATOM     28  C   UNL     1      26.085  31.558  11.839  1.00  0.00     0.040 A 
ATOM     29  C   UNL     1      26.389  33.081  14.162  1.00  0.00     0.023 A 
ATOM     30  C   UNL     1      27.380  31.923  12.263  1.00  0.00     0.076 A 
ATOM     31  C   UNL     1      27.521  32.698  13.436  1.00  0.00     0.053 A 
ATOM     32  Cl  UNL     1      29.096  33.226  14.026  1.00  0.00    -0.084 Cl
BRANCH  30  33
ATOM     33  C   UNL     1      28.598  31.507  11.465  1.00  0.00     0.417 C 
ATOM     34  F   UNL     1      29.270  32.632  11.021  1.00  0.00    -0.166 F 
ATOM     35  F   UNL     1      29.476  30.750  12.220  1.00  0.00    -0.166 F 
ATOM     36  F   UNL     1      28.203  30.755  10.370  1.00  0.00    -0.166 F 
ENDBRANCH  30  33
ENDBRANCH  24  26
ENDBRANCH   5  20
TORSDOF 6
ENDMDL
MODEL 6
REMARK VINA RESULT:    -9.310      5.970      8.686
REMARK INTER + INTRA:         -13.470
REMARK INTER:                 -12.825
REMARK INTRA:                  -0.644
REMARK UNBOUND:                -0.894
REMARK SMILES CNC(=O)c1cc(Oc2ccc(NC(=O)Nc3ccc(Cl)c(C(F)(F)F)c3)c(F)c2)ccn1
REMARK SMILES IDX 9 1 30 2 28 3 29 4 12 5 11 6 10 7 8 8 7 9 5 10 6 11 33 12
REMARK SMILES IDX 32 13 31 14 3 15 1 16 2 17 4 19 13 20 14 21 15 23 16 24
REMARK SMILES IDX 17 26 18 27 27 28 19 29 22 30 20 31 21 32 23 33 24 34 25 35
REMARK SMILES IDX 26 36
REMARK H PARENT 2 18 13 22 16 25
REMARK Flexibility Score: inf
ROOT
ATOM      1  C   UNL     1      17.740  33.899  13.082  1.00  0.00     0.130 A 
ATOM      2  C   UNL     1      18.448  33.219  14.088  1.00  0.00     0.088 A 
ATOM      3  C   UNL     1      19.608  32.504  13.777  1.00  0.00     0.150 A 
ATOM      4  F   UNL     1      20.276  31.857  14.767  1.00  0.00    -0.205 F 
ATOM      5  C   UNL     1      20.073  32.449  12.453  1.00  0.00     0.079 A 
ATOM      6  C   UNL     1      19.378  33.152  11.453  1.00  0.00     0.033 A 
ATOM      7  C   UNL     1      18.223  33.875  11.770  1.00  0.00     0.049 A 
ENDROOT
BRANCH   1   8
ATOM      8  O   UNL     1      16.587  34.645  13.367  1.00  0.00    -0.457 OA
BRANCH   8   9
ATOM      9  C   UNL     1      15.967  34.718  14.623  1.00  0.00     0.131 A 
ATOM     10  C   UNL     1      15.998  35.177  17.008  1.00  0.00     0.131 A 
ATOM     11  C   UNL     1      16.657  35.143  15.769  1.00  0.00     0.081 A 
ATOM     12  N   UNL     1      14.695  34.786  17.080  1.00  0.00    -0.251 NA
ATOM     13  C   UNL     1      14.010  34.354  15.989  1.00  0.00     0.116 A 
ATOM     14  C   UNL     1      14.635  34.311  14.742  1.00  0.00     0.067 A 
BRANCH  10  15
ATOM     15  C   UNL     1      16.695  35.635  18.229  1.00  0.00     0.269 C 
ATOM     16  C   UNL     1      18.620  35.432  19.852  1.00  0.00     0.143 C 
ATOM     17  N   UNL     1      17.944  35.043  18.620  1.00  0.00    -0.354 N 
ATOM     18  H   UNL     1      18.406  34.339  18.002  1.00  0.00     0.163 HD
ATOM     19  O   UNL     1      16.189  36.551  18.933  1.00  0.00    -0.268 OA
ENDBRANCH  10  15
ENDBRANCH   8   9
ENDBRANCH   1   8
BRANCH   5  20
ATOM     20  N   UNL     1      21.285  31.737  12.153  1.00  0.00    -0.305 N 
ATOM     21  C   UNL     1      22.595  32.319  12.232  1.00  0.00     0.323 C 
ATOM     22  H   UNL     1      21.206  30.760  11.790  1.00  0.00     0.171 HD
ATOM     23  O   UNL     1      22.727  33.566  12.355  1.00  0.00    -0.248 OA
ATOM     24  N   UNL     1      23.749  31.477  12.093  1.00  0.00    -0.308 N 
ATOM     25  H   UNL     1      23.595  30.491  11.775  1.00  0.00     0.171 HD
BRANCH  24  26
ATOM     26  C   UNL     1      25.108  31.922  12.253  1.00  0.00     0.043 A 
ATOM     27  C   UNL     1      25.991  31.814  11.171  1.00  0.00     0.028 A 
ATOM     28  C   UNL     1      25.587  32.405  13.484  1.00  0.00     0.040 A 
ATOM     29  C   UNL     1      27.323  32.207  11.302  1.00  0.00     0.023 A 
ATOM     30  C   UNL     1      26.927  32.822  13.625  1.00  0.00     0.076 A 
ATOM     31  C   UNL     1      27.797  32.712  12.517  1.00  0.00     0.053 A 
ATOM     32  Cl  UNL     1      29.494  33.179  12.608  1.00  0.00    -0.084 Cl
BRANCH  30  33
ATOM     33  C   UNL     1      27.430  33.362  14.948  1.00  0.00     0.417 C 
ATOM     34  F   UNL     1      28.439  32.547  15.429  1.00  0.00    -0.166 F 
ATOM     35  F   UNL     1      27.934  34.644  14.824  1.00  0.00    -0.166 F 
ATOM     36  F   UNL     1      26.393  33.387  15.866  1.00  0.00    -0.166 F 
ENDBRANCH  30  33
ENDBRANCH  24  26
ENDBRANCH   5  20
TORSDOF 6
ENDMDL
MODEL 7
REMARK VINA RESULT:    -9.291      7.634     10.326
REMARK INTER + INTRA:         -13.443
REMARK INTER:                 -13.109
REMARK INTRA:                  -0.335
REMARK UNBOUND:                -0.894
REMARK SMILES CNC(=O)c1cc(Oc2ccc(NC(=O)Nc3ccc(Cl)c(C(F)(F)F)c3)c(F)c2)ccn1
REMARK SMILES IDX 9 1 30 2 28 3 29 4 12 5 11 6 10 7 8 8 7 9 5 10 6 11 33 12
REMARK SMILES IDX 32 13 31 14 3 15 1 16 2 17 4 19 13 20 14 21 15 23 16 24
REMARK SMILES IDX 17 26 18 27 27 28 19 29 22 30 20 31 21 32 23 33 24 34 25 35
REMARK SMILES IDX 26 36
REMARK H PARENT 2 18 13 22 16 25
REMARK Flexibility Score: inf
ROOT
ATOM      1  C   UNL     1      25.447  33.569  13.111  1.00  0.00     0.130 A 
ATOM      2  C   UNL     1      24.868  34.663  12.445  1.00  0.00     0.088 A 
ATOM      3  C   UNL     1      23.477  34.798  12.386  1.00  0.00     0.150 A 
ATOM      4  F   UNL     1      22.941  35.865  11.739  1.00  0.00    -0.205 F 
ATOM      5  C   UNL     1      22.644  33.837  12.981  1.00  0.00     0.079 A 
ATOM      6  C   UNL     1      23.228  32.758  13.670  1.00  0.00     0.033 A 
ATOM      7  C   UNL     1      24.619  32.631  13.736  1.00  0.00     0.049 A 
ENDROOT
BRANCH   1   8
ATOM      8  O   UNL     1      26.838  33.418  13.209  1.00  0.00    -0.457 OA
BRANCH   8   9
ATOM      9  C   UNL     1      27.579  32.387  12.612  1.00  0.00     0.131 A 
ATOM     10  C   UNL     1      29.500  30.902  12.518  1.00  0.00     0.131 A 
ATOM     11  C   UNL     1      28.783  31.922  13.165  1.00  0.00     0.081 A 
ATOM     12  N   UNL     1      29.018  30.387  11.353  1.00  0.00    -0.251 NA
ATOM     13  C   UNL     1      27.865  30.832  10.789  1.00  0.00     0.116 A 
ATOM     14  C   UNL     1      27.127  31.841  11.408  1.00  0.00     0.067 A 
BRANCH  10  15
ATOM     15  C   UNL     1      30.762  30.381  13.085  1.00  0.00     0.269 C 
ATOM     16  C   UNL     1      32.037  29.377  15.021  1.00  0.00     0.143 C 
ATOM     17  N   UNL     1      30.794  29.841  14.415  1.00  0.00    -0.354 N 
ATOM     18  H   UNL     1      29.909  29.741  14.962  1.00  0.00     0.163 HD
ATOM     19  O   UNL     1      31.818  30.412  12.397  1.00  0.00    -0.268 OA
ENDBRANCH  10  15
ENDBRANCH   8   9
ENDBRANCH   1   8
BRANCH   5  20
ATOM     20  N   UNL     1      21.218  34.007  12.941  1.00  0.00    -0.305 N 
ATOM     21  C   UNL     1      20.409  34.259  14.098  1.00  0.00     0.323 C 
ATOM     22  H   UNL     1      20.732  33.871  12.025  1.00  0.00     0.171 HD
ATOM     23  O   UNL     1      20.895  34.118  15.252  1.00  0.00    -0.248 OA
ATOM     24  N   UNL     1      19.024  34.597  13.930  1.00  0.00    -0.308 N 
ATOM     25  H   UNL     1      18.611  34.488  12.974  1.00  0.00     0.171 HD
BRANCH  24  26
ATOM     26  C   UNL     1      18.138  34.968  15.002  1.00  0.00     0.043 A 
ATOM     27  C   UNL     1      18.585  35.875  15.970  1.00  0.00     0.028 A 
ATOM     28  C   UNL     1      16.859  34.397  15.133  1.00  0.00     0.040 A 
ATOM     29  C   UNL     1      17.763  36.232  17.039  1.00  0.00     0.023 A 
ATOM     30  C   UNL     1      16.011  34.762  16.199  1.00  0.00     0.076 A 
ATOM     31  C   UNL     1      16.481  35.686  17.160  1.00  0.00     0.053 A 
ATOM     32  Cl  UNL     1      15.504  36.178  18.542  1.00  0.00    -0.084 Cl
BRANCH  30  33
ATOM     33  C   UNL     1      14.627  34.159  16.323  1.00  0.00     0.417 C 
ATOM     34  F   UNL     1      14.627  33.195  17.316  1.00  0.00    -0.166 F 
ATOM     35  F   UNL     1      13.677  35.112  16.648  1.00  0.00    -0.166 F 
ATOM     36  F   UNL     1      14.265  33.573  15.122  1.00  0.00    -0.166 F 
ENDBRANCH  30  33
ENDBRANCH  24  26
ENDBRANCH   5  20
TORSDOF 6
ENDMDL
MODEL 8
REMARK VINA RESULT:    -9.289      6.666     10.957
REMARK INTER + INTRA:         -13.441
REMARK INTER:                 -12.649
REMARK INTRA:                  -0.793
REMARK UNBOUND:                -0.894
REMARK SMILES CNC(=O)c1cc(Oc2ccc(NC(=O)Nc3ccc(Cl)c(C(F)(F)F)c3)c(F)c2)ccn1
REMARK SMILES IDX 9 1 30 2 28 3 29 4 12 5 11 6 10 7 8 8 7 9 5 10 6 11 33 12
REMARK SMILES IDX 32 13 31 14 3 15 1 16 2 17 4 19 13 20 14 21 15 23 16 24
REMARK SMILES IDX 17 26 18 27 27 28 19 29 22 30 20 31 21 32 23 33 24 34 25 35
REMARK SMILES IDX 26 36
REMARK H PARENT 2 18 13 22 16 25
REMARK Flexibility Score: inf
ROOT
ATOM      1  C   UNL     1      19.606  33.261  13.208  1.00  0.00     0.130 A 
ATOM      2  C   UNL     1      20.476  33.943  12.340  1.00  0.00     0.088 A 
ATOM      3  C   UNL     1      21.798  34.193  12.719  1.00  0.00     0.150 A 
ATOM      4  F   UNL     1      22.620  34.852  11.861  1.00  0.00    -0.205 F 
ATOM      5  C   UNL     1      22.269  33.775  13.974  1.00  0.00     0.079 A 
ATOM      6  C   UNL     1      21.403  33.070  14.829  1.00  0.00     0.033 A 
ATOM      7  C   UNL     1      20.084  32.812  14.443  1.00  0.00     0.049 A 
ENDROOT
BRANCH   1   8
ATOM      8  O   UNL     1      18.281  32.972  12.848  1.00  0.00    -0.457 OA
BRANCH   8   9
ATOM      9  C   UNL     1      17.742  33.141  11.564  1.00  0.00     0.131 A 
ATOM     10  C   UNL     1      17.364  32.400   9.281  1.00  0.00     0.131 A 
ATOM     11  C   UNL     1      17.904  32.175  10.558  1.00  0.00     0.081 A 
ATOM     12  N   UNL     1      16.699  33.563   9.035  1.00  0.00    -0.251 NA
ATOM     13  C   UNL     1      16.545  34.521   9.987  1.00  0.00     0.116 A 
ATOM     14  C   UNL     1      17.066  34.327  11.267  1.00  0.00     0.067 A 
BRANCH  10  15
ATOM     15  C   UNL     1      17.505  31.394   8.207  1.00  0.00     0.269 C 
ATOM     16  C   UNL     1      18.757  30.495   6.205  1.00  0.00     0.143 C 
ATOM     17  N   UNL     1      18.626  31.437   7.311  1.00  0.00    -0.354 N 
ATOM     18  H   UNL     1      19.391  32.134   7.462  1.00  0.00     0.163 HD
ATOM     19  O   UNL     1      16.633  30.492   8.075  1.00  0.00    -0.268 OA
ENDBRANCH  10  15
ENDBRANCH   8   9
ENDBRANCH   1   8
BRANCH   5  20
ATOM     20  N   UNL     1      23.639  34.011  14.336  1.00  0.00    -0.305 N 
ATOM     21  C   UNL     1      24.704  33.083  14.083  1.00  0.00     0.323 C 
ATOM     22  H   UNL     1      23.865  34.877  14.875  1.00  0.00     0.171 HD
ATOM     23  O   UNL     1      24.443  31.903  13.727  1.00  0.00    -0.248 OA
ATOM     24  N   UNL     1      26.062  33.488  14.314  1.00  0.00    -0.308 N 
ATOM     25  H   UNL     1      26.219  34.394  14.814  1.00  0.00     0.171 HD
BRANCH  24  26
ATOM     26  C   UNL     1      27.217  32.687  14.005  1.00  0.00     0.043 A 
ATOM     27  C   UNL     1      28.226  32.549  14.966  1.00  0.00     0.028 A 
ATOM     28  C   UNL     1      27.385  32.091  12.741  1.00  0.00     0.040 A 
ATOM     29  C   UNL     1      29.372  31.806  14.687  1.00  0.00     0.023 A 
ATOM     30  C   UNL     1      28.532  31.323  12.452  1.00  0.00     0.076 A 
ATOM     31  C   UNL     1      29.533  31.190  13.441  1.00  0.00     0.053 A 
ATOM     32  Cl  UNL     1      31.012  30.275  13.159  1.00  0.00    -0.084 Cl
BRANCH  30  33
ATOM     33  C   UNL     1      28.696  30.666  11.097  1.00  0.00     0.417 C 
ATOM     34  F   UNL     1      29.786  31.215  10.444  1.00  0.00    -0.166 F 
ATOM     35  F   UNL     1      28.902  29.302  11.207  1.00  0.00    -0.166 F 
ATOM     36  F   UNL     1      27.559  30.876  10.336  1.00  0.00    -0.166 F 
ENDBRANCH  30  33
ENDBRANCH  24  26
ENDBRANCH   5  20
TORSDOF 6
ENDMDL
MODEL 9
REMARK VINA RESULT:    -9.277      1.718      2.888
REMARK INTER + INTRA:         -13.425
REMARK INTER:                 -12.494
REMARK INTRA:                  -0.931
REMARK UNBOUND:                -0.894
REMARK SMILES CNC(=O)c1cc(Oc2ccc(NC(=O)Nc3ccc(Cl)c(C(F)(F)F)c3)c(F)c2)ccn1
REMARK SMILES IDX 9 1 30 2 28 3 29 4 12 5 11 6 10 7 8 8 7 9 5 10 6 11 33 12
REMARK SMILES IDX 32 13 31 14 3 15 1 16 2 17 4 19 13 20 14 21 15 23 16 24
REMARK SMILES IDX 17 26 18 27 27 28 19 29 22 30 20 31 21 32 23 33 24 34 25 35
REMARK SMILES IDX 26 36
REMARK H PARENT 2 18 13 22 16 25
REMARK Flexibility Score: inf
ROOT
ATOM      1  C   UNL     1      19.423  33.896  15.291  1.00  0.00     0.130 A 
ATOM      2  C   UNL     1      18.068  33.806  14.931  1.00  0.00     0.088 A 
ATOM      3  C   UNL     1      17.694  33.803  13.583  1.00  0.00     0.150 A 
ATOM      4  F   UNL     1      16.378  33.713  13.260  1.00  0.00    -0.205 F 
ATOM      5  C   UNL     1      18.668  33.900  12.576  1.00  0.00     0.079 A 
ATOM      6  C   UNL     1      20.025  33.963  12.941  1.00  0.00     0.033 A 
ATOM      7  C   UNL     1      20.397  33.955  14.289  1.00  0.00     0.049 A 
ENDROOT
BRANCH   1   8
ATOM      8  O   UNL     1      19.832  33.876  16.633  1.00  0.00    -0.457 OA
BRANCH   8   9
ATOM      9  C   UNL     1      20.064  35.015  17.420  1.00  0.00     0.131 A 
ATOM     10  C   UNL     1      19.297  36.883  18.769  1.00  0.00     0.131 A 
ATOM     11  C   UNL     1      19.014  35.737  18.008  1.00  0.00     0.081 A 
ATOM     12  N   UNL     1      20.591  37.284  18.914  1.00  0.00    -0.251 NA
ATOM     13  C   UNL     1      21.623  36.611  18.340  1.00  0.00     0.116 A 
ATOM     14  C   UNL     1      21.377  35.466  17.581  1.00  0.00     0.067 A 
BRANCH  10  15
ATOM     15  C   UNL     1      18.213  37.655  19.414  1.00  0.00     0.269 C 
ATOM     16  C   UNL     1      17.473  39.563  20.895  1.00  0.00     0.143 C 
ATOM     17  N   UNL     1      18.516  38.821  20.197  1.00  0.00    -0.354 N 
ATOM     18  H   UNL     1      19.498  39.175  20.251  1.00  0.00     0.163 HD
ATOM     19  O   UNL     1      17.015  37.287  19.278  1.00  0.00    -0.268 OA
ENDBRANCH  10  15
ENDBRANCH   8   9
ENDBRANCH   1   8
BRANCH   5  20
ATOM     20  N   UNL     1      18.272  33.863  11.196  1.00  0.00    -0.305 N 
ATOM     21  C   UNL     1      18.170  32.657  10.425  1.00  0.00     0.323 C 
ATOM     22  H   UNL     1      18.114  34.771  10.704  1.00  0.00     0.171 HD
ATOM     23  O   UNL     1      18.648  31.579  10.870  1.00  0.00    -0.248 OA
ATOM     24  N   UNL     1      17.589  32.706   9.113  1.00  0.00    -0.308 N 
ATOM     25  H   UNL     1      17.408  33.650   8.698  1.00  0.00     0.171 HD
BRANCH  24  26
ATOM     26  C   UNL     1      17.341  31.554   8.286  1.00  0.00     0.043 A 
ATOM     27  C   UNL     1      18.332  31.133   7.391  1.00  0.00     0.028 A 
ATOM     28  C   UNL     1      16.107  30.879   8.313  1.00  0.00     0.040 A 
ATOM     29  C   UNL     1      18.111  30.040   6.554  1.00  0.00     0.023 A 
ATOM     30  C   UNL     1      15.877  29.762   7.483  1.00  0.00     0.076 A 
ATOM     31  C   UNL     1      16.895  29.350   6.594  1.00  0.00     0.053 A 
ATOM     32  Cl  UNL     1      16.687  27.984   5.499  1.00  0.00    -0.084 Cl
BRANCH  30  33
ATOM     33  C   UNL     1      14.554  29.026   7.532  1.00  0.00     0.417 C 
ATOM     34  F   UNL     1      14.704  27.845   8.237  1.00  0.00    -0.166 F 
ATOM     35  F   UNL     1      13.569  29.775   8.152  1.00  0.00    -0.166 F 
ATOM     36  F   UNL     1      14.136  28.734   6.244  1.00  0.00    -0.166 F 
ENDBRANCH  30  33
ENDBRANCH  24  26
ENDBRANCH   5  20
TORSDOF 6
ENDMDL
MODEL 10
REMARK VINA RESULT:    -9.093      6.263     10.813
REMARK INTER + INTRA:         -13.176
REMARK INTER:                 -12.499
REMARK INTRA:                  -0.677
REMARK UNBOUND:                -0.894
REMARK SMILES CNC(=O)c1cc(Oc2ccc(NC(=O)Nc3ccc(Cl)c(C(F)(F)F)c3)c(F)c2)ccn1
REMARK SMILES IDX 9 1 30 2 28 3 29 4 12 5 11 6 10 7 8 8 7 9 5 10 6 11 33 12
REMARK SMILES IDX 32 13 31 14 3 15 1 16 2 17 4 19 13 20 14 21 15 23 16 24
REMARK SMILES IDX 17 26 18 27 27 28 19 29 22 30 20 31 21 32 23 33 24 34 25 35
REMARK SMILES IDX 26 36
REMARK H PARENT 2 18 13 22 16 25
REMARK Flexibility Score: inf
ROOT
ATOM      1  C   UNL     1      18.784  33.864  12.827  1.00  0.00     0.130 A 
ATOM      2  C   UNL     1      19.119  34.503  14.033  1.00  0.00     0.088 A 
ATOM      3  C   UNL     1      20.455  34.773  14.343  1.00  0.00     0.150 A 
ATOM      4  F   UNL     1      20.753  35.394  15.513  1.00  0.00    -0.205 F 
ATOM      5  C   UNL     1      21.479  34.398  13.457  1.00  0.00     0.079 A 
ATOM      6  C   UNL     1      21.138  33.783  12.239  1.00  0.00     0.033 A 
ATOM      7  C   UNL     1      19.799  33.524  11.928  1.00  0.00     0.049 A 
ENDROOT
BRANCH   1   8
ATOM      8  O   UNL     1      17.451  33.602  12.476  1.00  0.00    -0.457 OA
BRANCH   8   9
ATOM      9  C   UNL     1      16.948  33.612  11.167  1.00  0.00     0.131 A 
ATOM     10  C   UNL     1      16.342  32.503   9.093  1.00  0.00     0.131 A 
ATOM     11  C   UNL     1      16.831  32.437  10.407  1.00  0.00     0.081 A 
ATOM     12  N   UNL     1      15.998  33.712   8.570  1.00  0.00    -0.251 NA
ATOM     13  C   UNL     1      16.118  34.865   9.278  1.00  0.00     0.116 A 
ATOM     14  C   UNL     1      16.597  34.835  10.589  1.00  0.00     0.067 A 
BRANCH  10  15
ATOM     15  C   UNL     1      16.193  31.280   8.274  1.00  0.00     0.269 C 
ATOM     16  C   UNL     1      14.742  29.735   6.899  1.00  0.00     0.143 C 
ATOM     17  N   UNL     1      14.933  30.965   7.660  1.00  0.00    -0.354 N 
ATOM     18  H   UNL     1      14.137  31.638   7.723  1.00  0.00     0.163 HD
ATOM     19  O   UNL     1      17.177  30.508   8.116  1.00  0.00    -0.268 OA
ENDBRANCH  10  15
ENDBRANCH   8   9
ENDBRANCH   1   8
BRANCH   5  20
ATOM     20  N   UNL     1      22.845  34.711  13.773  1.00  0.00    -0.305 N 
ATOM     21  C   UNL     1      23.909  33.749  13.764  1.00  0.00     0.323 C 
ATOM     22  H   UNL     1      23.066  35.681  14.095  1.00  0.00     0.171 HD
ATOM     23  O   UNL     1      23.648  32.519  13.693  1.00  0.00    -0.248 OA
ATOM     24  N   UNL     1      25.265  34.197  13.912  1.00  0.00    -0.308 N 
ATOM     25  H   UNL     1      25.419  35.196  14.186  1.00  0.00     0.171 HD
BRANCH  24  26
ATOM     26  C   UNL     1      26.421  33.345  13.819  1.00  0.00     0.043 A 
ATOM     27  C   UNL     1      27.287  33.250  14.916  1.00  0.00     0.028 A 
ATOM     28  C   UNL     1      26.734  32.653  12.634  1.00  0.00     0.040 A 
ATOM     29  C   UNL     1      28.432  32.458  14.847  1.00  0.00     0.023 A 
ATOM     30  C   UNL     1      27.880  31.835  12.557  1.00  0.00     0.076 A 
ATOM     31  C   UNL     1      28.735  31.748  13.680  1.00  0.00     0.053 A 
ATOM     32  Cl  UNL     1      30.204  30.775  13.666  1.00  0.00    -0.084 Cl
BRANCH  30  33
ATOM     33  C   UNL     1      28.201  31.076  11.286  1.00  0.00     0.417 C 
ATOM     34  F   UNL     1      29.336  31.607  10.701  1.00  0.00    -0.166 F 
ATOM     35  F   UNL     1      28.430  29.733  11.531  1.00  0.00    -0.166 F 
ATOM     36  F   UNL     1      27.142  31.184  10.400  1.00  0.00    -0.166 F 
ENDBRANCH  30  33
ENDBRANCH  24  26
ENDBRANCH   5  20
TORSDOF 6
ENDMDL
MODEL 11
REMARK VINA RESULT:    -9.056      7.285     10.030
REMARK INTER + INTRA:         -13.126
REMARK INTER:                 -12.581
REMARK INTRA:                  -0.545
REMARK UNBOUND:                -0.894
REMARK SMILES CNC(=O)c1cc(Oc2ccc(NC(=O)Nc3ccc(Cl)c(C(F)(F)F)c3)c(F)c2)ccn1
REMARK SMILES IDX 9 1 30 2 28 3 29 4 12 5 11 6 10 7 8 8 7 9 5 10 6 11 33 12
REMARK SMILES IDX 32 13 31 14 3 15 1 16 2 17 4 19 13 20 14 21 15 23 16 24
REMARK SMILES IDX 17 26 18 27 27 28 19 29 22 30 20 31 21 32 23 33 24 34 25 35
REMARK SMILES IDX 26 36
REMARK H PARENT 2 18 13 22 16 25
REMARK Flexibility Score: inf
ROOT
ATOM      1  C   UNL     1      25.199  32.523  11.891  1.00  0.00     0.130 A 
ATOM      2  C   UNL     1      24.646  31.962  13.055  1.00  0.00     0.088 A 
ATOM      3  C   UNL     1      23.662  32.649  13.772  1.00  0.00     0.150 A 
ATOM      4  F   UNL     1      23.141  32.085  14.892  1.00  0.00    -0.205 F 
ATOM      5  C   UNL     1      23.223  33.913  13.343  1.00  0.00     0.079 A 
ATOM      6  C   UNL     1      23.759  34.459  12.163  1.00  0.00     0.033 A 
ATOM      7  C   UNL     1      24.736  33.764  11.442  1.00  0.00     0.049 A 
ENDROOT
BRANCH   1   8
ATOM      8  O   UNL     1      26.169  31.848  11.136  1.00  0.00    -0.457 OA
BRANCH   8   9
ATOM      9  C   UNL     1      27.544  31.842  11.415  1.00  0.00     0.131 A 
ATOM     10  C   UNL     1      29.548  32.846  12.353  1.00  0.00     0.131 A 
ATOM     11  C   UNL     1      28.164  32.887  12.118  1.00  0.00     0.081 A 
ATOM     12  N   UNL     1      30.272  31.793  11.882  1.00  0.00    -0.251 NA
ATOM     13  C   UNL     1      29.698  30.778  11.183  1.00  0.00     0.116 A 
ATOM     14  C   UNL     1      28.325  30.787  10.936  1.00  0.00     0.067 A 
BRANCH  10  15
ATOM     15  C   UNL     1      30.225  33.924  13.106  1.00  0.00     0.269 C 
ATOM     16  C   UNL     1      30.113  36.107  14.371  1.00  0.00     0.143 C 
ATOM     17  N   UNL     1      29.465  35.000  13.678  1.00  0.00    -0.354 N 
ATOM     18  H   UNL     1      28.421  34.986  13.634  1.00  0.00     0.163 HD
ATOM     19  O   UNL     1      31.478  33.900  13.244  1.00  0.00    -0.268 OA
ENDBRANCH  10  15
ENDBRANCH   8   9
ENDBRANCH   1   8
BRANCH   5  20
ATOM     20  N   UNL     1      22.188  34.592  14.071  1.00  0.00    -0.305 N 
ATOM     21  C   UNL     1      20.787  34.342  13.891  1.00  0.00     0.323 C 
ATOM     22  H   UNL     1      22.467  35.362  14.721  1.00  0.00     0.171 HD
ATOM     23  O   UNL     1      20.387  33.662  12.909  1.00  0.00    -0.248 OA
ATOM     24  N   UNL     1      19.843  34.937  14.795  1.00  0.00    -0.308 N 
ATOM     25  H   UNL     1      20.198  35.666  15.458  1.00  0.00     0.171 HD
BRANCH  24  26
ATOM     26  C   UNL     1      18.426  34.683  14.780  1.00  0.00     0.043 A 
ATOM     27  C   UNL     1      17.789  34.452  13.555  1.00  0.00     0.028 A 
ATOM     28  C   UNL     1      17.657  34.721  15.958  1.00  0.00     0.040 A 
ATOM     29  C   UNL     1      16.413  34.234  13.503  1.00  0.00     0.023 A 
ATOM     30  C   UNL     1      16.268  34.485  15.921  1.00  0.00     0.076 A 
ATOM     31  C   UNL     1      15.648  34.245  14.674  1.00  0.00     0.053 A 
ATOM     32  Cl  UNL     1      13.913  33.970  14.527  1.00  0.00    -0.084 Cl
BRANCH  30  33
ATOM     33  C   UNL     1      15.449  34.506  17.195  1.00  0.00     0.417 C 
ATOM     34  F   UNL     1      14.443  35.450  17.086  1.00  0.00    -0.166 F 
ATOM     35  F   UNL     1      14.862  33.280  17.452  1.00  0.00    -0.166 F 
ATOM     36  F   UNL     1      16.263  34.834  18.267  1.00  0.00    -0.166 F 
ENDBRANCH  30  33
ENDBRANCH  24  26
ENDBRANCH   5  20
TORSDOF 6
ENDMDL
MODEL 12
REMARK VINA RESULT:    -8.982      6.727      8.473
REMARK INTER + INTRA:         -13.026
REMARK INTER:                 -12.498
REMARK INTRA:                  -0.528
REMARK UNBOUND:                -0.894
REMARK SMILES CNC(=O)c1cc(Oc2ccc(NC(=O)Nc3ccc(Cl)c(C(F)(F)F)c3)c(F)c2)ccn1
REMARK SMILES IDX 9 1 30 2 28 3 29 4 12 5 11 6 10 7 8 8 7 9 5 10 6 11 33 12
REMARK SMILES IDX 32 13 31 14 3 15 1 16 2 17 4 19 13 20 14 21 15 23 16 24
REMARK SMILES IDX 17 26 18 27 27 28 19 29 22 30 20 31 21 32 23 33 24 34 25 35
REMARK SMILES IDX 26 36
REMARK H PARENT 2 18 13 22 16 25
REMARK Flexibility Score: inf
ROOT
ATOM      1  C   UNL     1      25.436  33.403  14.147  1.00  0.00     0.130 A 
ATOM      2  C   UNL     1      24.547  33.194  15.216  1.00  0.00     0.088 A 
ATOM      3  C   UNL     1      23.213  32.856  14.970  1.00  0.00     0.150 A 
ATOM      4  F   UNL     1      22.374  32.658  16.020  1.00  0.00    -0.205 F 
ATOM      5  C   UNL     1      22.743  32.732  13.653  1.00  0.00     0.079 A 
ATOM      6  C   UNL     1      23.642  32.915  12.586  1.00  0.00     0.033 A 
ATOM      7  C   UNL     1      24.978  33.243  12.835  1.00  0.00     0.049 A 
ENDROOT
BRANCH   1   8
ATOM      8  O   UNL     1      26.786  33.718  14.361  1.00  0.00    -0.457 OA
BRANCH   8   9
ATOM      9  C   UNL     1      27.836  32.788  14.374  1.00  0.00     0.131 A 
ATOM     10  C   UNL     1      29.263  31.148  13.290  1.00  0.00     0.131 A 
ATOM     11  C   UNL     1      28.220  32.085  13.221  1.00  0.00     0.081 A 
ATOM     12  N   UNL     1      29.882  30.928  14.483  1.00  0.00    -0.251 NA
ATOM     13  C   UNL     1      29.517  31.583  15.617  1.00  0.00     0.116 A 
ATOM     14  C   UNL     1      28.487  32.523  15.582  1.00  0.00     0.067 A 
BRANCH  10  15
ATOM     15  C   UNL     1      29.700  30.405  12.089  1.00  0.00     0.269 C 
ATOM     16  C   UNL     1      29.157  29.325   9.871  1.00  0.00     0.143 C 
ATOM     17  N   UNL     1      28.768  30.109  11.037  1.00  0.00    -0.354 N 
ATOM     18  H   UNL     1      27.794  30.486  11.079  1.00  0.00     0.163 HD
ATOM     19  O   UNL     1      30.898  30.026  11.988  1.00  0.00    -0.268 OA
ENDBRANCH  10  15
ENDBRANCH   8   9
ENDBRANCH   1   8
BRANCH   5  20
ATOM     20  N   UNL     1      21.378  32.352  13.416  1.00  0.00    -0.305 N 
ATOM     21  C   UNL     1      20.518  33.007  12.473  1.00  0.00     0.323 C 
ATOM     22  H   UNL     1      20.966  31.599  14.012  1.00  0.00     0.171 HD
ATOM     23  O   UNL     1      20.859  34.108  11.963  1.00  0.00    -0.248 OA
ATOM     24  N   UNL     1      19.233  32.437  12.176  1.00  0.00    -0.308 N 
ATOM     25  H   UNL     1      18.901  31.649  12.781  1.00  0.00     0.171 HD
BRANCH  24  26
ATOM     26  C   UNL     1      18.326  32.942  11.180  1.00  0.00     0.043 A 
ATOM     27  C   UNL     1      17.781  34.222  11.343  1.00  0.00     0.028 A 
ATOM     28  C   UNL     1      17.927  32.160  10.081  1.00  0.00     0.040 A 
ATOM     29  C   UNL     1      16.875  34.729  10.413  1.00  0.00     0.023 A 
ATOM     30  C   UNL     1      17.024  32.667   9.124  1.00  0.00     0.076 A 
ATOM     31  C   UNL     1      16.494  33.965   9.304  1.00  0.00     0.053 A 
ATOM     32  Cl  UNL     1      15.338  34.670   8.176  1.00  0.00    -0.084 Cl
BRANCH  30  33
ATOM     33  C   UNL     1      16.616  31.828   7.931  1.00  0.00     0.417 C 
ATOM     34  F   UNL     1      15.280  31.484   8.040  1.00  0.00    -0.166 F 
ATOM     35  F   UNL     1      16.788  32.508   6.738  1.00  0.00    -0.166 F 
ATOM     36  F   UNL     1      17.379  30.673   7.890  1.00  0.00    -0.166 F 
ENDBRANCH  30  33
ENDBRANCH  24  26
ENDBRANCH   5  20
TORSDOF 6
ENDMDL
MODEL 13
REMARK VINA RESULT:    -8.979      7.175     11.471
REMARK INTER + INTRA:         -13.022
REMARK INTER:                 -12.151
REMARK INTRA:                  -0.871
REMARK UNBOUND:                -0.894
REMARK SMILES CNC(=O)c1cc(Oc2ccc(NC(=O)Nc3ccc(Cl)c(C(F)(F)F)c3)c(F)c2)ccn1
REMARK SMILES IDX 9 1 30 2 28 3 29 4 12 5 11 6 10 7 8 8 7 9 5 10 6 11 33 12
REMARK SMILES IDX 32 13 31 14 3 15 1 16 2 17 4 19 13 20 14 21 15 23 16 24
REMARK SMILES IDX 17 26 18 27 27 28 19 29 22 30 20 31 21 32 23 33 24 34 25 35
REMARK SMILES IDX 26 36
REMARK H PARENT 2 18 13 22 16 25
REMARK Flexibility Score: inf
ROOT
ATOM      1  C   UNL     1      19.953  33.011  13.347  1.00  0.00     0.130 A 
ATOM      2  C   UNL     1      20.753  33.774  12.479  1.00  0.00     0.088 A 
ATOM      3  C   UNL     1      22.098  34.007  12.780  1.00  0.00     0.150 A 
ATOM      4  F   UNL     1      22.851  34.746  11.924  1.00  0.00    -0.205 F 
ATOM      5  C   UNL     1      22.662  33.490  13.958  1.00  0.00     0.079 A 
ATOM      6  C   UNL     1      21.866  32.704  14.810  1.00  0.00     0.033 A 
ATOM      7  C   UNL     1      20.523  32.464  14.501  1.00  0.00     0.049 A 
ENDROOT
BRANCH   1   8
ATOM      8  O   UNL     1      18.607  32.738  13.061  1.00  0.00    -0.457 OA
BRANCH   8   9
ATOM      9  C   UNL     1      17.958  33.065  11.861  1.00  0.00     0.131 A 
ATOM     10  C   UNL     1      17.466  32.678   9.513  1.00  0.00     0.131 A 
ATOM     11  C   UNL     1      18.120  32.297  10.696  1.00  0.00     0.081 A 
ATOM     12  N   UNL     1      16.690  33.798   9.512  1.00  0.00    -0.251 NA
ATOM     13  C   UNL     1      16.532  34.567  10.622  1.00  0.00     0.116 A 
ATOM     14  C   UNL     1      17.165  34.214  11.814  1.00  0.00     0.067 A 
BRANCH  10  15
ATOM     15  C   UNL     1      17.604  31.881   8.276  1.00  0.00     0.269 C 
ATOM     16  C   UNL     1      17.009  29.836   6.917  1.00  0.00     0.143 C 
ATOM     17  N   UNL     1      16.846  30.674   8.099  1.00  0.00    -0.354 N 
ATOM     18  H   UNL     1      16.134  30.394   8.811  1.00  0.00     0.163 HD
ATOM     19  O   UNL     1      18.394  32.262   7.370  1.00  0.00    -0.268 OA
ENDBRANCH  10  15
ENDBRANCH   8   9
ENDBRANCH   1   8
BRANCH   5  20
ATOM     20  N   UNL     1      24.054  33.710  14.237  1.00  0.00    -0.305 N 
ATOM     21  C   UNL     1      25.114  32.896  13.715  1.00  0.00     0.323 C 
ATOM     22  H   UNL     1      24.307  34.466  14.915  1.00  0.00     0.171 HD
ATOM     23  O   UNL     1      24.851  31.797  13.159  1.00  0.00    -0.248 OA
ATOM     24  N   UNL     1      26.477  33.308  13.901  1.00  0.00    -0.308 N 
ATOM     25  H   UNL     1      26.657  34.106  14.555  1.00  0.00     0.171 HD
BRANCH  24  26
ATOM     26  C   UNL     1      27.617  32.633  13.341  1.00  0.00     0.043 A 
ATOM     27  C   UNL     1      27.766  32.588  11.949  1.00  0.00     0.028 A 
ATOM     28  C   UNL     1      28.553  31.966  14.154  1.00  0.00     0.040 A 
ATOM     29  C   UNL     1      28.843  31.915  11.374  1.00  0.00     0.023 A 
ATOM     30  C   UNL     1      29.656  31.297  13.585  1.00  0.00     0.076 A 
ATOM     31  C   UNL     1      29.790  31.273  12.178  1.00  0.00     0.053 A 
ATOM     32  Cl  UNL     1      31.118  30.436  11.377  1.00  0.00    -0.084 Cl
BRANCH  30  33
ATOM     33  C   UNL     1      30.671  30.599  14.466  1.00  0.00     0.417 C 
ATOM     34  F   UNL     1      30.240  30.622  15.781  1.00  0.00    -0.166 F 
ATOM     35  F   UNL     1      30.855  29.279  14.096  1.00  0.00    -0.166 F 
ATOM     36  F   UNL     1      31.890  31.252  14.379  1.00  0.00    -0.166 F 
ENDBRANCH  30  33
ENDBRANCH  24  26
ENDBRANCH   5  20
TORSDOF 6
ENDMDL
MODEL 14
REMARK VINA RESULT:    -8.949      6.399     11.233
REMARK INTER + INTRA:         -12.982
REMARK INTER:                 -12.664
REMARK INTRA:                  -0.319
REMARK UNBOUND:                -0.894
REMARK SMILES CNC(=O)c1cc(Oc2ccc(NC(=O)Nc3ccc(Cl)c(C(F)(F)F)c3)c(F)c2)ccn1
REMARK SMILES IDX 9 1 30 2 28 3 29 4 12 5 11 6 10 7 8 8 7 9 5 10 6 11 33 12
REMARK SMILES IDX 32 13 31 14 3 15 1 16 2 17 4 19 13 20 14 21 15 23 16 24
REMARK SMILES IDX 17 26 18 27 27 28 19 29 22 30 20 31 21 32 23 33 24 34 25 35
REMARK SMILES IDX 26 36
REMARK H PARENT 2 18 13 22 16 25
REMARK Flexibility Score: inf
ROOT
ATOM      1  C   UNL     1      18.257  33.553  12.165  1.00  0.00     0.130 A 
ATOM      2  C   UNL     1      18.360  32.503  13.094  1.00  0.00     0.088 A 
ATOM      3  C   UNL     1      19.610  32.119  13.590  1.00  0.00     0.150 A 
ATOM      4  F   UNL     1      19.684  31.104  14.489  1.00  0.00    -0.205 F 
ATOM      5  C   UNL     1      20.776  32.771  13.157  1.00  0.00     0.079 A 
ATOM      6  C   UNL     1      20.666  33.838  12.247  1.00  0.00     0.033 A 
ATOM      7  C   UNL     1      19.414  34.227  11.761  1.00  0.00     0.049 A 
ENDROOT
BRANCH   1   8
ATOM      8  O   UNL     1      17.016  33.978  11.668  1.00  0.00    -0.457 OA
BRANCH   8   9
ATOM      9  C   UNL     1      16.554  33.756  10.362  1.00  0.00     0.131 A 
ATOM     10  C   UNL     1      16.091  32.308   8.468  1.00  0.00     0.131 A 
ATOM     11  C   UNL     1      16.542  32.475   9.787  1.00  0.00     0.081 A 
ATOM     12  N   UNL     1      15.680  33.397   7.761  1.00  0.00    -0.251 NA
ATOM     13  C   UNL     1      15.698  34.649   8.290  1.00  0.00     0.116 A 
ATOM     14  C   UNL     1      16.137  34.850   9.599  1.00  0.00     0.067 A 
BRANCH  10  15
ATOM     15  C   UNL     1      16.052  30.969   7.841  1.00  0.00     0.269 C 
ATOM     16  C   UNL     1      14.785  29.183   6.580  1.00  0.00     0.143 C 
ATOM     17  N   UNL     1      14.872  30.521   7.154  1.00  0.00    -0.354 N 
ATOM     18  H   UNL     1      14.063  31.169   7.026  1.00  0.00     0.163 HD
ATOM     19  O   UNL     1      17.060  30.215   7.910  1.00  0.00    -0.268 OA
ENDBRANCH  10  15
ENDBRANCH   8   9
ENDBRANCH   1   8
BRANCH   5  20
ATOM     20  N   UNL     1      22.050  32.387  13.699  1.00  0.00    -0.305 N 
ATOM     21  C   UNL     1      23.278  32.419  12.958  1.00  0.00     0.323 C 
ATOM     22  H   UNL     1      22.075  31.997  14.669  1.00  0.00     0.171 HD
ATOM     23  O   UNL     1      23.259  32.576  11.708  1.00  0.00    -0.248 OA
ATOM     24  N   UNL     1      24.521  32.195  13.643  1.00  0.00    -0.308 N 
ATOM     25  H   UNL     1      24.475  31.853  14.631  1.00  0.00     0.171 HD
BRANCH  24  26
ATOM     26  C   UNL     1      25.819  32.300  13.032  1.00  0.00     0.043 A 
ATOM     27  C   UNL     1      26.067  31.616  11.836  1.00  0.00     0.028 A 
ATOM     28  C   UNL     1      26.863  33.024  13.638  1.00  0.00     0.040 A 
ATOM     29  C   UNL     1      27.324  31.672  11.235  1.00  0.00     0.023 A 
ATOM     30  C   UNL     1      28.134  33.102  13.033  1.00  0.00     0.076 A 
ATOM     31  C   UNL     1      28.357  32.410  11.820  1.00  0.00     0.053 A 
ATOM     32  Cl  UNL     1      29.921  32.426  11.007  1.00  0.00    -0.084 Cl
BRANCH  30  33
ATOM     33  C   UNL     1      29.247  33.900  13.679  1.00  0.00     0.417 C 
ATOM     34  F   UNL     1      30.260  33.047  14.079  1.00  0.00    -0.166 F 
ATOM     35  F   UNL     1      29.787  34.831  12.809  1.00  0.00    -0.166 F 
ATOM     36  F   UNL     1      28.756  34.571  14.787  1.00  0.00    -0.166 F 
ENDBRANCH  30  33
ENDBRANCH  24  26
ENDBRANCH   5  20
TORSDOF 6
ENDMDL
MODEL 15
REMARK VINA RESULT:    -8.904      7.179     10.152
REMARK INTER + INTRA:         -12.922
REMARK INTER:                 -12.205
REMARK INTRA:                  -0.717
REMARK UNBOUND:                -0.894
REMARK SMILES CNC(=O)c1cc(Oc2ccc(NC(=O)Nc3ccc(Cl)c(C(F)(F)F)c3)c(F)c2)ccn1
REMARK SMILES IDX 9 1 30 2 28 3 29 4 12 5 11 6 10 7 8 8 7 9 5 10 6 11 33 12
REMARK SMILES IDX 32 13 31 14 3 15 1 16 2 17 4 19 13 20 14 21 15 23 16 24
REMARK SMILES IDX 17 26 18 27 27 28 19 29 22 30 20 31 21 32 23 33 24 34 25 35
REMARK SMILES IDX 26 36
REMARK H PARENT 2 18 13 22 16 25
REMARK Flexibility Score: inf
ROOT
ATOM      1  C   UNL     1      20.335  34.213  14.961  1.00  0.00     0.130 A 
ATOM      2  C   UNL     1      20.949  35.474  14.870  1.00  0.00     0.088 A 
ATOM      3  C   UNL     1      22.175  35.618  14.215  1.00  0.00     0.150 A 
ATOM      4  F   UNL     1      22.747  36.847  14.137  1.00  0.00    -0.205 F 
ATOM      5  C   UNL     1      22.813  34.501  13.650  1.00  0.00     0.079 A 
ATOM      6  C   UNL     1      22.184  33.245  13.720  1.00  0.00     0.033 A 
ATOM      7  C   UNL     1      20.952  33.107  14.367  1.00  0.00     0.049 A 
ENDROOT
BRANCH   1   8
ATOM      8  O   UNL     1      19.093  34.040  15.590  1.00  0.00    -0.457 OA
BRANCH   8   9
ATOM      9  C   UNL     1      17.854  34.029  14.932  1.00  0.00     0.131 A 
ATOM     10  C   UNL     1      16.456  33.576  12.998  1.00  0.00     0.131 A 
ATOM     11  C   UNL     1      17.714  33.546  13.621  1.00  0.00     0.081 A 
ATOM     12  N   UNL     1      15.389  34.086  13.675  1.00  0.00    -0.251 NA
ATOM     13  C   UNL     1      15.503  34.574  14.938  1.00  0.00     0.116 A 
ATOM     14  C   UNL     1      16.738  34.556  15.587  1.00  0.00     0.067 A 
BRANCH  10  15
ATOM     15  C   UNL     1      16.274  33.060  11.624  1.00  0.00     0.269 C 
ATOM     16  C   UNL     1      16.529  33.356   9.128  1.00  0.00     0.143 C 
ATOM     17  N   UNL     1      16.750  33.811  10.495  1.00  0.00    -0.354 N 
ATOM     18  H   UNL     1      17.296  34.690  10.644  1.00  0.00     0.163 HD
ATOM     19  O   UNL     1      15.697  31.954  11.441  1.00  0.00    -0.268 OA
ENDBRANCH  10  15
ENDBRANCH   8   9
ENDBRANCH   1   8
BRANCH   5  20
ATOM     20  N   UNL     1      24.057  34.669  12.951  1.00  0.00    -0.305 N 
ATOM     21  C   UNL     1      25.228  33.878  13.200  1.00  0.00     0.323 C 
ATOM     22  H   UNL     1      24.137  35.458  12.270  1.00  0.00     0.171 HD
ATOM     23  O   UNL     1      25.286  33.136  14.217  1.00  0.00    -0.248 OA
ATOM     24  N   UNL     1      26.360  33.999  12.324  1.00  0.00    -0.308 N 
ATOM     25  H   UNL     1      26.353  34.781  11.628  1.00  0.00     0.171 HD
BRANCH  24  26
ATOM     26  C   UNL     1      27.547  33.191  12.409  1.00  0.00     0.043 A 
ATOM     27  C   UNL     1      28.541  33.536  13.334  1.00  0.00     0.028 A 
ATOM     28  C   UNL     1      27.762  32.101  11.546  1.00  0.00     0.040 A 
ATOM     29  C   UNL     1      29.717  32.793  13.420  1.00  0.00     0.023 A 
ATOM     30  C   UNL     1      28.940  31.331  11.634  1.00  0.00     0.076 A 
ATOM     31  C   UNL     1      29.924  31.693  12.581  1.00  0.00     0.053 A 
ATOM     32  Cl  UNL     1      31.440  30.809  12.742  1.00  0.00    -0.084 Cl
BRANCH  30  33
ATOM     33  C   UNL     1      29.155  30.146  10.716  1.00  0.00     0.417 C 
ATOM     34  F   UNL     1      28.090  30.037   9.839  1.00  0.00    -0.166 F 
ATOM     35  F   UNL     1      30.315  30.273   9.971  1.00  0.00    -0.166 F 
ATOM     36  F   UNL     1      29.244  28.985  11.466  1.00  0.00    -0.166 F 
ENDBRANCH  30  33
ENDBRANCH  24  26
ENDBRANCH   5  20
TORSDOF 6
ENDMDL
