MODEL 1
REMARK VINA RESULT:    -8.244      0.000      0.000
REMARK INTER + INTRA:         -14.999
REMARK INTER:                 -12.582
REMARK INTRA:                  -2.418
REMARK UNBOUND:                -2.418
REMARK SMILES COC(=O)c1ccc2c(c1)NC(=O)/C2=C(\Nc1ccc(N(C)C(=O)CN2CCN(C)CC2)cc1)c1ccccc1
REMARK SMILES IDX 17 1 18 2 19 3 20 4 33 5 34 6 16 7 15 9 5 10 6 11 10 12 7 13
REMARK SMILES IDX 9 14 8 15 11 16 14 17 12 18 13 20 3 21 4 22 2 23 1 24 35 25
REMARK SMILES IDX 36 26 40 27 37 28 39 29 38 30 21 31 22 32 23 33 24 34 25 35
REMARK SMILES IDX 26 36 27 37 32 38 28 39 31 40 29 41 30 42
REMARK H PARENT 16 8 11 19
REMARK Flexibility Score: inf
ROOT
ATOM      1  C   UNL     1       9.998  27.718  41.148  1.00  0.00     0.039 A 
ATOM      2  C   UNL     1       8.910  28.429  41.673  1.00  0.00     0.028 A 
ATOM      3  C   UNL     1       8.047  29.129  40.826  1.00  0.00     0.028 A 
ATOM      4  C   UNL     1       8.271  29.149  39.440  1.00  0.00     0.043 A 
ATOM      5  C   UNL     1       9.373  28.453  38.916  1.00  0.00     0.028 A 
ATOM      6  C   UNL     1      10.232  27.749  39.763  1.00  0.00     0.028 A 
ENDROOT
BRANCH   1   7
ATOM      7  N   UNL     1      10.878  27.010  42.035  1.00  0.00    -0.354 N 
ATOM      8  H   UNL     1      10.552  26.097  42.424  1.00  0.00     0.167 HD
BRANCH   7   9
ATOM      9  C   UNL     1      12.241  27.403  42.284  1.00  0.00     0.059 C 
ATOM     10  C   UNL     1      17.425  27.296  40.992  1.00  0.00     0.062 A 
ATOM     11  C   UNL     1      16.743  28.374  41.603  1.00  0.00     0.016 A 
ATOM     12  C   UNL     1      16.701  26.145  40.617  1.00  0.00     0.042 A 
ATOM     13  C   UNL     1      15.365  28.299  41.863  1.00  0.00     0.012 A 
ATOM     14  C   UNL     1      15.337  26.089  40.893  1.00  0.00     0.050 A 
ATOM     15  C   UNL     1      14.682  27.121  41.543  1.00  0.00     0.013 A 
ATOM     16  N   UNL     1      14.450  25.055  40.490  1.00  0.00    -0.321 N 
ATOM     17  C   UNL     1      13.246  26.775  41.631  1.00  0.00     0.073 C 
ATOM     18  C   UNL     1      13.166  25.485  40.924  1.00  0.00     0.258 C 
ATOM     19  H   UNL     1      14.684  24.182  39.966  1.00  0.00     0.170 HD
ATOM     20  O   UNL     1      12.122  24.798  40.759  1.00  0.00    -0.269 OA
BRANCH  10  21
ATOM     21  C   UNL     1      18.878  27.390  40.725  1.00  0.00     0.337 C 
ATOM     22  O   UNL     1      19.406  28.510  40.482  1.00  0.00    -0.246 OA
BRANCH  21  23
ATOM     23  O   UNL     1      19.667  26.234  40.744  1.00  0.00    -0.465 OA
ATOM     24  C   UNL     1      20.209  25.656  39.563  1.00  0.00     0.282 C 
ENDBRANCH  21  23
ENDBRANCH  10  21
BRANCH   9  25
ATOM     25  C   UNL     1      12.499  28.510  43.232  1.00  0.00    -0.001 A 
ATOM     26  C   UNL     1      12.477  29.839  42.783  1.00  0.00     0.010 A 
ATOM     27  C   UNL     1      12.676  28.248  44.603  1.00  0.00     0.010 A 
ATOM     28  C   UNL     1      12.670  30.890  43.685  1.00  0.00     0.001 A 
ATOM     29  C   UNL     1      12.869  29.301  45.501  1.00  0.00     0.001 A 
ATOM     30  C   UNL     1      12.870  30.622  45.042  1.00  0.00     0.000 A 
ENDBRANCH   9  25
ENDBRANCH   7   9
ENDBRANCH   1   7
BRANCH   4  31
ATOM     31  N   UNL     1       7.383  29.872  38.564  1.00  0.00    -0.314 N 
ATOM     32  C   UNL     1       6.371  29.126  37.805  1.00  0.00     0.153 C 
BRANCH  31  33
ATOM     33  C   UNL     1       7.557  31.294  38.359  1.00  0.00     0.240 C 
ATOM     34  O   UNL     1       6.643  31.961  37.801  1.00  0.00    -0.273 OA
BRANCH  33  35
ATOM     35  C   UNL     1       8.835  31.994  38.759  1.00  0.00     0.185 C 
BRANCH  35  36
ATOM     36  N   UNL     1       8.757  32.507  40.145  1.00  0.00    -0.292 NA
ATOM     37  C   UNL     1      10.078  32.442  40.803  1.00  0.00     0.100 C 
ATOM     38  C   UNL     1       8.270  33.898  40.150  1.00  0.00     0.100 C 
ATOM     39  C   UNL     1       9.967  32.924  42.257  1.00  0.00     0.099 C 
ATOM     40  C   UNL     1       8.136  34.407  41.594  1.00  0.00     0.099 C 
ATOM     41  N   UNL     1       9.394  34.282  42.357  1.00  0.00    -0.304 NA
ATOM     42  C   UNL     1      10.369  35.330  42.009  1.00  0.00     0.105 C 
ENDBRANCH  35  36
ENDBRANCH  33  35
ENDBRANCH  31  33
ENDBRANCH   4  31
TORSDOF 9
ENDMDL
MODEL 2
REMARK VINA RESULT:    -8.106      3.211     11.167
REMARK INTER + INTRA:         -14.788
REMARK INTER:                 -13.737
REMARK INTRA:                  -1.051
REMARK UNBOUND:                -2.418
REMARK SMILES COC(=O)c1ccc2c(c1)NC(=O)/C2=C(\Nc1ccc(N(C)C(=O)CN2CCN(C)CC2)cc1)c1ccccc1
REMARK SMILES IDX 17 1 18 2 19 3 20 4 33 5 34 6 16 7 15 9 5 10 6 11 10 12 7 13
REMARK SMILES IDX 9 14 8 15 11 16 14 17 12 18 13 20 3 21 4 22 2 23 1 24 35 25
REMARK SMILES IDX 36 26 40 27 37 28 39 29 38 30 21 31 22 32 23 33 24 34 25 35
REMARK SMILES IDX 26 36 27 37 32 38 28 39 31 40 29 41 30 42
REMARK H PARENT 16 8 11 19
REMARK Flexibility Score: inf
ROOT
ATOM      1  C   UNL     1      15.658  26.923  41.627  1.00  0.00     0.039 A 
ATOM      2  C   UNL     1      16.291  25.734  41.239  1.00  0.00     0.028 A 
ATOM      3  C   UNL     1      17.584  25.759  40.711  1.00  0.00     0.028 A 
ATOM      4  C   UNL     1      18.259  26.979  40.540  1.00  0.00     0.043 A 
ATOM      5  C   UNL     1      17.617  28.172  40.911  1.00  0.00     0.028 A 
ATOM      6  C   UNL     1      16.326  28.145  41.443  1.00  0.00     0.028 A 
ENDROOT
BRANCH   1   7
ATOM      7  N   UNL     1      14.325  26.877  42.161  1.00  0.00    -0.354 N 
ATOM      8  H   UNL     1      14.203  27.026  43.187  1.00  0.00     0.167 HD
BRANCH   7   9
ATOM      9  C   UNL     1      13.143  26.805  41.342  1.00  0.00     0.059 C 
ATOM     10  C   UNL     1       9.065  29.180  38.836  1.00  0.00     0.062 A 
ATOM     11  C   UNL     1       9.730  28.004  38.413  1.00  0.00     0.016 A 
ATOM     12  C   UNL     1       9.522  29.855  39.987  1.00  0.00     0.042 A 
ATOM     13  C   UNL     1      10.816  27.491  39.139  1.00  0.00     0.012 A 
ATOM     14  C   UNL     1      10.597  29.322  40.696  1.00  0.00     0.050 A 
ATOM     15  C   UNL     1      11.209  28.141  40.314  1.00  0.00     0.013 A 
ATOM     16  N   UNL     1      11.241  29.931  41.807  1.00  0.00    -0.321 N 
ATOM     17  C   UNL     1      12.338  27.886  41.235  1.00  0.00     0.073 C 
ATOM     18  C   UNL     1      12.321  29.061  42.124  1.00  0.00     0.258 C 
ATOM     19  H   UNL     1      10.995  30.833  42.272  1.00  0.00     0.170 HD
ATOM     20  O   UNL     1      13.108  29.270  43.085  1.00  0.00    -0.269 OA
BRANCH  10  21
ATOM     21  C   UNL     1       7.919  29.707  38.061  1.00  0.00     0.337 C 
ATOM     22  O   UNL     1       6.980  28.937  37.715  1.00  0.00    -0.246 OA
BRANCH  21  23
ATOM     23  O   UNL     1       7.878  31.061  37.712  1.00  0.00    -0.465 OA
ATOM     24  C   UNL     1       7.011  31.992  38.348  1.00  0.00     0.282 C 
ENDBRANCH  21  23
ENDBRANCH  10  21
BRANCH   9  25
ATOM     25  C   UNL     1      12.860  25.547  40.614  1.00  0.00    -0.001 A 
ATOM     26  C   UNL     1      13.663  25.167  39.528  1.00  0.00     0.010 A 
ATOM     27  C   UNL     1      11.846  24.679  41.058  1.00  0.00     0.010 A 
ATOM     28  C   UNL     1      13.430  23.956  38.870  1.00  0.00     0.001 A 
ATOM     29  C   UNL     1      11.616  23.469  40.397  1.00  0.00     0.001 A 
ATOM     30  C   UNL     1      12.405  23.110  39.301  1.00  0.00     0.000 A 
ENDBRANCH   9  25
ENDBRANCH   7   9
ENDBRANCH   1   7
BRANCH   4  31
ATOM     31  N   UNL     1      19.593  27.008  39.995  1.00  0.00    -0.314 N 
ATOM     32  C   UNL     1      20.256  28.305  39.809  1.00  0.00     0.153 C 
BRANCH  31  33
ATOM     33  C   UNL     1      20.224  25.787  39.542  1.00  0.00     0.240 C 
ATOM     34  O   UNL     1      19.631  25.051  38.704  1.00  0.00    -0.273 OA
BRANCH  33  35
ATOM     35  C   UNL     1      21.562  25.346  40.086  1.00  0.00     0.185 C 
BRANCH  35  36
ATOM     36  N   UNL     1      22.161  24.283  39.249  1.00  0.00    -0.292 NA
ATOM     37  C   UNL     1      22.727  24.849  38.008  1.00  0.00     0.100 C 
ATOM     38  C   UNL     1      23.216  23.576  39.996  1.00  0.00     0.100 C 
ATOM     39  C   UNL     1      23.292  23.726  37.125  1.00  0.00     0.099 C 
ATOM     40  C   UNL     1      23.795  22.435  39.143  1.00  0.00     0.099 C 
ATOM     41  N   UNL     1      24.294  22.905  37.835  1.00  0.00    -0.304 NA
ATOM     42  C   UNL     1      25.600  23.576  37.940  1.00  0.00     0.105 C 
ENDBRANCH  35  36
ENDBRANCH  33  35
ENDBRANCH  31  33
ENDBRANCH   4  31
TORSDOF 9
ENDMDL
MODEL 3
REMARK VINA RESULT:    -8.047      2.752     10.619
REMARK INTER + INTRA:         -14.699
REMARK INTER:                 -13.603
REMARK INTRA:                  -1.095
REMARK UNBOUND:                -2.418
REMARK SMILES COC(=O)c1ccc2c(c1)NC(=O)/C2=C(\Nc1ccc(N(C)C(=O)CN2CCN(C)CC2)cc1)c1ccccc1
REMARK SMILES IDX 17 1 18 2 19 3 20 4 33 5 34 6 16 7 15 9 5 10 6 11 10 12 7 13
REMARK SMILES IDX 9 14 8 15 11 16 14 17 12 18 13 20 3 21 4 22 2 23 1 24 35 25
REMARK SMILES IDX 36 26 40 27 37 28 39 29 38 30 21 31 22 32 23 33 24 34 25 35
REMARK SMILES IDX 26 36 27 37 32 38 28 39 31 40 29 41 30 42
REMARK H PARENT 16 8 11 19
REMARK Flexibility Score: inf
ROOT
ATOM      1  C   UNL     1      14.057  27.315  41.966  1.00  0.00     0.039 A 
ATOM      2  C   UNL     1      14.908  28.420  42.103  1.00  0.00     0.028 A 
ATOM      3  C   UNL     1      16.207  28.382  41.591  1.00  0.00     0.028 A 
ATOM      4  C   UNL     1      16.686  27.227  40.952  1.00  0.00     0.043 A 
ATOM      5  C   UNL     1      15.840  26.112  40.832  1.00  0.00     0.028 A 
ATOM      6  C   UNL     1      14.540  26.153  41.340  1.00  0.00     0.028 A 
ENDROOT
BRANCH   1   7
ATOM      7  N   UNL     1      12.727  27.370  42.506  1.00  0.00    -0.354 N 
ATOM      8  H   UNL     1      12.612  27.262  43.538  1.00  0.00     0.167 HD
BRANCH   7   9
ATOM      9  C   UNL     1      11.569  27.733  41.730  1.00  0.00     0.059 C 
ATOM     10  C   UNL     1       8.579  31.418  39.273  1.00  0.00     0.062 A 
ATOM     11  C   UNL     1       8.731  30.069  38.874  1.00  0.00     0.016 A 
ATOM     12  C   UNL     1       9.310  31.896  40.381  1.00  0.00     0.042 A 
ATOM     13  C   UNL     1       9.576  29.199  39.582  1.00  0.00     0.012 A 
ATOM     14  C   UNL     1      10.136  31.012  41.074  1.00  0.00     0.050 A 
ATOM     15  C   UNL     1      10.238  29.679  40.717  1.00  0.00     0.013 A 
ATOM     16  N   UNL     1      11.012  31.356  42.138  1.00  0.00    -0.321 N 
ATOM     17  C   UNL     1      11.228  29.036  41.609  1.00  0.00     0.073 C 
ATOM     18  C   UNL     1      11.697  30.150  42.452  1.00  0.00     0.258 C 
ATOM     19  H   UNL     1      11.145  32.295  42.576  1.00  0.00     0.170 HD
ATOM     20  O   UNL     1      12.547  30.067  43.378  1.00  0.00    -0.269 OA
BRANCH  10  21
ATOM     21  C   UNL     1       7.684  32.321  38.517  1.00  0.00     0.337 C 
ATOM     22  O   UNL     1       6.751  31.845  37.812  1.00  0.00    -0.246 OA
BRANCH  21  23
ATOM     23  O   UNL     1       7.872  33.707  38.585  1.00  0.00    -0.465 OA
ATOM     24  C   UNL     1       6.847  34.601  39.001  1.00  0.00     0.282 C 
ENDBRANCH  21  23
ENDBRANCH  10  21
BRANCH   9  25
ATOM     25  C   UNL     1      10.799  26.660  41.061  1.00  0.00    -0.001 A 
ATOM     26  C   UNL     1      11.268  26.101  39.862  1.00  0.00     0.010 A 
ATOM     27  C   UNL     1       9.645  26.128  41.665  1.00  0.00     0.010 A 
ATOM     28  C   UNL     1      10.569  25.054  39.253  1.00  0.00     0.001 A 
ATOM     29  C   UNL     1       8.950  25.081  41.053  1.00  0.00     0.001 A 
ATOM     30  C   UNL     1       9.410  24.547  39.846  1.00  0.00     0.000 A 
ENDBRANCH   9  25
ENDBRANCH   7   9
ENDBRANCH   1   7
BRANCH   4  31
ATOM     31  N   UNL     1      18.027  27.184  40.423  1.00  0.00    -0.314 N 
ATOM     32  C   UNL     1      18.569  28.380  39.765  1.00  0.00     0.153 C 
BRANCH  31  33
ATOM     33  C   UNL     1      18.783  25.950  40.450  1.00  0.00     0.240 C 
ATOM     34  O   UNL     1      18.214  24.876  40.787  1.00  0.00    -0.273 OA
BRANCH  33  35
ATOM     35  C   UNL     1      20.258  25.928  40.126  1.00  0.00     0.185 C 
BRANCH  35  36
ATOM     36  N   UNL     1      20.679  24.601  39.624  1.00  0.00    -0.292 NA
ATOM     37  C   UNL     1      20.542  24.527  38.156  1.00  0.00     0.100 C 
ATOM     38  C   UNL     1      22.077  24.329  40.004  1.00  0.00     0.100 C 
ATOM     39  C   UNL     1      20.928  23.125  37.659  1.00  0.00     0.099 C 
ATOM     40  C   UNL     1      22.491  22.926  39.532  1.00  0.00     0.099 C 
ATOM     41  N   UNL     1      22.288  22.735  38.082  1.00  0.00    -0.304 NA
ATOM     42  C   UNL     1      23.336  23.386  37.277  1.00  0.00     0.105 C 
ENDBRANCH  35  36
ENDBRANCH  33  35
ENDBRANCH  31  33
ENDBRANCH   4  31
TORSDOF 9
ENDMDL
MODEL 4
REMARK VINA RESULT:    -7.660      7.304     10.541
REMARK INTER + INTRA:         -14.108
REMARK INTER:                 -11.931
REMARK INTRA:                  -2.177
REMARK UNBOUND:                -2.418
REMARK SMILES COC(=O)c1ccc2c(c1)NC(=O)/C2=C(\Nc1ccc(N(C)C(=O)CN2CCN(C)CC2)cc1)c1ccccc1
REMARK SMILES IDX 17 1 18 2 19 3 20 4 33 5 34 6 16 7 15 9 5 10 6 11 10 12 7 13
REMARK SMILES IDX 9 14 8 15 11 16 14 17 12 18 13 20 3 21 4 22 2 23 1 24 35 25
REMARK SMILES IDX 36 26 40 27 37 28 39 29 38 30 21 31 22 32 23 33 24 34 25 35
REMARK SMILES IDX 26 36 27 37 32 38 28 39 31 40 29 41 30 42
REMARK H PARENT 16 8 11 19
REMARK Flexibility Score: inf
ROOT
ATOM      1  C   UNL     1       9.847  20.778  38.740  1.00  0.00     0.039 A 
ATOM      2  C   UNL     1       9.297  20.923  37.459  1.00  0.00     0.028 A 
ATOM      3  C   UNL     1       8.906  19.801  36.725  1.00  0.00     0.028 A 
ATOM      4  C   UNL     1       9.082  18.511  37.250  1.00  0.00     0.043 A 
ATOM      5  C   UNL     1       9.652  18.365  38.526  1.00  0.00     0.028 A 
ATOM      6  C   UNL     1      10.038  19.488  39.261  1.00  0.00     0.028 A 
ENDROOT
BRANCH   1   7
ATOM      7  N   UNL     1      10.249  21.945  39.477  1.00  0.00    -0.354 N 
ATOM      8  H   UNL     1       9.600  22.308  40.210  1.00  0.00     0.167 HD
BRANCH   7   9
ATOM      9  C   UNL     1      11.558  22.535  39.377  1.00  0.00     0.059 C 
ATOM     10  C   UNL     1      15.072  26.323  40.741  1.00  0.00     0.062 A 
ATOM     11  C   UNL     1      15.381  24.983  40.411  1.00  0.00     0.016 A 
ATOM     12  C   UNL     1      13.721  26.730  40.785  1.00  0.00     0.042 A 
ATOM     13  C   UNL     1      14.364  24.065  40.102  1.00  0.00     0.012 A 
ATOM     14  C   UNL     1      12.730  25.804  40.465  1.00  0.00     0.050 A 
ATOM     15  C   UNL     1      13.037  24.508  40.087  1.00  0.00     0.013 A 
ATOM     16  N   UNL     1      11.330  26.021  40.562  1.00  0.00    -0.321 N 
ATOM     17  C   UNL     1      11.770  23.776  39.872  1.00  0.00     0.073 C 
ATOM     18  C   UNL     1      10.741  24.773  40.219  1.00  0.00     0.258 C 
ATOM     19  H   UNL     1      10.838  26.897  40.849  1.00  0.00     0.170 HD
ATOM     20  O   UNL     1       9.495  24.593  40.171  1.00  0.00    -0.269 OA
BRANCH  10  21
ATOM     21  C   UNL     1      16.155  27.279  41.063  1.00  0.00     0.337 C 
ATOM     22  O   UNL     1      15.996  28.129  41.983  1.00  0.00    -0.246 OA
BRANCH  21  23
ATOM     23  O   UNL     1      17.356  27.240  40.346  1.00  0.00    -0.465 OA
ATOM     24  C   UNL     1      18.573  26.771  40.913  1.00  0.00     0.282 C 
ENDBRANCH  21  23
ENDBRANCH  10  21
BRANCH   9  25
ATOM     25  C   UNL     1      12.647  21.748  38.755  1.00  0.00    -0.001 A 
ATOM     26  C   UNL     1      13.324  20.772  39.503  1.00  0.00     0.010 A 
ATOM     27  C   UNL     1      12.949  21.903  37.390  1.00  0.00     0.010 A 
ATOM     28  C   UNL     1      14.318  19.992  38.905  1.00  0.00     0.001 A 
ATOM     29  C   UNL     1      13.944  21.121  36.797  1.00  0.00     0.001 A 
ATOM     30  C   UNL     1      14.631  20.169  37.555  1.00  0.00     0.000 A 
ENDBRANCH   9  25
ENDBRANCH   7   9
ENDBRANCH   1   7
BRANCH   4  31
ATOM     31  N   UNL     1       8.682  17.350  36.494  1.00  0.00    -0.314 N 
ATOM     32  C   UNL     1       9.260  16.045  36.837  1.00  0.00     0.153 C 
BRANCH  31  33
ATOM     33  C   UNL     1       7.805  17.491  35.351  1.00  0.00     0.240 C 
ATOM     34  O   UNL     1       6.556  17.543  35.525  1.00  0.00    -0.273 OA
BRANCH  33  35
ATOM     35  C   UNL     1       8.351  17.529  33.943  1.00  0.00     0.185 C 
BRANCH  35  36
ATOM     36  N   UNL     1       8.046  18.817  33.282  1.00  0.00    -0.292 NA
ATOM     37  C   UNL     1       9.287  19.500  32.864  1.00  0.00     0.100 C 
ATOM     38  C   UNL     1       7.182  18.599  32.108  1.00  0.00     0.100 C 
ATOM     39  C   UNL     1       8.954  20.860  32.232  1.00  0.00     0.099 C 
ATOM     40  C   UNL     1       6.820  19.944  31.458  1.00  0.00     0.099 C 
ATOM     41  N   UNL     1       8.013  20.738  31.101  1.00  0.00    -0.304 NA
ATOM     42  C   UNL     1       8.667  20.248  29.875  1.00  0.00     0.105 C 
ENDBRANCH  35  36
ENDBRANCH  33  35
ENDBRANCH  31  33
ENDBRANCH   4  31
TORSDOF 9
ENDMDL
MODEL 5
REMARK VINA RESULT:    -7.368      7.934     11.763
REMARK INTER + INTRA:         -13.662
REMARK INTER:                 -11.397
REMARK INTRA:                  -2.264
REMARK UNBOUND:                -2.418
REMARK SMILES COC(=O)c1ccc2c(c1)NC(=O)/C2=C(\Nc1ccc(N(C)C(=O)CN2CCN(C)CC2)cc1)c1ccccc1
REMARK SMILES IDX 17 1 18 2 19 3 20 4 33 5 34 6 16 7 15 9 5 10 6 11 10 12 7 13
REMARK SMILES IDX 9 14 8 15 11 16 14 17 12 18 13 20 3 21 4 22 2 23 1 24 35 25
REMARK SMILES IDX 36 26 40 27 37 28 39 29 38 30 21 31 22 32 23 33 24 34 25 35
REMARK SMILES IDX 26 36 27 37 32 38 28 39 31 40 29 41 30 42
REMARK H PARENT 16 8 11 19
REMARK Flexibility Score: inf
ROOT
ATOM      1  C   UNL     1      10.735  17.776  40.583  1.00  0.00     0.039 A 
ATOM      2  C   UNL     1      11.784  17.503  41.472  1.00  0.00     0.028 A 
ATOM      3  C   UNL     1      11.762  18.016  42.771  1.00  0.00     0.028 A 
ATOM      4  C   UNL     1      10.701  18.830  43.197  1.00  0.00     0.043 A 
ATOM      5  C   UNL     1       9.660  19.120  42.300  1.00  0.00     0.028 A 
ATOM      6  C   UNL     1       9.680  18.604  41.002  1.00  0.00     0.028 A 
ENDROOT
BRANCH   1   7
ATOM      7  N   UNL     1      10.779  17.247  39.248  1.00  0.00    -0.354 N 
ATOM      8  H   UNL     1      10.485  16.255  39.104  1.00  0.00     0.167 HD
BRANCH   7   9
ATOM      9  C   UNL     1      11.042  18.050  38.082  1.00  0.00     0.059 C 
ATOM     10  C   UNL     1       9.584  19.929  33.297  1.00  0.00     0.062 A 
ATOM     11  C   UNL     1      10.380  20.607  34.249  1.00  0.00     0.016 A 
ATOM     12  C   UNL     1       9.054  18.661  33.618  1.00  0.00     0.042 A 
ATOM     13  C   UNL     1      10.670  20.024  35.493  1.00  0.00     0.012 A 
ATOM     14  C   UNL     1       9.362  18.098  34.855  1.00  0.00     0.050 A 
ATOM     15  C   UNL     1      10.189  18.738  35.762  1.00  0.00     0.013 A 
ATOM     16  N   UNL     1       8.829  16.886  35.371  1.00  0.00    -0.321 N 
ATOM     17  C   UNL     1      10.266  17.906  36.984  1.00  0.00     0.073 C 
ATOM     18  C   UNL     1       9.366  16.780  36.683  1.00  0.00     0.258 C 
ATOM     19  H   UNL     1       8.165  16.230  34.901  1.00  0.00     0.170 HD
ATOM     20  O   UNL     1       9.128  15.803  37.443  1.00  0.00    -0.269 OA
BRANCH  10  21
ATOM     21  C   UNL     1       9.289  20.556  31.990  1.00  0.00     0.337 C 
ATOM     22  O   UNL     1      10.233  20.907  31.228  1.00  0.00    -0.246 OA
BRANCH  21  23
ATOM     23  O   UNL     1       7.961  20.761  31.597  1.00  0.00    -0.465 OA
ATOM     24  C   UNL     1       7.421  20.215  30.400  1.00  0.00     0.282 C 
ENDBRANCH  21  23
ENDBRANCH  10  21
BRANCH   9  25
ATOM     25  C   UNL     1      12.145  19.036  38.134  1.00  0.00    -0.001 A 
ATOM     26  C   UNL     1      11.915  20.323  38.642  1.00  0.00     0.010 A 
ATOM     27  C   UNL     1      13.451  18.665  37.764  1.00  0.00     0.010 A 
ATOM     28  C   UNL     1      12.965  21.241  38.739  1.00  0.00     0.001 A 
ATOM     29  C   UNL     1      14.499  19.584  37.863  1.00  0.00     0.001 A 
ATOM     30  C   UNL     1      14.255  20.873  38.346  1.00  0.00     0.000 A 
ENDBRANCH   9  25
ENDBRANCH   7   9
ENDBRANCH   1   7
BRANCH   4  31
ATOM     31  N   UNL     1      10.677  19.361  44.537  1.00  0.00    -0.314 N 
ATOM     32  C   UNL     1       9.760  18.769  45.519  1.00  0.00     0.153 C 
BRANCH  31  33
ATOM     33  C   UNL     1      11.468  20.525  44.876  1.00  0.00     0.240 C 
ATOM     34  O   UNL     1      12.715  20.409  45.031  1.00  0.00    -0.273 OA
BRANCH  33  35
ATOM     35  C   UNL     1      10.824  21.874  45.095  1.00  0.00     0.185 C 
BRANCH  35  36
ATOM     36  N   UNL     1      11.316  22.870  44.117  1.00  0.00    -0.292 NA
ATOM     37  C   UNL     1      10.418  22.945  42.947  1.00  0.00     0.100 C 
ATOM     38  C   UNL     1      11.419  24.199  44.747  1.00  0.00     0.100 C 
ATOM     39  C   UNL     1      10.973  23.941  41.918  1.00  0.00     0.099 C 
ATOM     40  C   UNL     1      11.984  25.218  43.745  1.00  0.00     0.099 C 
ATOM     41  N   UNL     1      11.197  25.281  42.497  1.00  0.00    -0.304 NA
ATOM     42  C   UNL     1       9.945  26.039  42.661  1.00  0.00     0.105 C 
ENDBRANCH  35  36
ENDBRANCH  33  35
ENDBRANCH  31  33
ENDBRANCH   4  31
TORSDOF 9
ENDMDL
MODEL 6
REMARK VINA RESULT:    -7.358      6.287     10.008
REMARK INTER + INTRA:         -13.647
REMARK INTER:                 -11.476
REMARK INTRA:                  -2.171
REMARK UNBOUND:                -2.418
REMARK SMILES COC(=O)c1ccc2c(c1)NC(=O)/C2=C(\Nc1ccc(N(C)C(=O)CN2CCN(C)CC2)cc1)c1ccccc1
REMARK SMILES IDX 17 1 18 2 19 3 20 4 33 5 34 6 16 7 15 9 5 10 6 11 10 12 7 13
REMARK SMILES IDX 9 14 8 15 11 16 14 17 12 18 13 20 3 21 4 22 2 23 1 24 35 25
REMARK SMILES IDX 36 26 40 27 37 28 39 29 38 30 21 31 22 32 23 33 24 34 25 35
REMARK SMILES IDX 26 36 27 37 32 38 28 39 31 40 29 41 30 42
REMARK H PARENT 16 8 11 19
REMARK Flexibility Score: inf
ROOT
ATOM      1  C   UNL     1      10.381  22.772  40.238  1.00  0.00     0.039 A 
ATOM      2  C   UNL     1      10.257  23.803  39.296  1.00  0.00     0.028 A 
ATOM      3  C   UNL     1      10.337  25.140  39.694  1.00  0.00     0.028 A 
ATOM      4  C   UNL     1      10.518  25.469  41.047  1.00  0.00     0.043 A 
ATOM      5  C   UNL     1      10.622  24.436  41.994  1.00  0.00     0.028 A 
ATOM      6  C   UNL     1      10.547  23.100  41.594  1.00  0.00     0.028 A 
ENDROOT
BRANCH   1   7
ATOM      7  N   UNL     1      10.289  21.404  39.810  1.00  0.00    -0.354 N 
ATOM      8  H   UNL     1       9.853  20.715  40.462  1.00  0.00     0.167 HD
BRANCH   7   9
ATOM      9  C   UNL     1      10.609  20.965  38.476  1.00  0.00     0.059 C 
ATOM     10  C   UNL     1       9.328  20.446  33.314  1.00  0.00     0.062 A 
ATOM     11  C   UNL     1      10.632  20.627  33.833  1.00  0.00     0.016 A 
ATOM     12  C   UNL     1       8.227  20.455  34.196  1.00  0.00     0.042 A 
ATOM     13  C   UNL     1      10.842  20.788  35.212  1.00  0.00     0.012 A 
ATOM     14  C   UNL     1       8.461  20.607  35.561  1.00  0.00     0.050 A 
ATOM     15  C   UNL     1       9.741  20.726  36.073  1.00  0.00     0.013 A 
ATOM     16  N   UNL     1       7.463  20.742  36.564  1.00  0.00    -0.321 N 
ATOM     17  C   UNL     1       9.637  20.926  37.536  1.00  0.00     0.073 C 
ATOM     18  C   UNL     1       8.183  20.959  37.770  1.00  0.00     0.258 C 
ATOM     19  H   UNL     1       6.426  20.716  36.439  1.00  0.00     0.170 HD
ATOM     20  O   UNL     1       7.620  21.098  38.888  1.00  0.00    -0.269 OA
BRANCH  10  21
ATOM     21  C   UNL     1       9.124  20.276  31.858  1.00  0.00     0.337 C 
ATOM     22  O   UNL     1       9.918  20.817  31.040  1.00  0.00    -0.246 OA
BRANCH  21  23
ATOM     23  O   UNL     1       8.048  19.514  31.389  1.00  0.00    -0.465 OA
ATOM     24  C   UNL     1       7.417  19.764  30.139  1.00  0.00     0.282 C 
ENDBRANCH  21  23
ENDBRANCH  10  21
BRANCH   9  25
ATOM     25  C   UNL     1      12.008  20.595  38.167  1.00  0.00    -0.001 A 
ATOM     26  C   UNL     1      12.405  19.250  38.210  1.00  0.00     0.010 A 
ATOM     27  C   UNL     1      12.927  21.571  37.740  1.00  0.00     0.010 A 
ATOM     28  C   UNL     1      13.713  18.891  37.870  1.00  0.00     0.001 A 
ATOM     29  C   UNL     1      14.233  21.208  37.402  1.00  0.00     0.001 A 
ATOM     30  C   UNL     1      14.627  19.869  37.471  1.00  0.00     0.000 A 
ENDBRANCH   9  25
ENDBRANCH   7   9
ENDBRANCH   1   7
BRANCH   4  31
ATOM     31  N   UNL     1      10.599  26.848  41.461  1.00  0.00    -0.314 N 
ATOM     32  C   UNL     1       9.367  27.547  41.847  1.00  0.00     0.153 C 
BRANCH  31  33
ATOM     33  C   UNL     1      11.860  27.557  41.396  1.00  0.00     0.240 C 
ATOM     34  O   UNL     1      11.929  28.651  40.770  1.00  0.00    -0.273 OA
BRANCH  33  35
ATOM     35  C   UNL     1      13.111  26.991  42.024  1.00  0.00     0.185 C 
BRANCH  35  36
ATOM     36  N   UNL     1      14.256  27.046  41.088  1.00  0.00    -0.292 NA
ATOM     37  C   UNL     1      15.466  27.548  41.768  1.00  0.00     0.100 C 
ATOM     38  C   UNL     1      14.523  25.709  40.527  1.00  0.00     0.100 C 
ATOM     39  C   UNL     1      16.628  27.653  40.769  1.00  0.00     0.099 C 
ATOM     40  C   UNL     1      15.675  25.781  39.512  1.00  0.00     0.099 C 
ATOM     41  N   UNL     1      16.900  26.371  40.088  1.00  0.00    -0.304 NA
ATOM     42  C   UNL     1      17.630  25.422  40.947  1.00  0.00     0.105 C 
ENDBRANCH  35  36
ENDBRANCH  33  35
ENDBRANCH  31  33
ENDBRANCH   4  31
TORSDOF 9
ENDMDL
MODEL 7
REMARK VINA RESULT:    -7.344      7.833     11.499
REMARK INTER + INTRA:         -13.626
REMARK INTER:                 -11.040
REMARK INTRA:                  -2.586
REMARK UNBOUND:                -2.418
REMARK SMILES COC(=O)c1ccc2c(c1)NC(=O)/C2=C(\Nc1ccc(N(C)C(=O)CN2CCN(C)CC2)cc1)c1ccccc1
REMARK SMILES IDX 17 1 18 2 19 3 20 4 33 5 34 6 16 7 15 9 5 10 6 11 10 12 7 13
REMARK SMILES IDX 9 14 8 15 11 16 14 17 12 18 13 20 3 21 4 22 2 23 1 24 35 25
REMARK SMILES IDX 36 26 40 27 37 28 39 29 38 30 21 31 22 32 23 33 24 34 25 35
REMARK SMILES IDX 26 36 27 37 32 38 28 39 31 40 29 41 30 42
REMARK H PARENT 16 8 11 19
REMARK Flexibility Score: inf
ROOT
ATOM      1  C   UNL     1      10.526  18.361  40.113  1.00  0.00     0.039 A 
ATOM      2  C   UNL     1       9.301  18.970  40.420  1.00  0.00     0.028 A 
ATOM      3  C   UNL     1       9.111  19.593  41.656  1.00  0.00     0.028 A 
ATOM      4  C   UNL     1      10.135  19.597  42.617  1.00  0.00     0.043 A 
ATOM      5  C   UNL     1      11.356  18.969  42.316  1.00  0.00     0.028 A 
ATOM      6  C   UNL     1      11.547  18.351  41.078  1.00  0.00     0.028 A 
ENDROOT
BRANCH   1   7
ATOM      7  N   UNL     1      10.701  17.720  38.839  1.00  0.00    -0.354 N 
ATOM      8  H   UNL     1      10.506  16.695  38.776  1.00  0.00     0.167 HD
BRANCH   7   9
ATOM      9  C   UNL     1      10.964  18.436  37.618  1.00  0.00     0.059 C 
ATOM     10  C   UNL     1       9.471  20.024  32.739  1.00  0.00     0.062 A 
ATOM     11  C   UNL     1      10.299  20.745  33.631  1.00  0.00     0.016 A 
ATOM     12  C   UNL     1       8.916  18.794  33.154  1.00  0.00     0.042 A 
ATOM     13  C   UNL     1      10.596  20.239  34.907  1.00  0.00     0.012 A 
ATOM     14  C   UNL     1       9.231  18.309  34.421  1.00  0.00     0.050 A 
ATOM     15  C   UNL     1      10.088  18.987  35.270  1.00  0.00     0.013 A 
ATOM     16  N   UNL     1       8.677  17.148  35.026  1.00  0.00    -0.321 N 
ATOM     17  C   UNL     1      10.166  18.238  36.544  1.00  0.00     0.073 C 
ATOM     18  C   UNL     1       9.234  17.117  36.334  1.00  0.00     0.258 C 
ATOM     19  H   UNL     1       7.990  16.479  34.612  1.00  0.00     0.170 HD
ATOM     20  O   UNL     1       8.985  16.200  37.162  1.00  0.00    -0.269 OA
BRANCH  10  21
ATOM     21  C   UNL     1       9.170  20.570  31.397  1.00  0.00     0.337 C 
ATOM     22  O   UNL     1      10.106  20.801  30.583  1.00  0.00    -0.246 OA
BRANCH  21  23
ATOM     23  O   UNL     1       7.844  20.829  31.031  1.00  0.00    -0.465 OA
ATOM     24  C   UNL     1       7.253  20.290  29.854  1.00  0.00     0.282 C 
ENDBRANCH  21  23
ENDBRANCH  10  21
BRANCH   9  25
ATOM     25  C   UNL     1      12.091  19.394  37.587  1.00  0.00    -0.001 A 
ATOM     26  C   UNL     1      11.879  20.741  37.917  1.00  0.00     0.010 A 
ATOM     27  C   UNL     1      13.399  18.949  37.317  1.00  0.00     0.010 A 
ATOM     28  C   UNL     1      12.950  21.639  37.937  1.00  0.00     0.001 A 
ATOM     29  C   UNL     1      14.467  19.850  37.338  1.00  0.00     0.001 A 
ATOM     30  C   UNL     1      14.242  21.195  37.644  1.00  0.00     0.000 A 
ENDBRANCH   9  25
ENDBRANCH   7   9
ENDBRANCH   1   7
BRANCH   4  31
ATOM     31  N   UNL     1       9.941  20.238  43.893  1.00  0.00    -0.314 N 
ATOM     32  C   UNL     1       9.847  19.405  45.099  1.00  0.00     0.153 C 
BRANCH  31  33
ATOM     33  C   UNL     1       9.737  21.669  43.968  1.00  0.00     0.240 C 
ATOM     34  O   UNL     1       8.596  22.123  44.259  1.00  0.00    -0.273 OA
BRANCH  33  35
ATOM     35  C   UNL     1      10.854  22.638  43.659  1.00  0.00     0.185 C 
BRANCH  35  36
ATOM     36  N   UNL     1      10.530  23.477  42.485  1.00  0.00    -0.292 NA
ATOM     37  C   UNL     1      11.192  24.794  42.582  1.00  0.00     0.100 C 
ATOM     38  C   UNL     1      10.947  22.804  41.242  1.00  0.00     0.100 C 
ATOM     39  C   UNL     1      10.799  25.672  41.385  1.00  0.00     0.099 C 
ATOM     40  C   UNL     1      10.556  23.653  40.022  1.00  0.00     0.099 C 
ATOM     41  N   UNL     1      11.098  25.026  40.091  1.00  0.00    -0.304 NA
ATOM     42  C   UNL     1      12.530  25.082  39.753  1.00  0.00     0.105 C 
ENDBRANCH  35  36
ENDBRANCH  33  35
ENDBRANCH  31  33
ENDBRANCH   4  31
TORSDOF 9
ENDMDL
MODEL 8
REMARK VINA RESULT:    -7.280      9.430     13.164
REMARK INTER + INTRA:         -13.528
REMARK INTER:                 -11.604
REMARK INTRA:                  -1.924
REMARK UNBOUND:                -2.418
REMARK SMILES COC(=O)c1ccc2c(c1)NC(=O)/C2=C(\Nc1ccc(N(C)C(=O)CN2CCN(C)CC2)cc1)c1ccccc1
REMARK SMILES IDX 17 1 18 2 19 3 20 4 33 5 34 6 16 7 15 9 5 10 6 11 10 12 7 13
REMARK SMILES IDX 9 14 8 15 11 16 14 17 12 18 13 20 3 21 4 22 2 23 1 24 35 25
REMARK SMILES IDX 36 26 40 27 37 28 39 29 38 30 21 31 22 32 23 33 24 34 25 35
REMARK SMILES IDX 26 36 27 37 32 38 28 39 31 40 29 41 30 42
REMARK H PARENT 16 8 11 19
REMARK Flexibility Score: inf
ROOT
ATOM      1  C   UNL     1      10.733  18.396  40.227  1.00  0.00     0.039 A 
ATOM      2  C   UNL     1      11.926  18.278  40.953  1.00  0.00     0.028 A 
ATOM      3  C   UNL     1      12.034  18.830  42.231  1.00  0.00     0.028 A 
ATOM      4  C   UNL     1      10.957  19.529  42.798  1.00  0.00     0.043 A 
ATOM      5  C   UNL     1       9.767  19.664  42.063  1.00  0.00     0.028 A 
ATOM      6  C   UNL     1       9.659  19.108  40.786  1.00  0.00     0.028 A 
ENDROOT
BRANCH   1   7
ATOM      7  N   UNL     1      10.643  17.828  38.910  1.00  0.00    -0.354 N 
ATOM      8  H   UNL     1      10.247  16.866  38.817  1.00  0.00     0.167 HD
BRANCH   7   9
ATOM      9  C   UNL     1      10.910  18.570  37.705  1.00  0.00     0.059 C 
ATOM     10  C   UNL     1       9.522  20.104  32.778  1.00  0.00     0.062 A 
ATOM     11  C   UNL     1      10.266  20.867  33.708  1.00  0.00     0.016 A 
ATOM     12  C   UNL     1       9.029  18.838  33.162  1.00  0.00     0.042 A 
ATOM     13  C   UNL     1      10.541  20.370  34.992  1.00  0.00     0.012 A 
ATOM     14  C   UNL     1       9.322  18.362  34.438  1.00  0.00     0.050 A 
ATOM     15  C   UNL     1      10.099  19.085  35.326  1.00  0.00     0.013 A 
ATOM     16  N   UNL     1       8.818  17.164  35.012  1.00  0.00    -0.321 N 
ATOM     17  C   UNL     1      10.172  18.332  36.597  1.00  0.00     0.073 C 
ATOM     18  C   UNL     1       9.321  17.156  36.342  1.00  0.00     0.258 C 
ATOM     19  H   UNL     1       8.192  16.457  34.566  1.00  0.00     0.170 HD
ATOM     20  O   UNL     1       9.097  16.219  37.153  1.00  0.00    -0.269 OA
BRANCH  10  21
ATOM     21  C   UNL     1       9.242  20.641  31.428  1.00  0.00     0.337 C 
ATOM     22  O   UNL     1      10.189  20.840  30.617  1.00  0.00    -0.246 OA
BRANCH  21  23
ATOM     23  O   UNL     1       7.926  20.928  31.050  1.00  0.00    -0.465 OA
ATOM     24  C   UNL     1       7.070  19.962  30.452  1.00  0.00     0.282 C 
ENDBRANCH  21  23
ENDBRANCH  10  21
BRANCH   9  25
ATOM     25  C   UNL     1      11.976  19.597  37.726  1.00  0.00    -0.001 A 
ATOM     26  C   UNL     1      13.252  19.297  37.227  1.00  0.00     0.010 A 
ATOM     27  C   UNL     1      11.695  20.907  38.158  1.00  0.00     0.010 A 
ATOM     28  C   UNL     1      14.247  20.280  37.199  1.00  0.00     0.001 A 
ATOM     29  C   UNL     1      12.692  21.886  38.128  1.00  0.00     0.001 A 
ATOM     30  C   UNL     1      13.968  21.572  37.653  1.00  0.00     0.000 A 
ENDBRANCH   9  25
ENDBRANCH   7   9
ENDBRANCH   1   7
BRANCH   4  31
ATOM     31  N   UNL     1      11.066  20.100  44.117  1.00  0.00    -0.314 N 
ATOM     32  C   UNL     1      10.334  21.337  44.419  1.00  0.00     0.153 C 
BRANCH  31  33
ATOM     33  C   UNL     1      11.965  19.520  45.092  1.00  0.00     0.240 C 
ATOM     34  O   UNL     1      13.078  20.071  45.320  1.00  0.00    -0.273 OA
BRANCH  33  35
ATOM     35  C   UNL     1      11.620  18.238  45.812  1.00  0.00     0.185 C 
BRANCH  35  36
ATOM     36  N   UNL     1      11.564  18.442  47.276  1.00  0.00    -0.292 NA
ATOM     37  C   UNL     1      10.521  19.427  47.629  1.00  0.00     0.100 C 
ATOM     38  C   UNL     1      11.290  17.166  47.961  1.00  0.00     0.100 C 
ATOM     39  C   UNL     1      10.515  19.669  49.146  1.00  0.00     0.099 C 
ATOM     40  C   UNL     1      11.289  17.371  49.485  1.00  0.00     0.099 C 
ATOM     41  N   UNL     1      10.341  18.419  49.914  1.00  0.00    -0.304 NA
ATOM     42  C   UNL     1       8.945  17.948  49.911  1.00  0.00     0.105 C 
ENDBRANCH  35  36
ENDBRANCH  33  35
ENDBRANCH  31  33
ENDBRANCH   4  31
TORSDOF 9
ENDMDL
MODEL 9
REMARK VINA RESULT:    -7.274      9.675     14.153
REMARK INTER + INTRA:         -13.520
REMARK INTER:                 -11.223
REMARK INTRA:                  -2.297
REMARK UNBOUND:                -2.418
REMARK SMILES COC(=O)c1ccc2c(c1)NC(=O)/C2=C(\Nc1ccc(N(C)C(=O)CN2CCN(C)CC2)cc1)c1ccccc1
REMARK SMILES IDX 17 1 18 2 19 3 20 4 33 5 34 6 16 7 15 9 5 10 6 11 10 12 7 13
REMARK SMILES IDX 9 14 8 15 11 16 14 17 12 18 13 20 3 21 4 22 2 23 1 24 35 25
REMARK SMILES IDX 36 26 40 27 37 28 39 29 38 30 21 31 22 32 23 33 24 34 25 35
REMARK SMILES IDX 26 36 27 37 32 38 28 39 31 40 29 41 30 42
REMARK H PARENT 16 8 11 19
REMARK Flexibility Score: inf
ROOT
ATOM      1  C   UNL     1      11.931  19.406  39.058  1.00  0.00     0.039 A 
ATOM      2  C   UNL     1      11.267  20.523  39.582  1.00  0.00     0.028 A 
ATOM      3  C   UNL     1      11.109  20.670  40.962  1.00  0.00     0.028 A 
ATOM      4  C   UNL     1      11.593  19.689  41.843  1.00  0.00     0.043 A 
ATOM      5  C   UNL     1      12.241  18.559  41.316  1.00  0.00     0.028 A 
ATOM      6  C   UNL     1      12.403  18.416  39.936  1.00  0.00     0.028 A 
ENDROOT
BRANCH   1   7
ATOM      7  N   UNL     1      12.078  19.269  37.635  1.00  0.00    -0.354 N 
ATOM      8  H   UNL     1      13.045  19.217  37.245  1.00  0.00     0.167 HD
BRANCH   7   9
ATOM      9  C   UNL     1      10.974  19.032  36.742  1.00  0.00     0.059 C 
ATOM     10  C   UNL     1       8.536  19.800  32.049  1.00  0.00     0.062 A 
ATOM     11  C   UNL     1       8.470  18.628  32.839  1.00  0.00     0.016 A 
ATOM     12  C   UNL     1       9.354  20.870  32.469  1.00  0.00     0.042 A 
ATOM     13  C   UNL     1       9.185  18.529  34.043  1.00  0.00     0.012 A 
ATOM     14  C   UNL     1      10.048  20.752  33.672  1.00  0.00     0.050 A 
ATOM     15  C   UNL     1       9.937  19.628  34.472  1.00  0.00     0.013 A 
ATOM     16  N   UNL     1      10.989  21.687  34.182  1.00  0.00    -0.321 N 
ATOM     17  C   UNL     1      10.835  19.798  35.636  1.00  0.00     0.073 C 
ATOM     18  C   UNL     1      11.487  21.093  35.374  1.00  0.00     0.258 C 
ATOM     19  H   UNL     1      11.275  22.600  33.760  1.00  0.00     0.170 HD
ATOM     20  O   UNL     1      12.333  21.656  36.118  1.00  0.00    -0.269 OA
BRANCH  10  21
ATOM     21  C   UNL     1       7.774  19.889  30.784  1.00  0.00     0.337 C 
ATOM     22  O   UNL     1       7.005  18.949  30.439  1.00  0.00    -0.246 OA
BRANCH  21  23
ATOM     23  O   UNL     1       7.908  21.018  29.967  1.00  0.00    -0.465 OA
ATOM     24  C   UNL     1       7.840  20.952  28.548  1.00  0.00     0.282 C 
ENDBRANCH  21  23
ENDBRANCH  10  21
BRANCH   9  25
ATOM     25  C   UNL     1      10.034  17.931  37.051  1.00  0.00    -0.001 A 
ATOM     26  C   UNL     1      10.480  16.601  37.035  1.00  0.00     0.010 A 
ATOM     27  C   UNL     1       8.715  18.211  37.454  1.00  0.00     0.010 A 
ATOM     28  C   UNL     1       9.608  15.562  37.375  1.00  0.00     0.001 A 
ATOM     29  C   UNL     1       7.847  17.170  37.793  1.00  0.00     0.001 A 
ATOM     30  C   UNL     1       8.292  15.845  37.750  1.00  0.00     0.000 A 
ENDBRANCH   9  25
ENDBRANCH   7   9
ENDBRANCH   1   7
BRANCH   4  31
ATOM     31  N   UNL     1      11.430  19.837  43.267  1.00  0.00    -0.314 N 
ATOM     32  C   UNL     1      11.164  21.173  43.816  1.00  0.00     0.153 C 
BRANCH  31  33
ATOM     33  C   UNL     1      11.629  18.705  44.147  1.00  0.00     0.240 C 
ATOM     34  O   UNL     1      12.720  18.583  44.770  1.00  0.00    -0.273 OA
BRANCH  33  35
ATOM     35  C   UNL     1      10.573  17.636  44.301  1.00  0.00     0.185 C 
BRANCH  35  36
ATOM     36  N   UNL     1      10.739  16.566  43.293  1.00  0.00    -0.292 NA
ATOM     37  C   UNL     1      10.979  15.263  43.945  1.00  0.00     0.100 C 
ATOM     38  C   UNL     1       9.541  16.477  42.438  1.00  0.00     0.100 C 
ATOM     39  C   UNL     1      11.206  14.175  42.884  1.00  0.00     0.099 C 
ATOM     40  C   UNL     1       9.741  15.404  41.356  1.00  0.00     0.099 C 
ATOM     41  N   UNL     1      10.087  14.085  41.924  1.00  0.00    -0.304 NA
ATOM     42  C   UNL     1       8.917  13.392  42.488  1.00  0.00     0.105 C 
ENDBRANCH  35  36
ENDBRANCH  33  35
ENDBRANCH  31  33
ENDBRANCH   4  31
TORSDOF 9
ENDMDL
MODEL 10
REMARK VINA RESULT:    -7.272      4.985     10.271
REMARK INTER + INTRA:         -13.516
REMARK INTER:                 -11.723
REMARK INTRA:                  -1.793
REMARK UNBOUND:                -2.418
REMARK SMILES COC(=O)c1ccc2c(c1)NC(=O)/C2=C(\Nc1ccc(N(C)C(=O)CN2CCN(C)CC2)cc1)c1ccccc1
REMARK SMILES IDX 17 1 18 2 19 3 20 4 33 5 34 6 16 7 15 9 5 10 6 11 10 12 7 13
REMARK SMILES IDX 9 14 8 15 11 16 14 17 12 18 13 20 3 21 4 22 2 23 1 24 35 25
REMARK SMILES IDX 36 26 40 27 37 28 39 29 38 30 21 31 22 32 23 33 24 34 25 35
REMARK SMILES IDX 26 36 27 37 32 38 28 39 31 40 29 41 30 42
REMARK H PARENT 16 8 11 19
REMARK Flexibility Score: inf
ROOT
ATOM      1  C   UNL     1      13.502  26.363  40.947  1.00  0.00     0.039 A 
ATOM      2  C   UNL     1      14.261  25.662  40.000  1.00  0.00     0.028 A 
ATOM      3  C   UNL     1      15.638  25.870  39.902  1.00  0.00     0.028 A 
ATOM      4  C   UNL     1      16.278  26.803  40.734  1.00  0.00     0.043 A 
ATOM      5  C   UNL     1      15.514  27.521  41.669  1.00  0.00     0.028 A 
ATOM      6  C   UNL     1      14.137  27.308  41.770  1.00  0.00     0.028 A 
ENDROOT
BRANCH   1   7
ATOM      7  N   UNL     1      12.085  26.140  41.028  1.00  0.00    -0.354 N 
ATOM      8  H   UNL     1      11.473  26.612  40.325  1.00  0.00     0.167 HD
BRANCH   7   9
ATOM      9  C   UNL     1      11.481  25.178  41.913  1.00  0.00     0.059 C 
ATOM     10  C   UNL     1      10.017  20.163  43.035  1.00  0.00     0.062 A 
ATOM     11  C   UNL     1      10.424  21.140  43.974  1.00  0.00     0.016 A 
ATOM     12  C   UNL     1      10.040  20.476  41.659  1.00  0.00     0.042 A 
ATOM     13  C   UNL     1      10.821  22.420  43.555  1.00  0.00     0.012 A 
ATOM     14  C   UNL     1      10.430  21.755  41.268  1.00  0.00     0.050 A 
ATOM     15  C   UNL     1      10.772  22.728  42.191  1.00  0.00     0.013 A 
ATOM     16  N   UNL     1      10.606  22.195  39.929  1.00  0.00    -0.321 N 
ATOM     17  C   UNL     1      11.186  23.941  41.453  1.00  0.00     0.073 C 
ATOM     18  C   UNL     1      11.090  23.527  40.042  1.00  0.00     0.258 C 
ATOM     19  H   UNL     1      10.444  21.650  39.052  1.00  0.00     0.170 HD
ATOM     20  O   UNL     1      11.339  24.252  39.042  1.00  0.00    -0.269 OA
BRANCH  10  21
ATOM     21  C   UNL     1       9.599  18.819  43.493  1.00  0.00     0.337 C 
ATOM     22  O   UNL     1       8.475  18.355  43.153  1.00  0.00    -0.246 OA
BRANCH  21  23
ATOM     23  O   UNL     1      10.452  18.061  44.304  1.00  0.00    -0.465 OA
ATOM     24  C   UNL     1      11.660  17.487  43.821  1.00  0.00     0.282 C 
ENDBRANCH  21  23
ENDBRANCH  10  21
BRANCH   9  25
ATOM     25  C   UNL     1      11.228  25.568  43.319  1.00  0.00    -0.001 A 
ATOM     26  C   UNL     1       9.962  26.037  43.701  1.00  0.00     0.010 A 
ATOM     27  C   UNL     1      12.219  25.384  44.300  1.00  0.00     0.010 A 
ATOM     28  C   UNL     1       9.704  26.358  45.037  1.00  0.00     0.001 A 
ATOM     29  C   UNL     1      11.957  25.707  45.634  1.00  0.00     0.001 A 
ATOM     30  C   UNL     1      10.701  26.198  46.002  1.00  0.00     0.000 A 
ENDBRANCH   9  25
ENDBRANCH   7   9
ENDBRANCH   1   7
BRANCH   4  31
ATOM     31  N   UNL     1      17.699  27.022  40.633  1.00  0.00    -0.314 N 
ATOM     32  C   UNL     1      18.206  28.400  40.605  1.00  0.00     0.153 C 
BRANCH  31  33
ATOM     33  C   UNL     1      18.599  25.902  40.457  1.00  0.00     0.240 C 
ATOM     34  O   UNL     1      18.299  24.777  40.944  1.00  0.00    -0.273 OA
BRANCH  33  35
ATOM     35  C   UNL     1      19.919  26.061  39.740  1.00  0.00     0.185 C 
BRANCH  35  36
ATOM     36  N   UNL     1      20.538  24.749  39.452  1.00  0.00    -0.292 NA
ATOM     37  C   UNL     1      20.493  24.454  38.006  1.00  0.00     0.100 C 
ATOM     38  C   UNL     1      21.936  24.727  39.918  1.00  0.00     0.100 C 
ATOM     39  C   UNL     1      21.086  23.063  37.732  1.00  0.00     0.099 C 
ATOM     40  C   UNL     1      22.556  23.343  39.669  1.00  0.00     0.099 C 
ATOM     41  N   UNL     1      22.460  22.926  38.255  1.00  0.00    -0.304 NA
ATOM     42  C   UNL     1      23.457  23.598  37.403  1.00  0.00     0.105 C 
ENDBRANCH  35  36
ENDBRANCH  33  35
ENDBRANCH  31  33
ENDBRANCH   4  31
TORSDOF 9
ENDMDL
MODEL 11
REMARK VINA RESULT:    -7.209      4.961      9.722
REMARK INTER + INTRA:         -13.419
REMARK INTER:                 -11.545
REMARK INTRA:                  -1.874
REMARK UNBOUND:                -2.418
REMARK SMILES COC(=O)c1ccc2c(c1)NC(=O)/C2=C(\Nc1ccc(N(C)C(=O)CN2CCN(C)CC2)cc1)c1ccccc1
REMARK SMILES IDX 17 1 18 2 19 3 20 4 33 5 34 6 16 7 15 9 5 10 6 11 10 12 7 13
REMARK SMILES IDX 9 14 8 15 11 16 14 17 12 18 13 20 3 21 4 22 2 23 1 24 35 25
REMARK SMILES IDX 36 26 40 27 37 28 39 29 38 30 21 31 22 32 23 33 24 34 25 35
REMARK SMILES IDX 26 36 27 37 32 38 28 39 31 40 29 41 30 42
REMARK H PARENT 16 8 11 19
REMARK Flexibility Score: inf
ROOT
ATOM      1  C   UNL     1      13.208  23.347  39.198  1.00  0.00     0.039 A 
ATOM      2  C   UNL     1      12.024  23.156  39.924  1.00  0.00     0.028 A 
ATOM      3  C   UNL     1      11.652  21.878  40.349  1.00  0.00     0.028 A 
ATOM      4  C   UNL     1      12.447  20.764  40.035  1.00  0.00     0.043 A 
ATOM      5  C   UNL     1      13.624  20.953  39.291  1.00  0.00     0.028 A 
ATOM      6  C   UNL     1      13.997  22.231  38.870  1.00  0.00     0.028 A 
ENDROOT
BRANCH   1   7
ATOM      7  N   UNL     1      13.571  24.667  38.763  1.00  0.00    -0.354 N 
ATOM      8  H   UNL     1      13.419  24.911  37.759  1.00  0.00     0.167 HD
BRANCH   7   9
ATOM      9  C   UNL     1      13.970  25.718  39.663  1.00  0.00     0.059 C 
ATOM     10  C   UNL     1      12.742  29.741  42.959  1.00  0.00     0.062 A 
ATOM     11  C   UNL     1      13.854  28.876  43.081  1.00  0.00     0.016 A 
ATOM     12  C   UNL     1      11.810  29.525  41.921  1.00  0.00     0.042 A 
ATOM     13  C   UNL     1      14.055  27.827  42.169  1.00  0.00     0.012 A 
ATOM     14  C   UNL     1      12.035  28.483  41.023  1.00  0.00     0.050 A 
ATOM     15  C   UNL     1      13.154  27.674  41.109  1.00  0.00     0.013 A 
ATOM     16  N   UNL     1      11.147  28.070  39.993  1.00  0.00    -0.321 N 
ATOM     17  C   UNL     1      13.063  26.643  40.052  1.00  0.00     0.073 C 
ATOM     18  C   UNL     1      11.767  26.929  39.413  1.00  0.00     0.258 C 
ATOM     19  H   UNL     1      10.227  28.492  39.736  1.00  0.00     0.170 HD
ATOM     20  O   UNL     1      11.272  26.303  38.438  1.00  0.00    -0.269 OA
BRANCH  10  21
ATOM     21  C   UNL     1      12.545  30.843  43.927  1.00  0.00     0.337 C 
ATOM     22  O   UNL     1      13.155  30.832  45.032  1.00  0.00    -0.246 OA
BRANCH  21  23
ATOM     23  O   UNL     1      11.681  31.899  43.616  1.00  0.00    -0.465 OA
ATOM     24  C   UNL     1      11.873  33.219  44.109  1.00  0.00     0.282 C 
ENDBRANCH  21  23
ENDBRANCH  10  21
BRANCH   9  25
ATOM     25  C   UNL     1      15.364  25.736  40.159  1.00  0.00    -0.001 A 
ATOM     26  C   UNL     1      15.868  24.644  40.882  1.00  0.00     0.010 A 
ATOM     27  C   UNL     1      16.224  26.802  39.832  1.00  0.00     0.010 A 
ATOM     28  C   UNL     1      17.199  24.636  41.309  1.00  0.00     0.001 A 
ATOM     29  C   UNL     1      17.554  26.789  40.260  1.00  0.00     0.001 A 
ATOM     30  C   UNL     1      18.041  25.709  41.002  1.00  0.00     0.000 A 
ENDBRANCH   9  25
ENDBRANCH   7   9
ENDBRANCH   1   7
BRANCH   4  31
ATOM     31  N   UNL     1      12.065  19.445  40.471  1.00  0.00    -0.314 N 
ATOM     32  C   UNL     1      11.664  19.248  41.870  1.00  0.00     0.153 C 
BRANCH  31  33
ATOM     33  C   UNL     1      12.176  18.317  39.571  1.00  0.00     0.240 C 
ATOM     34  O   UNL     1      13.162  17.535  39.668  1.00  0.00    -0.273 OA
BRANCH  33  35
ATOM     35  C   UNL     1      11.157  18.080  38.481  1.00  0.00     0.185 C 
BRANCH  35  36
ATOM     36  N   UNL     1      11.210  19.144  37.454  1.00  0.00    -0.292 NA
ATOM     37  C   UNL     1      12.282  18.876  36.475  1.00  0.00     0.100 C 
ATOM     38  C   UNL     1       9.916  19.245  36.755  1.00  0.00     0.100 C 
ATOM     39  C   UNL     1      12.359  20.018  35.451  1.00  0.00     0.099 C 
ATOM     40  C   UNL     1       9.956  20.389  35.730  1.00  0.00     0.099 C 
ATOM     41  N   UNL     1      11.070  20.250  34.770  1.00  0.00    -0.304 NA
ATOM     42  C   UNL     1      10.793  19.242  33.731  1.00  0.00     0.105 C 
ENDBRANCH  35  36
ENDBRANCH  33  35
ENDBRANCH  31  33
ENDBRANCH   4  31
TORSDOF 9
ENDMDL
MODEL 12
REMARK VINA RESULT:    -7.195      9.046     13.154
REMARK INTER + INTRA:         -13.398
REMARK INTER:                 -11.129
REMARK INTRA:                  -2.269
REMARK UNBOUND:                -2.418
REMARK SMILES COC(=O)c1ccc2c(c1)NC(=O)/C2=C(\Nc1ccc(N(C)C(=O)CN2CCN(C)CC2)cc1)c1ccccc1
REMARK SMILES IDX 17 1 18 2 19 3 20 4 33 5 34 6 16 7 15 9 5 10 6 11 10 12 7 13
REMARK SMILES IDX 9 14 8 15 11 16 14 17 12 18 13 20 3 21 4 22 2 23 1 24 35 25
REMARK SMILES IDX 36 26 40 27 37 28 39 29 38 30 21 31 22 32 23 33 24 34 25 35
REMARK SMILES IDX 26 36 27 37 32 38 28 39 31 40 29 41 30 42
REMARK H PARENT 16 8 11 19
REMARK Flexibility Score: inf
ROOT
ATOM      1  C   UNL     1      11.824  17.143  39.375  1.00  0.00     0.039 A 
ATOM      2  C   UNL     1      12.268  18.301  40.028  1.00  0.00     0.028 A 
ATOM      3  C   UNL     1      12.220  18.391  41.421  1.00  0.00     0.028 A 
ATOM      4  C   UNL     1      11.704  17.332  42.185  1.00  0.00     0.043 A 
ATOM      5  C   UNL     1      11.240  16.179  41.529  1.00  0.00     0.028 A 
ATOM      6  C   UNL     1      11.293  16.089  40.136  1.00  0.00     0.028 A 
ENDROOT
BRANCH   1   7
ATOM      7  N   UNL     1      11.874  17.073  37.941  1.00  0.00    -0.354 N 
ATOM      8  H   UNL     1      12.703  16.613  37.502  1.00  0.00     0.167 HD
BRANCH   7   9
ATOM      9  C   UNL     1      10.777  17.447  37.087  1.00  0.00     0.059 C 
ATOM     10  C   UNL     1       8.915  19.736  32.631  1.00  0.00     0.062 A 
ATOM     11  C   UNL     1       8.341  18.629  33.300  1.00  0.00     0.016 A 
ATOM     12  C   UNL     1      10.123  20.283  33.114  1.00  0.00     0.042 A 
ATOM     13  C   UNL     1       8.943  18.090  34.449  1.00  0.00     0.012 A 
ATOM     14  C   UNL     1      10.697  19.737  34.261  1.00  0.00     0.050 A 
ATOM     15  C   UNL     1      10.104  18.692  34.947  1.00  0.00     0.013 A 
ATOM     16  N   UNL     1      11.955  20.100  34.812  1.00  0.00    -0.321 N 
ATOM     17  C   UNL     1      10.987  18.317  36.073  1.00  0.00     0.073 C 
ATOM     18  C   UNL     1      12.142  19.216  35.910  1.00  0.00     0.258 C 
ATOM     19  H   UNL     1      12.613  20.837  34.470  1.00  0.00     0.170 HD
ATOM     20  O   UNL     1      13.153  19.262  36.661  1.00  0.00    -0.269 OA
BRANCH  10  21
ATOM     21  C   UNL     1       8.268  20.293  31.423  1.00  0.00     0.337 C 
ATOM     22  O   UNL     1       7.016  20.446  31.389  1.00  0.00    -0.246 OA
BRANCH  21  23
ATOM     23  O   UNL     1       9.047  20.652  30.317  1.00  0.00    -0.465 OA
ATOM     24  C   UNL     1       8.628  20.424  28.977  1.00  0.00     0.282 C 
ENDBRANCH  21  23
ENDBRANCH  10  21
BRANCH   9  25
ATOM     25  C   UNL     1       9.448  16.842  37.333  1.00  0.00    -0.001 A 
ATOM     26  C   UNL     1       9.224  15.491  37.026  1.00  0.00     0.010 A 
ATOM     27  C   UNL     1       8.430  17.585  37.959  1.00  0.00     0.010 A 
ATOM     28  C   UNL     1       7.986  14.903  37.303  1.00  0.00     0.001 A 
ATOM     29  C   UNL     1       7.195  16.993  38.233  1.00  0.00     0.001 A 
ATOM     30  C   UNL     1       6.971  15.654  37.902  1.00  0.00     0.000 A 
ENDBRANCH   9  25
ENDBRANCH   7   9
ENDBRANCH   1   7
BRANCH   4  31
ATOM     31  N   UNL     1      11.652  17.422  43.623  1.00  0.00    -0.314 N 
ATOM     32  C   UNL     1      11.419  16.200  44.403  1.00  0.00     0.153 C 
BRANCH  31  33
ATOM     33  C   UNL     1      11.724  18.712  44.276  1.00  0.00     0.240 C 
ATOM     34  O   UNL     1      12.769  19.036  44.905  1.00  0.00    -0.273 OA
BRANCH  33  35
ATOM     35  C   UNL     1      10.552  19.665  44.262  1.00  0.00     0.185 C 
BRANCH  35  36
ATOM     36  N   UNL     1      10.968  21.022  43.846  1.00  0.00    -0.292 NA
ATOM     37  C   UNL     1      10.200  21.467  42.665  1.00  0.00     0.100 C 
ATOM     38  C   UNL     1      10.773  21.979  44.950  1.00  0.00     0.100 C 
ATOM     39  C   UNL     1      10.684  22.853  42.212  1.00  0.00     0.099 C 
ATOM     40  C   UNL     1      11.260  23.376  44.533  1.00  0.00     0.099 C 
ATOM     41  N   UNL     1      10.612  23.855  43.296  1.00  0.00    -0.304 NA
ATOM     42  C   UNL     1       9.238  24.332  43.530  1.00  0.00     0.105 C 
ENDBRANCH  35  36
ENDBRANCH  33  35
ENDBRANCH  31  33
ENDBRANCH   4  31
TORSDOF 9
ENDMDL
MODEL 13
REMARK VINA RESULT:    -7.191      6.678     10.684
REMARK INTER + INTRA:         -13.392
REMARK INTER:                 -11.599
REMARK INTRA:                  -1.794
REMARK UNBOUND:                -2.418
REMARK SMILES COC(=O)c1ccc2c(c1)NC(=O)/C2=C(\Nc1ccc(N(C)C(=O)CN2CCN(C)CC2)cc1)c1ccccc1
REMARK SMILES IDX 17 1 18 2 19 3 20 4 33 5 34 6 16 7 15 9 5 10 6 11 10 12 7 13
REMARK SMILES IDX 9 14 8 15 11 16 14 17 12 18 13 20 3 21 4 22 2 23 1 24 35 25
REMARK SMILES IDX 36 26 40 27 37 28 39 29 38 30 21 31 22 32 23 33 24 34 25 35
REMARK SMILES IDX 26 36 27 37 32 38 28 39 31 40 29 41 30 42
REMARK H PARENT 16 8 11 19
REMARK Flexibility Score: inf
ROOT
ATOM      1  C   UNL     1      13.294  22.594  38.559  1.00  0.00     0.039 A 
ATOM      2  C   UNL     1      12.282  22.380  39.505  1.00  0.00     0.028 A 
ATOM      3  C   UNL     1      11.851  23.423  40.329  1.00  0.00     0.028 A 
ATOM      4  C   UNL     1      12.442  24.693  40.236  1.00  0.00     0.043 A 
ATOM      5  C   UNL     1      13.470  24.902  39.301  1.00  0.00     0.028 A 
ATOM      6  C   UNL     1      13.896  23.860  38.475  1.00  0.00     0.028 A 
ENDROOT
BRANCH   1   7
ATOM      7  N   UNL     1      13.729  21.507  37.725  1.00  0.00    -0.354 N 
ATOM      8  H   UNL     1      14.729  21.489  37.426  1.00  0.00     0.167 HD
BRANCH   7   9
ATOM      9  C   UNL     1      12.910  20.363  37.421  1.00  0.00     0.059 C 
ATOM     10  C   UNL     1      10.780  15.662  38.808  1.00  0.00     0.062 A 
ATOM     11  C   UNL     1      10.192  16.621  37.950  1.00  0.00     0.016 A 
ATOM     12  C   UNL     1      12.016  15.953  39.424  1.00  0.00     0.042 A 
ATOM     13  C   UNL     1      10.834  17.841  37.686  1.00  0.00     0.012 A 
ATOM     14  C   UNL     1      12.639  17.167  39.139  1.00  0.00     0.050 A 
ATOM     15  C   UNL     1      12.089  18.079  38.256  1.00  0.00     0.013 A 
ATOM     16  N   UNL     1      13.824  17.654  39.752  1.00  0.00    -0.321 N 
ATOM     17  C   UNL     1      12.962  19.273  38.221  1.00  0.00     0.073 C 
ATOM     18  C   UNL     1      14.011  18.954  39.205  1.00  0.00     0.258 C 
ATOM     19  H   UNL     1      14.415  17.176  40.469  1.00  0.00     0.170 HD
ATOM     20  O   UNL     1      14.991  19.687  39.503  1.00  0.00    -0.269 OA
BRANCH  10  21
ATOM     21  C   UNL     1      10.092  14.379  39.075  1.00  0.00     0.337 C 
ATOM     22  O   UNL     1       9.507  13.767  38.138  1.00  0.00    -0.246 OA
BRANCH  21  23
ATOM     23  O   UNL     1      10.089  13.845  40.368  1.00  0.00    -0.465 OA
ATOM     24  C   UNL     1       8.934  13.846  41.198  1.00  0.00     0.282 C 
ENDBRANCH  21  23
ENDBRANCH  10  21
BRANCH   9  25
ATOM     25  C   UNL     1      12.009  20.426  36.248  1.00  0.00    -0.001 A 
ATOM     26  C   UNL     1      12.317  19.705  35.085  1.00  0.00     0.010 A 
ATOM     27  C   UNL     1      10.793  21.131  36.320  1.00  0.00     0.010 A 
ATOM     28  C   UNL     1      11.443  19.722  33.993  1.00  0.00     0.001 A 
ATOM     29  C   UNL     1       9.923  21.146  35.227  1.00  0.00     0.001 A 
ATOM     30  C   UNL     1      10.250  20.445  34.062  1.00  0.00     0.000 A 
ENDBRANCH   9  25
ENDBRANCH   7   9
ENDBRANCH   1   7
BRANCH   4  31
ATOM     31  N   UNL     1      12.000  25.771  41.086  1.00  0.00    -0.314 N 
ATOM     32  C   UNL     1      10.610  25.777  41.560  1.00  0.00     0.153 C 
BRANCH  31  33
ATOM     33  C   UNL     1      12.883  26.879  41.378  1.00  0.00     0.240 C 
ATOM     34  O   UNL     1      12.557  28.047  41.028  1.00  0.00    -0.273 OA
BRANCH  33  35
ATOM     35  C   UNL     1      14.215  26.663  42.056  1.00  0.00     0.185 C 
BRANCH  35  36
ATOM     36  N   UNL     1      15.339  26.964  41.143  1.00  0.00    -0.292 NA
ATOM     37  C   UNL     1      16.026  28.208  41.547  1.00  0.00     0.100 C 
ATOM     38  C   UNL     1      16.304  25.850  41.131  1.00  0.00     0.100 C 
ATOM     39  C   UNL     1      17.152  28.536  40.555  1.00  0.00     0.099 C 
ATOM     40  C   UNL     1      17.439  26.141  40.137  1.00  0.00     0.099 C 
ATOM     41  N   UNL     1      18.115  27.426  40.412  1.00  0.00    -0.304 NA
ATOM     42  C   UNL     1      19.046  27.338  41.550  1.00  0.00     0.105 C 
ENDBRANCH  35  36
ENDBRANCH  33  35
ENDBRANCH  31  33
ENDBRANCH   4  31
TORSDOF 9
ENDMDL
MODEL 14
REMARK VINA RESULT:    -7.132      9.384     13.516
REMARK INTER + INTRA:         -13.302
REMARK INTER:                 -11.209
REMARK INTRA:                  -2.094
REMARK UNBOUND:                -2.418
REMARK SMILES COC(=O)c1ccc2c(c1)NC(=O)/C2=C(\Nc1ccc(N(C)C(=O)CN2CCN(C)CC2)cc1)c1ccccc1
REMARK SMILES IDX 17 1 18 2 19 3 20 4 33 5 34 6 16 7 15 9 5 10 6 11 10 12 7 13
REMARK SMILES IDX 9 14 8 15 11 16 14 17 12 18 13 20 3 21 4 22 2 23 1 24 35 25
REMARK SMILES IDX 36 26 40 27 37 28 39 29 38 30 21 31 22 32 23 33 24 34 25 35
REMARK SMILES IDX 26 36 27 37 32 38 28 39 31 40 29 41 30 42
REMARK H PARENT 16 8 11 19
REMARK Flexibility Score: inf
ROOT
ATOM      1  C   UNL     1      10.886  18.432  40.264  1.00  0.00     0.039 A 
ATOM      2  C   UNL     1       9.874  19.270  40.752  1.00  0.00     0.028 A 
ATOM      3  C   UNL     1       9.976  19.838  42.024  1.00  0.00     0.028 A 
ATOM      4  C   UNL     1      11.084  19.558  42.841  1.00  0.00     0.043 A 
ATOM      5  C   UNL     1      12.088  18.702  42.360  1.00  0.00     0.028 A 
ATOM      6  C   UNL     1      11.988  18.139  41.086  1.00  0.00     0.028 A 
ENDROOT
BRANCH   1   7
ATOM      7  N   UNL     1      10.760  17.852  38.956  1.00  0.00    -0.354 N 
ATOM      8  H   UNL     1      10.379  16.882  38.885  1.00  0.00     0.167 HD
BRANCH   7   9
ATOM      9  C   UNL     1      10.968  18.589  37.736  1.00  0.00     0.059 C 
ATOM     10  C   UNL     1       9.364  20.065  32.857  1.00  0.00     0.062 A 
ATOM     11  C   UNL     1      10.133  20.847  33.752  1.00  0.00     0.016 A 
ATOM     12  C   UNL     1       8.906  18.795  33.269  1.00  0.00     0.042 A 
ATOM     13  C   UNL     1      10.465  20.363  35.028  1.00  0.00     0.012 A 
ATOM     14  C   UNL     1       9.256  18.333  34.536  1.00  0.00     0.050 A 
ATOM     15  C   UNL     1      10.056  19.075  35.388  1.00  0.00     0.013 A 
ATOM     16  N   UNL     1       8.793  17.132  35.138  1.00  0.00    -0.321 N 
ATOM     17  C   UNL     1      10.190  18.332  36.660  1.00  0.00     0.073 C 
ATOM     18  C   UNL     1       9.349  17.142  36.447  1.00  0.00     0.258 C 
ATOM     19  H   UNL     1       8.161  16.413  34.721  1.00  0.00     0.170 HD
ATOM     20  O   UNL     1       9.170  16.207  37.273  1.00  0.00    -0.269 OA
BRANCH  10  21
ATOM     21  C   UNL     1       9.024  20.588  31.516  1.00  0.00     0.337 C 
ATOM     22  O   UNL     1       7.838  20.931  31.252  1.00  0.00    -0.246 OA
BRANCH  21  23
ATOM     23  O   UNL     1      10.018  20.702  30.538  1.00  0.00    -0.465 OA
ATOM     24  C   UNL     1       9.734  20.661  29.145  1.00  0.00     0.282 C 
ENDBRANCH  21  23
ENDBRANCH  10  21
BRANCH   9  25
ATOM     25  C   UNL     1      12.018  19.632  37.708  1.00  0.00    -0.001 A 
ATOM     26  C   UNL     1      13.288  19.339  37.188  1.00  0.00     0.010 A 
ATOM     27  C   UNL     1      11.727  20.948  38.113  1.00  0.00     0.010 A 
ATOM     28  C   UNL     1      14.266  20.335  37.114  1.00  0.00     0.001 A 
ATOM     29  C   UNL     1      12.707  21.941  38.038  1.00  0.00     0.001 A 
ATOM     30  C   UNL     1      13.978  21.633  37.542  1.00  0.00     0.000 A 
ENDBRANCH   9  25
ENDBRANCH   7   9
ENDBRANCH   1   7
BRANCH   4  31
ATOM     31  N   UNL     1      11.191  20.142  44.155  1.00  0.00    -0.314 N 
ATOM     32  C   UNL     1      10.710  21.513  44.364  1.00  0.00     0.153 C 
BRANCH  31  33
ATOM     33  C   UNL     1      11.857  19.423  45.221  1.00  0.00     0.240 C 
ATOM     34  O   UNL     1      13.075  19.649  45.460  1.00  0.00    -0.273 OA
BRANCH  33  35
ATOM     35  C   UNL     1      11.134  18.370  46.027  1.00  0.00     0.185 C 
BRANCH  35  36
ATOM     36  N   UNL     1      11.200  17.048  45.368  1.00  0.00    -0.292 NA
ATOM     37  C   UNL     1      11.522  15.989  46.345  1.00  0.00     0.100 C 
ATOM     38  C   UNL     1       9.917  16.739  44.710  1.00  0.00     0.100 C 
ATOM     39  C   UNL     1      11.642  14.632  45.634  1.00  0.00     0.099 C 
ATOM     40  C   UNL     1      10.008  15.391  43.978  1.00  0.00     0.099 C 
ATOM     41  N   UNL     1      10.427  14.290  44.869  1.00  0.00    -0.304 NA
ATOM     42  C   UNL     1       9.331  13.820  45.734  1.00  0.00     0.105 C 
ENDBRANCH  35  36
ENDBRANCH  33  35
ENDBRANCH  31  33
ENDBRANCH   4  31
TORSDOF 9
ENDMDL
MODEL 15
REMARK VINA RESULT:    -7.131      8.029     11.508
REMARK INTER + INTRA:         -13.300
REMARK INTER:                 -12.070
REMARK INTRA:                  -1.230
REMARK UNBOUND:                -2.418
REMARK SMILES COC(=O)c1ccc2c(c1)NC(=O)/C2=C(\Nc1ccc(N(C)C(=O)CN2CCN(C)CC2)cc1)c1ccccc1
REMARK SMILES IDX 17 1 18 2 19 3 20 4 33 5 34 6 16 7 15 9 5 10 6 11 10 12 7 13
REMARK SMILES IDX 9 14 8 15 11 16 14 17 12 18 13 20 3 21 4 22 2 23 1 24 35 25
REMARK SMILES IDX 36 26 40 27 37 28 39 29 38 30 21 31 22 32 23 33 24 34 25 35
REMARK SMILES IDX 26 36 27 37 32 38 28 39 31 40 29 41 30 42
REMARK H PARENT 16 8 11 19
REMARK Flexibility Score: inf
ROOT
ATOM      1  C   UNL     1      12.007  20.693  37.913  1.00  0.00     0.039 A 
ATOM      2  C   UNL     1      13.235  21.306  38.199  1.00  0.00     0.028 A 
ATOM      3  C   UNL     1      13.289  22.429  39.028  1.00  0.00     0.028 A 
ATOM      4  C   UNL     1      12.113  22.973  39.568  1.00  0.00     0.043 A 
ATOM      5  C   UNL     1      10.880  22.370  39.265  1.00  0.00     0.028 A 
ATOM      6  C   UNL     1      10.827  21.245  38.440  1.00  0.00     0.028 A 
ENDROOT
BRANCH   1   7
ATOM      7  N   UNL     1      11.970  19.543  37.052  1.00  0.00    -0.354 N 
ATOM      8  H   UNL     1      12.793  18.899  37.060  1.00  0.00     0.167 HD
BRANCH   7   9
ATOM      9  C   UNL     1      10.802  19.142  36.312  1.00  0.00     0.059 C 
ATOM     10  C   UNL     1       7.958  19.065  31.789  1.00  0.00     0.062 A 
ATOM     11  C   UNL     1       7.993  18.043  32.767  1.00  0.00     0.016 A 
ATOM     12  C   UNL     1       8.778  20.203  31.950  1.00  0.00     0.042 A 
ATOM     13  C   UNL     1       8.809  18.161  33.903  1.00  0.00     0.012 A 
ATOM     14  C   UNL     1       9.573  20.302  33.090  1.00  0.00     0.050 A 
ATOM     15  C   UNL     1       9.562  19.328  34.073  1.00  0.00     0.013 A 
ATOM     16  N   UNL     1      10.525  21.323  33.350  1.00  0.00    -0.321 N 
ATOM     17  C   UNL     1      10.549  19.706  35.109  1.00  0.00     0.073 C 
ATOM     18  C   UNL     1      11.138  20.947  34.577  1.00  0.00     0.258 C 
ATOM     19  H   UNL     1      10.748  22.154  32.758  1.00  0.00     0.170 HD
ATOM     20  O   UNL     1      12.028  21.640  35.139  1.00  0.00    -0.269 OA
BRANCH  10  21
ATOM     21  C   UNL     1       7.091  18.927  30.597  1.00  0.00     0.337 C 
ATOM     22  O   UNL     1       6.345  17.917  30.471  1.00  0.00    -0.246 OA
BRANCH  21  23
ATOM     23  O   UNL     1       7.099  19.918  29.610  1.00  0.00    -0.465 OA
ATOM     24  C   UNL     1       7.896  19.826  28.435  1.00  0.00     0.282 C 
ENDBRANCH  21  23
ENDBRANCH  10  21
BRANCH   9  25
ATOM     25  C   UNL     1       9.924  18.096  36.883  1.00  0.00    -0.001 A 
ATOM     26  C   UNL     1       8.593  18.396  37.209  1.00  0.00     0.010 A 
ATOM     27  C   UNL     1      10.385  16.773  37.017  1.00  0.00     0.010 A 
ATOM     28  C   UNL     1       7.747  17.398  37.701  1.00  0.00     0.001 A 
ATOM     29  C   UNL     1       9.536  15.779  37.510  1.00  0.00     0.001 A 
ATOM     30  C   UNL     1       8.218  16.092  37.856  1.00  0.00     0.000 A 
ENDBRANCH   9  25
ENDBRANCH   7   9
ENDBRANCH   1   7
BRANCH   4  31
ATOM     31  N   UNL     1      12.166  24.132  40.422  1.00  0.00    -0.314 N 
ATOM     32  C   UNL     1      11.256  24.210  41.573  1.00  0.00     0.153 C 
BRANCH  31  33
ATOM     33  C   UNL     1      13.029  25.246  40.089  1.00  0.00     0.240 C 
ATOM     34  O   UNL     1      13.059  25.680  38.905  1.00  0.00    -0.273 OA
BRANCH  33  35
ATOM     35  C   UNL     1      13.934  25.873  41.123  1.00  0.00     0.185 C 
BRANCH  35  36
ATOM     36  N   UNL     1      13.712  27.333  41.218  1.00  0.00    -0.292 NA
ATOM     37  C   UNL     1      12.444  27.627  41.915  1.00  0.00     0.100 C 
ATOM     38  C   UNL     1      14.830  27.976  41.932  1.00  0.00     0.100 C 
ATOM     39  C   UNL     1      12.202  29.144  41.954  1.00  0.00     0.099 C 
ATOM     40  C   UNL     1      14.624  29.499  41.977  1.00  0.00     0.099 C 
ATOM     41  N   UNL     1      13.326  29.876  42.572  1.00  0.00    -0.304 NA
ATOM     42  C   UNL     1      13.328  29.768  44.041  1.00  0.00     0.105 C 
ENDBRANCH  35  36
ENDBRANCH  33  35
ENDBRANCH  31  33
ENDBRANCH   4  31
TORSDOF 9
ENDMDL
