MODEL 1
REMARK VINA RESULT:    -9.074      0.000      0.000
REMARK INTER + INTRA:         -15.902
REMARK INTER:                 -13.849
REMARK INTRA:                  -2.053
REMARK UNBOUND:                -2.053
REMARK SMILES COC(=O)c1ccc2c(c1)NC(=O)/C2=C(\Nc1ccc(N(C)C(=O)CN2CCN(C)CC2)cc1)c1ccccc1
REMARK SMILES IDX 17 1 18 2 19 3 20 4 33 5 34 6 16 7 15 9 5 10 6 11 10 12 7 13
REMARK SMILES IDX 9 14 8 15 11 16 14 17 12 18 13 20 3 21 4 22 2 23 1 24 35 25
REMARK SMILES IDX 36 26 40 27 37 28 39 29 38 30 21 31 22 32 23 33 24 34 25 35
REMARK SMILES IDX 26 36 27 37 32 38 28 39 31 40 29 41 30 42
REMARK H PARENT 16 8 11 19
REMARK Flexibility Score: inf
ROOT
ATOM      1  C   UNL     1      34.102   7.233   8.206  1.00  0.00     0.039 A 
ATOM      2  C   UNL     1      32.934   6.522   8.515  1.00  0.00     0.028 A 
ATOM      3  C   UNL     1      31.782   7.198   8.925  1.00  0.00     0.028 A 
ATOM      4  C   UNL     1      31.786   8.596   9.057  1.00  0.00     0.043 A 
ATOM      5  C   UNL     1      32.963   9.306   8.767  1.00  0.00     0.028 A 
ATOM      6  C   UNL     1      34.113   8.630   8.352  1.00  0.00     0.028 A 
ENDROOT
BRANCH   1   7
ATOM      7  N   UNL     1      35.279   6.520   7.793  1.00  0.00    -0.354 N 
ATOM      8  H   UNL     1      35.905   6.135   8.536  1.00  0.00     0.167 HD
BRANCH   7   9
ATOM      9  C   UNL     1      35.553   6.163   6.425  1.00  0.00     0.059 C 
ATOM     10  C   UNL     1      35.251   2.698   2.368  1.00  0.00     0.062 A 
ATOM     11  C   UNL     1      35.246   4.108   2.259  1.00  0.00     0.016 A 
ATOM     12  C   UNL     1      35.278   2.105   3.649  1.00  0.00     0.042 A 
ATOM     13  C   UNL     1      35.295   4.919   3.404  1.00  0.00     0.012 A 
ATOM     14  C   UNL     1      35.335   2.930   4.770  1.00  0.00     0.050 A 
ATOM     15  C   UNL     1      35.388   4.308   4.660  1.00  0.00     0.013 A 
ATOM     16  N   UNL     1      35.262   2.498   6.122  1.00  0.00    -0.321 N 
ATOM     17  C   UNL     1      35.385   4.882   6.023  1.00  0.00     0.073 C 
ATOM     18  C   UNL     1      35.272   3.696   6.889  1.00  0.00     0.258 C 
ATOM     19  H   UNL     1      35.190   1.518   6.476  1.00  0.00     0.170 HD
ATOM     20  O   UNL     1      35.244   3.702   8.148  1.00  0.00    -0.269 OA
BRANCH  10  21
ATOM     21  C   UNL     1      35.201   1.857   1.152  1.00  0.00     0.337 C 
ATOM     22  O   UNL     1      36.047   2.025   0.230  1.00  0.00    -0.246 OA
BRANCH  21  23
ATOM     23  O   UNL     1      34.215   0.872   1.024  1.00  0.00    -0.465 OA
ATOM     24  C   UNL     1      34.395  -0.298   0.236  1.00  0.00     0.282 C 
ENDBRANCH  21  23
ENDBRANCH  10  21
BRANCH   9  25
ATOM     25  C   UNL     1      35.985   7.224   5.488  1.00  0.00    -0.001 A 
ATOM     26  C   UNL     1      35.034   8.064   4.889  1.00  0.00     0.010 A 
ATOM     27  C   UNL     1      37.354   7.461   5.262  1.00  0.00     0.010 A 
ATOM     28  C   UNL     1      35.443   9.099   4.042  1.00  0.00     0.001 A 
ATOM     29  C   UNL     1      37.758   8.497   4.415  1.00  0.00     0.001 A 
ATOM     30  C   UNL     1      36.802   9.313   3.802  1.00  0.00     0.000 A 
ENDBRANCH   9  25
ENDBRANCH   7   9
ENDBRANCH   1   7
BRANCH   4  31
ATOM     31  N   UNL     1      30.599   9.295   9.481  1.00  0.00    -0.314 N 
ATOM     32  C   UNL     1      30.726  10.379  10.464  1.00  0.00     0.153 C 
BRANCH  31  33
ATOM     33  C   UNL     1      29.295   8.865   9.024  1.00  0.00     0.240 C 
ATOM     34  O   UNL     1      29.047   8.831   7.786  1.00  0.00    -0.273 OA
BRANCH  33  35
ATOM     35  C   UNL     1      28.203   8.498  10.000  1.00  0.00     0.185 C 
BRANCH  35  36
ATOM     36  N   UNL     1      26.929   9.169   9.661  1.00  0.00    -0.292 NA
ATOM     37  C   UNL     1      25.796   8.530  10.361  1.00  0.00     0.100 C 
ATOM     38  C   UNL     1      26.990  10.597  10.022  1.00  0.00     0.100 C 
ATOM     39  C   UNL     1      24.477   9.203   9.953  1.00  0.00     0.099 C 
ATOM     40  C   UNL     1      25.687  11.303   9.616  1.00  0.00     0.099 C 
ATOM     41  N   UNL     1      24.491  10.659  10.195  1.00  0.00    -0.304 NA
ATOM     42  C   UNL     1      24.305  10.996  11.617  1.00  0.00     0.105 C 
ENDBRANCH  35  36
ENDBRANCH  33  35
ENDBRANCH  31  33
ENDBRANCH   4  31
TORSDOF 9
ENDMDL
MODEL 2
REMARK VINA RESULT:    -9.037      6.925     11.675
REMARK INTER + INTRA:         -15.844
REMARK INTER:                 -13.409
REMARK INTRA:                  -2.435
REMARK UNBOUND:                -2.053
REMARK SMILES COC(=O)c1ccc2c(c1)NC(=O)/C2=C(\Nc1ccc(N(C)C(=O)CN2CCN(C)CC2)cc1)c1ccccc1
REMARK SMILES IDX 17 1 18 2 19 3 20 4 33 5 34 6 16 7 15 9 5 10 6 11 10 12 7 13
REMARK SMILES IDX 9 14 8 15 11 16 14 17 12 18 13 20 3 21 4 22 2 23 1 24 35 25
REMARK SMILES IDX 36 26 40 27 37 28 39 29 38 30 21 31 22 32 23 33 24 34 25 35
REMARK SMILES IDX 26 36 27 37 32 38 28 39 31 40 29 41 30 42
REMARK H PARENT 16 8 11 19
REMARK Flexibility Score: inf
ROOT
ATOM      1  C   UNL     1      30.060  14.715  10.451  1.00  0.00     0.039 A 
ATOM      2  C   UNL     1      30.340  14.743  11.824  1.00  0.00     0.028 A 
ATOM      3  C   UNL     1      31.610  15.106  12.280  1.00  0.00     0.028 A 
ATOM      4  C   UNL     1      32.629  15.425  11.369  1.00  0.00     0.043 A 
ATOM      5  C   UNL     1      32.354  15.377   9.992  1.00  0.00     0.028 A 
ATOM      6  C   UNL     1      31.083  15.019   9.537  1.00  0.00     0.028 A 
ENDROOT
BRANCH   1   7
ATOM      7  N   UNL     1      28.751  14.332  10.000  1.00  0.00    -0.354 N 
ATOM      8  H   UNL     1      28.211  15.016   9.424  1.00  0.00     0.167 HD
BRANCH   7   9
ATOM      9  C   UNL     1      28.213  13.005  10.156  1.00  0.00     0.059 C 
ATOM     10  C   UNL     1      24.045   9.706  10.702  1.00  0.00     0.062 A 
ATOM     11  C   UNL     1      25.267   9.403  10.056  1.00  0.00     0.016 A 
ATOM     12  C   UNL     1      23.839  11.005  11.214  1.00  0.00     0.042 A 
ATOM     13  C   UNL     1      26.281  10.367   9.943  1.00  0.00     0.012 A 
ATOM     14  C   UNL     1      24.863  11.943  11.098  1.00  0.00     0.050 A 
ATOM     15  C   UNL     1      26.079  11.627  10.517  1.00  0.00     0.013 A 
ATOM     16  N   UNL     1      24.778  13.313  11.464  1.00  0.00    -0.321 N 
ATOM     17  C   UNL     1      26.915  12.848  10.502  1.00  0.00     0.073 C 
ATOM     18  C   UNL     1      26.028  13.872  11.079  1.00  0.00     0.258 C 
ATOM     19  H   UNL     1      23.966  13.809  11.895  1.00  0.00     0.170 HD
ATOM     20  O   UNL     1      26.326  15.080  11.276  1.00  0.00    -0.269 OA
BRANCH  10  21
ATOM     21  C   UNL     1      22.987   8.678  10.814  1.00  0.00     0.337 C 
ATOM     22  O   UNL     1      21.900   8.948  11.397  1.00  0.00    -0.246 OA
BRANCH  21  23
ATOM     23  O   UNL     1      23.192   7.404  10.272  1.00  0.00    -0.465 OA
ATOM     24  C   UNL     1      23.142   6.218  11.057  1.00  0.00     0.282 C 
ENDBRANCH  21  23
ENDBRANCH  10  21
BRANCH   9  25
ATOM     25  C   UNL     1      29.099  11.847   9.903  1.00  0.00    -0.001 A 
ATOM     26  C   UNL     1      29.636  11.124  10.978  1.00  0.00     0.010 A 
ATOM     27  C   UNL     1      29.334  11.403   8.588  1.00  0.00     0.010 A 
ATOM     28  C   UNL     1      30.432   9.999  10.743  1.00  0.00     0.001 A 
ATOM     29  C   UNL     1      30.131  10.278   8.358  1.00  0.00     0.001 A 
ATOM     30  C   UNL     1      30.683   9.578   9.434  1.00  0.00     0.000 A 
ENDBRANCH   9  25
ENDBRANCH   7   9
ENDBRANCH   1   7
BRANCH   4  31
ATOM     31  N   UNL     1      33.940  15.798  11.837  1.00  0.00    -0.314 N 
ATOM     32  C   UNL     1      34.237  17.219  12.061  1.00  0.00     0.153 C 
BRANCH  31  33
ATOM     33  C   UNL     1      34.976  14.798  11.983  1.00  0.00     0.240 C 
ATOM     34  O   UNL     1      36.189  15.149  11.972  1.00  0.00    -0.273 OA
BRANCH  33  35
ATOM     35  C   UNL     1      34.638  13.331  12.103  1.00  0.00     0.185 C 
BRANCH  35  36
ATOM     36  N   UNL     1      35.334  12.532  11.070  1.00  0.00    -0.292 NA
ATOM     37  C   UNL     1      35.021  11.097  11.217  1.00  0.00     0.100 C 
ATOM     38  C   UNL     1      34.945  12.987   9.722  1.00  0.00     0.100 C 
ATOM     39  C   UNL     1      35.796  10.277  10.174  1.00  0.00     0.099 C 
ATOM     40  C   UNL     1      35.714  12.194   8.653  1.00  0.00     0.099 C 
ATOM     41  N   UNL     1      35.535  10.734   8.794  1.00  0.00    -0.304 NA
ATOM     42  C   UNL     1      34.230  10.277   8.288  1.00  0.00     0.105 C 
ENDBRANCH  35  36
ENDBRANCH  33  35
ENDBRANCH  31  33
ENDBRANCH   4  31
TORSDOF 9
ENDMDL
MODEL 3
REMARK VINA RESULT:    -8.847      2.736     10.720
REMARK INTER + INTRA:         -15.555
REMARK INTER:                 -13.426
REMARK INTRA:                  -2.129
REMARK UNBOUND:                -2.053
REMARK SMILES COC(=O)c1ccc2c(c1)NC(=O)/C2=C(\Nc1ccc(N(C)C(=O)CN2CCN(C)CC2)cc1)c1ccccc1
REMARK SMILES IDX 17 1 18 2 19 3 20 4 33 5 34 6 16 7 15 9 5 10 6 11 10 12 7 13
REMARK SMILES IDX 9 14 8 15 11 16 14 17 12 18 13 20 3 21 4 22 2 23 1 24 35 25
REMARK SMILES IDX 36 26 40 27 37 28 39 29 38 30 21 31 22 32 23 33 24 34 25 35
REMARK SMILES IDX 26 36 27 37 32 38 28 39 31 40 29 41 30 42
REMARK H PARENT 16 8 11 19
REMARK Flexibility Score: inf
ROOT
ATOM      1  C   UNL     1      33.663   9.048   8.919  1.00  0.00     0.039 A 
ATOM      2  C   UNL     1      34.523  10.128   8.676  1.00  0.00     0.028 A 
ATOM      3  C   UNL     1      35.495  10.048   7.676  1.00  0.00     0.028 A 
ATOM      4  C   UNL     1      35.640   8.876   6.916  1.00  0.00     0.043 A 
ATOM      5  C   UNL     1      34.791   7.786   7.174  1.00  0.00     0.028 A 
ATOM      6  C   UNL     1      33.816   7.869   8.170  1.00  0.00     0.028 A 
ENDROOT
BRANCH   1   7
ATOM      7  N   UNL     1      32.674   9.146   9.956  1.00  0.00    -0.354 N 
ATOM      8  H   UNL     1      32.908   8.753  10.895  1.00  0.00     0.167 HD
BRANCH   7   9
ATOM      9  C   UNL     1      31.455   9.900   9.823  1.00  0.00     0.059 C 
ATOM     10  C   UNL     1      26.136  10.254  10.199  1.00  0.00     0.062 A 
ATOM     11  C   UNL     1      27.056  11.308  10.406  1.00  0.00     0.016 A 
ATOM     12  C   UNL     1      26.622   8.958   9.923  1.00  0.00     0.042 A 
ATOM     13  C   UNL     1      28.439  11.086  10.313  1.00  0.00     0.012 A 
ATOM     14  C   UNL     1      27.998   8.763   9.827  1.00  0.00     0.050 A 
ATOM     15  C   UNL     1      28.895   9.807   9.973  1.00  0.00     0.013 A 
ATOM     16  N   UNL     1      28.649   7.511   9.661  1.00  0.00    -0.321 N 
ATOM     17  C   UNL     1      30.265   9.258   9.871  1.00  0.00     0.073 C 
ATOM     18  C   UNL     1      30.038   7.812   9.709  1.00  0.00     0.258 C 
ATOM     19  H   UNL     1      28.206   6.571   9.555  1.00  0.00     0.170 HD
ATOM     20  O   UNL     1      30.933   6.936   9.569  1.00  0.00    -0.269 OA
BRANCH  10  21
ATOM     21  C   UNL     1      24.681  10.505  10.298  1.00  0.00     0.337 C 
ATOM     22  O   UNL     1      23.865   9.546  10.211  1.00  0.00    -0.246 OA
BRANCH  21  23
ATOM     23  O   UNL     1      24.209  11.809  10.488  1.00  0.00    -0.465 OA
ATOM     24  C   UNL     1      23.427  12.186  11.615  1.00  0.00     0.282 C 
ENDBRANCH  21  23
ENDBRANCH  10  21
BRANCH   9  25
ATOM     25  C   UNL     1      31.542  11.369   9.664  1.00  0.00    -0.001 A 
ATOM     26  C   UNL     1      31.899  12.175  10.756  1.00  0.00     0.010 A 
ATOM     27  C   UNL     1      31.361  11.962   8.400  1.00  0.00     0.010 A 
ATOM     28  C   UNL     1      32.031  13.558  10.597  1.00  0.00     0.001 A 
ATOM     29  C   UNL     1      31.494  13.344   8.246  1.00  0.00     0.001 A 
ATOM     30  C   UNL     1      31.826  14.142   9.345  1.00  0.00     0.000 A 
ENDBRANCH   9  25
ENDBRANCH   7   9
ENDBRANCH   1   7
BRANCH   4  31
ATOM     31  N   UNL     1      36.643   8.790   5.885  1.00  0.00    -0.314 N 
ATOM     32  C   UNL     1      37.979   9.342   6.146  1.00  0.00     0.153 C 
BRANCH  31  33
ATOM     33  C   UNL     1      36.305   8.264   4.579  1.00  0.00     0.240 C 
ATOM     34  O   UNL     1      35.460   8.868   3.862  1.00  0.00    -0.273 OA
BRANCH  33  35
ATOM     35  C   UNL     1      36.910   6.977   4.072  1.00  0.00     0.185 C 
BRANCH  35  36
ATOM     36  N   UNL     1      35.919   5.879   4.074  1.00  0.00    -0.292 NA
ATOM     37  C   UNL     1      35.719   5.350   2.710  1.00  0.00     0.100 C 
ATOM     38  C   UNL     1      36.360   4.791   4.966  1.00  0.00     0.100 C 
ATOM     39  C   UNL     1      34.646   4.251   2.721  1.00  0.00     0.099 C 
ATOM     40  C   UNL     1      35.300   3.679   5.009  1.00  0.00     0.099 C 
ATOM     41  N   UNL     1      34.967   3.162   3.666  1.00  0.00    -0.304 NA
ATOM     42  C   UNL     1      35.998   2.249   3.144  1.00  0.00     0.105 C 
ENDBRANCH  35  36
ENDBRANCH  33  35
ENDBRANCH  31  33
ENDBRANCH   4  31
TORSDOF 9
ENDMDL
MODEL 4
REMARK VINA RESULT:    -8.831      5.851     10.623
REMARK INTER + INTRA:         -15.531
REMARK INTER:                 -13.059
REMARK INTRA:                  -2.472
REMARK UNBOUND:                -2.053
REMARK SMILES COC(=O)c1ccc2c(c1)NC(=O)/C2=C(\Nc1ccc(N(C)C(=O)CN2CCN(C)CC2)cc1)c1ccccc1
REMARK SMILES IDX 17 1 18 2 19 3 20 4 33 5 34 6 16 7 15 9 5 10 6 11 10 12 7 13
REMARK SMILES IDX 9 14 8 15 11 16 14 17 12 18 13 20 3 21 4 22 2 23 1 24 35 25
REMARK SMILES IDX 36 26 40 27 37 28 39 29 38 30 21 31 22 32 23 33 24 34 25 35
REMARK SMILES IDX 26 36 27 37 32 38 28 39 31 40 29 41 30 42
REMARK H PARENT 16 8 11 19
REMARK Flexibility Score: inf
ROOT
ATOM      1  C   UNL     1      33.788  10.053   9.576  1.00  0.00     0.039 A 
ATOM      2  C   UNL     1      34.679  10.565  10.529  1.00  0.00     0.028 A 
ATOM      3  C   UNL     1      35.889  11.140  10.130  1.00  0.00     0.028 A 
ATOM      4  C   UNL     1      36.239  11.191   8.772  1.00  0.00     0.043 A 
ATOM      5  C   UNL     1      35.354  10.659   7.818  1.00  0.00     0.028 A 
ATOM      6  C   UNL     1      34.143  10.089   8.217  1.00  0.00     0.028 A 
ENDROOT
BRANCH   1   7
ATOM      7  N   UNL     1      32.552   9.459  10.006  1.00  0.00    -0.354 N 
ATOM      8  H   UNL     1      32.600   8.574  10.559  1.00  0.00     0.167 HD
BRANCH   7   9
ATOM      9  C   UNL     1      31.271  10.100   9.863  1.00  0.00     0.059 C 
ATOM     10  C   UNL     1      25.935   9.943  10.101  1.00  0.00     0.062 A 
ATOM     11  C   UNL     1      26.746  11.071  10.369  1.00  0.00     0.016 A 
ATOM     12  C   UNL     1      26.547   8.709   9.796  1.00  0.00     0.042 A 
ATOM     13  C   UNL     1      28.146  10.981  10.308  1.00  0.00     0.012 A 
ATOM     14  C   UNL     1      27.938   8.647   9.733  1.00  0.00     0.050 A 
ATOM     15  C   UNL     1      28.728   9.764   9.938  1.00  0.00     0.013 A 
ATOM     16  N   UNL     1      28.707   7.468   9.543  1.00  0.00    -0.321 N 
ATOM     17  C   UNL     1      30.146   9.349   9.856  1.00  0.00     0.073 C 
ATOM     18  C   UNL     1      30.060   7.895   9.640  1.00  0.00     0.258 C 
ATOM     19  H   UNL     1      28.358   6.495   9.393  1.00  0.00     0.170 HD
ATOM     20  O   UNL     1      31.037   7.112   9.496  1.00  0.00    -0.269 OA
BRANCH  10  21
ATOM     21  C   UNL     1      24.461  10.054  10.168  1.00  0.00     0.337 C 
ATOM     22  O   UNL     1      23.743   9.018  10.092  1.00  0.00    -0.246 OA
BRANCH  21  23
ATOM     23  O   UNL     1      23.861  11.310  10.314  1.00  0.00    -0.465 OA
ATOM     24  C   UNL     1      23.076  11.658  11.448  1.00  0.00     0.282 C 
ENDBRANCH  21  23
ENDBRANCH  10  21
BRANCH   9  25
ATOM     25  C   UNL     1      31.224  11.576   9.756  1.00  0.00    -0.001 A 
ATOM     26  C   UNL     1      31.267  12.367  10.914  1.00  0.00     0.010 A 
ATOM     27  C   UNL     1      31.229  12.200   8.495  1.00  0.00     0.010 A 
ATOM     28  C   UNL     1      31.273  13.762  10.815  1.00  0.00     0.001 A 
ATOM     29  C   UNL     1      31.235  13.594   8.400  1.00  0.00     0.001 A 
ATOM     30  C   UNL     1      31.253  14.375   9.560  1.00  0.00     0.000 A 
ENDBRANCH   9  25
ENDBRANCH   7   9
ENDBRANCH   1   7
BRANCH   4  31
ATOM     31  N   UNL     1      37.487  11.782   8.358  1.00  0.00    -0.314 N 
ATOM     32  C   UNL     1      38.236  11.162   7.257  1.00  0.00     0.153 C 
BRANCH  31  33
ATOM     33  C   UNL     1      38.040  12.904   9.085  1.00  0.00     0.240 C 
ATOM     34  O   UNL     1      39.096  12.752   9.760  1.00  0.00    -0.273 OA
BRANCH  33  35
ATOM     35  C   UNL     1      37.352  14.249   9.093  1.00  0.00     0.185 C 
BRANCH  35  36
ATOM     36  N   UNL     1      36.897  14.613  10.453  1.00  0.00    -0.292 NA
ATOM     37  C   UNL     1      37.562  15.847  10.916  1.00  0.00     0.100 C 
ATOM     38  C   UNL     1      35.435  14.804  10.470  1.00  0.00     0.100 C 
ATOM     39  C   UNL     1      37.122  16.178  12.350  1.00  0.00     0.099 C 
ATOM     40  C   UNL     1      34.959  15.125  11.896  1.00  0.00     0.099 C 
ATOM     41  N   UNL     1      35.654  16.292  12.475  1.00  0.00    -0.304 NA
ATOM     42  C   UNL     1      35.143  17.569  11.947  1.00  0.00     0.105 C 
ENDBRANCH  35  36
ENDBRANCH  33  35
ENDBRANCH  31  33
ENDBRANCH   4  31
TORSDOF 9
ENDMDL
MODEL 5
REMARK VINA RESULT:    -8.705      1.601      2.359
REMARK INTER + INTRA:         -15.338
REMARK INTER:                 -13.095
REMARK INTRA:                  -2.242
REMARK UNBOUND:                -2.053
REMARK SMILES COC(=O)c1ccc2c(c1)NC(=O)/C2=C(\Nc1ccc(N(C)C(=O)CN2CCN(C)CC2)cc1)c1ccccc1
REMARK SMILES IDX 17 1 18 2 19 3 20 4 33 5 34 6 16 7 15 9 5 10 6 11 10 12 7 13
REMARK SMILES IDX 9 14 8 15 11 16 14 17 12 18 13 20 3 21 4 22 2 23 1 24 35 25
REMARK SMILES IDX 36 26 40 27 37 28 39 29 38 30 21 31 22 32 23 33 24 34 25 35
REMARK SMILES IDX 26 36 27 37 32 38 28 39 31 40 29 41 30 42
REMARK H PARENT 16 8 11 19
REMARK Flexibility Score: inf
ROOT
ATOM      1  C   UNL     1      35.109   6.989   8.041  1.00  0.00     0.039 A 
ATOM      2  C   UNL     1      35.704   8.220   8.349  1.00  0.00     0.028 A 
ATOM      3  C   UNL     1      34.922   9.297   8.774  1.00  0.00     0.028 A 
ATOM      4  C   UNL     1      33.528   9.169   8.875  1.00  0.00     0.043 A 
ATOM      5  C   UNL     1      32.930   7.941   8.546  1.00  0.00     0.028 A 
ATOM      6  C   UNL     1      33.712   6.863   8.127  1.00  0.00     0.028 A 
ENDROOT
BRANCH   1   7
ATOM      7  N   UNL     1      35.928   5.895   7.599  1.00  0.00    -0.354 N 
ATOM      8  H   UNL     1      36.408   5.317   8.326  1.00  0.00     0.167 HD
BRANCH   7   9
ATOM      9  C   UNL     1      35.991   5.450   6.231  1.00  0.00     0.059 C 
ATOM     10  C   UNL     1      35.250   1.672   2.525  1.00  0.00     0.062 A 
ATOM     11  C   UNL     1      35.128   3.068   2.326  1.00  0.00     0.016 A 
ATOM     12  C   UNL     1      35.534   1.182   3.818  1.00  0.00     0.042 A 
ATOM     13  C   UNL     1      35.313   3.966   3.389  1.00  0.00     0.012 A 
ATOM     14  C   UNL     1      35.722   2.093   4.855  1.00  0.00     0.050 A 
ATOM     15  C   UNL     1      35.660   3.459   4.647  1.00  0.00     0.013 A 
ATOM     16  N   UNL     1      35.909   1.763   6.224  1.00  0.00    -0.321 N 
ATOM     17  C   UNL     1      35.847   4.135   5.949  1.00  0.00     0.073 C 
ATOM     18  C   UNL     1      35.965   3.014   6.898  1.00  0.00     0.258 C 
ATOM     19  H   UNL     1      35.966   0.810   6.649  1.00  0.00     0.170 HD
ATOM     20  O   UNL     1      36.150   3.115   8.140  1.00  0.00    -0.269 OA
BRANCH  10  21
ATOM     21  C   UNL     1      35.053   0.739   1.394  1.00  0.00     0.337 C 
ATOM     22  O   UNL     1      34.153  -0.145   1.450  1.00  0.00    -0.246 OA
BRANCH  21  23
ATOM     23  O   UNL     1      35.867   0.836   0.260  1.00  0.00    -0.465 OA
ATOM     24  C   UNL     1      37.265   0.571   0.292  1.00  0.00     0.282 C 
ENDBRANCH  21  23
ENDBRANCH  10  21
BRANCH   9  25
ATOM     25  C   UNL     1      36.184   6.459   5.165  1.00  0.00    -0.001 A 
ATOM     26  C   UNL     1      35.104   7.249   4.740  1.00  0.00     0.010 A 
ATOM     27  C   UNL     1      37.465   6.701   4.636  1.00  0.00     0.010 A 
ATOM     28  C   UNL     1      35.294   8.237   3.770  1.00  0.00     0.001 A 
ATOM     29  C   UNL     1      37.650   7.690   3.666  1.00  0.00     0.001 A 
ATOM     30  C   UNL     1      36.564   8.455   3.230  1.00  0.00     0.000 A 
ENDBRANCH   9  25
ENDBRANCH   7   9
ENDBRANCH   1   7
BRANCH   4  31
ATOM     31  N   UNL     1      32.719  10.280   9.311  1.00  0.00    -0.314 N 
ATOM     32  C   UNL     1      32.774  10.688  10.721  1.00  0.00     0.153 C 
BRANCH  31  33
ATOM     33  C   UNL     1      31.792  10.912   8.397  1.00  0.00     0.240 C 
ATOM     34  O   UNL     1      32.218  11.398   7.313  1.00  0.00    -0.273 OA
BRANCH  33  35
ATOM     35  C   UNL     1      30.326  11.044   8.734  1.00  0.00     0.185 C 
BRANCH  35  36
ATOM     36  N   UNL     1      29.741   9.740   9.118  1.00  0.00    -0.292 NA
ATOM     37  C   UNL     1      29.032   9.844  10.409  1.00  0.00     0.100 C 
ATOM     38  C   UNL     1      28.809   9.270   8.078  1.00  0.00     0.100 C 
ATOM     39  C   UNL     1      28.481   8.470  10.820  1.00  0.00     0.099 C 
ATOM     40  C   UNL     1      28.249   7.889   8.454  1.00  0.00     0.099 C 
ATOM     41  N   UNL     1      27.608   7.881   9.785  1.00  0.00    -0.304 NA
ATOM     42  C   UNL     1      26.268   8.492   9.766  1.00  0.00     0.105 C 
ENDBRANCH  35  36
ENDBRANCH  33  35
ENDBRANCH  31  33
ENDBRANCH   4  31
TORSDOF 9
ENDMDL
MODEL 6
REMARK VINA RESULT:    -8.631      2.431     10.987
REMARK INTER + INTRA:         -15.226
REMARK INTER:                 -13.681
REMARK INTRA:                  -1.544
REMARK UNBOUND:                -2.053
REMARK SMILES COC(=O)c1ccc2c(c1)NC(=O)/C2=C(\Nc1ccc(N(C)C(=O)CN2CCN(C)CC2)cc1)c1ccccc1
REMARK SMILES IDX 17 1 18 2 19 3 20 4 33 5 34 6 16 7 15 9 5 10 6 11 10 12 7 13
REMARK SMILES IDX 9 14 8 15 11 16 14 17 12 18 13 20 3 21 4 22 2 23 1 24 35 25
REMARK SMILES IDX 36 26 40 27 37 28 39 29 38 30 21 31 22 32 23 33 24 34 25 35
REMARK SMILES IDX 26 36 27 37 32 38 28 39 31 40 29 41 30 42
REMARK H PARENT 16 8 11 19
REMARK Flexibility Score: inf
ROOT
ATOM      1  C   UNL     1      33.480   8.049   8.563  1.00  0.00     0.039 A 
ATOM      2  C   UNL     1      33.269   6.720   8.170  1.00  0.00     0.028 A 
ATOM      3  C   UNL     1      33.949   6.191   7.070  1.00  0.00     0.028 A 
ATOM      4  C   UNL     1      34.835   6.990   6.329  1.00  0.00     0.043 A 
ATOM      5  C   UNL     1      35.030   8.327   6.711  1.00  0.00     0.028 A 
ATOM      6  C   UNL     1      34.354   8.854   7.814  1.00  0.00     0.028 A 
ENDROOT
BRANCH   1   7
ATOM      7  N   UNL     1      32.766   8.578   9.693  1.00  0.00    -0.354 N 
ATOM      8  H   UNL     1      33.104   8.324  10.648  1.00  0.00     0.167 HD
BRANCH   7   9
ATOM      9  C   UNL     1      31.724   9.565   9.583  1.00  0.00     0.059 C 
ATOM     10  C   UNL     1      26.638  11.059  10.259  1.00  0.00     0.062 A 
ATOM     11  C   UNL     1      27.770  11.904  10.336  1.00  0.00     0.016 A 
ATOM     12  C   UNL     1      26.822   9.677  10.043  1.00  0.00     0.042 A 
ATOM     13  C   UNL     1      29.066  11.388  10.175  1.00  0.00     0.012 A 
ATOM     14  C   UNL     1      28.117   9.189   9.876  1.00  0.00     0.050 A 
ATOM     15  C   UNL     1      29.219  10.026   9.895  1.00  0.00     0.013 A 
ATOM     16  N   UNL     1      28.479   7.821   9.756  1.00  0.00    -0.321 N 
ATOM     17  C   UNL     1      30.434   9.194   9.747  1.00  0.00     0.073 C 
ATOM     18  C   UNL     1      29.900   7.822   9.698  1.00  0.00     0.258 C 
ATOM     19  H   UNL     1      27.843   6.991   9.742  1.00  0.00     0.170 HD
ATOM     20  O   UNL     1      30.580   6.770   9.564  1.00  0.00    -0.269 OA
BRANCH  10  21
ATOM     21  C   UNL     1      25.279  11.618  10.429  1.00  0.00     0.337 C 
ATOM     22  O   UNL     1      25.128  12.829  10.752  1.00  0.00    -0.246 OA
BRANCH  21  23
ATOM     23  O   UNL     1      24.159  10.802  10.232  1.00  0.00    -0.465 OA
ATOM     24  C   UNL     1      23.305  10.400  11.297  1.00  0.00     0.282 C 
ENDBRANCH  21  23
ENDBRANCH  10  21
BRANCH   9  25
ATOM     25  C   UNL     1      32.103  10.971   9.319  1.00  0.00    -0.001 A 
ATOM     26  C   UNL     1      31.887  11.532   8.051  1.00  0.00     0.010 A 
ATOM     27  C   UNL     1      32.596  11.784  10.357  1.00  0.00     0.010 A 
ATOM     28  C   UNL     1      32.197  12.874   7.812  1.00  0.00     0.001 A 
ATOM     29  C   UNL     1      32.905  13.125  10.114  1.00  0.00     0.001 A 
ATOM     30  C   UNL     1      32.709  13.669   8.841  1.00  0.00     0.000 A 
ENDBRANCH   9  25
ENDBRANCH   7   9
ENDBRANCH   1   7
BRANCH   4  31
ATOM     31  N   UNL     1      35.536   6.446   5.193  1.00  0.00    -0.314 N 
ATOM     32  C   UNL     1      35.904   7.343   4.090  1.00  0.00     0.153 C 
BRANCH  31  33
ATOM     33  C   UNL     1      35.778   5.023   5.097  1.00  0.00     0.240 C 
ATOM     34  O   UNL     1      36.829   4.533   5.597  1.00  0.00    -0.273 OA
BRANCH  33  35
ATOM     35  C   UNL     1      34.820   4.111   4.368  1.00  0.00     0.185 C 
BRANCH  35  36
ATOM     36  N   UNL     1      35.532   3.232   3.415  1.00  0.00    -0.292 NA
ATOM     37  C   UNL     1      35.417   1.817   3.819  1.00  0.00     0.100 C 
ATOM     38  C   UNL     1      34.989   3.403   2.055  1.00  0.00     0.100 C 
ATOM     39  C   UNL     1      36.209   0.924   2.852  1.00  0.00     0.099 C 
ATOM     40  C   UNL     1      35.770   2.532   1.059  1.00  0.00     0.099 C 
ATOM     41  N   UNL     1      35.790   1.107   1.448  1.00  0.00    -0.304 NA
ATOM     42  C   UNL     1      34.519   0.426   1.147  1.00  0.00     0.105 C 
ENDBRANCH  35  36
ENDBRANCH  33  35
ENDBRANCH  31  33
ENDBRANCH   4  31
TORSDOF 9
ENDMDL
MODEL 7
REMARK VINA RESULT:    -8.501      4.871     11.339
REMARK INTER + INTRA:         -15.027
REMARK INTER:                 -12.749
REMARK INTRA:                  -2.278
REMARK UNBOUND:                -2.053
REMARK SMILES COC(=O)c1ccc2c(c1)NC(=O)/C2=C(\Nc1ccc(N(C)C(=O)CN2CCN(C)CC2)cc1)c1ccccc1
REMARK SMILES IDX 17 1 18 2 19 3 20 4 33 5 34 6 16 7 15 9 5 10 6 11 10 12 7 13
REMARK SMILES IDX 9 14 8 15 11 16 14 17 12 18 13 20 3 21 4 22 2 23 1 24 35 25
REMARK SMILES IDX 36 26 40 27 37 28 39 29 38 30 21 31 22 32 23 33 24 34 25 35
REMARK SMILES IDX 26 36 27 37 32 38 28 39 31 40 29 41 30 42
REMARK H PARENT 16 8 11 19
REMARK Flexibility Score: inf
ROOT
ATOM      1  C   UNL     1      31.532  13.267   9.242  1.00  0.00     0.039 A 
ATOM      2  C   UNL     1      32.181  13.205   8.001  1.00  0.00     0.028 A 
ATOM      3  C   UNL     1      33.571  13.078   7.935  1.00  0.00     0.028 A 
ATOM      4  C   UNL     1      34.339  13.034   9.110  1.00  0.00     0.043 A 
ATOM      5  C   UNL     1      33.689  13.115  10.353  1.00  0.00     0.028 A 
ATOM      6  C   UNL     1      32.300  13.237  10.418  1.00  0.00     0.028 A 
ENDROOT
BRANCH   1   7
ATOM      7  N   UNL     1      30.103  13.404   9.290  1.00  0.00    -0.354 N 
ATOM      8  H   UNL     1      29.683  14.289   8.925  1.00  0.00     0.167 HD
BRANCH   7   9
ATOM      9  C   UNL     1      29.213  12.333   9.654  1.00  0.00     0.059 C 
ATOM     10  C   UNL     1      24.324  10.551  10.870  1.00  0.00     0.062 A 
ATOM     11  C   UNL     1      25.335   9.818  10.207  1.00  0.00     0.016 A 
ATOM     12  C   UNL     1      24.560  11.901  11.210  1.00  0.00     0.042 A 
ATOM     13  C   UNL     1      26.574  10.406   9.909  1.00  0.00     0.012 A 
ATOM     14  C   UNL     1      25.801  12.461  10.912  1.00  0.00     0.050 A 
ATOM     15  C   UNL     1      26.810  11.724  10.315  1.00  0.00     0.013 A 
ATOM     16  N   UNL     1      26.161  13.823  11.092  1.00  0.00    -0.321 N 
ATOM     17  C   UNL     1      27.965  12.620  10.089  1.00  0.00     0.073 C 
ATOM     18  C   UNL     1      27.479  13.926  10.567  1.00  0.00     0.258 C 
ATOM     19  H   UNL     1      25.576  14.590  11.494  1.00  0.00     0.170 HD
ATOM     20  O   UNL     1      28.139  14.999  10.580  1.00  0.00    -0.269 OA
BRANCH  10  21
ATOM     21  C   UNL     1      23.023   9.916  11.179  1.00  0.00     0.337 C 
ATOM     22  O   UNL     1      22.238  10.451  12.010  1.00  0.00    -0.246 OA
BRANCH  21  23
ATOM     23  O   UNL     1      22.664   8.720  10.547  1.00  0.00    -0.465 OA
ATOM     24  C   UNL     1      22.896   7.444  11.130  1.00  0.00     0.282 C 
ENDBRANCH  21  23
ENDBRANCH  10  21
BRANCH   9  25
ATOM     25  C   UNL     1      29.688  10.938   9.514  1.00  0.00    -0.001 A 
ATOM     26  C   UNL     1      30.141  10.233  10.640  1.00  0.00     0.010 A 
ATOM     27  C   UNL     1      29.602  10.276   8.275  1.00  0.00     0.010 A 
ATOM     28  C   UNL     1      30.543   8.899  10.520  1.00  0.00     0.001 A 
ATOM     29  C   UNL     1      30.005   8.943   8.160  1.00  0.00     0.001 A 
ATOM     30  C   UNL     1      30.479   8.256   9.282  1.00  0.00     0.000 A 
ENDBRANCH   9  25
ENDBRANCH   7   9
ENDBRANCH   1   7
BRANCH   4  31
ATOM     31  N   UNL     1      35.773  12.904   9.044  1.00  0.00    -0.314 N 
ATOM     32  C   UNL     1      36.571  14.056   8.605  1.00  0.00     0.153 C 
BRANCH  31  33
ATOM     33  C   UNL     1      36.403  11.628   9.305  1.00  0.00     0.240 C 
ATOM     34  O   UNL     1      36.625  11.273  10.496  1.00  0.00    -0.273 OA
BRANCH  33  35
ATOM     35  C   UNL     1      36.847  10.727   8.177  1.00  0.00     0.185 C 
BRANCH  35  36
ATOM     36  N   UNL     1      35.745   9.849   7.724  1.00  0.00    -0.292 NA
ATOM     37  C   UNL     1      36.161   9.045   6.557  1.00  0.00     0.100 C 
ATOM     38  C   UNL     1      35.323   8.952   8.815  1.00  0.00     0.100 C 
ATOM     39  C   UNL     1      34.988   8.183   6.065  1.00  0.00     0.099 C 
ATOM     40  C   UNL     1      34.140   8.083   8.359  1.00  0.00     0.099 C 
ATOM     41  N   UNL     1      34.441   7.320   7.131  1.00  0.00    -0.304 NA
ATOM     42  C   UNL     1      35.288   6.144   7.393  1.00  0.00     0.105 C 
ENDBRANCH  35  36
ENDBRANCH  33  35
ENDBRANCH  31  33
ENDBRANCH   4  31
TORSDOF 9
ENDMDL
MODEL 8
REMARK VINA RESULT:    -8.420      2.697     11.468
REMARK INTER + INTRA:         -14.903
REMARK INTER:                 -12.930
REMARK INTRA:                  -1.972
REMARK UNBOUND:                -2.053
REMARK SMILES COC(=O)c1ccc2c(c1)NC(=O)/C2=C(\Nc1ccc(N(C)C(=O)CN2CCN(C)CC2)cc1)c1ccccc1
REMARK SMILES IDX 17 1 18 2 19 3 20 4 33 5 34 6 16 7 15 9 5 10 6 11 10 12 7 13
REMARK SMILES IDX 9 14 8 15 11 16 14 17 12 18 13 20 3 21 4 22 2 23 1 24 35 25
REMARK SMILES IDX 36 26 40 27 37 28 39 29 38 30 21 31 22 32 23 33 24 34 25 35
REMARK SMILES IDX 26 36 27 37 32 38 28 39 31 40 29 41 30 42
REMARK H PARENT 16 8 11 19
REMARK Flexibility Score: inf
ROOT
ATOM      1  C   UNL     1      33.073   8.400   9.161  1.00  0.00     0.039 A 
ATOM      2  C   UNL     1      34.294   9.032   8.883  1.00  0.00     0.028 A 
ATOM      3  C   UNL     1      35.119   8.559   7.860  1.00  0.00     0.028 A 
ATOM      4  C   UNL     1      34.749   7.430   7.111  1.00  0.00     0.043 A 
ATOM      5  C   UNL     1      33.535   6.785   7.403  1.00  0.00     0.028 A 
ATOM      6  C   UNL     1      32.708   7.262   8.423  1.00  0.00     0.028 A 
ENDROOT
BRANCH   1   7
ATOM      7  N   UNL     1      32.242   8.897  10.222  1.00  0.00    -0.354 N 
ATOM      8  H   UNL     1      32.314   8.438  11.157  1.00  0.00     0.167 HD
BRANCH   7   9
ATOM      9  C   UNL     1      31.443  10.090  10.112  1.00  0.00     0.059 C 
ATOM     10  C   UNL     1      26.818  12.675  10.807  1.00  0.00     0.062 A 
ATOM     11  C   UNL     1      28.109  13.249  10.876  1.00  0.00     0.016 A 
ATOM     12  C   UNL     1      26.690  11.286  10.597  1.00  0.00     0.042 A 
ATOM     13  C   UNL     1      29.258  12.458  10.710  1.00  0.00     0.012 A 
ATOM     14  C   UNL     1      27.844  10.523  10.426  1.00  0.00     0.050 A 
ATOM     15  C   UNL     1      29.104  11.095  10.436  1.00  0.00     0.013 A 
ATOM     16  N   UNL     1      27.893   9.108  10.311  1.00  0.00    -0.321 N 
ATOM     17  C   UNL     1      30.103  10.014  10.285  1.00  0.00     0.073 C 
ATOM     18  C   UNL     1      29.279   8.794  10.245  1.00  0.00     0.258 C 
ATOM     19  H   UNL     1      27.090   8.440  10.303  1.00  0.00     0.170 HD
ATOM     20  O   UNL     1      29.708   7.618  10.112  1.00  0.00    -0.269 OA
BRANCH  10  21
ATOM     21  C   UNL     1      25.617  13.522  10.983  1.00  0.00     0.337 C 
ATOM     22  O   UNL     1      24.473  12.992  11.056  1.00  0.00    -0.246 OA
BRANCH  21  23
ATOM     23  O   UNL     1      25.750  14.912  11.067  1.00  0.00    -0.465 OA
ATOM     24  C   UNL     1      24.940  15.711  11.921  1.00  0.00     0.282 C 
ENDBRANCH  21  23
ENDBRANCH  10  21
BRANCH   9  25
ATOM     25  C   UNL     1      32.122  11.377   9.840  1.00  0.00    -0.001 A 
ATOM     26  C   UNL     1      32.920  11.973  10.828  1.00  0.00     0.010 A 
ATOM     27  C   UNL     1      32.051  11.965   8.564  1.00  0.00     0.010 A 
ATOM     28  C   UNL     1      33.604  13.163  10.558  1.00  0.00     0.001 A 
ATOM     29  C   UNL     1      32.736  13.154   8.298  1.00  0.00     0.001 A 
ATOM     30  C   UNL     1      33.509  13.755   9.296  1.00  0.00     0.000 A 
ENDBRANCH   9  25
ENDBRANCH   7   9
ENDBRANCH   1   7
BRANCH   4  31
ATOM     31  N   UNL     1      35.599   6.939   6.056  1.00  0.00    -0.314 N 
ATOM     32  C   UNL     1      35.572   7.612   4.751  1.00  0.00     0.153 C 
BRANCH  31  33
ATOM     33  C   UNL     1      36.387   5.740   6.251  1.00  0.00     0.240 C 
ATOM     34  O   UNL     1      36.557   5.288   7.417  1.00  0.00    -0.273 OA
BRANCH  33  35
ATOM     35  C   UNL     1      37.052   5.041   5.089  1.00  0.00     0.185 C 
BRANCH  35  36
ATOM     36  N   UNL     1      36.114   4.123   4.405  1.00  0.00    -0.292 NA
ATOM     37  C   UNL     1      36.153   4.326   2.943  1.00  0.00     0.100 C 
ATOM     38  C   UNL     1      36.449   2.722   4.718  1.00  0.00     0.100 C 
ATOM     39  C   UNL     1      35.134   3.406   2.255  1.00  0.00     0.099 C 
ATOM     40  C   UNL     1      35.439   1.774   4.054  1.00  0.00     0.099 C 
ATOM     41  N   UNL     1      35.341   1.984   2.595  1.00  0.00    -0.304 NA
ATOM     42  C   UNL     1      36.476   1.391   1.866  1.00  0.00     0.105 C 
ENDBRANCH  35  36
ENDBRANCH  33  35
ENDBRANCH  31  33
ENDBRANCH   4  31
TORSDOF 9
ENDMDL
MODEL 9
REMARK VINA RESULT:    -8.317      2.646     10.702
REMARK INTER + INTRA:         -14.746
REMARK INTER:                 -12.759
REMARK INTRA:                  -1.987
REMARK UNBOUND:                -2.053
REMARK SMILES COC(=O)c1ccc2c(c1)NC(=O)/C2=C(\Nc1ccc(N(C)C(=O)CN2CCN(C)CC2)cc1)c1ccccc1
REMARK SMILES IDX 17 1 18 2 19 3 20 4 33 5 34 6 16 7 15 9 5 10 6 11 10 12 7 13
REMARK SMILES IDX 9 14 8 15 11 16 14 17 12 18 13 20 3 21 4 22 2 23 1 24 35 25
REMARK SMILES IDX 36 26 40 27 37 28 39 29 38 30 21 31 22 32 23 33 24 34 25 35
REMARK SMILES IDX 26 36 27 37 32 38 28 39 31 40 29 41 30 42
REMARK H PARENT 16 8 11 19
REMARK Flexibility Score: inf
ROOT
ATOM      1  C   UNL     1      33.833   8.270   8.681  1.00  0.00     0.039 A 
ATOM      2  C   UNL     1      33.608   7.103   7.938  1.00  0.00     0.028 A 
ATOM      3  C   UNL     1      34.450   6.766   6.876  1.00  0.00     0.028 A 
ATOM      4  C   UNL     1      35.520   7.604   6.523  1.00  0.00     0.043 A 
ATOM      5  C   UNL     1      35.733   8.784   7.255  1.00  0.00     0.028 A 
ATOM      6  C   UNL     1      34.894   9.117   8.320  1.00  0.00     0.028 A 
ENDROOT
BRANCH   1   7
ATOM      7  N   UNL     1      32.952   8.603   9.766  1.00  0.00    -0.354 N 
ATOM      8  H   UNL     1      33.150   8.187  10.704  1.00  0.00     0.167 HD
BRANCH   7   9
ATOM      9  C   UNL     1      31.918   9.601   9.672  1.00  0.00     0.059 C 
ATOM     10  C   UNL     1      26.814  11.082  10.223  1.00  0.00     0.062 A 
ATOM     11  C   UNL     1      27.945  11.914  10.399  1.00  0.00     0.016 A 
ATOM     12  C   UNL     1      27.001   9.714   9.932  1.00  0.00     0.042 A 
ATOM     13  C   UNL     1      29.244  11.401  10.261  1.00  0.00     0.012 A 
ATOM     14  C   UNL     1      28.301   9.230   9.791  1.00  0.00     0.050 A 
ATOM     15  C   UNL     1      29.404  10.057   9.907  1.00  0.00     0.013 A 
ATOM     16  N   UNL     1      28.662   7.869   9.604  1.00  0.00    -0.321 N 
ATOM     17  C   UNL     1      30.621   9.228   9.760  1.00  0.00     0.073 C 
ATOM     18  C   UNL     1      30.084   7.865   9.606  1.00  0.00     0.258 C 
ATOM     19  H   UNL     1      28.025   7.046   9.513  1.00  0.00     0.170 HD
ATOM     20  O   UNL     1      30.766   6.819   9.437  1.00  0.00    -0.269 OA
BRANCH  10  21
ATOM     21  C   UNL     1      25.450  11.639  10.370  1.00  0.00     0.337 C 
ATOM     22  O   UNL     1      25.291  12.845  10.706  1.00  0.00    -0.246 OA
BRANCH  21  23
ATOM     23  O   UNL     1      24.336  10.825  10.136  1.00  0.00    -0.465 OA
ATOM     24  C   UNL     1      23.357  10.558  11.133  1.00  0.00     0.282 C 
ENDBRANCH  21  23
ENDBRANCH  10  21
BRANCH   9  25
ATOM     25  C   UNL     1      32.313  11.018   9.510  1.00  0.00    -0.001 A 
ATOM     26  C   UNL     1      32.870  11.721  10.589  1.00  0.00     0.010 A 
ATOM     27  C   UNL     1      32.222  11.645   8.253  1.00  0.00     0.010 A 
ATOM     28  C   UNL     1      33.290  13.045  10.426  1.00  0.00     0.001 A 
ATOM     29  C   UNL     1      32.644  12.967   8.094  1.00  0.00     0.001 A 
ATOM     30  C   UNL     1      33.174  13.669   9.181  1.00  0.00     0.000 A 
ENDBRANCH   9  25
ENDBRANCH   7   9
ENDBRANCH   1   7
BRANCH   4  31
ATOM     31  N   UNL     1      36.390   7.260   5.426  1.00  0.00    -0.314 N 
ATOM     32  C   UNL     1      37.801   6.965   5.705  1.00  0.00     0.153 C 
BRANCH  31  33
ATOM     33  C   UNL     1      35.902   7.308   4.064  1.00  0.00     0.240 C 
ATOM     34  O   UNL     1      35.920   8.401   3.433  1.00  0.00    -0.273 OA
BRANCH  33  35
ATOM     35  C   UNL     1      35.326   6.084   3.394  1.00  0.00     0.185 C 
BRANCH  35  36
ATOM     36  N   UNL     1      35.892   4.841   3.964  1.00  0.00    -0.292 NA
ATOM     37  C   UNL     1      34.831   4.014   4.574  1.00  0.00     0.100 C 
ATOM     38  C   UNL     1      36.583   4.066   2.919  1.00  0.00     0.100 C 
ATOM     39  C   UNL     1      35.443   2.757   5.211  1.00  0.00     0.099 C 
ATOM     40  C   UNL     1      37.219   2.805   3.527  1.00  0.00     0.099 C 
ATOM     41  N   UNL     1      36.238   1.969   4.248  1.00  0.00    -0.304 NA
ATOM     42  C   UNL     1      35.393   1.181   3.334  1.00  0.00     0.105 C 
ENDBRANCH  35  36
ENDBRANCH  33  35
ENDBRANCH  31  33
ENDBRANCH   4  31
TORSDOF 9
ENDMDL
MODEL 10
REMARK VINA RESULT:    -8.285      2.549      4.304
REMARK INTER + INTRA:         -14.697
REMARK INTER:                 -12.655
REMARK INTRA:                  -2.042
REMARK UNBOUND:                -2.053
REMARK SMILES COC(=O)c1ccc2c(c1)NC(=O)/C2=C(\Nc1ccc(N(C)C(=O)CN2CCN(C)CC2)cc1)c1ccccc1
REMARK SMILES IDX 17 1 18 2 19 3 20 4 33 5 34 6 16 7 15 9 5 10 6 11 10 12 7 13
REMARK SMILES IDX 9 14 8 15 11 16 14 17 12 18 13 20 3 21 4 22 2 23 1 24 35 25
REMARK SMILES IDX 36 26 40 27 37 28 39 29 38 30 21 31 22 32 23 33 24 34 25 35
REMARK SMILES IDX 26 36 27 37 32 38 28 39 31 40 29 41 30 42
REMARK H PARENT 16 8 11 19
REMARK Flexibility Score: inf
ROOT
ATOM      1  C   UNL     1      36.295   7.580   6.594  1.00  0.00     0.039 A 
ATOM      2  C   UNL     1      36.539   7.732   7.966  1.00  0.00     0.028 A 
ATOM      3  C   UNL     1      35.943   8.775   8.680  1.00  0.00     0.028 A 
ATOM      4  C   UNL     1      35.109   9.698   8.029  1.00  0.00     0.043 A 
ATOM      5  C   UNL     1      34.881   9.557   6.650  1.00  0.00     0.028 A 
ATOM      6  C   UNL     1      35.473   8.512   5.938  1.00  0.00     0.028 A 
ENDROOT
BRANCH   1   7
ATOM      7  N   UNL     1      36.923   6.507   5.876  1.00  0.00    -0.354 N 
ATOM      8  H   UNL     1      37.957   6.552   5.731  1.00  0.00     0.167 HD
BRANCH   7   9
ATOM      9  C   UNL     1      36.239   5.299   5.493  1.00  0.00     0.059 C 
ATOM     10  C   UNL     1      35.259   1.429   1.941  1.00  0.00     0.062 A 
ATOM     11  C   UNL     1      35.234   1.291   3.349  1.00  0.00     0.016 A 
ATOM     12  C   UNL     1      35.628   2.667   1.375  1.00  0.00     0.042 A 
ATOM     13  C   UNL     1      35.545   2.376   4.185  1.00  0.00     0.012 A 
ATOM     14  C   UNL     1      35.923   3.732   2.225  1.00  0.00     0.050 A 
ATOM     15  C   UNL     1      35.843   3.612   3.601  1.00  0.00     0.013 A 
ATOM     16  N   UNL     1      36.410   5.005   1.821  1.00  0.00    -0.321 N 
ATOM     17  C   UNL     1      36.270   4.894   4.203  1.00  0.00     0.073 C 
ATOM     18  C   UNL     1      36.642   5.709   3.034  1.00  0.00     0.258 C 
ATOM     19  H   UNL     1      36.585   5.341   0.847  1.00  0.00     0.170 HD
ATOM     20  O   UNL     1      37.058   6.898   3.066  1.00  0.00    -0.269 OA
BRANCH  10  21
ATOM     21  C   UNL     1      34.927   0.276   1.075  1.00  0.00     0.337 C 
ATOM     22  O   UNL     1      33.820  -0.317   1.205  1.00  0.00    -0.246 OA
BRANCH  21  23
ATOM     23  O   UNL     1      35.842  -0.157   0.108  1.00  0.00    -0.465 OA
ATOM     24  C   UNL     1      35.567  -1.230  -0.784  1.00  0.00     0.282 C 
ENDBRANCH  21  23
ENDBRANCH  10  21
BRANCH   9  25
ATOM     25  C   UNL     1      35.540   4.518   6.539  1.00  0.00    -0.001 A 
ATOM     26  C   UNL     1      36.201   3.464   7.189  1.00  0.00     0.010 A 
ATOM     27  C   UNL     1      34.246   4.880   6.956  1.00  0.00     0.010 A 
ATOM     28  C   UNL     1      35.563   2.756   8.211  1.00  0.00     0.001 A 
ATOM     29  C   UNL     1      33.611   4.170   7.978  1.00  0.00     0.001 A 
ATOM     30  C   UNL     1      34.268   3.106   8.603  1.00  0.00     0.000 A 
ENDBRANCH   9  25
ENDBRANCH   7   9
ENDBRANCH   1   7
BRANCH   4  31
ATOM     31  N   UNL     1      34.494  10.775   8.763  1.00  0.00    -0.314 N 
ATOM     32  C   UNL     1      34.501  12.124   8.184  1.00  0.00     0.153 C 
BRANCH  31  33
ATOM     33  C   UNL     1      33.972  10.547  10.094  1.00  0.00     0.240 C 
ATOM     34  O   UNL     1      34.632  10.934  11.098  1.00  0.00    -0.273 OA
BRANCH  33  35
ATOM     35  C   UNL     1      32.671   9.811  10.311  1.00  0.00     0.185 C 
BRANCH  35  36
ATOM     36  N   UNL     1      31.595  10.354   9.454  1.00  0.00    -0.292 NA
ATOM     37  C   UNL     1      30.759   9.266   8.907  1.00  0.00     0.100 C 
ATOM     38  C   UNL     1      30.751  11.288  10.220  1.00  0.00     0.100 C 
ATOM     39  C   UNL     1      29.684   9.844   7.975  1.00  0.00     0.099 C 
ATOM     40  C   UNL     1      29.671  11.895   9.311  1.00  0.00     0.099 C 
ATOM     41  N   UNL     1      28.851  10.864   8.642  1.00  0.00    -0.304 NA
ATOM     42  C   UNL     1      27.850  10.270   9.545  1.00  0.00     0.105 C 
ENDBRANCH  35  36
ENDBRANCH  33  35
ENDBRANCH  31  33
ENDBRANCH   4  31
TORSDOF 9
ENDMDL
MODEL 11
REMARK VINA RESULT:    -8.212      2.489      3.351
REMARK INTER + INTRA:         -14.586
REMARK INTER:                 -12.514
REMARK INTRA:                  -2.072
REMARK UNBOUND:                -2.053
REMARK SMILES COC(=O)c1ccc2c(c1)NC(=O)/C2=C(\Nc1ccc(N(C)C(=O)CN2CCN(C)CC2)cc1)c1ccccc1
REMARK SMILES IDX 17 1 18 2 19 3 20 4 33 5 34 6 16 7 15 9 5 10 6 11 10 12 7 13
REMARK SMILES IDX 9 14 8 15 11 16 14 17 12 18 13 20 3 21 4 22 2 23 1 24 35 25
REMARK SMILES IDX 36 26 40 27 37 28 39 29 38 30 21 31 22 32 23 33 24 34 25 35
REMARK SMILES IDX 26 36 27 37 32 38 28 39 31 40 29 41 30 42
REMARK H PARENT 16 8 11 19
REMARK Flexibility Score: inf
ROOT
ATOM      1  C   UNL     1      34.748   6.510   7.876  1.00  0.00     0.039 A 
ATOM      2  C   UNL     1      34.821   7.891   8.108  1.00  0.00     0.028 A 
ATOM      3  C   UNL     1      33.701   8.593   8.559  1.00  0.00     0.028 A 
ATOM      4  C   UNL     1      32.480   7.930   8.765  1.00  0.00     0.043 A 
ATOM      5  C   UNL     1      32.403   6.550   8.513  1.00  0.00     0.028 A 
ATOM      6  C   UNL     1      33.524   5.848   8.067  1.00  0.00     0.028 A 
ENDROOT
BRANCH   1   7
ATOM      7  N   UNL     1      35.909   5.807   7.405  1.00  0.00    -0.354 N 
ATOM      8  H   UNL     1      36.638   5.541   8.104  1.00  0.00     0.167 HD
BRANCH   7   9
ATOM      9  C   UNL     1      36.043   5.304   6.062  1.00  0.00     0.059 C 
ATOM     10  C   UNL     1      35.328   1.434   2.448  1.00  0.00     0.062 A 
ATOM     11  C   UNL     1      35.315   2.826   2.190  1.00  0.00     0.016 A 
ATOM     12  C   UNL     1      35.481   0.979   3.775  1.00  0.00     0.042 A 
ATOM     13  C   UNL     1      35.481   3.752   3.232  1.00  0.00     0.012 A 
ATOM     14  C   UNL     1      35.652   1.918   4.791  1.00  0.00     0.050 A 
ATOM     15  C   UNL     1      35.698   3.276   4.529  1.00  0.00     0.013 A 
ATOM     16  N   UNL     1      35.715   1.632   6.181  1.00  0.00    -0.321 N 
ATOM     17  C   UNL     1      35.833   3.991   5.818  1.00  0.00     0.073 C 
ATOM     18  C   UNL     1      35.804   2.904   6.812  1.00  0.00     0.258 C 
ATOM     19  H   UNL     1      35.675   0.696   6.643  1.00  0.00     0.170 HD
ATOM     20  O   UNL     1      35.903   3.043   8.060  1.00  0.00    -0.269 OA
BRANCH  10  21
ATOM     21  C   UNL     1      35.154   0.470   1.339  1.00  0.00     0.337 C 
ATOM     22  O   UNL     1      34.192  -0.347   1.355  1.00  0.00    -0.246 OA
BRANCH  21  23
ATOM     23  O   UNL     1      36.058   0.465   0.271  1.00  0.00    -0.465 OA
ATOM     24  C   UNL     1      37.468   0.496   0.458  1.00  0.00     0.282 C 
ENDBRANCH  21  23
ENDBRANCH  10  21
BRANCH   9  25
ATOM     25  C   UNL     1      36.382   6.255   4.979  1.00  0.00    -0.001 A 
ATOM     26  C   UNL     1      35.397   7.105   4.455  1.00  0.00     0.010 A 
ATOM     27  C   UNL     1      37.710   6.381   4.531  1.00  0.00     0.010 A 
ATOM     28  C   UNL     1      35.724   8.038   3.467  1.00  0.00     0.001 A 
ATOM     29  C   UNL     1      38.034   7.315   3.543  1.00  0.00     0.001 A 
ATOM     30  C   UNL     1      37.040   8.141   3.009  1.00  0.00     0.000 A 
ENDBRANCH   9  25
ENDBRANCH   7   9
ENDBRANCH   1   7
BRANCH   4  31
ATOM     31  N   UNL     1      31.323   8.652   9.229  1.00  0.00    -0.314 N 
ATOM     32  C   UNL     1      30.124   7.898   9.617  1.00  0.00     0.153 C 
BRANCH  31  33
ATOM     33  C   UNL     1      31.310  10.099   9.213  1.00  0.00     0.240 C 
ATOM     34  O   UNL     1      30.968  10.709   8.161  1.00  0.00    -0.273 OA
BRANCH  33  35
ATOM     35  C   UNL     1      31.743  10.901  10.417  1.00  0.00     0.185 C 
BRANCH  35  36
ATOM     36  N   UNL     1      31.365  12.325  10.280  1.00  0.00    -0.292 NA
ATOM     37  C   UNL     1      30.115  12.610  11.013  1.00  0.00     0.100 C 
ATOM     38  C   UNL     1      32.443  13.193  10.786  1.00  0.00     0.100 C 
ATOM     39  C   UNL     1      29.707  14.077  10.813  1.00  0.00     0.099 C 
ATOM     40  C   UNL     1      32.072  14.671  10.589  1.00  0.00     0.099 C 
ATOM     41  N   UNL     1      30.776  15.016  11.209  1.00  0.00    -0.304 NA
ATOM     42  C   UNL     1      30.877  15.170  12.670  1.00  0.00     0.105 C 
ENDBRANCH  35  36
ENDBRANCH  33  35
ENDBRANCH  31  33
ENDBRANCH   4  31
TORSDOF 9
ENDMDL
MODEL 12
REMARK VINA RESULT:    -8.105      4.460     10.285
REMARK INTER + INTRA:         -14.422
REMARK INTER:                 -12.059
REMARK INTRA:                  -2.363
REMARK UNBOUND:                -2.053
REMARK SMILES COC(=O)c1ccc2c(c1)NC(=O)/C2=C(\Nc1ccc(N(C)C(=O)CN2CCN(C)CC2)cc1)c1ccccc1
REMARK SMILES IDX 17 1 18 2 19 3 20 4 33 5 34 6 16 7 15 9 5 10 6 11 10 12 7 13
REMARK SMILES IDX 9 14 8 15 11 16 14 17 12 18 13 20 3 21 4 22 2 23 1 24 35 25
REMARK SMILES IDX 36 26 40 27 37 28 39 29 38 30 21 31 22 32 23 33 24 34 25 35
REMARK SMILES IDX 26 36 27 37 32 38 28 39 31 40 29 41 30 42
REMARK H PARENT 16 8 11 19
REMARK Flexibility Score: inf
ROOT
ATOM      1  C   UNL     1      33.857   9.326   8.804  1.00  0.00     0.039 A 
ATOM      2  C   UNL     1      34.729  10.423   8.755  1.00  0.00     0.028 A 
ATOM      3  C   UNL     1      35.736  10.484   7.790  1.00  0.00     0.028 A 
ATOM      4  C   UNL     1      35.904   9.437   6.869  1.00  0.00     0.043 A 
ATOM      5  C   UNL     1      35.043   8.329   6.931  1.00  0.00     0.028 A 
ATOM      6  C   UNL     1      34.033   8.271   7.894  1.00  0.00     0.028 A 
ENDROOT
BRANCH   1   7
ATOM      7  N   UNL     1      32.831   9.278   9.809  1.00  0.00    -0.354 N 
ATOM      8  H   UNL     1      33.058   8.818  10.719  1.00  0.00     0.167 HD
BRANCH   7   9
ATOM      9  C   UNL     1      31.574   9.970   9.695  1.00  0.00     0.059 C 
ATOM     10  C   UNL     1      26.244  10.034  10.075  1.00  0.00     0.062 A 
ATOM     11  C   UNL     1      27.108  11.129  10.312  1.00  0.00     0.016 A 
ATOM     12  C   UNL     1      26.797   8.774   9.763  1.00  0.00     0.042 A 
ATOM     13  C   UNL     1      28.501  10.982  10.215  1.00  0.00     0.012 A 
ATOM     14  C   UNL     1      28.182   8.654   9.664  1.00  0.00     0.050 A 
ATOM     15  C   UNL     1      29.023   9.739   9.840  1.00  0.00     0.013 A 
ATOM     16  N   UNL     1      28.897   7.443   9.463  1.00  0.00    -0.321 N 
ATOM     17  C   UNL     1      30.419   9.266   9.724  1.00  0.00     0.073 C 
ATOM     18  C   UNL     1      30.269   7.815   9.521  1.00  0.00     0.258 C 
ATOM     19  H   UNL     1      28.504   6.484   9.330  1.00  0.00     0.170 HD
ATOM     20  O   UNL     1      31.208   6.991   9.357  1.00  0.00    -0.269 OA
BRANCH  10  21
ATOM     21  C   UNL     1      24.778  10.206  10.179  1.00  0.00     0.337 C 
ATOM     22  O   UNL     1      24.022   9.196  10.198  1.00  0.00    -0.246 OA
BRANCH  21  23
ATOM     23  O   UNL     1      24.230  11.491  10.257  1.00  0.00    -0.465 OA
ATOM     24  C   UNL     1      23.620  11.996  11.439  1.00  0.00     0.282 C 
ENDBRANCH  21  23
ENDBRANCH  10  21
BRANCH   9  25
ATOM     25  C   UNL     1      31.584  11.446   9.578  1.00  0.00    -0.001 A 
ATOM     26  C   UNL     1      31.363  12.054   8.332  1.00  0.00     0.010 A 
ATOM     27  C   UNL     1      31.723  12.252  10.723  1.00  0.00     0.010 A 
ATOM     28  C   UNL     1      31.322  13.447   8.226  1.00  0.00     0.001 A 
ATOM     29  C   UNL     1      31.681  13.644  10.612  1.00  0.00     0.001 A 
ATOM     30  C   UNL     1      31.485  14.242   9.364  1.00  0.00     0.000 A 
ENDBRANCH   9  25
ENDBRANCH   7   9
ENDBRANCH   1   7
BRANCH   4  31
ATOM     31  N   UNL     1      36.944   9.497   5.873  1.00  0.00    -0.314 N 
ATOM     32  C   UNL     1      38.295   9.042   6.227  1.00  0.00     0.153 C 
BRANCH  31  33
ATOM     33  C   UNL     1      36.683  10.094   4.580  1.00  0.00     0.240 C 
ATOM     34  O   UNL     1      36.421   9.353   3.592  1.00  0.00    -0.273 OA
BRANCH  33  35
ATOM     35  C   UNL     1      36.763  11.588   4.375  1.00  0.00     0.185 C 
BRANCH  35  36
ATOM     36  N   UNL     1      35.468  12.139   3.920  1.00  0.00    -0.292 NA
ATOM     37  C   UNL     1      34.800  12.879   5.009  1.00  0.00     0.100 C 
ATOM     38  C   UNL     1      35.669  13.034   2.765  1.00  0.00     0.100 C 
ATOM     39  C   UNL     1      33.433  13.395   4.537  1.00  0.00     0.099 C 
ATOM     40  C   UNL     1      34.316  13.558   2.259  1.00  0.00     0.099 C 
ATOM     41  N   UNL     1      33.536  14.227   3.321  1.00  0.00    -0.304 NA
ATOM     42  C   UNL     1      34.028  15.585   3.608  1.00  0.00     0.105 C 
ENDBRANCH  35  36
ENDBRANCH  33  35
ENDBRANCH  31  33
ENDBRANCH   4  31
TORSDOF 9
ENDMDL
MODEL 13
REMARK VINA RESULT:    -8.015      4.296     10.960
REMARK INTER + INTRA:         -14.285
REMARK INTER:                 -12.015
REMARK INTRA:                  -2.270
REMARK UNBOUND:                -2.053
REMARK SMILES COC(=O)c1ccc2c(c1)NC(=O)/C2=C(\Nc1ccc(N(C)C(=O)CN2CCN(C)CC2)cc1)c1ccccc1
REMARK SMILES IDX 17 1 18 2 19 3 20 4 33 5 34 6 16 7 15 9 5 10 6 11 10 12 7 13
REMARK SMILES IDX 9 14 8 15 11 16 14 17 12 18 13 20 3 21 4 22 2 23 1 24 35 25
REMARK SMILES IDX 36 26 40 27 37 28 39 29 38 30 21 31 22 32 23 33 24 34 25 35
REMARK SMILES IDX 26 36 27 37 32 38 28 39 31 40 29 41 30 42
REMARK H PARENT 16 8 11 19
REMARK Flexibility Score: inf
ROOT
ATOM      1  C   UNL     1      33.887   9.381   9.134  1.00  0.00     0.039 A 
ATOM      2  C   UNL     1      33.930   8.923   7.810  1.00  0.00     0.028 A 
ATOM      3  C   UNL     1      35.070   9.125   7.028  1.00  0.00     0.028 A 
ATOM      4  C   UNL     1      36.178   9.812   7.549  1.00  0.00     0.043 A 
ATOM      5  C   UNL     1      36.126  10.289   8.870  1.00  0.00     0.028 A 
ATOM      6  C   UNL     1      34.989  10.082   9.653  1.00  0.00     0.028 A 
ENDROOT
BRANCH   1   7
ATOM      7  N   UNL     1      32.703   9.169   9.921  1.00  0.00    -0.354 N 
ATOM      8  H   UNL     1      32.748   8.469  10.695  1.00  0.00     0.167 HD
BRANCH   7   9
ATOM      9  C   UNL     1      31.520   9.983   9.812  1.00  0.00     0.059 C 
ATOM     10  C   UNL     1      26.238  10.609  10.326  1.00  0.00     0.062 A 
ATOM     11  C   UNL     1      27.216  11.618  10.496  1.00  0.00     0.016 A 
ATOM     12  C   UNL     1      26.651   9.288  10.052  1.00  0.00     0.042 A 
ATOM     13  C   UNL     1      28.583  11.324  10.369  1.00  0.00     0.012 A 
ATOM     14  C   UNL     1      28.013   9.022   9.922  1.00  0.00     0.050 A 
ATOM     15  C   UNL     1      28.964  10.021  10.031  1.00  0.00     0.013 A 
ATOM     16  N   UNL     1      28.594   7.737   9.753  1.00  0.00    -0.321 N 
ATOM     17  C   UNL     1      30.302   9.403   9.899  1.00  0.00     0.073 C 
ATOM     18  C   UNL     1      29.998   7.968   9.760  1.00  0.00     0.258 C 
ATOM     19  H   UNL     1      28.102   6.820   9.669  1.00  0.00     0.170 HD
ATOM     20  O   UNL     1      30.843   7.047   9.606  1.00  0.00    -0.269 OA
BRANCH  10  21
ATOM     21  C   UNL     1      24.801  10.935  10.461  1.00  0.00     0.337 C 
ATOM     22  O   UNL     1      24.419  12.138  10.432  1.00  0.00    -0.246 OA
BRANCH  21  23
ATOM     23  O   UNL     1      23.865   9.907  10.622  1.00  0.00    -0.465 OA
ATOM     24  C   UNL     1      22.798   9.980  11.559  1.00  0.00     0.282 C 
ENDBRANCH  21  23
ENDBRANCH  10  21
BRANCH   9  25
ATOM     25  C   UNL     1      31.678  11.444   9.634  1.00  0.00    -0.001 A 
ATOM     26  C   UNL     1      31.486  12.023   8.370  1.00  0.00     0.010 A 
ATOM     27  C   UNL     1      31.927  12.275  10.741  1.00  0.00     0.010 A 
ATOM     28  C   UNL     1      31.584  13.408   8.208  1.00  0.00     0.001 A 
ATOM     29  C   UNL     1      32.025  13.659  10.575  1.00  0.00     0.001 A 
ATOM     30  C   UNL     1      31.857  14.225   9.308  1.00  0.00     0.000 A 
ENDBRANCH   9  25
ENDBRANCH   7   9
ENDBRANCH   1   7
BRANCH   4  31
ATOM     31  N   UNL     1      37.354  10.024   6.743  1.00  0.00    -0.314 N 
ATOM     32  C   UNL     1      38.628   9.436   7.178  1.00  0.00     0.153 C 
BRANCH  31  33
ATOM     33  C   UNL     1      37.299  10.888   5.584  1.00  0.00     0.240 C 
ATOM     34  O   UNL     1      36.637  11.962   5.636  1.00  0.00    -0.273 OA
BRANCH  33  35
ATOM     35  C   UNL     1      37.981  10.509   4.290  1.00  0.00     0.185 C 
BRANCH  35  36
ATOM     36  N   UNL     1      37.088   9.705   3.426  1.00  0.00    -0.292 NA
ATOM     37  C   UNL     1      37.123  10.197   2.034  1.00  0.00     0.100 C 
ATOM     38  C   UNL     1      37.484   8.286   3.459  1.00  0.00     0.100 C 
ATOM     39  C   UNL     1      36.148   9.388   1.164  1.00  0.00     0.099 C 
ATOM     40  C   UNL     1      36.520   7.446   2.607  1.00  0.00     0.099 C 
ATOM     41  N   UNL     1      36.418   7.938   1.218  1.00  0.00    -0.304 NA
ATOM     42  C   UNL     1      37.581   7.551   0.400  1.00  0.00     0.105 C 
ENDBRANCH  35  36
ENDBRANCH  33  35
ENDBRANCH  31  33
ENDBRANCH   4  31
TORSDOF 9
ENDMDL
MODEL 14
REMARK VINA RESULT:    -7.951      3.564     11.609
REMARK INTER + INTRA:         -14.188
REMARK INTER:                 -12.053
REMARK INTRA:                  -2.135
REMARK UNBOUND:                -2.053
REMARK SMILES COC(=O)c1ccc2c(c1)NC(=O)/C2=C(\Nc1ccc(N(C)C(=O)CN2CCN(C)CC2)cc1)c1ccccc1
REMARK SMILES IDX 17 1 18 2 19 3 20 4 33 5 34 6 16 7 15 9 5 10 6 11 10 12 7 13
REMARK SMILES IDX 9 14 8 15 11 16 14 17 12 18 13 20 3 21 4 22 2 23 1 24 35 25
REMARK SMILES IDX 36 26 40 27 37 28 39 29 38 30 21 31 22 32 23 33 24 34 25 35
REMARK SMILES IDX 26 36 27 37 32 38 28 39 31 40 29 41 30 42
REMARK H PARENT 16 8 11 19
REMARK Flexibility Score: inf
ROOT
ATOM      1  C   UNL     1      33.411   8.273   9.022  1.00  0.00     0.039 A 
ATOM      2  C   UNL     1      33.099   6.968   8.614  1.00  0.00     0.028 A 
ATOM      3  C   UNL     1      33.705   6.416   7.483  1.00  0.00     0.028 A 
ATOM      4  C   UNL     1      34.618   7.168   6.726  1.00  0.00     0.043 A 
ATOM      5  C   UNL     1      34.916   8.482   7.124  1.00  0.00     0.028 A 
ATOM      6  C   UNL     1      34.313   9.032   8.258  1.00  0.00     0.028 A 
ENDROOT
BRANCH   1   7
ATOM      7  N   UNL     1      32.771   8.826  10.184  1.00  0.00    -0.354 N 
ATOM      8  H   UNL     1      33.031   8.437  11.118  1.00  0.00     0.167 HD
BRANCH   7   9
ATOM      9  C   UNL     1      31.925   9.990  10.146  1.00  0.00     0.059 C 
ATOM     10  C   UNL     1      31.301  15.296  10.264  1.00  0.00     0.062 A 
ATOM     11  C   UNL     1      30.489  14.379   9.556  1.00  0.00     0.016 A 
ATOM     12  C   UNL     1      32.425  14.820  10.972  1.00  0.00     0.042 A 
ATOM     13  C   UNL     1      30.774  13.004   9.572  1.00  0.00     0.012 A 
ATOM     14  C   UNL     1      32.682  13.450  10.981  1.00  0.00     0.050 A 
ATOM     15  C   UNL     1      31.854  12.548  10.335  1.00  0.00     0.013 A 
ATOM     16  N   UNL     1      33.822  12.824  11.552  1.00  0.00    -0.321 N 
ATOM     17  C   UNL     1      32.434  11.196  10.490  1.00  0.00     0.073 C 
ATOM     18  C   UNL     1      33.681  11.446  11.233  1.00  0.00     0.258 C 
ATOM     19  H   UNL     1      34.608  13.279  12.070  1.00  0.00     0.170 HD
ATOM     20  O   UNL     1      34.506  10.569  11.605  1.00  0.00    -0.269 OA
BRANCH  10  21
ATOM     21  C   UNL     1      30.986  16.742  10.239  1.00  0.00     0.337 C 
ATOM     22  O   UNL     1      31.854  17.572   9.851  1.00  0.00    -0.246 OA
BRANCH  21  23
ATOM     23  O   UNL     1      29.725  17.189  10.647  1.00  0.00    -0.465 OA
ATOM     24  C   UNL     1      29.219  16.970  11.958  1.00  0.00     0.282 C 
ENDBRANCH  21  23
ENDBRANCH  10  21
BRANCH   9  25
ATOM     25  C   UNL     1      30.522   9.834   9.702  1.00  0.00    -0.001 A 
ATOM     26  C   UNL     1      30.223   9.741   8.334  1.00  0.00     0.010 A 
ATOM     27  C   UNL     1      29.488   9.683  10.645  1.00  0.00     0.010 A 
ATOM     28  C   UNL     1      28.905   9.544   7.913  1.00  0.00     0.001 A 
ATOM     29  C   UNL     1      28.172   9.486  10.220  1.00  0.00     0.001 A 
ATOM     30  C   UNL     1      27.879   9.420   8.854  1.00  0.00     0.000 A 
ENDBRANCH   9  25
ENDBRANCH   7   9
ENDBRANCH   1   7
BRANCH   4  31
ATOM     31  N   UNL     1      35.244   6.601   5.558  1.00  0.00    -0.314 N 
ATOM     32  C   UNL     1      35.376   7.427   4.351  1.00  0.00     0.153 C 
BRANCH  31  33
ATOM     33  C   UNL     1      35.640   5.209   5.545  1.00  0.00     0.240 C 
ATOM     34  O   UNL     1      36.731   4.865   6.079  1.00  0.00    -0.273 OA
BRANCH  33  35
ATOM     35  C   UNL     1      34.795   4.160   4.863  1.00  0.00     0.185 C 
BRANCH  35  36
ATOM     36  N   UNL     1      35.558   3.454   3.811  1.00  0.00    -0.292 NA
ATOM     37  C   UNL     1      35.459   1.990   3.983  1.00  0.00     0.100 C 
ATOM     38  C   UNL     1      35.059   3.829   2.476  1.00  0.00     0.100 C 
ATOM     39  C   UNL     1      36.304   1.275   2.917  1.00  0.00     0.099 C 
ATOM     40  C   UNL     1      35.892   3.139   1.384  1.00  0.00     0.099 C 
ATOM     41  N   UNL     1      35.929   1.671   1.544  1.00  0.00    -0.304 NA
ATOM     42  C   UNL     1      34.684   1.026   1.093  1.00  0.00     0.105 C 
ENDBRANCH  35  36
ENDBRANCH  33  35
ENDBRANCH  31  33
ENDBRANCH   4  31
TORSDOF 9
ENDMDL
MODEL 15
REMARK VINA RESULT:    -7.875      2.499     10.803
REMARK INTER + INTRA:         -14.071
REMARK INTER:                 -12.328
REMARK INTRA:                  -1.743
REMARK UNBOUND:                -2.053
REMARK SMILES COC(=O)c1ccc2c(c1)NC(=O)/C2=C(\Nc1ccc(N(C)C(=O)CN2CCN(C)CC2)cc1)c1ccccc1
REMARK SMILES IDX 17 1 18 2 19 3 20 4 33 5 34 6 16 7 15 9 5 10 6 11 10 12 7 13
REMARK SMILES IDX 9 14 8 15 11 16 14 17 12 18 13 20 3 21 4 22 2 23 1 24 35 25
REMARK SMILES IDX 36 26 40 27 37 28 39 29 38 30 21 31 22 32 23 33 24 34 25 35
REMARK SMILES IDX 26 36 27 37 32 38 28 39 31 40 29 41 30 42
REMARK H PARENT 16 8 11 19
REMARK Flexibility Score: inf
ROOT
ATOM      1  C   UNL     1      35.096   7.305   7.428  1.00  0.00     0.039 A 
ATOM      2  C   UNL     1      34.453   6.448   6.524  1.00  0.00     0.028 A 
ATOM      3  C   UNL     1      35.057   6.121   5.308  1.00  0.00     0.028 A 
ATOM      4  C   UNL     1      36.305   6.663   4.963  1.00  0.00     0.043 A 
ATOM      5  C   UNL     1      36.940   7.538   5.861  1.00  0.00     0.028 A 
ATOM      6  C   UNL     1      36.338   7.861   7.079  1.00  0.00     0.028 A 
ENDROOT
BRANCH   1   7
ATOM      7  N   UNL     1      34.457   7.637   8.671  1.00  0.00    -0.354 N 
ATOM      8  H   UNL     1      34.738   7.104   9.524  1.00  0.00     0.167 HD
BRANCH   7   9
ATOM      9  C   UNL     1      33.579   8.766   8.837  1.00  0.00     0.059 C 
ATOM     10  C   UNL     1      28.962  10.865  10.520  1.00  0.00     0.062 A 
ATOM     11  C   UNL     1      30.211  11.528  10.480  1.00  0.00     0.016 A 
ATOM     12  C   UNL     1      28.889   9.507  10.147  1.00  0.00     0.042 A 
ATOM     13  C   UNL     1      31.368  10.859  10.049  1.00  0.00     0.012 A 
ATOM     14  C   UNL     1      30.049   8.866   9.714  1.00  0.00     0.050 A 
ATOM     15  C   UNL     1      31.258   9.532   9.620  1.00  0.00     0.013 A 
ATOM     16  N   UNL     1      30.167   7.484   9.404  1.00  0.00    -0.321 N 
ATOM     17  C   UNL     1      32.288   8.562   9.186  1.00  0.00     0.073 C 
ATOM     18  C   UNL     1      31.543   7.294   9.102  1.00  0.00     0.258 C 
ATOM     19  H   UNL     1      29.414   6.760   9.422  1.00  0.00     0.170 HD
ATOM     20  O   UNL     1      32.019   6.181   8.753  1.00  0.00    -0.269 OA
BRANCH  10  21
ATOM     21  C   UNL     1      27.752  11.585  10.975  1.00  0.00     0.337 C 
ATOM     22  O   UNL     1      27.859  12.702  11.554  1.00  0.00    -0.246 OA
BRANCH  21  23
ATOM     23  O   UNL     1      26.486  11.026  10.763  1.00  0.00    -0.465 OA
ATOM     24  C   UNL     1      25.667  11.378   9.655  1.00  0.00     0.282 C 
ENDBRANCH  21  23
ENDBRANCH  10  21
BRANCH   9  25
ATOM     25  C   UNL     1      34.129  10.127   8.645  1.00  0.00    -0.001 A 
ATOM     26  C   UNL     1      33.870  10.829   7.458  1.00  0.00     0.010 A 
ATOM     27  C   UNL     1      34.835  10.764   9.682  1.00  0.00     0.010 A 
ATOM     28  C   UNL     1      34.346  12.133   7.293  1.00  0.00     0.001 A 
ATOM     29  C   UNL     1      35.308  12.067   9.513  1.00  0.00     0.001 A 
ATOM     30  C   UNL     1      35.067  12.751   8.318  1.00  0.00     0.000 A 
ENDBRANCH   9  25
ENDBRANCH   7   9
ENDBRANCH   1   7
BRANCH   4  31
ATOM     31  N   UNL     1      36.929   6.328   3.708  1.00  0.00    -0.314 N 
ATOM     32  C   UNL     1      37.991   7.198   3.188  1.00  0.00     0.153 C 
BRANCH  31  33
ATOM     33  C   UNL     1      36.443   5.210   2.927  1.00  0.00     0.240 C 
ATOM     34  O   UNL     1      35.399   5.342   2.231  1.00  0.00    -0.273 OA
BRANCH  33  35
ATOM     35  C   UNL     1      37.136   3.869   2.962  1.00  0.00     0.185 C 
BRANCH  35  36
ATOM     36  N   UNL     1      36.228   2.783   2.531  1.00  0.00    -0.292 NA
ATOM     37  C   UNL     1      36.419   2.477   1.099  1.00  0.00     0.100 C 
ATOM     38  C   UNL     1      36.465   1.568   3.332  1.00  0.00     0.100 C 
ATOM     39  C   UNL     1      35.430   1.388   0.655  1.00  0.00     0.099 C 
ATOM     40  C   UNL     1      35.481   0.461   2.920  1.00  0.00     0.099 C 
ATOM     41  N   UNL     1      35.537   0.164   1.474  1.00  0.00    -0.304 NA
ATOM     42  C   UNL     1      36.708  -0.653   1.114  1.00  0.00     0.105 C 
ENDBRANCH  35  36
ENDBRANCH  33  35
ENDBRANCH  31  33
ENDBRANCH   4  31
TORSDOF 9
ENDMDL
