MODEL 1
REMARK VINA RESULT:    -6.717      0.000      0.000
REMARK INTER + INTRA:         -12.725
REMARK INTER:                 -11.232
REMARK INTRA:                  -1.493
REMARK UNBOUND:                -1.493
REMARK SMILES CC(C)NC[C@H](O)COc1ccc(CCOCC2CC2)cc1
REMARK SMILES IDX 10 1 11 2 12 3 13 4 21 5 22 6 9 7 8 8 6 9 5 10 4 11 2 13
REMARK SMILES IDX 1 14 3 15 7 16 14 18 15 19 16 20 17 21 18 22 19 23 20 24
REMARK H PARENT 4 12 7 17
REMARK Flexibility Score: inf
ROOT
ATOM      1  C   UNL     1     -80.971 -20.603  86.640  1.00  0.00     0.119 A 
ATOM      2  C   UNL     1     -79.591 -20.615  86.406  1.00  0.00     0.047 A 
ATOM      3  C   UNL     1     -79.052 -19.953  85.299  1.00  0.00     0.007 A 
ATOM      4  C   UNL     1     -79.890 -19.275  84.402  1.00  0.00    -0.045 A 
ATOM      5  C   UNL     1     -81.274 -19.252  84.639  1.00  0.00     0.007 A 
ATOM      6  C   UNL     1     -81.813 -19.914  85.745  1.00  0.00     0.047 A 
ENDROOT
BRANCH   1   7
ATOM      7  O   UNL     1     -81.462 -21.282  87.764  1.00  0.00    -0.491 OA
BRANCH   7   8
ATOM      8  C   UNL     1     -80.995 -21.081  89.096  1.00  0.00     0.262 C 
BRANCH   8   9
ATOM      9  C   UNL     1     -81.782 -21.977  90.062  1.00  0.00     0.165 C 
BRANCH   9  10
ATOM     10  C   UNL     1     -83.205 -21.439  90.287  1.00  0.00     0.116 C 
BRANCH  10  11
ATOM     11  N   UNL     1     -83.400 -20.158  89.588  1.00  0.00    -0.312 NA
ATOM     12  H   UNL     1     -83.320 -19.375  90.280  1.00  0.00     0.123 HD
BRANCH  11  13
ATOM     13  C   UNL     1     -84.695 -20.079  88.885  1.00  0.00     0.047 C 
ATOM     14  C   UNL     1     -84.630 -19.123  87.681  1.00  0.00     0.024 C 
ATOM     15  C   UNL     1     -85.096 -21.481  88.427  1.00  0.00     0.024 C 
ENDBRANCH  11  13
ENDBRANCH  10  11
ENDBRANCH   9  10
BRANCH   9  16
ATOM     16  O   UNL     1     -81.123 -22.032  91.300  1.00  0.00    -0.388 OA
ATOM     17  H   UNL     1     -81.011 -21.096  91.613  1.00  0.00     0.211 HD
ENDBRANCH   9  16
ENDBRANCH   8   9
ENDBRANCH   7   8
ENDBRANCH   1   7
BRANCH   4  18
ATOM     18  C   UNL     1     -79.305 -18.532  83.229  1.00  0.00     0.064 C 
BRANCH  18  19
ATOM     19  C   UNL     1     -77.783 -18.669  83.189  1.00  0.00     0.165 C 
BRANCH  19  20
ATOM     20  O   UNL     1     -77.187 -17.407  83.411  1.00  0.00    -0.381 OA
BRANCH  20  21
ATOM     21  C   UNL     1     -76.255 -17.478  84.474  1.00  0.00     0.163 C 
BRANCH  21  22
ATOM     22  C   UNL     1     -76.858 -16.853  85.739  1.00  0.00     0.015 C 
ATOM     23  C   UNL     1     -76.874 -17.754  86.964  1.00  0.00     0.006 C 
ATOM     24  C   UNL     1     -75.879 -16.607  86.876  1.00  0.00     0.006 C 
ENDBRANCH  21  22
ENDBRANCH  20  21
ENDBRANCH  19  20
ENDBRANCH  18  19
ENDBRANCH   4  18
TORSDOF 12
ENDMDL
MODEL 2
REMARK VINA RESULT:    -6.665      3.796      7.492
REMARK INTER + INTRA:         -12.638
REMARK INTER:                 -11.366
REMARK INTRA:                  -1.273
REMARK UNBOUND:                -1.493
REMARK SMILES CC(C)NC[C@H](O)COc1ccc(CCOCC2CC2)cc1
REMARK SMILES IDX 10 1 11 2 12 3 13 4 21 5 22 6 9 7 8 8 6 9 5 10 4 11 2 13
REMARK SMILES IDX 1 14 3 15 7 16 14 18 15 19 16 20 17 21 18 22 19 23 20 24
REMARK H PARENT 4 12 7 17
REMARK Flexibility Score: inf
ROOT
ATOM      1  C   UNL     1     -76.605 -18.076  87.986  1.00  0.00     0.119 A 
ATOM      2  C   UNL     1     -77.073 -19.188  88.697  1.00  0.00     0.047 A 
ATOM      3  C   UNL     1     -77.974 -20.078  88.108  1.00  0.00     0.007 A 
ATOM      4  C   UNL     1     -78.430 -19.864  86.799  1.00  0.00    -0.045 A 
ATOM      5  C   UNL     1     -77.955 -18.755  86.080  1.00  0.00     0.007 A 
ATOM      6  C   UNL     1     -77.053 -17.865  86.668  1.00  0.00     0.047 A 
ENDROOT
BRANCH   1   7
ATOM      7  O   UNL     1     -75.701 -17.212  88.621  1.00  0.00    -0.491 OA
BRANCH   7   8
ATOM      8  C   UNL     1     -75.592 -15.817  88.349  1.00  0.00     0.262 C 
BRANCH   8   9
ATOM      9  C   UNL     1     -74.567 -15.182  89.299  1.00  0.00     0.165 C 
BRANCH   9  10
ATOM     10  C   UNL     1     -74.835 -15.585  90.758  1.00  0.00     0.116 C 
BRANCH  10  11
ATOM     11  N   UNL     1     -76.218 -15.266  91.147  1.00  0.00    -0.312 NA
ATOM     12  H   UNL     1     -76.248 -14.293  91.537  1.00  0.00     0.123 HD
BRANCH  11  13
ATOM     13  C   UNL     1     -76.774 -16.219  92.126  1.00  0.00     0.047 C 
ATOM     14  C   UNL     1     -76.044 -17.572  92.080  1.00  0.00     0.024 C 
ATOM     15  C   UNL     1     -76.670 -15.609  93.524  1.00  0.00     0.024 C 
ENDBRANCH  11  13
ENDBRANCH  10  11
ENDBRANCH   9  10
BRANCH   9  16
ATOM     16  O   UNL     1     -74.633 -13.783  89.201  1.00  0.00    -0.388 OA
ATOM     17  H   UNL     1     -73.700 -13.444  89.219  1.00  0.00     0.211 HD
ENDBRANCH   9  16
ENDBRANCH   8   9
ENDBRANCH   7   8
ENDBRANCH   1   7
BRANCH   4  18
ATOM     18  C   UNL     1     -79.375 -20.844  86.153  1.00  0.00     0.064 C 
BRANCH  18  19
ATOM     19  C   UNL     1     -80.813 -20.328  86.179  1.00  0.00     0.165 C 
BRANCH  19  20
ATOM     20  O   UNL     1     -81.678 -21.354  86.621  1.00  0.00    -0.381 OA
BRANCH  20  21
ATOM     21  C   UNL     1     -82.430 -20.924  87.739  1.00  0.00     0.163 C 
BRANCH  21  22
ATOM     22  C   UNL     1     -82.161 -21.848  88.935  1.00  0.00     0.015 C 
ATOM     23  C   UNL     1     -80.912 -21.524  89.739  1.00  0.00     0.006 C 
ATOM     24  C   UNL     1     -82.285 -21.197  90.304  1.00  0.00     0.006 C 
ENDBRANCH  21  22
ENDBRANCH  20  21
ENDBRANCH  19  20
ENDBRANCH  18  19
ENDBRANCH   4  18
TORSDOF 12
ENDMDL
MODEL 3
REMARK VINA RESULT:    -6.661      1.522      3.058
REMARK INTER + INTRA:         -12.632
REMARK INTER:                 -11.371
REMARK INTRA:                  -1.261
REMARK UNBOUND:                -1.493
REMARK SMILES CC(C)NC[C@H](O)COc1ccc(CCOCC2CC2)cc1
REMARK SMILES IDX 10 1 11 2 12 3 13 4 21 5 22 6 9 7 8 8 6 9 5 10 4 11 2 13
REMARK SMILES IDX 1 14 3 15 7 16 14 18 15 19 16 20 17 21 18 22 19 23 20 24
REMARK H PARENT 4 12 7 17
REMARK Flexibility Score: inf
ROOT
ATOM      1  C   UNL     1     -80.305 -21.274  88.682  1.00  0.00     0.119 A 
ATOM      2  C   UNL     1     -80.448 -21.075  87.304  1.00  0.00     0.047 A 
ATOM      3  C   UNL     1     -79.415 -20.503  86.557  1.00  0.00     0.007 A 
ATOM      4  C   UNL     1     -78.222 -20.112  87.183  1.00  0.00    -0.045 A 
ATOM      5  C   UNL     1     -78.070 -20.319  88.563  1.00  0.00     0.007 A 
ATOM      6  C   UNL     1     -79.103 -20.891  89.309  1.00  0.00     0.047 A 
ENDROOT
BRANCH   1   7
ATOM      7  O   UNL     1     -81.371 -21.852  89.387  1.00  0.00    -0.491 OA
BRANCH   7   8
ATOM      8  C   UNL     1     -81.744 -21.499  90.716  1.00  0.00     0.262 C 
BRANCH   8   9
ATOM      9  C   UNL     1     -83.272 -21.378  90.810  1.00  0.00     0.165 C 
BRANCH   9  10
ATOM     10  C   UNL     1     -83.831 -20.494  89.684  1.00  0.00     0.116 C 
BRANCH  10  11
ATOM     11  N   UNL     1     -84.934 -21.171  88.982  1.00  0.00    -0.312 NA
ATOM     12  H   UNL     1     -85.035 -22.143  89.361  1.00  0.00     0.123 HD
BRANCH  11  13
ATOM     13  C   UNL     1     -84.743 -21.217  87.520  1.00  0.00     0.047 C 
ATOM     14  C   UNL     1     -83.896 -20.034  87.020  1.00  0.00     0.024 C 
ATOM     15  C   UNL     1     -84.074 -22.540  87.150  1.00  0.00     0.024 C 
ENDBRANCH  11  13
ENDBRANCH  10  11
ENDBRANCH   9  10
BRANCH   9  16
ATOM     16  O   UNL     1     -83.626 -20.810  92.044  1.00  0.00    -0.388 OA
ATOM     17  H   UNL     1     -83.153 -19.939  92.111  1.00  0.00     0.211 HD
ENDBRANCH   9  16
ENDBRANCH   8   9
ENDBRANCH   7   8
ENDBRANCH   1   7
BRANCH   4  18
ATOM     18  C   UNL     1     -77.095 -19.528  86.370  1.00  0.00     0.064 C 
BRANCH  18  19
ATOM     19  C   UNL     1     -77.225 -18.009  86.251  1.00  0.00     0.165 C 
BRANCH  19  20
ATOM     20  O   UNL     1     -78.085 -17.690  85.176  1.00  0.00    -0.381 OA
BRANCH  20  21
ATOM     21  C   UNL     1     -77.538 -18.139  83.951  1.00  0.00     0.163 C 
BRANCH  21  22
ATOM     22  C   UNL     1     -78.578 -18.968  83.187  1.00  0.00     0.015 C 
ATOM     23  C   UNL     1     -80.029 -18.643  83.504  1.00  0.00     0.006 C 
ATOM     24  C   UNL     1     -79.421 -18.195  82.185  1.00  0.00     0.006 C 
ENDBRANCH  21  22
ENDBRANCH  20  21
ENDBRANCH  19  20
ENDBRANCH  18  19
ENDBRANCH   4  18
TORSDOF 12
ENDMDL
MODEL 4
REMARK VINA RESULT:    -6.630      3.063      4.337
REMARK INTER + INTRA:         -12.579
REMARK INTER:                 -11.427
REMARK INTRA:                  -1.153
REMARK UNBOUND:                -1.493
REMARK SMILES CC(C)NC[C@H](O)COc1ccc(CCOCC2CC2)cc1
REMARK SMILES IDX 10 1 11 2 12 3 13 4 21 5 22 6 9 7 8 8 6 9 5 10 4 11 2 13
REMARK SMILES IDX 1 14 3 15 7 16 14 18 15 19 16 20 17 21 18 22 19 23 20 24
REMARK H PARENT 4 12 7 17
REMARK Flexibility Score: inf
ROOT
ATOM      1  C   UNL     1     -80.358 -20.765  86.885  1.00  0.00     0.119 A 
ATOM      2  C   UNL     1     -80.039 -21.108  88.205  1.00  0.00     0.047 A 
ATOM      3  C   UNL     1     -78.817 -20.723  88.763  1.00  0.00     0.007 A 
ATOM      4  C   UNL     1     -77.889 -19.995  88.003  1.00  0.00    -0.045 A 
ATOM      5  C   UNL     1     -78.209 -19.641  86.683  1.00  0.00     0.007 A 
ATOM      6  C   UNL     1     -79.431 -20.026  86.125  1.00  0.00     0.047 A 
ENDROOT
BRANCH   1   7
ATOM      7  O   UNL     1     -81.596 -21.175  86.371  1.00  0.00    -0.491 OA
BRANCH   7   8
ATOM      8  C   UNL     1     -82.056 -22.524  86.353  1.00  0.00     0.262 C 
BRANCH   8   9
ATOM      9  C   UNL     1     -83.563 -22.554  86.064  1.00  0.00     0.165 C 
BRANCH   9  10
ATOM     10  C   UNL     1     -84.379 -22.235  87.327  1.00  0.00     0.116 C 
BRANCH  10  11
ATOM     11  N   UNL     1     -83.529 -22.274  88.527  1.00  0.00    -0.312 NA
ATOM     12  H   UNL     1     -83.665 -23.193  89.013  1.00  0.00     0.123 HD
BRANCH  11  13
ATOM     13  C   UNL     1     -83.801 -21.166  89.462  1.00  0.00     0.047 C 
ATOM     14  C   UNL     1     -82.777 -21.124  90.608  1.00  0.00     0.024 C 
ATOM     15  C   UNL     1     -83.782 -19.849  88.686  1.00  0.00     0.024 C 
ENDBRANCH  11  13
ENDBRANCH  10  11
ENDBRANCH   9  10
BRANCH   9  16
ATOM     16  O   UNL     1     -83.930 -23.828  85.602  1.00  0.00    -0.388 OA
ATOM     17  H   UNL     1     -84.596 -24.191  86.244  1.00  0.00     0.211 HD
ENDBRANCH   9  16
ENDBRANCH   8   9
ENDBRANCH   7   8
ENDBRANCH   1   7
BRANCH   4  18
ATOM     18  C   UNL     1     -76.586 -19.550  88.618  1.00  0.00     0.064 C 
BRANCH  18  19
ATOM     19  C   UNL     1     -76.445 -18.029  88.577  1.00  0.00     0.165 C 
BRANCH  19  20
ATOM     20  O   UNL     1     -75.470 -17.618  89.515  1.00  0.00    -0.381 OA
BRANCH  20  21
ATOM     21  C   UNL     1     -76.065 -17.376  90.776  1.00  0.00     0.163 C 
BRANCH  21  22
ATOM     22  C   UNL     1     -76.007 -15.878  91.101  1.00  0.00     0.015 C 
ATOM     23  C   UNL     1     -76.855 -15.436  92.283  1.00  0.00     0.006 C 
ATOM     24  C   UNL     1     -75.343 -15.521  92.422  1.00  0.00     0.006 C 
ENDBRANCH  21  22
ENDBRANCH  20  21
ENDBRANCH  19  20
ENDBRANCH  18  19
ENDBRANCH   4  18
TORSDOF 12
ENDMDL
MODEL 5
REMARK VINA RESULT:    -6.612      1.407      1.985
REMARK INTER + INTRA:         -12.550
REMARK INTER:                 -11.088
REMARK INTRA:                  -1.462
REMARK UNBOUND:                -1.493
REMARK SMILES CC(C)NC[C@H](O)COc1ccc(CCOCC2CC2)cc1
REMARK SMILES IDX 10 1 11 2 12 3 13 4 21 5 22 6 9 7 8 8 6 9 5 10 4 11 2 13
REMARK SMILES IDX 1 14 3 15 7 16 14 18 15 19 16 20 17 21 18 22 19 23 20 24
REMARK H PARENT 4 12 7 17
REMARK Flexibility Score: inf
ROOT
ATOM      1  C   UNL     1     -80.620 -20.822  87.054  1.00  0.00     0.119 A 
ATOM      2  C   UNL     1     -81.616 -20.380  86.174  1.00  0.00     0.047 A 
ATOM      3  C   UNL     1     -81.283 -19.625  85.046  1.00  0.00     0.007 A 
ATOM      4  C   UNL     1     -79.946 -19.291  84.786  1.00  0.00    -0.045 A 
ATOM      5  C   UNL     1     -78.943 -19.740  85.660  1.00  0.00     0.007 A 
ATOM      6  C   UNL     1     -79.276 -20.496  86.788  1.00  0.00     0.047 A 
ENDROOT
BRANCH   1   7
ATOM      7  O   UNL     1     -81.005 -21.577  88.171  1.00  0.00    -0.491 OA
BRANCH   7   8
ATOM      8  C   UNL     1     -80.733 -21.214  89.522  1.00  0.00     0.262 C 
BRANCH   8   9
ATOM      9  C   UNL     1     -81.691 -21.958  90.462  1.00  0.00     0.165 C 
BRANCH   9  10
ATOM     10  C   UNL     1     -83.009 -21.187  90.639  1.00  0.00     0.116 C 
BRANCH  10  11
ATOM     11  N   UNL     1     -83.164 -20.163  89.592  1.00  0.00    -0.312 NA
ATOM     12  H   UNL     1     -83.033 -19.215  90.019  1.00  0.00     0.123 HD
BRANCH  11  13
ATOM     13  C   UNL     1     -84.471 -20.232  88.910  1.00  0.00     0.047 C 
ATOM     14  C   UNL     1     -84.655 -19.072  87.917  1.00  0.00     0.024 C 
ATOM     15  C   UNL     1     -84.581 -21.573  88.185  1.00  0.00     0.024 C 
ENDBRANCH  11  13
ENDBRANCH  10  11
ENDBRANCH   9  10
BRANCH   9  16
ATOM     16  O   UNL     1     -81.091 -22.116  91.721  1.00  0.00    -0.388 OA
ATOM     17  H   UNL     1     -81.039 -21.214  92.135  1.00  0.00     0.211 HD
ENDBRANCH   9  16
ENDBRANCH   8   9
ENDBRANCH   7   8
ENDBRANCH   1   7
BRANCH   4  18
ATOM     18  C   UNL     1     -79.585 -18.507  83.551  1.00  0.00     0.064 C 
BRANCH  18  19
ATOM     19  C   UNL     1     -78.195 -18.885  83.040  1.00  0.00     0.165 C 
BRANCH  19  20
ATOM     20  O   UNL     1     -77.422 -17.716  82.856  1.00  0.00    -0.381 OA
BRANCH  20  21
ATOM     21  C   UNL     1     -76.043 -18.008  82.973  1.00  0.00     0.163 C 
BRANCH  21  22
ATOM     22  C   UNL     1     -75.855 -19.454  83.453  1.00  0.00     0.015 C 
ATOM     23  C   UNL     1     -74.595 -20.144  82.957  1.00  0.00     0.006 C 
ATOM     24  C   UNL     1     -74.689 -19.680  84.402  1.00  0.00     0.006 C 
ENDBRANCH  21  22
ENDBRANCH  20  21
ENDBRANCH  19  20
ENDBRANCH  18  19
ENDBRANCH   4  18
TORSDOF 12
ENDMDL
MODEL 6
REMARK VINA RESULT:    -6.607      3.895      7.439
REMARK INTER + INTRA:         -12.541
REMARK INTER:                 -11.256
REMARK INTRA:                  -1.285
REMARK UNBOUND:                -1.493
REMARK SMILES CC(C)NC[C@H](O)COc1ccc(CCOCC2CC2)cc1
REMARK SMILES IDX 10 1 11 2 12 3 13 4 21 5 22 6 9 7 8 8 6 9 5 10 4 11 2 13
REMARK SMILES IDX 1 14 3 15 7 16 14 18 15 19 16 20 17 21 18 22 19 23 20 24
REMARK H PARENT 4 12 7 17
REMARK Flexibility Score: inf
ROOT
ATOM      1  C   UNL     1     -76.054 -17.041  87.755  1.00  0.00     0.119 A 
ATOM      2  C   UNL     1     -76.146 -17.955  88.812  1.00  0.00     0.047 A 
ATOM      3  C   UNL     1     -76.884 -19.133  88.670  1.00  0.00     0.007 A 
ATOM      4  C   UNL     1     -77.552 -19.410  87.468  1.00  0.00    -0.045 A 
ATOM      5  C   UNL     1     -77.454 -18.501  86.403  1.00  0.00     0.007 A 
ATOM      6  C   UNL     1     -76.716 -17.323  86.544  1.00  0.00     0.047 A 
ENDROOT
BRANCH   1   7
ATOM      7  O   UNL     1     -75.301 -15.874  87.947  1.00  0.00    -0.491 OA
BRANCH   7   8
ATOM      8  C   UNL     1     -73.967 -15.848  88.448  1.00  0.00     0.262 C 
BRANCH   8   9
ATOM      9  C   UNL     1     -73.841 -14.767  89.531  1.00  0.00     0.165 C 
BRANCH   9  10
ATOM     10  C   UNL     1     -74.367 -15.270  90.885  1.00  0.00     0.116 C 
BRANCH  10  11
ATOM     11  N   UNL     1     -75.820 -15.060  90.996  1.00  0.00    -0.312 NA
ATOM     12  H   UNL     1     -75.999 -14.094  91.363  1.00  0.00     0.123 HD
BRANCH  11  13
ATOM     13  C   UNL     1     -76.481 -16.057  91.860  1.00  0.00     0.047 C 
ATOM     14  C   UNL     1     -75.458 -16.951  92.581  1.00  0.00     0.024 C 
ATOM     15  C   UNL     1     -77.357 -15.327  92.877  1.00  0.00     0.024 C 
ENDBRANCH  11  13
ENDBRANCH  10  11
ENDBRANCH   9  10
BRANCH   9  16
ATOM     16  O   UNL     1     -74.579 -13.633  89.156  1.00  0.00    -0.388 OA
ATOM     17  H   UNL     1     -74.204 -13.313  88.293  1.00  0.00     0.211 HD
ENDBRANCH   9  16
ENDBRANCH   8   9
ENDBRANCH   7   8
ENDBRANCH   1   7
BRANCH   4  18
ATOM     18  C   UNL     1     -78.319 -20.697  87.304  1.00  0.00     0.064 C 
BRANCH  18  19
ATOM     19  C   UNL     1     -79.775 -20.431  86.925  1.00  0.00     0.165 C 
BRANCH  19  20
ATOM     20  O   UNL     1     -79.951 -20.643  85.539  1.00  0.00    -0.381 OA
BRANCH  20  21
ATOM     21  C   UNL     1     -80.785 -19.644  84.985  1.00  0.00     0.163 C 
BRANCH  21  22
ATOM     22  C   UNL     1     -79.948 -18.674  84.141  1.00  0.00     0.015 C 
ATOM     23  C   UNL     1     -78.933 -19.327  83.216  1.00  0.00     0.006 C 
ATOM     24  C   UNL     1     -80.205 -18.721  82.643  1.00  0.00     0.006 C 
ENDBRANCH  21  22
ENDBRANCH  20  21
ENDBRANCH  19  20
ENDBRANCH  18  19
ENDBRANCH   4  18
TORSDOF 12
ENDMDL
MODEL 7
REMARK VINA RESULT:    -6.561      4.005      8.063
REMARK INTER + INTRA:         -12.465
REMARK INTER:                 -11.421
REMARK INTRA:                  -1.044
REMARK UNBOUND:                -1.493
REMARK SMILES CC(C)NC[C@H](O)COc1ccc(CCOCC2CC2)cc1
REMARK SMILES IDX 10 1 11 2 12 3 13 4 21 5 22 6 9 7 8 8 6 9 5 10 4 11 2 13
REMARK SMILES IDX 1 14 3 15 7 16 14 18 15 19 16 20 17 21 18 22 19 23 20 24
REMARK H PARENT 4 12 7 17
REMARK Flexibility Score: inf
ROOT
ATOM      1  C   UNL     1     -76.158 -17.151  87.899  1.00  0.00     0.119 A 
ATOM      2  C   UNL     1     -76.846 -17.460  86.719  1.00  0.00     0.047 A 
ATOM      3  C   UNL     1     -77.606 -18.628  86.625  1.00  0.00     0.007 A 
ATOM      4  C   UNL     1     -77.683 -19.512  87.712  1.00  0.00    -0.045 A 
ATOM      5  C   UNL     1     -77.003 -19.202  88.900  1.00  0.00     0.007 A 
ATOM      6  C   UNL     1     -76.242 -18.033  88.994  1.00  0.00     0.047 A 
ENDROOT
BRANCH   1   7
ATOM      7  O   UNL     1     -75.408 -15.967  87.942  1.00  0.00    -0.491 OA
BRANCH   7   8
ATOM      8  C   UNL     1     -74.032 -15.896  88.306  1.00  0.00     0.262 C 
BRANCH   8   9
ATOM      9  C   UNL     1     -73.835 -14.821  89.384  1.00  0.00     0.165 C 
BRANCH   9  10
ATOM     10  C   UNL     1     -74.237 -15.344  90.773  1.00  0.00     0.116 C 
BRANCH  10  11
ATOM     11  N   UNL     1     -75.682 -15.179  90.999  1.00  0.00    -0.312 NA
ATOM     12  H   UNL     1     -75.906 -14.156  91.049  1.00  0.00     0.123 HD
BRANCH  11  13
ATOM     13  C   UNL     1     -76.153 -15.857  92.222  1.00  0.00     0.047 C 
ATOM     14  C   UNL     1     -75.106 -15.791  93.348  1.00  0.00     0.024 C 
ATOM     15  C   UNL     1     -77.460 -15.208  92.675  1.00  0.00     0.024 C 
ENDBRANCH  11  13
ENDBRANCH  10  11
ENDBRANCH   9  10
BRANCH   9  16
ATOM     16  O   UNL     1     -74.622 -13.699  89.082  1.00  0.00    -0.388 OA
ATOM     17  H   UNL     1     -74.017 -13.011  88.699  1.00  0.00     0.211 HD
ENDBRANCH   9  16
ENDBRANCH   8   9
ENDBRANCH   7   8
ENDBRANCH   1   7
BRANCH   4  18
ATOM     18  C   UNL     1     -78.532 -20.754  87.622  1.00  0.00     0.064 C 
BRANCH  18  19
ATOM     19  C   UNL     1     -79.067 -21.161  88.995  1.00  0.00     0.165 C 
BRANCH  19  20
ATOM     20  O   UNL     1     -80.457 -21.405  88.909  1.00  0.00    -0.381 OA
BRANCH  20  21
ATOM     21  C   UNL     1     -80.929 -21.136  87.603  1.00  0.00     0.163 C 
BRANCH  21  22
ATOM     22  C   UNL     1     -82.460 -21.241  87.571  1.00  0.00     0.015 C 
ATOM     23  C   UNL     1     -83.166 -20.186  86.732  1.00  0.00     0.006 C 
ATOM     24  C   UNL     1     -83.060 -21.616  86.225  1.00  0.00     0.006 C 
ENDBRANCH  21  22
ENDBRANCH  20  21
ENDBRANCH  19  20
ENDBRANCH  18  19
ENDBRANCH   4  18
TORSDOF 12
ENDMDL
MODEL 8
REMARK VINA RESULT:    -6.554      1.614      2.766
REMARK INTER + INTRA:         -12.452
REMARK INTER:                 -10.811
REMARK INTRA:                  -1.641
REMARK UNBOUND:                -1.493
REMARK SMILES CC(C)NC[C@H](O)COc1ccc(CCOCC2CC2)cc1
REMARK SMILES IDX 10 1 11 2 12 3 13 4 21 5 22 6 9 7 8 8 6 9 5 10 4 11 2 13
REMARK SMILES IDX 1 14 3 15 7 16 14 18 15 19 16 20 17 21 18 22 19 23 20 24
REMARK H PARENT 4 12 7 17
REMARK Flexibility Score: inf
ROOT
ATOM      1  C   UNL     1     -81.558 -20.145  85.794  1.00  0.00     0.119 A 
ATOM      2  C   UNL     1     -80.270 -20.503  86.208  1.00  0.00     0.047 A 
ATOM      3  C   UNL     1     -79.145 -19.967  85.575  1.00  0.00     0.007 A 
ATOM      4  C   UNL     1     -79.294 -19.069  84.508  1.00  0.00    -0.045 A 
ATOM      5  C   UNL     1     -80.584 -18.699  84.096  1.00  0.00     0.007 A 
ATOM      6  C   UNL     1     -81.709 -19.235  84.729  1.00  0.00     0.047 A 
ENDROOT
BRANCH   1   7
ATOM      7  O   UNL     1     -82.654 -20.710  86.461  1.00  0.00    -0.491 OA
BRANCH   7   8
ATOM      8  C   UNL     1     -83.697 -19.960  87.078  1.00  0.00     0.262 C 
BRANCH   8   9
ATOM      9  C   UNL     1     -83.565 -20.047  88.605  1.00  0.00     0.165 C 
BRANCH   9  10
ATOM     10  C   UNL     1     -83.356 -21.499  89.065  1.00  0.00     0.116 C 
BRANCH  10  11
ATOM     11  N   UNL     1     -81.930 -21.861  89.033  1.00  0.00    -0.312 NA
ATOM     12  H   UNL     1     -81.843 -22.904  88.969  1.00  0.00     0.123 HD
BRANCH  11  13
ATOM     13  C   UNL     1     -81.185 -21.364  90.205  1.00  0.00     0.047 C 
ATOM     14  C   UNL     1     -81.303 -22.323  91.402  1.00  0.00     0.024 C 
ATOM     15  C   UNL     1     -79.718 -21.181  89.818  1.00  0.00     0.024 C 
ENDBRANCH  11  13
ENDBRANCH  10  11
ENDBRANCH   9  10
BRANCH   9  16
ATOM     16  O   UNL     1     -84.730 -19.548  89.210  1.00  0.00    -0.388 OA
ATOM     17  H   UNL     1     -85.467 -19.649  88.552  1.00  0.00     0.211 HD
ENDBRANCH   9  16
ENDBRANCH   8   9
ENDBRANCH   7   8
ENDBRANCH   1   7
BRANCH   4  18
ATOM     18  C   UNL     1     -78.081 -18.464  83.849  1.00  0.00     0.064 C 
BRANCH  18  19
ATOM     19  C   UNL     1     -77.220 -17.707  84.860  1.00  0.00     0.165 C 
BRANCH  19  20
ATOM     20  O   UNL     1     -75.940 -18.303  84.935  1.00  0.00    -0.381 OA
BRANCH  20  21
ATOM     21  C   UNL     1     -75.584 -18.546  86.282  1.00  0.00     0.163 C 
BRANCH  21  22
ATOM     22  C   UNL     1     -76.648 -17.958  87.218  1.00  0.00     0.015 C 
ATOM     23  C   UNL     1     -76.989 -18.809  88.431  1.00  0.00     0.006 C 
ATOM     24  C   UNL     1     -76.152 -17.551  88.596  1.00  0.00     0.006 C 
ENDBRANCH  21  22
ENDBRANCH  20  21
ENDBRANCH  19  20
ENDBRANCH  18  19
ENDBRANCH   4  18
TORSDOF 12
ENDMDL
MODEL 9
REMARK VINA RESULT:    -6.550      3.841      7.592
REMARK INTER + INTRA:         -12.447
REMARK INTER:                 -11.654
REMARK INTRA:                  -0.792
REMARK UNBOUND:                -1.493
REMARK SMILES CC(C)NC[C@H](O)COc1ccc(CCOCC2CC2)cc1
REMARK SMILES IDX 10 1 11 2 12 3 13 4 21 5 22 6 9 7 8 8 6 9 5 10 4 11 2 13
REMARK SMILES IDX 1 14 3 15 7 16 14 18 15 19 16 20 17 21 18 22 19 23 20 24
REMARK H PARENT 4 12 7 17
REMARK Flexibility Score: inf
ROOT
ATOM      1  C   UNL     1     -76.770 -18.219  87.225  1.00  0.00     0.119 A 
ATOM      2  C   UNL     1     -77.305 -17.971  85.955  1.00  0.00     0.047 A 
ATOM      3  C   UNL     1     -78.384 -18.722  85.480  1.00  0.00     0.007 A 
ATOM      4  C   UNL     1     -78.938 -19.742  86.267  1.00  0.00    -0.045 A 
ATOM      5  C   UNL     1     -78.411 -19.987  87.545  1.00  0.00     0.007 A 
ATOM      6  C   UNL     1     -77.332 -19.236  88.020  1.00  0.00     0.047 A 
ENDROOT
BRANCH   1   7
ATOM      7  O   UNL     1     -75.688 -17.439  87.655  1.00  0.00    -0.491 OA
BRANCH   7   8
ATOM      8  C   UNL     1     -75.749 -16.034  87.890  1.00  0.00     0.262 C 
BRANCH   8   9
ATOM      9  C   UNL     1     -74.996 -15.691  89.183  1.00  0.00     0.165 C 
BRANCH   9  10
ATOM     10  C   UNL     1     -75.644 -16.370  90.401  1.00  0.00     0.116 C 
BRANCH  10  11
ATOM     11  N   UNL     1     -76.267 -15.375  91.289  1.00  0.00    -0.312 NA
ATOM     12  H   UNL     1     -76.020 -14.413  90.952  1.00  0.00     0.123 HD
BRANCH  11  13
ATOM     13  C   UNL     1     -75.865 -15.532  92.700  1.00  0.00     0.047 C 
ATOM     14  C   UNL     1     -76.313 -16.888  93.271  1.00  0.00     0.024 C 
ATOM     15  C   UNL     1     -74.346 -15.390  92.801  1.00  0.00     0.024 C 
ENDBRANCH  11  13
ENDBRANCH  10  11
ENDBRANCH   9  10
BRANCH   9  16
ATOM     16  O   UNL     1     -75.010 -14.302  89.384  1.00  0.00    -0.388 OA
ATOM     17  H   UNL     1     -74.485 -13.895  88.645  1.00  0.00     0.211 HD
ENDBRANCH   9  16
ENDBRANCH   8   9
ENDBRANCH   7   8
ENDBRANCH   1   7
BRANCH   4  18
ATOM     18  C   UNL     1     -80.124 -20.527  85.769  1.00  0.00     0.064 C 
BRANCH  18  19
ATOM     19  C   UNL     1     -81.260 -19.601  85.335  1.00  0.00     0.165 C 
BRANCH  19  20
ATOM     20  O   UNL     1     -82.484 -20.308  85.357  1.00  0.00    -0.381 OA
BRANCH  20  21
ATOM     21  C   UNL     1     -83.061 -20.261  86.648  1.00  0.00     0.163 C 
BRANCH  21  22
ATOM     22  C   UNL     1     -83.616 -21.642  87.022  1.00  0.00     0.015 C 
ATOM     23  C   UNL     1     -82.935 -22.821  86.344  1.00  0.00     0.006 C 
ATOM     24  C   UNL     1     -82.670 -22.533  87.813  1.00  0.00     0.006 C 
ENDBRANCH  21  22
ENDBRANCH  20  21
ENDBRANCH  19  20
ENDBRANCH  18  19
ENDBRANCH   4  18
TORSDOF 12
ENDMDL
MODEL 10
REMARK VINA RESULT:    -6.498      3.353      5.399
REMARK INTER + INTRA:         -12.359
REMARK INTER:                 -11.606
REMARK INTRA:                  -0.753
REMARK UNBOUND:                -1.493
REMARK SMILES CC(C)NC[C@H](O)COc1ccc(CCOCC2CC2)cc1
REMARK SMILES IDX 10 1 11 2 12 3 13 4 21 5 22 6 9 7 8 8 6 9 5 10 4 11 2 13
REMARK SMILES IDX 1 14 3 15 7 16 14 18 15 19 16 20 17 21 18 22 19 23 20 24
REMARK H PARENT 4 12 7 17
REMARK Flexibility Score: inf
ROOT
ATOM      1  C   UNL     1     -78.129 -19.180  85.773  1.00  0.00     0.119 A 
ATOM      2  C   UNL     1     -77.483 -17.957  85.554  1.00  0.00     0.047 A 
ATOM      3  C   UNL     1     -76.734 -17.358  86.569  1.00  0.00     0.007 A 
ATOM      4  C   UNL     1     -76.627 -17.971  87.827  1.00  0.00    -0.045 A 
ATOM      5  C   UNL     1     -77.264 -19.202  88.048  1.00  0.00     0.007 A 
ATOM      6  C   UNL     1     -78.014 -19.802  87.032  1.00  0.00     0.047 A 
ENDROOT
BRANCH   1   7
ATOM      7  O   UNL     1     -78.869 -19.741  84.722  1.00  0.00    -0.491 OA
BRANCH   7   8
ATOM      8  C   UNL     1     -79.698 -18.998  83.833  1.00  0.00     0.262 C 
BRANCH   8   9
ATOM      9  C   UNL     1     -81.121 -18.911  84.403  1.00  0.00     0.165 C 
BRANCH   9  10
ATOM     10  C   UNL     1     -81.394 -20.052  85.397  1.00  0.00     0.116 C 
BRANCH  10  11
ATOM     11  N   UNL     1     -82.838 -20.210  85.634  1.00  0.00    -0.312 NA
ATOM     12  H   UNL     1     -83.283 -19.262  85.676  1.00  0.00     0.123 HD
BRANCH  11  13
ATOM     13  C   UNL     1     -83.139 -20.963  86.866  1.00  0.00     0.047 C 
ATOM     14  C   UNL     1     -81.861 -21.300  87.653  1.00  0.00     0.024 C 
ATOM     15  C   UNL     1     -84.091 -20.137  87.731  1.00  0.00     0.024 C 
ENDBRANCH  11  13
ENDBRANCH  10  11
ENDBRANCH   9  10
BRANCH   9  16
ATOM     16  O   UNL     1     -82.055 -18.995  83.358  1.00  0.00    -0.388 OA
ATOM     17  H   UNL     1     -82.500 -18.109  83.292  1.00  0.00     0.211 HD
ENDBRANCH   9  16
ENDBRANCH   8   9
ENDBRANCH   7   8
ENDBRANCH   1   7
BRANCH   4  18
ATOM     18  C   UNL     1     -75.790 -17.341  88.910  1.00  0.00     0.064 C 
BRANCH  18  19
ATOM     19  C   UNL     1     -75.625 -15.838  88.681  1.00  0.00     0.165 C 
BRANCH  19  20
ATOM     20  O   UNL     1     -74.909 -15.269  89.759  1.00  0.00    -0.381 OA
BRANCH  20  21
ATOM     21  C   UNL     1     -74.949 -16.123  90.887  1.00  0.00     0.163 C 
BRANCH  21  22
ATOM     22  C   UNL     1     -75.504 -15.361  92.098  1.00  0.00     0.015 C 
ATOM     23  C   UNL     1     -77.018 -15.379  92.239  1.00  0.00     0.006 C 
ATOM     24  C   UNL     1     -76.158 -16.222  93.167  1.00  0.00     0.006 C 
ENDBRANCH  21  22
ENDBRANCH  20  21
ENDBRANCH  19  20
ENDBRANCH  18  19
ENDBRANCH   4  18
TORSDOF 12
ENDMDL
MODEL 11
REMARK VINA RESULT:    -6.443      2.719      4.297
REMARK INTER + INTRA:         -12.268
REMARK INTER:                 -11.367
REMARK INTRA:                  -0.901
REMARK UNBOUND:                -1.493
REMARK SMILES CC(C)NC[C@H](O)COc1ccc(CCOCC2CC2)cc1
REMARK SMILES IDX 10 1 11 2 12 3 13 4 21 5 22 6 9 7 8 8 6 9 5 10 4 11 2 13
REMARK SMILES IDX 1 14 3 15 7 16 14 18 15 19 16 20 17 21 18 22 19 23 20 24
REMARK H PARENT 4 12 7 17
REMARK Flexibility Score: inf
ROOT
ATOM      1  C   UNL     1     -82.982 -20.869  87.757  1.00  0.00     0.119 A 
ATOM      2  C   UNL     1     -82.626 -20.464  86.464  1.00  0.00     0.047 A 
ATOM      3  C   UNL     1     -81.284 -20.435  86.074  1.00  0.00     0.007 A 
ATOM      4  C   UNL     1     -80.276 -20.803  86.977  1.00  0.00    -0.045 A 
ATOM      5  C   UNL     1     -80.630 -21.219  88.270  1.00  0.00     0.007 A 
ATOM      6  C   UNL     1     -81.971 -21.248  88.661  1.00  0.00     0.047 A 
ENDROOT
BRANCH   1   7
ATOM      7  O   UNL     1     -84.342 -20.881  88.100  1.00  0.00    -0.491 OA
BRANCH   7   8
ATOM      8  C   UNL     1     -85.240 -19.796  87.878  1.00  0.00     0.262 C 
BRANCH   8   9
ATOM      9  C   UNL     1     -85.065 -18.744  88.982  1.00  0.00     0.165 C 
BRANCH   9  10
ATOM     10  C   UNL     1     -86.410 -18.105  89.361  1.00  0.00     0.116 C 
BRANCH  10  11
ATOM     11  N   UNL     1     -86.689 -18.276  90.796  1.00  0.00    -0.312 NA
ATOM     12  H   UNL     1     -86.484 -19.267  91.069  1.00  0.00     0.123 HD
BRANCH  11  13
ATOM     13  C   UNL     1     -88.077 -17.931  91.157  1.00  0.00     0.047 C 
ATOM     14  C   UNL     1     -88.318 -18.057  92.672  1.00  0.00     0.024 C 
ATOM     15  C   UNL     1     -88.370 -16.505  90.692  1.00  0.00     0.024 C 
ENDBRANCH  11  13
ENDBRANCH  10  11
ENDBRANCH   9  10
BRANCH   9  16
ATOM     16  O   UNL     1     -84.197 -17.734  88.539  1.00  0.00    -0.388 OA
ATOM     17  H   UNL     1     -83.307 -18.152  88.402  1.00  0.00     0.211 HD
ENDBRANCH   9  16
ENDBRANCH   8   9
ENDBRANCH   7   8
ENDBRANCH   1   7
BRANCH   4  18
ATOM     18  C   UNL     1     -78.832 -20.805  86.544  1.00  0.00     0.064 C 
BRANCH  18  19
ATOM     19  C   UNL     1     -78.209 -19.417  86.684  1.00  0.00     0.165 C 
BRANCH  19  20
ATOM     20  O   UNL     1     -77.685 -19.004  85.437  1.00  0.00    -0.381 OA
BRANCH  20  21
ATOM     21  C   UNL     1     -78.672 -18.326  84.683  1.00  0.00     0.163 C 
BRANCH  21  22
ATOM     22  C   UNL     1     -78.834 -18.998  83.313  1.00  0.00     0.015 C 
ATOM     23  C   UNL     1     -80.169 -18.759  82.626  1.00  0.00     0.006 C 
ATOM     24  C   UNL     1     -78.920 -18.050  82.127  1.00  0.00     0.006 C 
ENDBRANCH  21  22
ENDBRANCH  20  21
ENDBRANCH  19  20
ENDBRANCH  18  19
ENDBRANCH   4  18
TORSDOF 12
ENDMDL
MODEL 12
REMARK VINA RESULT:    -6.422      1.892      2.934
REMARK INTER + INTRA:         -12.232
REMARK INTER:                 -10.814
REMARK INTRA:                  -1.418
REMARK UNBOUND:                -1.493
REMARK SMILES CC(C)NC[C@H](O)COc1ccc(CCOCC2CC2)cc1
REMARK SMILES IDX 10 1 11 2 12 3 13 4 21 5 22 6 9 7 8 8 6 9 5 10 4 11 2 13
REMARK SMILES IDX 1 14 3 15 7 16 14 18 15 19 16 20 17 21 18 22 19 23 20 24
REMARK H PARENT 4 12 7 17
REMARK Flexibility Score: inf
ROOT
ATOM      1  C   UNL     1     -80.028 -20.185  86.001  1.00  0.00     0.119 A 
ATOM      2  C   UNL     1     -78.809 -20.193  86.690  1.00  0.00     0.047 A 
ATOM      3  C   UNL     1     -77.710 -19.484  86.196  1.00  0.00     0.007 A 
ATOM      4  C   UNL     1     -77.813 -18.762  84.998  1.00  0.00    -0.045 A 
ATOM      5  C   UNL     1     -79.037 -18.743  84.310  1.00  0.00     0.007 A 
ATOM      6  C   UNL     1     -80.136 -19.452  84.804  1.00  0.00     0.047 A 
ENDROOT
BRANCH   1   7
ATOM      7  O   UNL     1     -81.101 -20.912  86.538  1.00  0.00    -0.491 OA
BRANCH   7   8
ATOM      8  C   UNL     1     -82.461 -20.750  86.146  1.00  0.00     0.262 C 
BRANCH   8   9
ATOM      9  C   UNL     1     -83.293 -21.933  86.660  1.00  0.00     0.165 C 
BRANCH   9  10
ATOM     10  C   UNL     1     -83.307 -21.978  88.197  1.00  0.00     0.116 C 
BRANCH  10  11
ATOM     11  N   UNL     1     -82.073 -22.590  88.717  1.00  0.00    -0.312 NA
ATOM     12  H   UNL     1     -82.211 -23.626  88.794  1.00  0.00     0.123 HD
BRANCH  11  13
ATOM     13  C   UNL     1     -81.664 -22.037  90.022  1.00  0.00     0.047 C 
ATOM     14  C   UNL     1     -80.356 -21.235  89.914  1.00  0.00     0.024 C 
ATOM     15  C   UNL     1     -82.787 -21.149  90.558  1.00  0.00     0.024 C 
ENDBRANCH  11  13
ENDBRANCH  10  11
ENDBRANCH   9  10
BRANCH   9  16
ATOM     16  O   UNL     1     -82.752 -23.136  86.181  1.00  0.00    -0.388 OA
ATOM     17  H   UNL     1     -82.474 -23.667  86.973  1.00  0.00     0.211 HD
ENDBRANCH   9  16
ENDBRANCH   8   9
ENDBRANCH   7   8
ENDBRANCH   1   7
BRANCH   4  18
ATOM     18  C   UNL     1     -76.639 -17.969  84.485  1.00  0.00     0.064 C 
BRANCH  18  19
ATOM     19  C   UNL     1     -76.605 -16.569  85.096  1.00  0.00     0.165 C 
BRANCH  19  20
ATOM     20  O   UNL     1     -75.264 -16.173  85.304  1.00  0.00    -0.381 OA
BRANCH  20  21
ATOM     21  C   UNL     1     -74.808 -16.610  86.570  1.00  0.00     0.163 C 
BRANCH  21  22
ATOM     22  C   UNL     1     -75.917 -16.427  87.616  1.00  0.00     0.015 C 
ATOM     23  C   UNL     1     -75.937 -17.461  88.730  1.00  0.00     0.006 C 
ATOM     24  C   UNL     1     -75.444 -16.050  89.011  1.00  0.00     0.006 C 
ENDBRANCH  21  22
ENDBRANCH  20  21
ENDBRANCH  19  20
ENDBRANCH  18  19
ENDBRANCH   4  18
TORSDOF 12
ENDMDL
MODEL 13
REMARK VINA RESULT:    -6.375      9.860     11.464
REMARK INTER + INTRA:         -12.154
REMARK INTER:                 -11.557
REMARK INTRA:                  -0.597
REMARK UNBOUND:                -1.493
REMARK SMILES CC(C)NC[C@H](O)COc1ccc(CCOCC2CC2)cc1
REMARK SMILES IDX 10 1 11 2 12 3 13 4 21 5 22 6 9 7 8 8 6 9 5 10 4 11 2 13
REMARK SMILES IDX 1 14 3 15 7 16 14 18 15 19 16 20 17 21 18 22 19 23 20 24
REMARK H PARENT 4 12 7 17
REMARK Flexibility Score: inf
ROOT
ATOM      1  C   UNL     1     -87.453 -19.976  95.510  1.00  0.00     0.119 A 
ATOM      2  C   UNL     1     -88.830 -19.772  95.360  1.00  0.00     0.047 A 
ATOM      3  C   UNL     1     -89.319 -18.956  94.336  1.00  0.00     0.007 A 
ATOM      4  C   UNL     1     -88.435 -18.323  93.451  1.00  0.00    -0.045 A 
ATOM      5  C   UNL     1     -87.054 -18.533  93.591  1.00  0.00     0.007 A 
ATOM      6  C   UNL     1     -86.564 -19.349  94.615  1.00  0.00     0.047 A 
ENDROOT
BRANCH   1   7
ATOM      7  O   UNL     1     -87.012 -20.803  96.553  1.00  0.00    -0.491 OA
BRANCH   7   8
ATOM      8  C   UNL     1     -86.212 -21.969  96.374  1.00  0.00     0.262 C 
BRANCH   8   9
ATOM      9  C   UNL     1     -87.050 -23.223  96.659  1.00  0.00     0.165 C 
BRANCH   9  10
ATOM     10  C   UNL     1     -86.181 -24.491  96.643  1.00  0.00     0.116 C 
BRANCH  10  11
ATOM     11  N   UNL     1     -86.161 -25.098  95.303  1.00  0.00    -0.312 NA
ATOM     12  H   UNL     1     -86.955 -24.709  94.739  1.00  0.00     0.123 HD
BRANCH  11  13
ATOM     13  C   UNL     1     -86.243 -26.571  95.338  1.00  0.00     0.047 C 
ATOM     14  C   UNL     1     -84.922 -27.224  94.895  1.00  0.00     0.024 C 
ATOM     15  C   UNL     1     -86.603 -27.013  96.756  1.00  0.00     0.024 C 
ENDBRANCH  11  13
ENDBRANCH  10  11
ENDBRANCH   9  10
BRANCH   9  16
ATOM     16  O   UNL     1     -88.052 -23.353  95.685  1.00  0.00    -0.388 OA
ATOM     17  H   UNL     1     -88.775 -22.714  95.921  1.00  0.00     0.211 HD
ENDBRANCH   9  16
ENDBRANCH   8   9
ENDBRANCH   7   8
ENDBRANCH   1   7
BRANCH   4  18
ATOM     18  C   UNL     1     -88.966 -17.472  92.326  1.00  0.00     0.064 C 
BRANCH  18  19
ATOM     19  C   UNL     1     -88.006 -17.463  91.136  1.00  0.00     0.165 C 
BRANCH  19  20
ATOM     20  O   UNL     1     -88.140 -16.248  90.427  1.00  0.00    -0.381 OA
BRANCH  20  21
ATOM     21  C   UNL     1     -89.466 -15.763  90.519  1.00  0.00     0.163 C 
BRANCH  21  22
ATOM     22  C   UNL     1     -89.451 -14.253  90.793  1.00  0.00     0.015 C 
ATOM     23  C   UNL     1     -88.219 -13.514  90.294  1.00  0.00     0.006 C 
ATOM     24  C   UNL     1     -89.544 -13.365  89.562  1.00  0.00     0.006 C 
ENDBRANCH  21  22
ENDBRANCH  20  21
ENDBRANCH  19  20
ENDBRANCH  18  19
ENDBRANCH   4  18
TORSDOF 12
ENDMDL
MODEL 14
REMARK VINA RESULT:    -6.347      1.308      1.836
REMARK INTER + INTRA:         -12.107
REMARK INTER:                 -10.802
REMARK INTRA:                  -1.305
REMARK UNBOUND:                -1.493
REMARK SMILES CC(C)NC[C@H](O)COc1ccc(CCOCC2CC2)cc1
REMARK SMILES IDX 10 1 11 2 12 3 13 4 21 5 22 6 9 7 8 8 6 9 5 10 4 11 2 13
REMARK SMILES IDX 1 14 3 15 7 16 14 18 15 19 16 20 17 21 18 22 19 23 20 24
REMARK H PARENT 4 12 7 17
REMARK Flexibility Score: inf
ROOT
ATOM      1  C   UNL     1     -80.297 -21.110  87.809  1.00  0.00     0.119 A 
ATOM      2  C   UNL     1     -81.005 -20.800  86.641  1.00  0.00     0.047 A 
ATOM      3  C   UNL     1     -80.390 -20.094  85.604  1.00  0.00     0.007 A 
ATOM      4  C   UNL     1     -79.056 -19.678  85.724  1.00  0.00    -0.045 A 
ATOM      5  C   UNL     1     -78.339 -19.996  86.888  1.00  0.00     0.007 A 
ATOM      6  C   UNL     1     -78.954 -20.702  87.926  1.00  0.00     0.047 A 
ENDROOT
BRANCH   1   7
ATOM      7  O   UNL     1     -80.958 -21.820  88.821  1.00  0.00    -0.491 OA
BRANCH   7   8
ATOM      8  C   UNL     1     -81.023 -21.410  90.184  1.00  0.00     0.262 C 
BRANCH   8   9
ATOM      9  C   UNL     1     -82.446 -21.620  90.721  1.00  0.00     0.165 C 
BRANCH   9  10
ATOM     10  C   UNL     1     -83.459 -20.737  89.975  1.00  0.00     0.116 C 
BRANCH  10  11
ATOM     11  N   UNL     1     -84.630 -21.522  89.552  1.00  0.00    -0.312 NA
ATOM     12  H   UNL     1     -84.455 -22.535  89.757  1.00  0.00     0.123 HD
BRANCH  11  13
ATOM     13  C   UNL     1     -84.955 -21.345  88.124  1.00  0.00     0.047 C 
ATOM     14  C   UNL     1     -84.459 -19.990  87.592  1.00  0.00     0.024 C 
ATOM     15  C   UNL     1     -84.326 -22.489  87.328  1.00  0.00     0.024 C 
ENDBRANCH  11  13
ENDBRANCH  10  11
ENDBRANCH   9  10
BRANCH   9  16
ATOM     16  O   UNL     1     -82.488 -21.297  92.087  1.00  0.00    -0.388 OA
ATOM     17  H   UNL     1     -83.357 -21.626  92.438  1.00  0.00     0.211 HD
ENDBRANCH   9  16
ENDBRANCH   8   9
ENDBRANCH   7   8
ENDBRANCH   1   7
BRANCH   4  18
ATOM     18  C   UNL     1     -78.383 -18.948  84.590  1.00  0.00     0.064 C 
BRANCH  18  19
ATOM     19  C   UNL     1     -76.877 -18.828  84.823  1.00  0.00     0.165 C 
BRANCH  19  20
ATOM     20  O   UNL     1     -76.531 -17.469  85.000  1.00  0.00    -0.381 OA
BRANCH  20  21
ATOM     21  C   UNL     1     -75.554 -17.333  86.013  1.00  0.00     0.163 C 
BRANCH  21  22
ATOM     22  C   UNL     1     -76.189 -16.725  87.271  1.00  0.00     0.015 C 
ATOM     23  C   UNL     1     -76.130 -17.597  88.516  1.00  0.00     0.006 C 
ATOM     24  C   UNL     1     -75.219 -16.386  88.393  1.00  0.00     0.006 C 
ENDBRANCH  21  22
ENDBRANCH  20  21
ENDBRANCH  19  20
ENDBRANCH  18  19
ENDBRANCH   4  18
TORSDOF 12
ENDMDL
MODEL 15
REMARK VINA RESULT:    -6.340      2.033      3.431
REMARK INTER + INTRA:         -12.095
REMARK INTER:                 -10.530
REMARK INTRA:                  -1.565
REMARK UNBOUND:                -1.493
REMARK SMILES CC(C)NC[C@H](O)COc1ccc(CCOCC2CC2)cc1
REMARK SMILES IDX 10 1 11 2 12 3 13 4 21 5 22 6 9 7 8 8 6 9 5 10 4 11 2 13
REMARK SMILES IDX 1 14 3 15 7 16 14 18 15 19 16 20 17 21 18 22 19 23 20 24
REMARK H PARENT 4 12 7 17
REMARK Flexibility Score: inf
ROOT
ATOM      1  C   UNL     1     -79.821 -20.606  86.388  1.00  0.00     0.119 A 
ATOM      2  C   UNL     1     -79.443 -19.690  85.399  1.00  0.00     0.047 A 
ATOM      3  C   UNL     1     -78.382 -18.807  85.616  1.00  0.00     0.007 A 
ATOM      4  C   UNL     1     -77.687 -18.821  86.835  1.00  0.00    -0.045 A 
ATOM      5  C   UNL     1     -78.057 -19.745  87.826  1.00  0.00     0.007 A 
ATOM      6  C   UNL     1     -79.118 -20.628  87.608  1.00  0.00     0.047 A 
ENDROOT
BRANCH   1   7
ATOM      7  O   UNL     1     -80.892 -21.471  86.121  1.00  0.00    -0.491 OA
BRANCH   7   8
ATOM      8  C   UNL     1     -82.262 -21.077  86.103  1.00  0.00     0.262 C 
BRANCH   8   9
ATOM      9  C   UNL     1     -83.151 -22.276  86.459  1.00  0.00     0.165 C 
BRANCH   9  10
ATOM     10  C   UNL     1     -83.386 -22.364  87.976  1.00  0.00     0.116 C 
BRANCH  10  11
ATOM     11  N   UNL     1     -82.109 -22.440  88.703  1.00  0.00    -0.312 NA
ATOM     12  H   UNL     1     -81.961 -23.423  89.035  1.00  0.00     0.123 HD
BRANCH  11  13
ATOM     13  C   UNL     1     -82.041 -21.508  89.845  1.00  0.00     0.047 C 
ATOM     14  C   UNL     1     -83.443 -21.079  90.312  1.00  0.00     0.024 C 
ATOM     15  C   UNL     1     -81.286 -22.183  90.990  1.00  0.00     0.024 C 
ENDBRANCH  11  13
ENDBRANCH  10  11
ENDBRANCH   9  10
BRANCH   9  16
ATOM     16  O   UNL     1     -82.537 -23.464  86.031  1.00  0.00    -0.388 OA
ATOM     17  H   UNL     1     -81.794 -23.653  86.662  1.00  0.00     0.211 HD
ENDBRANCH   9  16
ENDBRANCH   8   9
ENDBRANCH   7   8
ENDBRANCH   1   7
BRANCH   4  18
ATOM     18  C   UNL     1     -76.521 -17.893  87.055  1.00  0.00     0.064 C 
BRANCH  18  19
ATOM     19  C   UNL     1     -76.523 -16.748  86.042  1.00  0.00     0.165 C 
BRANCH  19  20
ATOM     20  O   UNL     1     -75.351 -16.809  85.254  1.00  0.00    -0.381 OA
BRANCH  20  21
ATOM     21  C   UNL     1     -75.669 -17.139  83.915  1.00  0.00     0.163 C 
BRANCH  21  22
ATOM     22  C   UNL     1     -74.794 -18.308  83.444  1.00  0.00     0.015 C 
ATOM     23  C   UNL     1     -74.673 -19.465  84.424  1.00  0.00     0.006 C 
ATOM     24  C   UNL     1     -75.533 -19.610  83.178  1.00  0.00     0.006 C 
ENDBRANCH  21  22
ENDBRANCH  20  21
ENDBRANCH  19  20
ENDBRANCH  18  19
ENDBRANCH   4  18
TORSDOF 12
ENDMDL
