MODEL 1
REMARK VINA RESULT:    -8.765      0.000      0.000
REMARK INTER + INTRA:         -14.004
REMARK INTER:                 -13.121
REMARK INTRA:                  -0.884
REMARK UNBOUND:                -0.884
REMARK SMILES CCCC[N+]1(C)[C@@H]2C[C@@H](OC(=O)[C@H](CO)c3ccccc3)C[C@H]1[C@@H]1O[C@@H]12
REMARK SMILES IDX 10 1 9 2 5 3 6 4 23 5 7 6 22 7 24 8 8 9 26 10 25 11 4 12
REMARK SMILES IDX 3 13 2 14 1 15 11 16 12 17 13 18 14 19 15 20 16 22 17 23
REMARK SMILES IDX 21 24 18 25 20 26 19 27
REMARK H PARENT 15 21
REMARK Flexibility Score: inf
ROOT
ATOM      1  O   UNL     1       9.689  76.718  -1.189  1.00  0.00    -0.461 OA
ENDROOT
BRANCH   1   2
ATOM      2  C   UNL     1      11.054  76.827  -1.595  1.00  0.00     0.188 C 
ATOM      3  N   UNL     1      12.646  79.366  -1.661  1.00  0.00    -0.316 N 
ATOM      4  C   UNL     1      13.099  80.794  -1.517  1.00  0.00     0.335 C 
ATOM      5  C   UNL     1      11.406  79.248  -2.485  1.00  0.00     0.221 C 
ATOM      6  C   UNL     1      12.109  78.865  -0.364  1.00  0.00     0.221 C 
ATOM      7  C   UNL     1      11.116  77.759  -2.848  1.00  0.00     0.113 C 
ATOM      8  C   UNL     1      10.226  79.695  -1.595  1.00  0.00     0.212 C 
ATOM      9  C   UNL     1      11.921  77.318  -0.384  1.00  0.00     0.113 C 
ATOM     10  C   UNL     1      10.683  79.460  -0.209  1.00  0.00     0.212 C 
ATOM     11  O   UNL     1      10.472  80.761  -0.714  1.00  0.00    -0.357 OA
BRANCH   3  12
ATOM     12  C   UNL     1      13.826  78.585  -2.185  1.00  0.00     0.264 C 
BRANCH  12  13
ATOM     13  C   UNL     1      14.714  79.389  -3.172  1.00  0.00     0.061 C 
BRANCH  13  14
ATOM     14  C   UNL     1      14.280  79.201  -4.635  1.00  0.00     0.002 C 
ATOM     15  C   UNL     1      13.613  80.449  -5.215  1.00  0.00     0.004 C 
ENDBRANCH  13  14
ENDBRANCH  12  13
ENDBRANCH   3  12
ENDBRANCH   1   2
BRANCH   1  16
ATOM     16  C   UNL     1       8.889  75.593  -1.422  1.00  0.00     0.316 C 
ATOM     17  O   UNL     1       8.317  75.006  -0.462  1.00  0.00    -0.251 OA
BRANCH  16  18
ATOM     18  C   UNL     1       8.691  75.079  -2.826  1.00  0.00     0.155 C 
BRANCH  18  19
ATOM     19  C   UNL     1       7.228  75.226  -3.293  1.00  0.00     0.176 C 
BRANCH  19  20
ATOM     20  O   UNL     1       7.055  76.328  -4.143  1.00  0.00    -0.395 OA
ATOM     21  H   UNL     1       6.236  76.157  -4.677  1.00  0.00     0.210 HD
ENDBRANCH  19  20
ENDBRANCH  18  19
BRANCH  18  22
ATOM     22  C   UNL     1       9.216  73.660  -2.991  1.00  0.00    -0.032 A 
ATOM     23  C   UNL     1       9.003  72.972  -4.202  1.00  0.00     0.005 A 
ATOM     24  C   UNL     1       9.964  73.029  -1.976  1.00  0.00     0.005 A 
ATOM     25  C   UNL     1       9.518  71.685  -4.386  1.00  0.00     0.000 A 
ATOM     26  C   UNL     1      10.470  71.740  -2.165  1.00  0.00     0.000 A 
ATOM     27  C   UNL     1      10.250  71.070  -3.369  1.00  0.00     0.000 A 
ENDBRANCH  18  22
ENDBRANCH  16  18
ENDBRANCH   1  16
TORSDOF 9
ENDMDL
MODEL 2
REMARK VINA RESULT:    -8.747      1.031      1.535
REMARK INTER + INTRA:         -13.977
REMARK INTER:                 -13.183
REMARK INTRA:                  -0.794
REMARK UNBOUND:                -0.884
REMARK SMILES CCCC[N+]1(C)[C@@H]2C[C@@H](OC(=O)[C@H](CO)c3ccccc3)C[C@H]1[C@@H]1O[C@@H]12
REMARK SMILES IDX 10 1 9 2 5 3 6 4 23 5 7 6 22 7 24 8 8 9 26 10 25 11 4 12
REMARK SMILES IDX 3 13 2 14 1 15 11 16 12 17 13 18 14 19 15 20 16 22 17 23
REMARK SMILES IDX 21 24 18 25 20 26 19 27
REMARK H PARENT 15 21
REMARK Flexibility Score: inf
ROOT
ATOM      1  O   UNL     1      10.098  76.591  -1.548  1.00  0.00    -0.461 OA
ENDROOT
BRANCH   1   2
ATOM      2  C   UNL     1      10.503  77.520  -2.555  1.00  0.00     0.188 C 
ATOM      3  N   UNL     1      12.594  79.641  -2.215  1.00  0.00    -0.316 N 
ATOM      4  C   UNL     1      13.692  80.517  -1.675  1.00  0.00     0.335 C 
ATOM      5  C   UNL     1      11.387  79.645  -1.336  1.00  0.00     0.221 C 
ATOM      6  C   UNL     1      12.971  78.206  -2.083  1.00  0.00     0.221 C 
ATOM      7  C   UNL     1      10.177  78.962  -2.046  1.00  0.00     0.113 C 
ATOM      8  C   UNL     1      11.710  78.752  -0.118  1.00  0.00     0.212 C 
ATOM      9  C   UNL     1      12.015  77.287  -2.902  1.00  0.00     0.113 C 
ATOM     10  C   UNL     1      12.752  77.819  -0.595  1.00  0.00     0.212 C 
ATOM     11  O   UNL     1      13.025  78.811   0.373  1.00  0.00    -0.357 OA
BRANCH   3  12
ATOM     12  C   UNL     1      12.340  80.086  -3.634  1.00  0.00     0.264 C 
BRANCH  12  13
ATOM     13  C   UNL     1      13.572  79.924  -4.565  1.00  0.00     0.061 C 
BRANCH  13  14
ATOM     14  C   UNL     1      13.947  81.236  -5.274  1.00  0.00     0.002 C 
ATOM     15  C   UNL     1      15.424  81.294  -5.661  1.00  0.00     0.004 C 
ENDBRANCH  13  14
ENDBRANCH  12  13
ENDBRANCH   3  12
ENDBRANCH   1   2
BRANCH   1  16
ATOM     16  C   UNL     1       9.019  75.709  -1.684  1.00  0.00     0.316 C 
ATOM     17  O   UNL     1       8.314  75.403  -0.683  1.00  0.00    -0.251 OA
BRANCH  16  18
ATOM     18  C   UNL     1       8.681  75.125  -3.033  1.00  0.00     0.155 C 
BRANCH  18  19
ATOM     19  C   UNL     1       7.185  75.283  -3.371  1.00  0.00     0.176 C 
BRANCH  19  20
ATOM     20  O   UNL     1       6.961  76.308  -4.302  1.00  0.00    -0.395 OA
ATOM     21  H   UNL     1       6.142  76.788  -4.013  1.00  0.00     0.210 HD
ENDBRANCH  19  20
ENDBRANCH  18  19
BRANCH  18  22
ATOM     22  C   UNL     1       9.160  73.686  -3.165  1.00  0.00    -0.032 A 
ATOM     23  C   UNL     1       9.019  73.012  -4.394  1.00  0.00     0.005 A 
ATOM     24  C   UNL     1       9.794  73.020  -2.097  1.00  0.00     0.005 A 
ATOM     25  C   UNL     1       9.495  71.706  -4.546  1.00  0.00     0.000 A 
ATOM     26  C   UNL     1      10.262  71.712  -2.253  1.00  0.00     0.000 A 
ATOM     27  C   UNL     1      10.115  71.057  -3.476  1.00  0.00     0.000 A 
ENDBRANCH  18  22
ENDBRANCH  16  18
ENDBRANCH   1  16
TORSDOF 9
ENDMDL
MODEL 3
REMARK VINA RESULT:    -8.675      1.838      6.653
REMARK INTER + INTRA:         -13.869
REMARK INTER:                 -12.338
REMARK INTRA:                  -1.531
REMARK UNBOUND:                -0.884
REMARK SMILES CCCC[N+]1(C)[C@@H]2C[C@@H](OC(=O)[C@H](CO)c3ccccc3)C[C@H]1[C@@H]1O[C@@H]12
REMARK SMILES IDX 10 1 9 2 5 3 6 4 23 5 7 6 22 7 24 8 8 9 26 10 25 11 4 12
REMARK SMILES IDX 3 13 2 14 1 15 11 16 12 17 13 18 14 19 15 20 16 22 17 23
REMARK SMILES IDX 21 24 18 25 20 26 19 27
REMARK H PARENT 15 21
REMARK Flexibility Score: inf
ROOT
ATOM      1  O   UNL     1      10.919  78.086  -0.927  1.00  0.00    -0.461 OA
ENDROOT
BRANCH   1   2
ATOM      2  C   UNL     1      10.956  76.730  -1.376  1.00  0.00     0.188 C 
ATOM      3  N   UNL     1       8.566  74.958  -1.740  1.00  0.00    -0.316 N 
ATOM      4  C   UNL     1       7.163  74.422  -1.833  1.00  0.00     0.335 C 
ATOM      5  C   UNL     1       8.863  75.532  -0.394  1.00  0.00     0.221 C 
ATOM      6  C   UNL     1       8.696  76.199  -2.555  1.00  0.00     0.221 C 
ATOM      7  C   UNL     1      10.388  75.825  -0.235  1.00  0.00     0.113 C 
ATOM      8  C   UNL     1       8.168  76.910  -0.326  1.00  0.00     0.212 C 
ATOM      9  C   UNL     1      10.188  76.609  -2.738  1.00  0.00     0.113 C 
ATOM     10  C   UNL     1       8.044  77.344  -1.733  1.00  0.00     0.212 C 
ATOM     11  O   UNL     1       6.915  77.013  -0.953  1.00  0.00    -0.357 OA
BRANCH   3  12
ATOM     12  C   UNL     1       9.488  73.841  -2.165  1.00  0.00     0.264 C 
BRANCH  12  13
ATOM     13  C   UNL     1       9.065  73.158  -3.493  1.00  0.00     0.061 C 
BRANCH  13  14
ATOM     14  C   UNL     1       9.715  71.776  -3.673  1.00  0.00     0.002 C 
ATOM     15  C   UNL     1       9.767  71.337  -5.136  1.00  0.00     0.004 C 
ENDBRANCH  13  14
ENDBRANCH  12  13
ENDBRANCH   3  12
ENDBRANCH   1   2
BRANCH   1  16
ATOM     16  C   UNL     1      11.458  79.163  -1.642  1.00  0.00     0.316 C 
ATOM     17  O   UNL     1      10.700  80.040  -2.142  1.00  0.00    -0.251 OA
BRANCH  16  18
ATOM     18  C   UNL     1      12.951  79.292  -1.810  1.00  0.00     0.155 C 
BRANCH  18  19
ATOM     19  C   UNL     1      13.491  80.594  -1.183  1.00  0.00     0.176 C 
BRANCH  19  20
ATOM     20  O   UNL     1      12.538  81.219  -0.365  1.00  0.00    -0.395 OA
ATOM     21  H   UNL     1      12.197  80.529   0.262  1.00  0.00     0.210 HD
ENDBRANCH  19  20
ENDBRANCH  18  19
BRANCH  18  22
ATOM     22  C   UNL     1      13.376  79.125  -3.262  1.00  0.00    -0.032 A 
ATOM     23  C   UNL     1      13.735  80.257  -4.020  1.00  0.00     0.005 A 
ATOM     24  C   UNL     1      13.473  77.851  -3.859  1.00  0.00     0.005 A 
ATOM     25  C   UNL     1      14.171  80.116  -5.341  1.00  0.00     0.000 A 
ATOM     26  C   UNL     1      13.904  77.718  -5.182  1.00  0.00     0.000 A 
ATOM     27  C   UNL     1      14.255  78.849  -5.921  1.00  0.00     0.000 A 
ENDBRANCH  18  22
ENDBRANCH  16  18
ENDBRANCH   1  16
TORSDOF 9
ENDMDL
MODEL 4
REMARK VINA RESULT:    -8.605      1.971      6.368
REMARK INTER + INTRA:         -13.764
REMARK INTER:                 -12.380
REMARK INTRA:                  -1.384
REMARK UNBOUND:                -0.884
REMARK SMILES CCCC[N+]1(C)[C@@H]2C[C@@H](OC(=O)[C@H](CO)c3ccccc3)C[C@H]1[C@@H]1O[C@@H]12
REMARK SMILES IDX 10 1 9 2 5 3 6 4 23 5 7 6 22 7 24 8 8 9 26 10 25 11 4 12
REMARK SMILES IDX 3 13 2 14 1 15 11 16 12 17 13 18 14 19 15 20 16 22 17 23
REMARK SMILES IDX 21 24 18 25 20 26 19 27
REMARK H PARENT 15 21
REMARK Flexibility Score: inf
ROOT
ATOM      1  O   UNL     1       7.963  77.695  -1.660  1.00  0.00    -0.461 OA
ENDROOT
BRANCH   1   2
ATOM      2  C   UNL     1       8.096  76.748  -2.720  1.00  0.00     0.188 C 
ATOM      3  N   UNL     1       9.257  73.997  -2.453  1.00  0.00    -0.316 N 
ATOM      4  C   UNL     1       9.846  72.721  -1.914  1.00  0.00     0.335 C 
ATOM      5  C   UNL     1      10.093  75.189  -2.120  1.00  0.00     0.221 C 
ATOM      6  C   UNL     1       8.028  74.357  -1.690  1.00  0.00     0.221 C 
ATOM      7  C   UNL     1       9.617  76.445  -2.914  1.00  0.00     0.113 C 
ATOM      8  C   UNL     1       9.840  75.519  -0.633  1.00  0.00     0.212 C 
ATOM      9  C   UNL     1       7.222  75.484  -2.404  1.00  0.00     0.113 C 
ATOM     10  C   UNL     1       8.500  74.967  -0.342  1.00  0.00     0.212 C 
ATOM     11  O   UNL     1       9.670  74.426   0.233  1.00  0.00    -0.357 OA
BRANCH   3  12
ATOM     12  C   UNL     1       9.027  73.782  -3.929  1.00  0.00     0.264 C 
BRANCH  12  13
ATOM     13  C   UNL     1       9.380  72.350  -4.410  1.00  0.00     0.061 C 
BRANCH  13  14
ATOM     14  C   UNL     1      10.317  72.356  -5.628  1.00  0.00     0.002 C 
ATOM     15  C   UNL     1      11.774  72.623  -5.249  1.00  0.00     0.004 C 
ENDBRANCH  13  14
ENDBRANCH  12  13
ENDBRANCH   3  12
ENDBRANCH   1   2
BRANCH   1  16
ATOM     16  C   UNL     1       8.493  78.991  -1.694  1.00  0.00     0.316 C 
ATOM     17  O   UNL     1       8.034  79.847  -2.500  1.00  0.00    -0.251 OA
BRANCH  16  18
ATOM     18  C   UNL     1       9.611  79.379  -0.759  1.00  0.00     0.155 C 
BRANCH  18  19
ATOM     19  C   UNL     1       9.421  80.801  -0.193  1.00  0.00     0.176 C 
BRANCH  19  20
ATOM     20  O   UNL     1      10.169  81.007   0.976  1.00  0.00    -0.395 OA
ATOM     21  H   UNL     1      11.088  81.250   0.692  1.00  0.00     0.210 HD
ENDBRANCH  19  20
ENDBRANCH  18  19
BRANCH  18  22
ATOM     22  C   UNL     1      10.979  79.184  -1.397  1.00  0.00    -0.032 A 
ATOM     23  C   UNL     1      11.272  79.806  -2.627  1.00  0.00     0.005 A 
ATOM     24  C   UNL     1      11.990  78.436  -0.759  1.00  0.00     0.005 A 
ATOM     25  C   UNL     1      12.539  79.675  -3.204  1.00  0.00     0.000 A 
ATOM     26  C   UNL     1      13.252  78.304  -1.344  1.00  0.00     0.000 A 
ATOM     27  C   UNL     1      13.527  78.925  -2.564  1.00  0.00     0.000 A 
ENDBRANCH  18  22
ENDBRANCH  16  18
ENDBRANCH   1  16
TORSDOF 9
ENDMDL
MODEL 5
REMARK VINA RESULT:    -8.491      2.603      6.716
REMARK INTER + INTRA:         -13.593
REMARK INTER:                 -12.229
REMARK INTRA:                  -1.364
REMARK UNBOUND:                -0.884
REMARK SMILES CCCC[N+]1(C)[C@@H]2C[C@@H](OC(=O)[C@H](CO)c3ccccc3)C[C@H]1[C@@H]1O[C@@H]12
REMARK SMILES IDX 10 1 9 2 5 3 6 4 23 5 7 6 22 7 24 8 8 9 26 10 25 11 4 12
REMARK SMILES IDX 3 13 2 14 1 15 11 16 12 17 13 18 14 19 15 20 16 22 17 23
REMARK SMILES IDX 21 24 18 25 20 26 19 27
REMARK H PARENT 15 21
REMARK Flexibility Score: inf
ROOT
ATOM      1  O   UNL     1       8.978  78.352  -0.836  1.00  0.00    -0.461 OA
ENDROOT
BRANCH   1   2
ATOM      2  C   UNL     1       9.649  77.496  -1.763  1.00  0.00     0.188 C 
ATOM      3  N   UNL     1       9.157  74.556  -2.077  1.00  0.00    -0.316 N 
ATOM      4  C   UNL     1       8.606  73.160  -1.960  1.00  0.00     0.335 C 
ATOM      5  C   UNL     1       9.616  75.093  -0.761  1.00  0.00     0.221 C 
ATOM      6  C   UNL     1       8.055  75.521  -2.349  1.00  0.00     0.221 C 
ATOM      7  C   UNL     1      10.427  76.413  -0.949  1.00  0.00     0.113 C 
ATOM      8  C   UNL     1       8.352  75.493   0.031  1.00  0.00     0.212 C 
ATOM      9  C   UNL     1       8.609  76.912  -2.782  1.00  0.00     0.113 C 
ATOM     10  C   UNL     1       7.326  75.761  -0.999  1.00  0.00     0.212 C 
ATOM     11  O   UNL     1       7.228  74.662  -0.118  1.00  0.00    -0.357 OA
BRANCH   3  12
ATOM     12  C   UNL     1      10.221  74.516  -3.146  1.00  0.00     0.264 C 
BRANCH  12  13
ATOM     13  C   UNL     1      10.206  73.213  -3.989  1.00  0.00     0.061 C 
BRANCH  13  14
ATOM     14  C   UNL     1      11.607  72.599  -4.145  1.00  0.00     0.002 C 
ATOM     15  C   UNL     1      12.222  72.879  -5.516  1.00  0.00     0.004 C 
ENDBRANCH  13  14
ENDBRANCH  12  13
ENDBRANCH   3  12
ENDBRANCH   1   2
BRANCH   1  16
ATOM     16  C   UNL     1       8.419  79.590  -1.175  1.00  0.00     0.316 C 
ATOM     17  O   UNL     1       7.185  79.687  -1.424  1.00  0.00    -0.251 OA
BRANCH  16  18
ATOM     18  C   UNL     1       9.285  80.823  -1.234  1.00  0.00     0.155 C 
BRANCH  18  19
ATOM     19  C   UNL     1       9.666  81.192  -2.682  1.00  0.00     0.176 C 
BRANCH  19  20
ATOM     20  O   UNL     1       8.551  81.588  -3.435  1.00  0.00    -0.395 OA
ATOM     21  H   UNL     1       8.793  81.477  -4.392  1.00  0.00     0.210 HD
ENDBRANCH  19  20
ENDBRANCH  18  19
BRANCH  18  22
ATOM     22  C   UNL     1      10.499  80.709  -0.323  1.00  0.00    -0.032 A 
ATOM     23  C   UNL     1      11.744  80.331  -0.861  1.00  0.00     0.005 A 
ATOM     24  C   UNL     1      10.423  81.026   1.049  1.00  0.00     0.005 A 
ATOM     25  C   UNL     1      12.879  80.265  -0.047  1.00  0.00     0.000 A 
ATOM     26  C   UNL     1      11.560  80.953   1.859  1.00  0.00     0.000 A 
ATOM     27  C   UNL     1      12.787  80.576   1.311  1.00  0.00     0.000 A 
ENDBRANCH  18  22
ENDBRANCH  16  18
ENDBRANCH   1  16
TORSDOF 9
ENDMDL
MODEL 6
REMARK VINA RESULT:    -8.433      4.543      8.736
REMARK INTER + INTRA:         -13.506
REMARK INTER:                 -12.498
REMARK INTRA:                  -1.008
REMARK UNBOUND:                -0.884
REMARK SMILES CCCC[N+]1(C)[C@@H]2C[C@@H](OC(=O)[C@H](CO)c3ccccc3)C[C@H]1[C@@H]1O[C@@H]12
REMARK SMILES IDX 10 1 9 2 5 3 6 4 23 5 7 6 22 7 24 8 8 9 26 10 25 11 4 12
REMARK SMILES IDX 3 13 2 14 1 15 11 16 12 17 13 18 14 19 15 20 16 22 17 23
REMARK SMILES IDX 21 24 18 25 20 26 19 27
REMARK H PARENT 15 21
REMARK Flexibility Score: inf
ROOT
ATOM      1  O   UNL     1      15.048  80.000  -4.718  1.00  0.00    -0.461 OA
ENDROOT
BRANCH   1   2
ATOM      2  C   UNL     1      13.695  79.604  -4.487  1.00  0.00     0.188 C 
ATOM      3  N   UNL     1      12.513  78.957  -1.810  1.00  0.00    -0.316 N 
ATOM      4  C   UNL     1      12.294  78.761  -0.334  1.00  0.00     0.335 C 
ATOM      5  C   UNL     1      13.671  78.163  -2.318  1.00  0.00     0.221 C 
ATOM      6  C   UNL     1      13.037  80.326  -2.073  1.00  0.00     0.221 C 
ATOM      7  C   UNL     1      13.707  78.165  -3.878  1.00  0.00     0.113 C 
ATOM      8  C   UNL     1      14.954  78.899  -1.874  1.00  0.00     0.212 C 
ATOM      9  C   UNL     1      12.984  80.677  -3.590  1.00  0.00     0.113 C 
ATOM     10  C   UNL     1      14.545  80.308  -1.699  1.00  0.00     0.212 C 
ATOM     11  O   UNL     1      14.925  79.501  -0.604  1.00  0.00    -0.357 OA
BRANCH   3  12
ATOM     12  C   UNL     1      11.199  78.658  -2.489  1.00  0.00     0.264 C 
BRANCH  12  13
ATOM     13  C   UNL     1       9.959  79.060  -1.646  1.00  0.00     0.061 C 
BRANCH  13  14
ATOM     14  C   UNL     1       9.385  80.424  -2.063  1.00  0.00     0.002 C 
ATOM     15  C   UNL     1       7.867  80.394  -2.241  1.00  0.00     0.004 C 
ENDBRANCH  13  14
ENDBRANCH  12  13
ENDBRANCH   3  12
ENDBRANCH   1   2
BRANCH   1  16
ATOM     16  C   UNL     1      15.459  80.796  -5.795  1.00  0.00     0.316 C 
ATOM     17  O   UNL     1      14.943  81.932  -5.982  1.00  0.00    -0.251 OA
BRANCH  16  18
ATOM     18  C   UNL     1      16.533  80.307  -6.734  1.00  0.00     0.155 C 
BRANCH  18  19
ATOM     19  C   UNL     1      16.735  78.781  -6.634  1.00  0.00     0.176 C 
BRANCH  19  20
ATOM     20  O   UNL     1      17.632  78.305  -7.602  1.00  0.00    -0.395 OA
ATOM     21  H   UNL     1      17.944  79.092  -8.120  1.00  0.00     0.210 HD
ENDBRANCH  19  20
ENDBRANCH  18  19
BRANCH  18  22
ATOM     22  C   UNL     1      17.834  81.079  -6.561  1.00  0.00    -0.032 A 
ATOM     23  C   UNL     1      18.415  81.727  -7.668  1.00  0.00     0.005 A 
ATOM     24  C   UNL     1      18.450  81.209  -5.299  1.00  0.00     0.005 A 
ATOM     25  C   UNL     1      19.584  82.478  -7.516  1.00  0.00     0.000 A 
ATOM     26  C   UNL     1      19.623  81.956  -5.156  1.00  0.00     0.000 A 
ATOM     27  C   UNL     1      20.187  82.593  -6.262  1.00  0.00     0.000 A 
ENDBRANCH  18  22
ENDBRANCH  16  18
ENDBRANCH   1  16
TORSDOF 9
ENDMDL
MODEL 7
REMARK VINA RESULT:    -8.356      2.521      7.117
REMARK INTER + INTRA:         -13.392
REMARK INTER:                 -12.030
REMARK INTRA:                  -1.362
REMARK UNBOUND:                -0.884
REMARK SMILES CCCC[N+]1(C)[C@@H]2C[C@@H](OC(=O)[C@H](CO)c3ccccc3)C[C@H]1[C@@H]1O[C@@H]12
REMARK SMILES IDX 10 1 9 2 5 3 6 4 23 5 7 6 22 7 24 8 8 9 26 10 25 11 4 12
REMARK SMILES IDX 3 13 2 14 1 15 11 16 12 17 13 18 14 19 15 20 16 22 17 23
REMARK SMILES IDX 21 24 18 25 20 26 19 27
REMARK H PARENT 15 21
REMARK Flexibility Score: inf
ROOT
ATOM      1  O   UNL     1      10.665  77.555  -2.448  1.00  0.00    -0.461 OA
ENDROOT
BRANCH   1   2
ATOM      2  C   UNL     1       9.901  77.375  -1.255  1.00  0.00     0.188 C 
ATOM      3  N   UNL     1       7.480  75.628  -0.994  1.00  0.00    -0.316 N 
ATOM      4  C   UNL     1       6.369  74.646  -1.253  1.00  0.00     0.335 C 
ATOM      5  C   UNL     1       7.477  76.754  -1.974  1.00  0.00     0.221 C 
ATOM      6  C   UNL     1       8.794  75.020  -1.344  1.00  0.00     0.221 C 
ATOM      7  C   UNL     1       8.450  77.889  -1.524  1.00  0.00     0.113 C 
ATOM      8  C   UNL     1       8.061  76.207  -3.295  1.00  0.00     0.212 C 
ATOM      9  C   UNL     1       9.981  75.875  -0.806  1.00  0.00     0.113 C 
ATOM     10  C   UNL     1       8.911  75.067  -2.892  1.00  0.00     0.212 C 
ATOM     11  O   UNL     1       7.722  74.886  -3.632  1.00  0.00    -0.357 OA
BRANCH   3  12
ATOM     12  C   UNL     1       7.360  76.050   0.450  1.00  0.00     0.264 C 
BRANCH  12  13
ATOM     13  C   UNL     1       5.947  76.568   0.830  1.00  0.00     0.061 C 
BRANCH  13  14
ATOM     14  C   UNL     1       6.000  77.887   1.619  1.00  0.00     0.002 C 
ATOM     15  C   UNL     1       5.611  79.097   0.770  1.00  0.00     0.004 C 
ENDBRANCH  13  14
ENDBRANCH  12  13
ENDBRANCH   3  12
ENDBRANCH   1   2
BRANCH   1  16
ATOM     16  C   UNL     1      11.629  78.557  -2.619  1.00  0.00     0.316 C 
ATOM     17  O   UNL     1      11.278  79.749  -2.838  1.00  0.00    -0.251 OA
BRANCH  16  18
ATOM     18  C   UNL     1      13.096  78.221  -2.529  1.00  0.00     0.155 C 
BRANCH  18  19
ATOM     19  C   UNL     1      13.737  78.777  -1.240  1.00  0.00     0.176 C 
BRANCH  19  20
ATOM     20  O   UNL     1      12.868  79.635  -0.549  1.00  0.00    -0.395 OA
ATOM     21  H   UNL     1      12.161  79.910  -1.190  1.00  0.00     0.210 HD
ENDBRANCH  19  20
ENDBRANCH  18  19
BRANCH  18  22
ATOM     22  C   UNL     1      13.853  78.639  -3.782  1.00  0.00    -0.032 A 
ATOM     23  C   UNL     1      14.653  79.798  -3.762  1.00  0.00     0.005 A 
ATOM     24  C   UNL     1      13.817  77.862  -4.957  1.00  0.00     0.005 A 
ATOM     25  C   UNL     1      15.390  80.171  -4.890  1.00  0.00     0.000 A 
ATOM     26  C   UNL     1      14.551  78.243  -6.084  1.00  0.00     0.000 A 
ATOM     27  C   UNL     1      15.339  79.394  -6.049  1.00  0.00     0.000 A 
ENDBRANCH  18  22
ENDBRANCH  16  18
ENDBRANCH   1  16
TORSDOF 9
ENDMDL
MODEL 8
REMARK VINA RESULT:    -8.334      2.401      6.833
REMARK INTER + INTRA:         -13.359
REMARK INTER:                 -11.716
REMARK INTRA:                  -1.644
REMARK UNBOUND:                -0.884
REMARK SMILES CCCC[N+]1(C)[C@@H]2C[C@@H](OC(=O)[C@H](CO)c3ccccc3)C[C@H]1[C@@H]1O[C@@H]12
REMARK SMILES IDX 10 1 9 2 5 3 6 4 23 5 7 6 22 7 24 8 8 9 26 10 25 11 4 12
REMARK SMILES IDX 3 13 2 14 1 15 11 16 12 17 13 18 14 19 15 20 16 22 17 23
REMARK SMILES IDX 21 24 18 25 20 26 19 27
REMARK H PARENT 15 21
REMARK Flexibility Score: inf
ROOT
ATOM      1  O   UNL     1      11.187  77.758  -0.504  1.00  0.00    -0.461 OA
ENDROOT
BRANCH   1   2
ATOM      2  C   UNL     1      11.274  76.554  -1.268  1.00  0.00     0.188 C 
ATOM      3  N   UNL     1       8.945  74.881  -2.139  1.00  0.00    -0.316 N 
ATOM      4  C   UNL     1       7.560  74.357  -2.409  1.00  0.00     0.335 C 
ATOM      5  C   UNL     1       9.186  75.113  -0.684  1.00  0.00     0.221 C 
ATOM      6  C   UNL     1       9.065  76.286  -2.621  1.00  0.00     0.221 C 
ATOM      7  C   UNL     1      10.696  75.387  -0.404  1.00  0.00     0.113 C 
ATOM      8  C   UNL     1       8.452  76.418  -0.306  1.00  0.00     0.212 C 
ATOM      9  C   UNL     1      10.550  76.756  -2.645  1.00  0.00     0.113 C 
ATOM     10  C   UNL     1       8.358  77.182  -1.568  1.00  0.00     0.212 C 
ATOM     11  O   UNL     1       7.216  76.648  -0.933  1.00  0.00    -0.357 OA
BRANCH   3  12
ATOM     12  C   UNL     1       9.909  73.920  -2.791  1.00  0.00     0.264 C 
BRANCH  12  13
ATOM     13  C   UNL     1       9.526  72.428  -2.597  1.00  0.00     0.061 C 
BRANCH  13  14
ATOM     14  C   UNL     1      10.206  71.510  -3.625  1.00  0.00     0.002 C 
ATOM     15  C   UNL     1       9.514  71.537  -4.987  1.00  0.00     0.004 C 
ENDBRANCH  13  14
ENDBRANCH  12  13
ENDBRANCH   3  12
ENDBRANCH   1   2
BRANCH   1  16
ATOM     16  C   UNL     1      12.106  78.810  -0.592  1.00  0.00     0.316 C 
ATOM     17  O   UNL     1      13.325  78.576  -0.823  1.00  0.00    -0.251 OA
BRANCH  16  18
ATOM     18  C   UNL     1      11.646  80.237  -0.423  1.00  0.00     0.155 C 
BRANCH  18  19
ATOM     19  C   UNL     1      11.897  80.758   1.007  1.00  0.00     0.176 C 
BRANCH  19  20
ATOM     20  O   UNL     1      12.432  79.765   1.842  1.00  0.00    -0.395 OA
ATOM     21  H   UNL     1      13.395  79.974   1.960  1.00  0.00     0.210 HD
ENDBRANCH  19  20
ENDBRANCH  18  19
BRANCH  18  22
ATOM     22  C   UNL     1      10.202  80.424  -0.866  1.00  0.00    -0.032 A 
ATOM     23  C   UNL     1       9.909  80.626  -2.229  1.00  0.00     0.005 A 
ATOM     24  C   UNL     1       9.134  80.346   0.052  1.00  0.00     0.005 A 
ATOM     25  C   UNL     1       8.585  80.754  -2.658  1.00  0.00     0.000 A 
ATOM     26  C   UNL     1       7.813  80.481  -0.383  1.00  0.00     0.000 A 
ATOM     27  C   UNL     1       7.538  80.682  -1.737  1.00  0.00     0.000 A 
ENDBRANCH  18  22
ENDBRANCH  16  18
ENDBRANCH   1  16
TORSDOF 9
ENDMDL
MODEL 9
REMARK VINA RESULT:    -8.180      1.780      3.068
REMARK INTER + INTRA:         -13.128
REMARK INTER:                 -12.224
REMARK INTRA:                  -0.904
REMARK UNBOUND:                -0.884
REMARK SMILES CCCC[N+]1(C)[C@@H]2C[C@@H](OC(=O)[C@H](CO)c3ccccc3)C[C@H]1[C@@H]1O[C@@H]12
REMARK SMILES IDX 10 1 9 2 5 3 6 4 23 5 7 6 22 7 24 8 8 9 26 10 25 11 4 12
REMARK SMILES IDX 3 13 2 14 1 15 11 16 12 17 13 18 14 19 15 20 16 22 17 23
REMARK SMILES IDX 21 24 18 25 20 26 19 27
REMARK H PARENT 15 21
REMARK Flexibility Score: inf
ROOT
ATOM      1  O   UNL     1      10.796  75.830  -1.586  1.00  0.00    -0.461 OA
ENDROOT
BRANCH   1   2
ATOM      2  C   UNL     1      10.455  77.083  -2.181  1.00  0.00     0.188 C 
ATOM      3  N   UNL     1      11.834  79.690  -1.646  1.00  0.00    -0.316 N 
ATOM      4  C   UNL     1      12.781  80.753  -1.156  1.00  0.00     0.335 C 
ATOM      5  C   UNL     1      11.183  78.953  -0.522  1.00  0.00     0.221 C 
ATOM      6  C   UNL     1      12.597  78.562  -2.251  1.00  0.00     0.221 C 
ATOM      7  C   UNL     1      10.015  78.059  -1.042  1.00  0.00     0.113 C 
ATOM      8  C   UNL     1      12.233  77.973   0.045  1.00  0.00     0.212 C 
ATOM      9  C   UNL     1      11.661  77.599  -3.041  1.00  0.00     0.113 C 
ATOM     10  C   UNL     1      13.166  77.724  -1.074  1.00  0.00     0.212 C 
ATOM     11  O   UNL     1      13.562  78.429   0.084  1.00  0.00    -0.357 OA
BRANCH   3  12
ATOM     12  C   UNL     1      10.874  80.366  -2.594  1.00  0.00     0.264 C 
BRANCH  12  13
ATOM     13  C   UNL     1       9.719  81.116  -1.879  1.00  0.00     0.061 C 
BRANCH  13  14
ATOM     14  C   UNL     1       8.402  81.053  -2.669  1.00  0.00     0.002 C 
ATOM     15  C   UNL     1       7.340  80.200  -1.976  1.00  0.00     0.004 C 
ENDBRANCH  13  14
ENDBRANCH  12  13
ENDBRANCH   3  12
ENDBRANCH   1   2
BRANCH   1  16
ATOM     16  C   UNL     1       9.863  74.842  -1.248  1.00  0.00     0.316 C 
ATOM     17  O   UNL     1       9.923  74.264  -0.128  1.00  0.00    -0.251 OA
BRANCH  16  18
ATOM     18  C   UNL     1       8.768  74.469  -2.216  1.00  0.00     0.155 C 
BRANCH  18  19
ATOM     19  C   UNL     1       7.409  74.293  -1.509  1.00  0.00     0.176 C 
BRANCH  19  20
ATOM     20  O   UNL     1       7.341  75.021  -0.311  1.00  0.00    -0.395 OA
ATOM     21  H   UNL     1       6.388  75.038  -0.036  1.00  0.00     0.210 HD
ENDBRANCH  19  20
ENDBRANCH  18  19
BRANCH  18  22
ATOM     22  C   UNL     1       9.145  73.261  -3.062  1.00  0.00    -0.032 A 
ATOM     23  C   UNL     1       9.630  72.095  -2.439  1.00  0.00     0.005 A 
ATOM     24  C   UNL     1       8.970  73.258  -4.461  1.00  0.00     0.005 A 
ATOM     25  C   UNL     1       9.937  70.961  -3.197  1.00  0.00     0.000 A 
ATOM     26  C   UNL     1       9.286  72.124  -5.214  1.00  0.00     0.000 A 
ATOM     27  C   UNL     1       9.766  70.975  -4.582  1.00  0.00     0.000 A 
ENDBRANCH  18  22
ENDBRANCH  16  18
ENDBRANCH   1  16
TORSDOF 9
ENDMDL
MODEL 10
REMARK VINA RESULT:    -8.165      2.515      3.814
REMARK INTER + INTRA:         -13.107
REMARK INTER:                 -12.041
REMARK INTRA:                  -1.066
REMARK UNBOUND:                -0.884
REMARK SMILES CCCC[N+]1(C)[C@@H]2C[C@@H](OC(=O)[C@H](CO)c3ccccc3)C[C@H]1[C@@H]1O[C@@H]12
REMARK SMILES IDX 10 1 9 2 5 3 6 4 23 5 7 6 22 7 24 8 8 9 26 10 25 11 4 12
REMARK SMILES IDX 3 13 2 14 1 15 11 16 12 17 13 18 14 19 15 20 16 22 17 23
REMARK SMILES IDX 21 24 18 25 20 26 19 27
REMARK H PARENT 15 21
REMARK Flexibility Score: inf
ROOT
ATOM      1  O   UNL     1       9.689  79.265  -1.179  1.00  0.00    -0.461 OA
ENDROOT
BRANCH   1   2
ATOM      2  C   UNL     1      10.719  79.839  -1.986  1.00  0.00     0.188 C 
ATOM      3  N   UNL     1      13.663  79.524  -1.523  1.00  0.00    -0.316 N 
ATOM      4  C   UNL     1      15.008  79.105  -0.993  1.00  0.00     0.335 C 
ATOM      5  C   UNL     1      12.811  80.149  -0.468  1.00  0.00     0.221 C 
ATOM      6  C   UNL     1      12.829  78.323  -1.813  1.00  0.00     0.221 C 
ATOM      7  C   UNL     1      11.548  80.818  -1.094  1.00  0.00     0.113 C 
ATOM      8  C   UNL     1      12.276  79.004   0.419  1.00  0.00     0.212 C 
ATOM      9  C   UNL     1      11.565  78.694  -2.644  1.00  0.00     0.113 C 
ATOM     10  C   UNL     1      12.298  77.807  -0.448  1.00  0.00     0.212 C 
ATOM     11  O   UNL     1      13.156  77.937   0.666  1.00  0.00    -0.357 OA
BRANCH   3  12
ATOM     12  C   UNL     1      13.922  80.400  -2.724  1.00  0.00     0.264 C 
BRANCH  12  13
ATOM     13  C   UNL     1      15.035  79.858  -3.660  1.00  0.00     0.061 C 
BRANCH  13  14
ATOM     14  C   UNL     1      14.718  80.094  -5.146  1.00  0.00     0.002 C 
ATOM     15  C   UNL     1      15.963  80.037  -6.030  1.00  0.00     0.004 C 
ENDBRANCH  13  14
ENDBRANCH  12  13
ENDBRANCH   3  12
ENDBRANCH   1   2
BRANCH   1  16
ATOM     16  C   UNL     1       8.612  78.530  -1.687  1.00  0.00     0.316 C 
ATOM     17  O   UNL     1       7.639  79.119  -2.235  1.00  0.00    -0.251 OA
BRANCH  16  18
ATOM     18  C   UNL     1       8.610  77.025  -1.596  1.00  0.00     0.155 C 
BRANCH  18  19
ATOM     19  C   UNL     1       8.606  76.363  -2.989  1.00  0.00     0.176 C 
BRANCH  19  20
ATOM     20  O   UNL     1       7.492  76.746  -3.751  1.00  0.00    -0.395 OA
ATOM     21  H   UNL     1       6.896  77.266  -3.151  1.00  0.00     0.210 HD
ENDBRANCH  19  20
ENDBRANCH  18  19
BRANCH  18  22
ATOM     22  C   UNL     1       7.488  76.511  -0.704  1.00  0.00    -0.032 A 
ATOM     23  C   UNL     1       6.969  77.336   0.313  1.00  0.00     0.005 A 
ATOM     24  C   UNL     1       6.911  75.240  -0.904  1.00  0.00     0.005 A 
ATOM     25  C   UNL     1       5.908  76.897   1.110  1.00  0.00     0.000 A 
ATOM     26  C   UNL     1       5.855  74.804  -0.099  1.00  0.00     0.000 A 
ATOM     27  C   UNL     1       5.352  75.633   0.905  1.00  0.00     0.000 A 
ENDBRANCH  18  22
ENDBRANCH  16  18
ENDBRANCH   1  16
TORSDOF 9
ENDMDL
MODEL 11
REMARK VINA RESULT:    -8.162      1.845      3.051
REMARK INTER + INTRA:         -13.101
REMARK INTER:                 -11.354
REMARK INTRA:                  -1.746
REMARK UNBOUND:                -0.884
REMARK SMILES CCCC[N+]1(C)[C@@H]2C[C@@H](OC(=O)[C@H](CO)c3ccccc3)C[C@H]1[C@@H]1O[C@@H]12
REMARK SMILES IDX 10 1 9 2 5 3 6 4 23 5 7 6 22 7 24 8 8 9 26 10 25 11 4 12
REMARK SMILES IDX 3 13 2 14 1 15 11 16 12 17 13 18 14 19 15 20 16 22 17 23
REMARK SMILES IDX 21 24 18 25 20 26 19 27
REMARK H PARENT 15 21
REMARK Flexibility Score: inf
ROOT
ATOM      1  O   UNL     1       9.444  78.732  -1.171  1.00  0.00    -0.461 OA
ENDROOT
BRANCH   1   2
ATOM      2  C   UNL     1      10.294  79.173  -2.231  1.00  0.00     0.188 C 
ATOM      3  N   UNL     1      13.265  79.519  -2.042  1.00  0.00    -0.316 N 
ATOM      4  C   UNL     1      14.694  79.525  -1.570  1.00  0.00     0.335 C 
ATOM      5  C   UNL     1      12.370  80.304  -1.140  1.00  0.00     0.221 C 
ATOM      6  C   UNL     1      12.666  78.169  -1.846  1.00  0.00     0.221 C 
ATOM      7  C   UNL     1      10.967  80.513  -1.790  1.00  0.00     0.113 C 
ATOM      8  C   UNL     1      12.120  79.439   0.114  1.00  0.00     0.212 C 
ATOM      9  C   UNL     1      11.307  78.034  -2.597  1.00  0.00     0.113 C 
ATOM     10  C   UNL     1      12.325  78.046  -0.336  1.00  0.00     0.212 C 
ATOM     11  O   UNL     1      13.204  78.672   0.574  1.00  0.00    -0.357 OA
BRANCH   3  12
ATOM     12  C   UNL     1      13.279  79.987  -3.477  1.00  0.00     0.264 C 
BRANCH  12  13
ATOM     13  C   UNL     1      14.700  80.047  -4.097  1.00  0.00     0.061 C 
BRANCH  13  14
ATOM     14  C   UNL     1      14.713  79.618  -5.574  1.00  0.00     0.002 C 
ATOM     15  C   UNL     1      14.191  78.196  -5.779  1.00  0.00     0.004 C 
ENDBRANCH  13  14
ENDBRANCH  12  13
ENDBRANCH   3  12
ENDBRANCH   1   2
BRANCH   1  16
ATOM     16  C   UNL     1       8.066  78.525  -1.305  1.00  0.00     0.316 C 
ATOM     17  O   UNL     1       7.314  79.464  -1.688  1.00  0.00    -0.251 OA
BRANCH  16  18
ATOM     18  C   UNL     1       7.468  77.174  -1.006  1.00  0.00     0.155 C 
BRANCH  18  19
ATOM     19  C   UNL     1       6.967  77.075   0.450  1.00  0.00     0.176 C 
BRANCH  19  20
ATOM     20  O   UNL     1       6.736  78.339   1.013  1.00  0.00    -0.395 OA
ATOM     21  H   UNL     1       6.417  78.188   1.941  1.00  0.00     0.210 HD
ENDBRANCH  19  20
ENDBRANCH  18  19
BRANCH  18  22
ATOM     22  C   UNL     1       8.415  76.040  -1.374  1.00  0.00    -0.032 A 
ATOM     23  C   UNL     1       9.287  75.513  -0.401  1.00  0.00     0.005 A 
ATOM     24  C   UNL     1       8.406  75.460  -2.659  1.00  0.00     0.005 A 
ATOM     25  C   UNL     1      10.130  74.442  -0.709  1.00  0.00     0.000 A 
ATOM     26  C   UNL     1       9.256  74.393  -2.963  1.00  0.00     0.000 A 
ATOM     27  C   UNL     1      10.115  73.883  -1.988  1.00  0.00     0.000 A 
ENDBRANCH  18  22
ENDBRANCH  16  18
ENDBRANCH   1  16
TORSDOF 9
ENDMDL
MODEL 12
REMARK VINA RESULT:    -8.137      2.766      7.236
REMARK INTER + INTRA:         -13.064
REMARK INTER:                 -11.679
REMARK INTRA:                  -1.385
REMARK UNBOUND:                -0.884
REMARK SMILES CCCC[N+]1(C)[C@@H]2C[C@@H](OC(=O)[C@H](CO)c3ccccc3)C[C@H]1[C@@H]1O[C@@H]12
REMARK SMILES IDX 10 1 9 2 5 3 6 4 23 5 7 6 22 7 24 8 8 9 26 10 25 11 4 12
REMARK SMILES IDX 3 13 2 14 1 15 11 16 12 17 13 18 14 19 15 20 16 22 17 23
REMARK SMILES IDX 21 24 18 25 20 26 19 27
REMARK H PARENT 15 21
REMARK Flexibility Score: inf
ROOT
ATOM      1  O   UNL     1      10.701  77.480  -2.703  1.00  0.00    -0.461 OA
ENDROOT
BRANCH   1   2
ATOM      2  C   UNL     1       9.961  77.418  -1.483  1.00  0.00     0.188 C 
ATOM      3  N   UNL     1       7.546  75.708  -1.004  1.00  0.00    -0.316 N 
ATOM      4  C   UNL     1       6.431  74.707  -1.144  1.00  0.00     0.335 C 
ATOM      5  C   UNL     1       7.523  76.733  -2.089  1.00  0.00     0.221 C 
ATOM      6  C   UNL     1       8.854  75.067  -1.319  1.00  0.00     0.221 C 
ATOM      7  C   UNL     1       8.504  77.904  -1.772  1.00  0.00     0.113 C 
ATOM      8  C   UNL     1       8.082  76.059  -3.361  1.00  0.00     0.212 C 
ATOM      9  C   UNL     1      10.050  75.969  -0.891  1.00  0.00     0.113 C 
ATOM     10  C   UNL     1       8.940  74.962  -2.866  1.00  0.00     0.212 C 
ATOM     11  O   UNL     1       7.737  74.711  -3.561  1.00  0.00    -0.357 OA
BRANCH   3  12
ATOM     12  C   UNL     1       7.455  76.269   0.394  1.00  0.00     0.264 C 
BRANCH  12  13
ATOM     13  C   UNL     1       6.003  76.582   0.844  1.00  0.00     0.061 C 
BRANCH  13  14
ATOM     14  C   UNL     1       5.908  77.888   1.650  1.00  0.00     0.002 C 
ATOM     15  C   UNL     1       5.673  79.111   0.764  1.00  0.00     0.004 C 
ENDBRANCH  13  14
ENDBRANCH  12  13
ENDBRANCH   3  12
ENDBRANCH   1   2
BRANCH   1  16
ATOM     16  C   UNL     1      11.902  78.182  -2.857  1.00  0.00     0.316 C 
ATOM     17  O   UNL     1      12.975  77.565  -3.104  1.00  0.00    -0.251 OA
BRANCH  16  18
ATOM     18  C   UNL     1      11.923  79.686  -2.742  1.00  0.00     0.155 C 
BRANCH  18  19
ATOM     19  C   UNL     1      13.150  80.301  -3.446  1.00  0.00     0.176 C 
BRANCH  19  20
ATOM     20  O   UNL     1      12.977  80.375  -4.836  1.00  0.00    -0.395 OA
ATOM     21  H   UNL     1      13.148  79.467  -5.199  1.00  0.00     0.210 HD
ENDBRANCH  19  20
ENDBRANCH  18  19
BRANCH  18  22
ATOM     22  C   UNL     1      11.788  80.147  -1.298  1.00  0.00    -0.032 A 
ATOM     23  C   UNL     1      10.679  80.925  -0.913  1.00  0.00     0.005 A 
ATOM     24  C   UNL     1      12.724  79.768  -0.313  1.00  0.00     0.005 A 
ATOM     25  C   UNL     1      10.517  81.319   0.419  1.00  0.00     0.000 A 
ATOM     26  C   UNL     1      12.559  80.170   1.015  1.00  0.00     0.000 A 
ATOM     27  C   UNL     1      11.455  80.941   1.381  1.00  0.00     0.000 A 
ENDBRANCH  18  22
ENDBRANCH  16  18
ENDBRANCH   1  16
TORSDOF 9
ENDMDL
MODEL 13
REMARK VINA RESULT:    -8.105      2.390      7.180
REMARK INTER + INTRA:         -13.015
REMARK INTER:                 -11.638
REMARK INTRA:                  -1.377
REMARK UNBOUND:                -0.884
REMARK SMILES CCCC[N+]1(C)[C@@H]2C[C@@H](OC(=O)[C@H](CO)c3ccccc3)C[C@H]1[C@@H]1O[C@@H]12
REMARK SMILES IDX 10 1 9 2 5 3 6 4 23 5 7 6 22 7 24 8 8 9 26 10 25 11 4 12
REMARK SMILES IDX 3 13 2 14 1 15 11 16 12 17 13 18 14 19 15 20 16 22 17 23
REMARK SMILES IDX 21 24 18 25 20 26 19 27
REMARK H PARENT 15 21
REMARK Flexibility Score: inf
ROOT
ATOM      1  O   UNL     1      11.396  78.690  -2.363  1.00  0.00    -0.461 OA
ENDROOT
BRANCH   1   2
ATOM      2  C   UNL     1      11.367  77.273  -2.185  1.00  0.00     0.188 C 
ATOM      3  N   UNL     1       8.973  75.680  -1.337  1.00  0.00    -0.316 N 
ATOM      4  C   UNL     1       7.584  75.252  -0.947  1.00  0.00     0.335 C 
ATOM      5  C   UNL     1       9.506  76.749  -0.441  1.00  0.00     0.221 C 
ATOM      6  C   UNL     1       8.934  76.447  -2.614  1.00  0.00     0.221 C 
ATOM      7  C   UNL     1      11.030  76.977  -0.688  1.00  0.00     0.113 C 
ATOM      8  C   UNL     1       8.819  78.069  -0.851  1.00  0.00     0.212 C 
ATOM      9  C   UNL     1      10.362  76.639  -3.209  1.00  0.00     0.113 C 
ATOM     10  C   UNL     1       8.431  77.874  -2.263  1.00  0.00     0.212 C 
ATOM     11  O   UNL     1       7.470  77.982  -1.235  1.00  0.00    -0.357 OA
BRANCH   3  12
ATOM     12  C   UNL     1       9.815  74.429  -1.394  1.00  0.00     0.264 C 
BRANCH  12  13
ATOM     13  C   UNL     1       9.288  73.372  -2.401  1.00  0.00     0.061 C 
BRANCH  13  14
ATOM     14  C   UNL     1       9.931  71.991  -2.189  1.00  0.00     0.002 C 
ATOM     15  C   UNL     1       9.870  71.116  -3.441  1.00  0.00     0.004 C 
ENDBRANCH  13  14
ENDBRANCH  12  13
ENDBRANCH   3  12
ENDBRANCH   1   2
BRANCH   1  16
ATOM     16  C   UNL     1      12.516  79.402  -2.808  1.00  0.00     0.316 C 
ATOM     17  O   UNL     1      12.779  79.471  -4.041  1.00  0.00    -0.251 OA
BRANCH  16  18
ATOM     18  C   UNL     1      13.412  80.104  -1.819  1.00  0.00     0.155 C 
BRANCH  18  19
ATOM     19  C   UNL     1      14.705  79.308  -1.547  1.00  0.00     0.176 C 
BRANCH  19  20
ATOM     20  O   UNL     1      15.489  79.167  -2.702  1.00  0.00    -0.395 OA
ATOM     21  H   UNL     1      15.185  79.860  -3.345  1.00  0.00     0.210 HD
ENDBRANCH  19  20
ENDBRANCH  18  19
BRANCH  18  22
ATOM     22  C   UNL     1      12.672  80.467  -0.540  1.00  0.00    -0.032 A 
ATOM     23  C   UNL     1      13.100  79.933   0.692  1.00  0.00     0.005 A 
ATOM     24  C   UNL     1      11.592  81.373  -0.546  1.00  0.00     0.005 A 
ATOM     25  C   UNL     1      12.460  80.292   1.881  1.00  0.00     0.000 A 
ATOM     26  C   UNL     1      10.952  81.723   0.647  1.00  0.00     0.000 A 
ATOM     27  C   UNL     1      11.388  81.186   1.859  1.00  0.00     0.000 A 
ENDBRANCH  18  22
ENDBRANCH  16  18
ENDBRANCH   1  16
TORSDOF 9
ENDMDL
MODEL 14
REMARK VINA RESULT:    -8.066      2.429      6.745
REMARK INTER + INTRA:         -12.958
REMARK INTER:                 -12.187
REMARK INTRA:                  -0.772
REMARK UNBOUND:                -0.884
REMARK SMILES CCCC[N+]1(C)[C@@H]2C[C@@H](OC(=O)[C@H](CO)c3ccccc3)C[C@H]1[C@@H]1O[C@@H]12
REMARK SMILES IDX 10 1 9 2 5 3 6 4 23 5 7 6 22 7 24 8 8 9 26 10 25 11 4 12
REMARK SMILES IDX 3 13 2 14 1 15 11 16 12 17 13 18 14 19 15 20 16 22 17 23
REMARK SMILES IDX 21 24 18 25 20 26 19 27
REMARK H PARENT 15 21
REMARK Flexibility Score: inf
ROOT
ATOM      1  O   UNL     1       7.429  77.693  -2.324  1.00  0.00    -0.461 OA
ENDROOT
BRANCH   1   2
ATOM      2  C   UNL     1       8.176  76.827  -3.180  1.00  0.00     0.188 C 
ATOM      3  N   UNL     1       9.633  74.359  -2.303  1.00  0.00    -0.316 N 
ATOM      4  C   UNL     1      10.181  73.210  -1.499  1.00  0.00     0.335 C 
ATOM      5  C   UNL     1      10.002  75.683  -1.719  1.00  0.00     0.221 C 
ATOM      6  C   UNL     1       8.154  74.439  -2.141  1.00  0.00     0.221 C 
ATOM      7  C   UNL     1       9.666  76.843  -2.707  1.00  0.00     0.113 C 
ATOM      8  C   UNL     1       9.092  75.907  -0.492  1.00  0.00     0.212 C 
ATOM      9  C   UNL     1       7.517  75.404  -3.186  1.00  0.00     0.113 C 
ATOM     10  C   UNL     1       7.890  75.087  -0.755  1.00  0.00     0.212 C 
ATOM     11  O   UNL     1       8.793  74.774   0.284  1.00  0.00    -0.357 OA
BRANCH   3  12
ATOM     12  C   UNL     1      10.088  74.151  -3.727  1.00  0.00     0.264 C 
BRANCH  12  13
ATOM     13  C   UNL     1      10.965  72.884  -3.919  1.00  0.00     0.061 C 
BRANCH  13  14
ATOM     14  C   UNL     1      10.714  72.198  -5.272  1.00  0.00     0.002 C 
ATOM     15  C   UNL     1       9.479  71.297  -5.255  1.00  0.00     0.004 C 
ENDBRANCH  13  14
ENDBRANCH  12  13
ENDBRANCH   3  12
ENDBRANCH   1   2
BRANCH   1  16
ATOM     16  C   UNL     1       7.874  78.952  -1.900  1.00  0.00     0.316 C 
ATOM     17  O   UNL     1       7.853  79.936  -2.690  1.00  0.00    -0.251 OA
BRANCH  16  18
ATOM     18  C   UNL     1       8.370  79.146  -0.489  1.00  0.00     0.155 C 
BRANCH  18  19
ATOM     19  C   UNL     1       7.274  79.714   0.435  1.00  0.00     0.176 C 
BRANCH  19  20
ATOM     20  O   UNL     1       6.566  78.700   1.097  1.00  0.00    -0.395 OA
ATOM     21  H   UNL     1       6.888  77.836   0.730  1.00  0.00     0.210 HD
ENDBRANCH  19  20
ENDBRANCH  18  19
BRANCH  18  22
ATOM     22  C   UNL     1       9.651  79.967  -0.446  1.00  0.00    -0.032 A 
ATOM     23  C   UNL     1       9.778  81.017   0.484  1.00  0.00     0.005 A 
ATOM     24  C   UNL     1      10.746  79.669  -1.283  1.00  0.00     0.005 A 
ATOM     25  C   UNL     1      10.965  81.751   0.568  1.00  0.00     0.000 A 
ATOM     26  C   UNL     1      11.928  80.410  -1.199  1.00  0.00     0.000 A 
ATOM     27  C   UNL     1      12.038  81.448  -0.272  1.00  0.00     0.000 A 
ENDBRANCH  18  22
ENDBRANCH  16  18
ENDBRANCH   1  16
TORSDOF 9
ENDMDL
MODEL 15
REMARK VINA RESULT:    -7.946      2.508      7.225
REMARK INTER + INTRA:         -12.778
REMARK INTER:                 -11.979
REMARK INTRA:                  -0.799
REMARK UNBOUND:                -0.884
REMARK SMILES CCCC[N+]1(C)[C@@H]2C[C@@H](OC(=O)[C@H](CO)c3ccccc3)C[C@H]1[C@@H]1O[C@@H]12
REMARK SMILES IDX 10 1 9 2 5 3 6 4 23 5 7 6 22 7 24 8 8 9 26 10 25 11 4 12
REMARK SMILES IDX 3 13 2 14 1 15 11 16 12 17 13 18 14 19 15 20 16 22 17 23
REMARK SMILES IDX 21 24 18 25 20 26 19 27
REMARK H PARENT 15 21
REMARK Flexibility Score: inf
ROOT
ATOM      1  O   UNL     1      11.350  76.990  -0.410  1.00  0.00    -0.461 OA
ENDROOT
BRANCH   1   2
ATOM      2  C   UNL     1      11.118  76.017  -1.430  1.00  0.00     0.188 C 
ATOM      3  N   UNL     1       8.425  75.050  -2.323  1.00  0.00    -0.316 N 
ATOM      4  C   UNL     1       6.943  74.863  -2.509  1.00  0.00     0.335 C 
ATOM      5  C   UNL     1       8.842  74.869  -0.901  1.00  0.00     0.221 C 
ATOM      6  C   UNL     1       8.785  76.487  -2.488  1.00  0.00     0.221 C 
ATOM      7  C   UNL     1      10.395  74.794  -0.779  1.00  0.00     0.113 C 
ATOM      8  C   UNL     1       8.429  76.149  -0.141  1.00  0.00     0.212 C 
ATOM      9  C   UNL     1      10.327  76.678  -2.612  1.00  0.00     0.113 C 
ATOM     10  C   UNL     1       8.377  77.205  -1.173  1.00  0.00     0.212 C 
ATOM     11  O   UNL     1       7.213  76.741  -0.522  1.00  0.00    -0.357 OA
BRANCH   3  12
ATOM     12  C   UNL     1       9.107  74.126  -3.301  1.00  0.00     0.264 C 
BRANCH  12  13
ATOM     13  C   UNL     1       9.117  72.641  -2.849  1.00  0.00     0.061 C 
BRANCH  13  14
ATOM     14  C   UNL     1       9.739  71.712  -3.905  1.00  0.00     0.002 C 
ATOM     15  C   UNL     1       9.335  72.087  -5.330  1.00  0.00     0.004 C 
ENDBRANCH  13  14
ENDBRANCH  12  13
ENDBRANCH   3  12
ENDBRANCH   1   2
BRANCH   1  16
ATOM     16  C   UNL     1      12.598  77.228   0.177  1.00  0.00     0.316 C 
ATOM     17  O   UNL     1      13.117  76.370   0.944  1.00  0.00    -0.251 OA
BRANCH  16  18
ATOM     18  C   UNL     1      13.342  78.508  -0.111  1.00  0.00     0.155 C 
BRANCH  18  19
ATOM     19  C   UNL     1      14.742  78.520   0.539  1.00  0.00     0.176 C 
BRANCH  19  20
ATOM     20  O   UNL     1      15.743  78.875  -0.377  1.00  0.00    -0.395 OA
ATOM     21  H   UNL     1      15.286  79.219  -1.188  1.00  0.00     0.210 HD
ENDBRANCH  19  20
ENDBRANCH  18  19
BRANCH  18  22
ATOM     22  C   UNL     1      12.521  79.737   0.252  1.00  0.00    -0.032 A 
ATOM     23  C   UNL     1      11.773  80.397  -0.742  1.00  0.00     0.005 A 
ATOM     24  C   UNL     1      12.445  80.205   1.580  1.00  0.00     0.005 A 
ATOM     25  C   UNL     1      10.978  81.500  -0.416  1.00  0.00     0.000 A 
ATOM     26  C   UNL     1      11.653  81.312   1.898  1.00  0.00     0.000 A 
ATOM     27  C   UNL     1      10.918  81.956   0.902  1.00  0.00     0.000 A 
ENDBRANCH  18  22
ENDBRANCH  16  18
ENDBRANCH   1  16
TORSDOF 9
ENDMDL
