MODEL 1
REMARK VINA RESULT:    -9.436      0.000      0.000
REMARK INTER + INTRA:         -13.024
REMARK INTER:                 -12.746
REMARK INTRA:                  -0.277
REMARK UNBOUND:                -0.277
REMARK SMILES COc1cc2nccc(Oc3ccc(NC(=O)NC4CC4)c(Cl)c3)c2cc1C(N)=O
REMARK SMILES IDX 11 1 12 2 13 3 14 4 22 5 23 6 24 7 10 8 9 9 3 10 27 11 4 12
REMARK SMILES IDX 26 13 5 14 25 15 6 16 7 17 8 18 2 19 1 20 28 21 29 22 30 23
REMARK SMILES IDX 15 26 16 27 17 29 18 30 19 32 20 33 21 34
REMARK H PARENT 29 24 29 25 15 28 18 31
REMARK Flexibility Score: inf
ROOT
ATOM      1  C   UNL     1      26.687   8.776   9.631  1.00  0.00     0.129 A 
ATOM      2  C   UNL     1      27.257   8.240  10.788  1.00  0.00     0.049 A 
ATOM      3  C   UNL     1      28.640   8.272  10.976  1.00  0.00     0.031 A 
ATOM      4  C   UNL     1      29.478   8.868  10.017  1.00  0.00     0.061 A 
ATOM      5  C   UNL     1      28.904   9.412   8.850  1.00  0.00     0.068 A 
ATOM      6  Cl  UNL     1      29.894  10.191   7.623  1.00  0.00    -0.082 Cl
ATOM      7  C   UNL     1      27.518   9.376   8.668  1.00  0.00     0.069 A 
ENDROOT
BRANCH   1   8
ATOM      8  O   UNL     1      25.292   8.740   9.487  1.00  0.00    -0.457 OA
BRANCH   8   9
ATOM      9  C   UNL     1      24.373   9.430  10.294  1.00  0.00     0.138 A 
ATOM     10  C   UNL     1      25.120  13.417  11.502  1.00  0.00     0.133 A 
ATOM     11  C   UNL     1      26.063  12.741  10.694  1.00  0.00     0.082 A 
ATOM     12  C   UNL     1      23.959  12.739  11.921  1.00  0.00     0.076 A 
ATOM     13  C   UNL     1      25.811  11.420  10.285  1.00  0.00     0.032 A 
ATOM     14  C   UNL     1      23.721  11.421  11.525  1.00  0.00     0.078 A 
ATOM     15  C   UNL     1      24.646  10.752  10.697  1.00  0.00     0.044 A 
ATOM     16  N   UNL     1      22.590  10.786  11.934  1.00  0.00    -0.256 NA
ATOM     17  C   UNL     1      22.314   9.507  11.569  1.00  0.00     0.115 A 
ATOM     18  C   UNL     1      23.200   8.806  10.751  1.00  0.00     0.068 A 
BRANCH  10  19
ATOM     19  O   UNL     1      25.348  14.760  11.844  1.00  0.00    -0.496 OA
ATOM     20  C   UNL     1      24.402  15.811  11.679  1.00  0.00     0.278 C 
ENDBRANCH  10  19
BRANCH  11  21
ATOM     21  C   UNL     1      27.305  13.407  10.239  1.00  0.00     0.252 C 
ATOM     22  N   UNL     1      27.356  14.820  10.030  1.00  0.00    -0.365 N 
ATOM     23  O   UNL     1      28.349  12.724  10.060  1.00  0.00    -0.269 OA
ATOM     24  H   UNL     1      28.219  15.262   9.643  1.00  0.00     0.159 HD
ATOM     25  H   UNL     1      26.574  15.440  10.338  1.00  0.00     0.159 HD
ENDBRANCH  11  21
ENDBRANCH   8   9
ENDBRANCH   1   8
BRANCH   4  26
ATOM     26  N   UNL     1      30.905   8.877  10.196  1.00  0.00    -0.307 N 
ATOM     27  C   UNL     1      31.652  10.037  10.589  1.00  0.00     0.319 C 
ATOM     28  H   UNL     1      31.442   8.009   9.973  1.00  0.00     0.171 HD
ATOM     29  O   UNL     1      31.099  11.171  10.622  1.00  0.00    -0.248 OA
ATOM     30  N   UNL     1      33.042   9.912  10.913  1.00  0.00    -0.335 N 
ATOM     31  H   UNL     1      33.505   8.981  10.809  1.00  0.00     0.165 HD
BRANCH  30  32
ATOM     32  C   UNL     1      33.857  11.075  11.249  1.00  0.00     0.084 C 
ATOM     33  C   UNL     1      34.377  11.834  10.040  1.00  0.00     0.027 C 
ATOM     34  C   UNL     1      35.312  10.931  10.830  1.00  0.00     0.027 C 
ENDBRANCH  30  32
ENDBRANCH   4  26
TORSDOF 6
ENDMDL
MODEL 2
REMARK VINA RESULT:    -9.282      7.560     12.184
REMARK INTER + INTRA:         -12.815
REMARK INTER:                 -11.611
REMARK INTRA:                  -1.204
REMARK UNBOUND:                -0.277
REMARK SMILES COc1cc2nccc(Oc3ccc(NC(=O)NC4CC4)c(Cl)c3)c2cc1C(N)=O
REMARK SMILES IDX 11 1 12 2 13 3 14 4 22 5 23 6 24 7 10 8 9 9 3 10 27 11 4 12
REMARK SMILES IDX 26 13 5 14 25 15 6 16 7 17 8 18 2 19 1 20 28 21 29 22 30 23
REMARK SMILES IDX 15 26 16 27 17 29 18 30 19 32 20 33 21 34
REMARK H PARENT 29 24 29 25 15 28 18 31
REMARK Flexibility Score: inf
ROOT
ATOM      1  C   UNL     1      34.497   6.636   7.670  1.00  0.00     0.129 A 
ATOM      2  C   UNL     1      33.556   5.608   7.755  1.00  0.00     0.049 A 
ATOM      3  C   UNL     1      32.396   5.770   8.517  1.00  0.00     0.031 A 
ATOM      4  C   UNL     1      32.147   6.980   9.189  1.00  0.00     0.061 A 
ATOM      5  C   UNL     1      33.095   8.020   9.101  1.00  0.00     0.068 A 
ATOM      6  Cl  UNL     1      32.833   9.565   9.900  1.00  0.00    -0.082 Cl
ATOM      7  C   UNL     1      34.254   7.849   8.337  1.00  0.00     0.069 A 
ENDROOT
BRANCH   1   8
ATOM      8  O   UNL     1      35.640   6.441   6.880  1.00  0.00    -0.457 OA
BRANCH   8   9
ATOM      9  C   UNL     1      35.776   6.828   5.538  1.00  0.00     0.138 A 
ATOM     10  C   UNL     1      35.730   3.946   2.439  1.00  0.00     0.133 A 
ATOM     11  C   UNL     1      35.597   3.531   3.783  1.00  0.00     0.082 A 
ATOM     12  C   UNL     1      35.909   5.313   2.153  1.00  0.00     0.076 A 
ATOM     13  C   UNL     1      35.603   4.489   4.812  1.00  0.00     0.032 A 
ATOM     14  C   UNL     1      35.930   6.259   3.180  1.00  0.00     0.078 A 
ATOM     15  C   UNL     1      35.772   5.852   4.522  1.00  0.00     0.044 A 
ATOM     16  N   UNL     1      36.098   7.576   2.882  1.00  0.00    -0.256 NA
ATOM     17  C   UNL     1      36.120   8.531   3.848  1.00  0.00     0.115 A 
ATOM     18  C   UNL     1      35.965   8.176   5.188  1.00  0.00     0.068 A 
BRANCH  10  19
ATOM     19  O   UNL     1      35.648   2.987   1.414  1.00  0.00    -0.496 OA
ATOM     20  C   UNL     1      36.731   2.606   0.573  1.00  0.00     0.278 C 
ENDBRANCH  10  19
BRANCH  11  21
ATOM     21  C   UNL     1      35.419   2.103   4.136  1.00  0.00     0.252 C 
ATOM     22  N   UNL     1      34.704   1.211   3.277  1.00  0.00    -0.365 N 
ATOM     23  O   UNL     1      35.932   1.654   5.195  1.00  0.00    -0.269 OA
ATOM     24  H   UNL     1      34.529   0.226   3.575  1.00  0.00     0.159 HD
ATOM     25  H   UNL     1      34.423   1.498   2.313  1.00  0.00     0.159 HD
ENDBRANCH  11  21
ENDBRANCH   8   9
ENDBRANCH   1   8
BRANCH   4  26
ATOM     26  N   UNL     1      30.968   7.139   9.997  1.00  0.00    -0.307 N 
ATOM     27  C   UNL     1      29.766   7.772   9.536  1.00  0.00     0.319 C 
ATOM     28  H   UNL     1      31.001   6.830  10.994  1.00  0.00     0.171 HD
ATOM     29  O   UNL     1      29.751   8.391   8.437  1.00  0.00    -0.248 OA
ATOM     30  N   UNL     1      28.585   7.730  10.347  1.00  0.00    -0.335 N 
ATOM     31  H   UNL     1      28.631   7.280  11.289  1.00  0.00     0.165 HD
BRANCH  30  32
ATOM     32  C   UNL     1      27.361   8.420   9.953  1.00  0.00     0.084 C 
ATOM     33  C   UNL     1      26.112   7.908  10.650  1.00  0.00     0.027 C 
ATOM     34  C   UNL     1      26.384   7.530   9.202  1.00  0.00     0.027 C 
ENDBRANCH  30  32
ENDBRANCH   4  26
TORSDOF 6
ENDMDL
MODEL 3
REMARK VINA RESULT:    -9.131      3.520      5.323
REMARK INTER + INTRA:         -12.611
REMARK INTER:                 -11.496
REMARK INTRA:                  -1.115
REMARK UNBOUND:                -0.277
REMARK SMILES COc1cc2nccc(Oc3ccc(NC(=O)NC4CC4)c(Cl)c3)c2cc1C(N)=O
REMARK SMILES IDX 11 1 12 2 13 3 14 4 22 5 23 6 24 7 10 8 9 9 3 10 27 11 4 12
REMARK SMILES IDX 26 13 5 14 25 15 6 16 7 17 8 18 2 19 1 20 28 21 29 22 30 23
REMARK SMILES IDX 15 26 16 27 17 29 18 30 19 32 20 33 21 34
REMARK H PARENT 29 24 29 25 15 28 18 31
REMARK Flexibility Score: inf
ROOT
ATOM      1  C   UNL     1      30.255  12.067   9.587  1.00  0.00     0.129 A 
ATOM      2  C   UNL     1      30.435  10.812   9.001  1.00  0.00     0.049 A 
ATOM      3  C   UNL     1      31.246  10.667   7.872  1.00  0.00     0.031 A 
ATOM      4  C   UNL     1      31.913  11.777   7.325  1.00  0.00     0.061 A 
ATOM      5  C   UNL     1      31.735  13.043   7.918  1.00  0.00     0.068 A 
ATOM      6  Cl  UNL     1      32.558  14.467   7.296  1.00  0.00    -0.082 Cl
ATOM      7  C   UNL     1      30.921  13.181   9.047  1.00  0.00     0.069 A 
ENDROOT
BRANCH   1   8
ATOM      8  O   UNL     1      29.447  12.168  10.729  1.00  0.00    -0.457 OA
BRANCH   8   9
ATOM      9  C   UNL     1      28.102  12.571  10.741  1.00  0.00     0.138 A 
ATOM     10  C   UNL     1      24.998   9.767  10.098  1.00  0.00     0.133 A 
ATOM     11  C   UNL     1      26.344   9.339  10.075  1.00  0.00     0.082 A 
ATOM     12  C   UNL     1      24.711  11.130  10.301  1.00  0.00     0.076 A 
ATOM     13  C   UNL     1      27.375  10.268  10.298  1.00  0.00     0.032 A 
ATOM     14  C   UNL     1      25.740  12.053  10.506  1.00  0.00     0.078 A 
ATOM     15  C   UNL     1      27.084  11.625  10.511  1.00  0.00     0.044 A 
ATOM     16  N   UNL     1      25.441  13.364  10.708  1.00  0.00    -0.256 NA
ATOM     17  C   UNL     1      26.408  14.294  10.917  1.00  0.00     0.115 A 
ATOM     18  C   UNL     1      27.751  13.918  10.931  1.00  0.00     0.068 A 
BRANCH  10  19
ATOM     19  O   UNL     1      23.974   8.817   9.947  1.00  0.00    -0.496 OA
ATOM     20  C   UNL     1      22.893   8.638  10.856  1.00  0.00     0.278 C 
ENDBRANCH  10  19
BRANCH  11  21
ATOM     21  C   UNL     1      26.698   7.917   9.852  1.00  0.00     0.252 C 
ATOM     22  N   UNL     1      25.950   6.863  10.463  1.00  0.00    -0.365 N 
ATOM     23  O   UNL     1      27.655   7.625   9.086  1.00  0.00    -0.269 OA
ATOM     24  H   UNL     1      26.256   5.871  10.350  1.00  0.00     0.159 HD
ATOM     25  H   UNL     1      25.049   7.053  10.953  1.00  0.00     0.159 HD
ENDBRANCH  11  21
ENDBRANCH   8   9
ENDBRANCH   1   8
BRANCH   4  26
ATOM     26  N   UNL     1      32.725  11.635   6.146  1.00  0.00    -0.307 N 
ATOM     27  C   UNL     1      34.124  11.314   6.177  1.00  0.00     0.319 C 
ATOM     28  H   UNL     1      32.294  11.831   5.216  1.00  0.00     0.171 HD
ATOM     29  O   UNL     1      34.756  11.319   7.268  1.00  0.00    -0.248 OA
ATOM     30  N   UNL     1      34.811  11.021   4.955  1.00  0.00    -0.335 N 
ATOM     31  H   UNL     1      34.293  11.093   4.050  1.00  0.00     0.165 HD
BRANCH  30  32
ATOM     32  C   UNL     1      36.247  10.759   4.928  1.00  0.00     0.084 C 
ATOM     33  C   UNL     1      37.023  11.672   3.995  1.00  0.00     0.027 C 
ATOM     34  C   UNL     1      36.739  10.235   3.589  1.00  0.00     0.027 C 
ENDBRANCH  30  32
ENDBRANCH   4  26
TORSDOF 6
ENDMDL
MODEL 4
REMARK VINA RESULT:    -9.114      6.675     11.539
REMARK INTER + INTRA:         -12.589
REMARK INTER:                 -11.551
REMARK INTRA:                  -1.037
REMARK UNBOUND:                -0.277
REMARK SMILES COc1cc2nccc(Oc3ccc(NC(=O)NC4CC4)c(Cl)c3)c2cc1C(N)=O
REMARK SMILES IDX 11 1 12 2 13 3 14 4 22 5 23 6 24 7 10 8 9 9 3 10 27 11 4 12
REMARK SMILES IDX 26 13 5 14 25 15 6 16 7 17 8 18 2 19 1 20 28 21 29 22 30 23
REMARK SMILES IDX 15 26 16 27 17 29 18 30 19 32 20 33 21 34
REMARK H PARENT 29 24 29 25 15 28 18 31
REMARK Flexibility Score: inf
ROOT
ATOM      1  C   UNL     1      33.779   7.712   8.307  1.00  0.00     0.129 A 
ATOM      2  C   UNL     1      32.817   6.747   8.612  1.00  0.00     0.049 A 
ATOM      3  C   UNL     1      31.607   7.115   9.206  1.00  0.00     0.031 A 
ATOM      4  C   UNL     1      31.330   8.466   9.482  1.00  0.00     0.061 A 
ATOM      5  C   UNL     1      32.299   9.441   9.172  1.00  0.00     0.068 A 
ATOM      6  Cl  UNL     1      32.005  11.149   9.472  1.00  0.00    -0.082 Cl
ATOM      7  C   UNL     1      33.508   9.065   8.578  1.00  0.00     0.069 A 
ENDROOT
BRANCH   1   8
ATOM      8  O   UNL     1      34.974   7.304   7.695  1.00  0.00    -0.457 OA
BRANCH   8   9
ATOM      9  C   UNL     1      35.112   6.936   6.348  1.00  0.00     0.138 A 
ATOM     10  C   UNL     1      35.635   2.880   5.257  1.00  0.00     0.133 A 
ATOM     11  C   UNL     1      35.504   3.227   6.620  1.00  0.00     0.082 A 
ATOM     12  C   UNL     1      35.623   3.896   4.282  1.00  0.00     0.076 A 
ATOM     13  C   UNL     1      35.321   4.573   6.982  1.00  0.00     0.032 A 
ATOM     14  C   UNL     1      35.456   5.233   4.648  1.00  0.00     0.078 A 
ATOM     15  C   UNL     1      35.299   5.582   6.006  1.00  0.00     0.044 A 
ATOM     16  N   UNL     1      35.440   6.199   3.690  1.00  0.00    -0.256 NA
ATOM     17  C   UNL     1      35.276   7.511   4.000  1.00  0.00     0.115 A 
ATOM     18  C   UNL     1      35.115   7.903   5.329  1.00  0.00     0.068 A 
BRANCH  10  19
ATOM     19  O   UNL     1      35.743   1.525   4.901  1.00  0.00    -0.496 OA
ATOM     20  C   UNL     1      35.408   0.991   3.625  1.00  0.00     0.278 C 
ENDBRANCH  10  19
BRANCH  11  21
ATOM     21  C   UNL     1      35.524   2.196   7.684  1.00  0.00     0.252 C 
ATOM     22  N   UNL     1      35.344   0.811   7.377  1.00  0.00    -0.365 N 
ATOM     23  O   UNL     1      35.734   2.537   8.878  1.00  0.00    -0.269 OA
ATOM     24  H   UNL     1      35.292   0.107   8.147  1.00  0.00     0.159 HD
ATOM     25  H   UNL     1      35.348   0.471   6.390  1.00  0.00     0.159 HD
ENDBRANCH  11  21
ENDBRANCH   8   9
ENDBRANCH   1   8
BRANCH   4  26
ATOM     26  N   UNL     1      30.097   8.844  10.119  1.00  0.00    -0.307 N 
ATOM     27  C   UNL     1      28.859   9.023   9.416  1.00  0.00     0.319 C 
ATOM     28  H   UNL     1      30.109   9.059  11.141  1.00  0.00     0.171 HD
ATOM     29  O   UNL     1      28.836   9.031   8.155  1.00  0.00    -0.248 OA
ATOM     30  N   UNL     1      27.648   9.228  10.153  1.00  0.00    -0.335 N 
ATOM     31  H   UNL     1      27.691   9.294  11.195  1.00  0.00     0.165 HD
BRANCH  30  32
ATOM     32  C   UNL     1      26.377   9.485   9.481  1.00  0.00     0.084 C 
ATOM     33  C   UNL     1      25.310  10.076  10.386  1.00  0.00     0.027 C 
ATOM     34  C   UNL     1      25.241   8.610   9.987  1.00  0.00     0.027 C 
ENDBRANCH  30  32
ENDBRANCH   4  26
TORSDOF 6
ENDMDL
MODEL 5
REMARK VINA RESULT:    -9.101      3.119      4.913
REMARK INTER + INTRA:         -12.570
REMARK INTER:                 -11.614
REMARK INTRA:                  -0.956
REMARK UNBOUND:                -0.277
REMARK SMILES COc1cc2nccc(Oc3ccc(NC(=O)NC4CC4)c(Cl)c3)c2cc1C(N)=O
REMARK SMILES IDX 11 1 12 2 13 3 14 4 22 5 23 6 24 7 10 8 9 9 3 10 27 11 4 12
REMARK SMILES IDX 26 13 5 14 25 15 6 16 7 17 8 18 2 19 1 20 28 21 29 22 30 23
REMARK SMILES IDX 15 26 16 27 17 29 18 30 19 32 20 33 21 34
REMARK H PARENT 29 24 29 25 15 28 18 31
REMARK Flexibility Score: inf
ROOT
ATOM      1  C   UNL     1      30.173  11.887   9.287  1.00  0.00     0.129 A 
ATOM      2  C   UNL     1      29.984  12.754  10.365  1.00  0.00     0.049 A 
ATOM      3  C   UNL     1      31.076  13.204  11.112  1.00  0.00     0.031 A 
ATOM      4  C   UNL     1      32.383  12.811  10.774  1.00  0.00     0.061 A 
ATOM      5  C   UNL     1      32.575  11.940   9.683  1.00  0.00     0.068 A 
ATOM      6  Cl  UNL     1      34.185  11.429   9.195  1.00  0.00    -0.082 Cl
ATOM      7  C   UNL     1      31.477  11.493   8.941  1.00  0.00     0.069 A 
ENDROOT
BRANCH   1   8
ATOM      8  O   UNL     1      29.053  11.472   8.551  1.00  0.00    -0.457 OA
BRANCH   8   9
ATOM      9  C   UNL     1      28.349  10.274   8.749  1.00  0.00     0.138 A 
ATOM     10  C   UNL     1      24.633  10.259  10.775  1.00  0.00     0.133 A 
ATOM     11  C   UNL     1      25.326  11.476  10.593  1.00  0.00     0.082 A 
ATOM     12  C   UNL     1      25.207   9.061  10.308  1.00  0.00     0.076 A 
ATOM     13  C   UNL     1      26.556  11.483   9.912  1.00  0.00     0.032 A 
ATOM     14  C   UNL     1      26.437   9.071   9.645  1.00  0.00     0.078 A 
ATOM     15  C   UNL     1      27.120  10.288   9.438  1.00  0.00     0.044 A 
ATOM     16  N   UNL     1      26.971   7.904   9.195  1.00  0.00    -0.256 NA
ATOM     17  C   UNL     1      28.161   7.867   8.541  1.00  0.00     0.115 A 
ATOM     18  C   UNL     1      28.872   9.046   8.312  1.00  0.00     0.068 A 
BRANCH  10  19
ATOM     19  O   UNL     1      23.371  10.274  11.392  1.00  0.00    -0.496 OA
ATOM     20  C   UNL     1      22.451   9.188  11.386  1.00  0.00     0.278 C 
ENDBRANCH  10  19
BRANCH  11  21
ATOM     21  C   UNL     1      24.770  12.761  11.079  1.00  0.00     0.252 C 
ATOM     22  N   UNL     1      23.588  12.800  11.882  1.00  0.00    -0.365 N 
ATOM     23  O   UNL     1      25.363  13.839  10.808  1.00  0.00    -0.269 OA
ATOM     24  H   UNL     1      23.172  13.718  12.156  1.00  0.00     0.159 HD
ATOM     25  H   UNL     1      23.173  11.927  12.276  1.00  0.00     0.159 HD
ENDBRANCH  11  21
ENDBRANCH   8   9
ENDBRANCH   1   8
BRANCH   4  26
ATOM     26  N   UNL     1      33.506  13.251  11.559  1.00  0.00    -0.307 N 
ATOM     27  C   UNL     1      34.134  14.531  11.403  1.00  0.00     0.319 C 
ATOM     28  H   UNL     1      33.928  12.584  12.243  1.00  0.00     0.171 HD
ATOM     29  O   UNL     1      33.838  15.273  10.427  1.00  0.00    -0.248 OA
ATOM     30  N   UNL     1      35.131  14.951  12.343  1.00  0.00    -0.335 N 
ATOM     31  H   UNL     1      35.421  14.296  13.103  1.00  0.00     0.165 HD
BRANCH  30  32
ATOM     32  C   UNL     1      35.848  16.213  12.185  1.00  0.00     0.084 C 
ATOM     33  C   UNL     1      36.567  16.675  13.440  1.00  0.00     0.027 C 
ATOM     34  C   UNL     1      35.268  17.344  13.019  1.00  0.00     0.027 C 
ENDBRANCH  30  32
ENDBRANCH   4  26
TORSDOF 6
ENDMDL
MODEL 6
REMARK VINA RESULT:    -8.890      5.455     10.609
REMARK INTER + INTRA:         -12.285
REMARK INTER:                 -11.058
REMARK INTRA:                  -1.228
REMARK UNBOUND:                -0.277
REMARK SMILES COc1cc2nccc(Oc3ccc(NC(=O)NC4CC4)c(Cl)c3)c2cc1C(N)=O
REMARK SMILES IDX 11 1 12 2 13 3 14 4 22 5 23 6 24 7 10 8 9 9 3 10 27 11 4 12
REMARK SMILES IDX 26 13 5 14 25 15 6 16 7 17 8 18 2 19 1 20 28 21 29 22 30 23
REMARK SMILES IDX 15 26 16 27 17 29 18 30 19 32 20 33 21 34
REMARK H PARENT 29 24 29 25 15 28 18 31
REMARK Flexibility Score: inf
ROOT
ATOM      1  C   UNL     1      33.229   8.958   9.281  1.00  0.00     0.129 A 
ATOM      2  C   UNL     1      33.235  10.104  10.080  1.00  0.00     0.049 A 
ATOM      3  C   UNL     1      32.046  10.593  10.626  1.00  0.00     0.031 A 
ATOM      4  C   UNL     1      30.829   9.926  10.401  1.00  0.00     0.061 A 
ATOM      5  C   UNL     1      30.822   8.768   9.598  1.00  0.00     0.068 A 
ATOM      6  Cl  UNL     1      29.337   7.874   9.296  1.00  0.00    -0.082 Cl
ATOM      7  C   UNL     1      32.016   8.284   9.054  1.00  0.00     0.069 A 
ENDROOT
BRANCH   1   8
ATOM      8  O   UNL     1      34.446   8.489   8.766  1.00  0.00    -0.457 OA
BRANCH   8   9
ATOM      9  C   UNL     1      34.731   8.292   7.406  1.00  0.00     0.138 A 
ATOM     10  C   UNL     1      34.920   4.391   5.776  1.00  0.00     0.133 A 
ATOM     11  C   UNL     1      34.638   4.563   7.150  1.00  0.00     0.082 A 
ATOM     12  C   UNL     1      35.168   5.522   4.975  1.00  0.00     0.076 A 
ATOM     13  C   UNL     1      34.566   5.859   7.689  1.00  0.00     0.032 A 
ATOM     14  C   UNL     1      35.110   6.807   5.520  1.00  0.00     0.078 A 
ATOM     15  C   UNL     1      34.803   6.985   6.885  1.00  0.00     0.044 A 
ATOM     16  N   UNL     1      35.345   7.888   4.728  1.00  0.00    -0.256 NA
ATOM     17  C   UNL     1      35.295   9.155   5.213  1.00  0.00     0.115 A 
ATOM     18  C   UNL     1      34.994   9.380   6.556  1.00  0.00     0.068 A 
BRANCH  10  19
ATOM     19  O   UNL     1      34.917   3.095   5.233  1.00  0.00    -0.496 OA
ATOM     20  C   UNL     1      35.319   2.770   3.906  1.00  0.00     0.278 C 
ENDBRANCH  10  19
BRANCH  11  21
ATOM     21  C   UNL     1      34.384   3.403   8.036  1.00  0.00     0.252 C 
ATOM     22  N   UNL     1      35.251   2.267   8.037  1.00  0.00    -0.365 N 
ATOM     23  O   UNL     1      33.404   3.427   8.828  1.00  0.00    -0.269 OA
ATOM     24  H   UNL     1      35.017   1.431   8.617  1.00  0.00     0.159 HD
ATOM     25  H   UNL     1      36.165   2.284   7.534  1.00  0.00     0.159 HD
ENDBRANCH  11  21
ENDBRANCH   8   9
ENDBRANCH   1   8
BRANCH   4  26
ATOM     26  N   UNL     1      29.599  10.444  10.938  1.00  0.00    -0.307 N 
ATOM     27  C   UNL     1      28.587  11.079  10.144  1.00  0.00     0.319 C 
ATOM     28  H   UNL     1      29.453  10.411  11.972  1.00  0.00     0.171 HD
ATOM     29  O   UNL     1      28.815  11.378   8.940  1.00  0.00    -0.248 OA
ATOM     30  N   UNL     1      27.323  11.405  10.733  1.00  0.00    -0.335 N 
ATOM     31  H   UNL     1      27.173  11.220  11.750  1.00  0.00     0.165 HD
BRANCH  30  32
ATOM     32  C   UNL     1      26.290  12.115   9.984  1.00  0.00     0.084 C 
ATOM     33  C   UNL     1      25.236  12.773  10.859  1.00  0.00     0.027 C 
ATOM     34  C   UNL     1      24.912  11.486  10.117  1.00  0.00     0.027 C 
ENDBRANCH  30  32
ENDBRANCH   4  26
TORSDOF 6
ENDMDL
MODEL 7
REMARK VINA RESULT:    -8.856      4.602     10.132
REMARK INTER + INTRA:         -12.240
REMARK INTER:                 -10.960
REMARK INTRA:                  -1.280
REMARK UNBOUND:                -0.277
REMARK SMILES COc1cc2nccc(Oc3ccc(NC(=O)NC4CC4)c(Cl)c3)c2cc1C(N)=O
REMARK SMILES IDX 11 1 12 2 13 3 14 4 22 5 23 6 24 7 10 8 9 9 3 10 27 11 4 12
REMARK SMILES IDX 26 13 5 14 25 15 6 16 7 17 8 18 2 19 1 20 28 21 29 22 30 23
REMARK SMILES IDX 15 26 16 27 17 29 18 30 19 32 20 33 21 34
REMARK H PARENT 29 24 29 25 15 28 18 31
REMARK Flexibility Score: inf
ROOT
ATOM      1  C   UNL     1      31.579   9.698   9.402  1.00  0.00     0.129 A 
ATOM      2  C   UNL     1      30.640   9.150   8.525  1.00  0.00     0.049 A 
ATOM      3  C   UNL     1      29.352   9.684   8.442  1.00  0.00     0.031 A 
ATOM      4  C   UNL     1      28.988  10.795   9.223  1.00  0.00     0.061 A 
ATOM      5  C   UNL     1      29.935  11.351  10.106  1.00  0.00     0.068 A 
ATOM      6  Cl  UNL     1      29.550  12.755  11.094  1.00  0.00    -0.082 Cl
ATOM      7  C   UNL     1      31.223  10.811  10.184  1.00  0.00     0.069 A 
ENDROOT
BRANCH   1   8
ATOM      8  O   UNL     1      32.867   9.144   9.443  1.00  0.00    -0.457 OA
BRANCH   8   9
ATOM      9  C   UNL     1      33.761   9.086   8.362  1.00  0.00     0.138 A 
ATOM     10  C   UNL     1      34.802   5.374   6.615  1.00  0.00     0.133 A 
ATOM     11  C   UNL     1      33.906   5.407   7.707  1.00  0.00     0.082 A 
ATOM     12  C   UNL     1      35.363   6.577   6.146  1.00  0.00     0.076 A 
ATOM     13  C   UNL     1      33.552   6.640   8.281  1.00  0.00     0.032 A 
ATOM     14  C   UNL     1      35.021   7.799   6.730  1.00  0.00     0.078 A 
ATOM     15  C   UNL     1      34.105   7.839   7.803  1.00  0.00     0.044 A 
ATOM     16  N   UNL     1      35.567   8.951   6.257  1.00  0.00    -0.256 NA
ATOM     17  C   UNL     1      35.260  10.161   6.791  1.00  0.00     0.115 A 
ATOM     18  C   UNL     1      34.359  10.250   7.852  1.00  0.00     0.068 A 
BRANCH  10  19
ATOM     19  O   UNL     1      35.092   4.143   6.003  1.00  0.00    -0.496 OA
ATOM     20  C   UNL     1      35.063   3.908   4.599  1.00  0.00     0.278 C 
ENDBRANCH  10  19
BRANCH  11  21
ATOM     21  C   UNL     1      33.300   4.167   8.246  1.00  0.00     0.252 C 
ATOM     22  N   UNL     1      34.100   3.020   8.544  1.00  0.00    -0.365 N 
ATOM     23  O   UNL     1      32.062   4.127   8.476  1.00  0.00    -0.269 OA
ATOM     24  H   UNL     1      33.647   2.133   8.856  1.00  0.00     0.159 HD
ATOM     25  H   UNL     1      35.142   3.072   8.539  1.00  0.00     0.159 HD
ENDBRANCH  11  21
ENDBRANCH   8   9
ENDBRANCH   1   8
BRANCH   4  26
ATOM     26  N   UNL     1      27.653  11.328   9.160  1.00  0.00    -0.307 N 
ATOM     27  C   UNL     1      26.533  10.754   9.849  1.00  0.00     0.319 C 
ATOM     28  H   UNL     1      27.471  12.145   8.536  1.00  0.00     0.171 HD
ATOM     29  O   UNL     1      26.635   9.627  10.407  1.00  0.00    -0.248 OA
ATOM     30  N   UNL     1      25.281  11.450   9.871  1.00  0.00    -0.335 N 
ATOM     31  H   UNL     1      25.188  12.346   9.342  1.00  0.00     0.165 HD
BRANCH  30  32
ATOM     32  C   UNL     1      24.095  10.873  10.497  1.00  0.00     0.084 C 
ATOM     33  C   UNL     1      23.045  11.897  10.891  1.00  0.00     0.027 C 
ATOM     34  C   UNL     1      23.931  11.270  11.956  1.00  0.00     0.027 C 
ENDBRANCH  30  32
ENDBRANCH   4  26
TORSDOF 6
ENDMDL
MODEL 8
REMARK VINA RESULT:    -8.852      5.089      7.100
REMARK INTER + INTRA:         -12.234
REMARK INTER:                 -11.168
REMARK INTRA:                  -1.066
REMARK UNBOUND:                -0.277
REMARK SMILES COc1cc2nccc(Oc3ccc(NC(=O)NC4CC4)c(Cl)c3)c2cc1C(N)=O
REMARK SMILES IDX 11 1 12 2 13 3 14 4 22 5 23 6 24 7 10 8 9 9 3 10 27 11 4 12
REMARK SMILES IDX 26 13 5 14 25 15 6 16 7 17 8 18 2 19 1 20 28 21 29 22 30 23
REMARK SMILES IDX 15 26 16 27 17 29 18 30 19 32 20 33 21 34
REMARK H PARENT 29 24 29 25 15 28 18 31
REMARK Flexibility Score: inf
ROOT
ATOM      1  C   UNL     1      32.831   8.457   9.440  1.00  0.00     0.129 A 
ATOM      2  C   UNL     1      32.272   7.188   9.273  1.00  0.00     0.049 A 
ATOM      3  C   UNL     1      32.732   6.339   8.264  1.00  0.00     0.031 A 
ATOM      4  C   UNL     1      33.781   6.739   7.417  1.00  0.00     0.061 A 
ATOM      5  C   UNL     1      34.348   8.018   7.586  1.00  0.00     0.068 A 
ATOM      6  Cl  UNL     1      35.677   8.570   6.575  1.00  0.00    -0.082 Cl
ATOM      7  C   UNL     1      33.882   8.863   8.599  1.00  0.00     0.069 A 
ENDROOT
BRANCH   1   8
ATOM      8  O   UNL     1      32.354   9.273  10.476  1.00  0.00    -0.457 OA
BRANCH   8   9
ATOM      9  C   UNL     1      31.656  10.479  10.305  1.00  0.00     0.138 A 
ATOM     10  C   UNL     1      27.477  10.484   9.636  1.00  0.00     0.133 A 
ATOM     11  C   UNL     1      28.159   9.257   9.798  1.00  0.00     0.082 A 
ATOM     12  C   UNL     1      28.206  11.688   9.665  1.00  0.00     0.076 A 
ATOM     13  C   UNL     1      29.545   9.255  10.030  1.00  0.00     0.032 A 
ATOM     14  C   UNL     1      29.586  11.680   9.881  1.00  0.00     0.078 A 
ATOM     15  C   UNL     1      30.267  10.459  10.070  1.00  0.00     0.044 A 
ATOM     16  N   UNL     1      30.271  12.855   9.913  1.00  0.00    -0.256 NA
ATOM     17  C   UNL     1      31.613  12.895  10.125  1.00  0.00     0.115 A 
ATOM     18  C   UNL     1      32.327  11.713  10.318  1.00  0.00     0.068 A 
BRANCH  10  19
ATOM     19  O   UNL     1      26.081  10.477   9.478  1.00  0.00    -0.496 OA
ATOM     20  C   UNL     1      25.171  11.239  10.263  1.00  0.00     0.278 C 
ENDBRANCH  10  19
BRANCH  11  21
ATOM     21  C   UNL     1      27.437   7.963   9.761  1.00  0.00     0.252 C 
ATOM     22  N   UNL     1      26.556   7.576  10.818  1.00  0.00    -0.365 N 
ATOM     23  O   UNL     1      27.576   7.201   8.768  1.00  0.00    -0.269 OA
ATOM     24  H   UNL     1      26.111   6.631  10.808  1.00  0.00     0.159 HD
ATOM     25  H   UNL     1      26.276   8.251  11.563  1.00  0.00     0.159 HD
ENDBRANCH  11  21
ENDBRANCH   8   9
ENDBRANCH   1   8
BRANCH   4  26
ATOM     26  N   UNL     1      34.236   5.877   6.358  1.00  0.00    -0.307 N 
ATOM     27  C   UNL     1      34.873   4.611   6.581  1.00  0.00     0.319 C 
ATOM     28  H   UNL     1      34.154   6.211   5.372  1.00  0.00     0.171 HD
ATOM     29  O   UNL     1      35.232   4.272   7.742  1.00  0.00    -0.248 OA
ATOM     30  N   UNL     1      35.135   3.744   5.471  1.00  0.00    -0.335 N 
ATOM     31  H   UNL     1      34.902   4.069   4.506  1.00  0.00     0.165 HD
BRANCH  30  32
ATOM     32  C   UNL     1      35.844   2.479   5.638  1.00  0.00     0.084 C 
ATOM     33  C   UNL     1      37.002   2.288   4.674  1.00  0.00     0.027 C 
ATOM     34  C   UNL     1      35.695   1.543   4.449  1.00  0.00     0.027 C 
ENDBRANCH  30  32
ENDBRANCH   4  26
TORSDOF 6
ENDMDL
MODEL 9
REMARK VINA RESULT:    -8.787      5.958     11.125
REMARK INTER + INTRA:         -12.146
REMARK INTER:                 -10.909
REMARK INTRA:                  -1.237
REMARK UNBOUND:                -0.277
REMARK SMILES COc1cc2nccc(Oc3ccc(NC(=O)NC4CC4)c(Cl)c3)c2cc1C(N)=O
REMARK SMILES IDX 11 1 12 2 13 3 14 4 22 5 23 6 24 7 10 8 9 9 3 10 27 11 4 12
REMARK SMILES IDX 26 13 5 14 25 15 6 16 7 17 8 18 2 19 1 20 28 21 29 22 30 23
REMARK SMILES IDX 15 26 16 27 17 29 18 30 19 32 20 33 21 34
REMARK H PARENT 29 24 29 25 15 28 18 31
REMARK Flexibility Score: inf
ROOT
ATOM      1  C   UNL     1      33.841   7.931   8.557  1.00  0.00     0.129 A 
ATOM      2  C   UNL     1      33.134   6.738   8.394  1.00  0.00     0.049 A 
ATOM      3  C   UNL     1      31.836   6.609   8.893  1.00  0.00     0.031 A 
ATOM      4  C   UNL     1      31.211   7.687   9.545  1.00  0.00     0.061 A 
ATOM      5  C   UNL     1      31.922   8.894   9.706  1.00  0.00     0.068 A 
ATOM      6  Cl  UNL     1      31.190  10.287  10.491  1.00  0.00    -0.082 Cl
ATOM      7  C   UNL     1      33.222   9.015   9.204  1.00  0.00     0.069 A 
ENDROOT
BRANCH   1   8
ATOM      8  O   UNL     1      35.136   8.026   8.026  1.00  0.00    -0.457 OA
BRANCH   8   9
ATOM      9  C   UNL     1      35.519   8.859   6.963  1.00  0.00     0.138 A 
ATOM     10  C   UNL     1      36.021   7.295   3.062  1.00  0.00     0.133 A 
ATOM     11  C   UNL     1      35.641   6.436   4.117  1.00  0.00     0.082 A 
ATOM     12  C   UNL     1      36.260   8.656   3.332  1.00  0.00     0.076 A 
ATOM     13  C   UNL     1      35.465   6.957   5.411  1.00  0.00     0.032 A 
ATOM     14  C   UNL     1      36.099   9.166   4.623  1.00  0.00     0.078 A 
ATOM     15  C   UNL     1      35.694   8.317   5.674  1.00  0.00     0.044 A 
ATOM     16  N   UNL     1      36.328  10.485   4.862  1.00  0.00    -0.256 NA
ATOM     17  C   UNL     1      36.179  11.025   6.099  1.00  0.00     0.115 A 
ATOM     18  C   UNL     1      35.779  10.224   7.169  1.00  0.00     0.068 A 
BRANCH  10  19
ATOM     19  O   UNL     1      36.123   6.778   1.760  1.00  0.00    -0.496 OA
ATOM     20  C   UNL     1      37.188   7.054   0.858  1.00  0.00     0.278 C 
ENDBRANCH  10  19
BRANCH  11  21
ATOM     21  C   UNL     1      35.391   4.994   3.886  1.00  0.00     0.252 C 
ATOM     22  N   UNL     1      34.434   4.554   2.920  1.00  0.00    -0.365 N 
ATOM     23  O   UNL     1      36.053   4.136   4.528  1.00  0.00    -0.269 OA
ATOM     24  H   UNL     1      34.221   3.536   2.820  1.00  0.00     0.159 HD
ATOM     25  H   UNL     1      34.000   5.222   2.246  1.00  0.00     0.159 HD
ENDBRANCH  11  21
ENDBRANCH   8   9
ENDBRANCH   1   8
BRANCH   4  26
ATOM     26  N   UNL     1      29.885   7.548  10.084  1.00  0.00    -0.307 N 
ATOM     27  C   UNL     1      28.699   7.981   9.404  1.00  0.00     0.319 C 
ATOM     28  H   UNL     1      29.777   7.164  11.049  1.00  0.00     0.171 HD
ATOM     29  O   UNL     1      28.782   8.681   8.357  1.00  0.00    -0.248 OA
ATOM     30  N   UNL     1      27.412   7.645   9.937  1.00  0.00    -0.335 N 
ATOM     31  H   UNL     1      27.356   7.130  10.844  1.00  0.00     0.165 HD
BRANCH  30  32
ATOM     32  C   UNL     1      26.179   8.123   9.318  1.00  0.00     0.084 C 
ATOM     33  C   UNL     1      25.513   9.262  10.072  1.00  0.00     0.027 C 
ATOM     34  C   UNL     1      24.941   7.855  10.159  1.00  0.00     0.027 C 
ENDBRANCH  30  32
ENDBRANCH   4  26
TORSDOF 6
ENDMDL
MODEL 10
REMARK VINA RESULT:    -8.736      3.059      4.603
REMARK INTER + INTRA:         -12.078
REMARK INTER:                 -11.094
REMARK INTRA:                  -0.984
REMARK UNBOUND:                -0.277
REMARK SMILES COc1cc2nccc(Oc3ccc(NC(=O)NC4CC4)c(Cl)c3)c2cc1C(N)=O
REMARK SMILES IDX 11 1 12 2 13 3 14 4 22 5 23 6 24 7 10 8 9 9 3 10 27 11 4 12
REMARK SMILES IDX 26 13 5 14 25 15 6 16 7 17 8 18 2 19 1 20 28 21 29 22 30 23
REMARK SMILES IDX 15 26 16 27 17 29 18 30 19 32 20 33 21 34
REMARK H PARENT 29 24 29 25 15 28 18 31
REMARK Flexibility Score: inf
ROOT
ATOM      1  C   UNL     1      30.814  10.540   9.073  1.00  0.00     0.129 A 
ATOM      2  C   UNL     1      31.411   9.836  10.121  1.00  0.00     0.049 A 
ATOM      3  C   UNL     1      32.784   9.578  10.110  1.00  0.00     0.031 A 
ATOM      4  C   UNL     1      33.590  10.046   9.057  1.00  0.00     0.061 A 
ATOM      5  C   UNL     1      32.989  10.760   8.000  1.00  0.00     0.068 A 
ATOM      6  Cl  UNL     1      33.944  11.391   6.665  1.00  0.00    -0.082 Cl
ATOM      7  C   UNL     1      31.614  11.013   8.018  1.00  0.00     0.069 A 
ENDROOT
BRANCH   1   8
ATOM      8  O   UNL     1      29.435  10.794   9.129  1.00  0.00    -0.457 OA
BRANCH   8   9
ATOM      9  C   UNL     1      28.430   9.815   9.167  1.00  0.00     0.138 A 
ATOM     10  C   UNL     1      24.574  10.730  10.652  1.00  0.00     0.133 A 
ATOM     11  C   UNL     1      25.572  11.730  10.630  1.00  0.00     0.082 A 
ATOM     12  C   UNL     1      24.889   9.431  10.209  1.00  0.00     0.076 A 
ATOM     13  C   UNL     1      26.849  11.430  10.128  1.00  0.00     0.032 A 
ATOM     14  C   UNL     1      26.165   9.133   9.725  1.00  0.00     0.078 A 
ATOM     15  C   UNL     1      27.157  10.136   9.677  1.00  0.00     0.044 A 
ATOM     16  N   UNL     1      26.448   7.874   9.295  1.00  0.00    -0.256 NA
ATOM     17  C   UNL     1      27.673   7.540   8.813  1.00  0.00     0.115 A 
ATOM     18  C   UNL     1      28.684   8.499   8.745  1.00  0.00     0.068 A 
BRANCH  10  19
ATOM     19  O   UNL     1      23.280  11.061  11.087  1.00  0.00    -0.496 OA
ATOM     20  C   UNL     1      22.440  10.209  11.858  1.00  0.00     0.278 C 
ENDBRANCH  10  19
BRANCH  11  21
ATOM     21  C   UNL     1      25.292  13.108  11.098  1.00  0.00     0.252 C 
ATOM     22  N   UNL     1      24.391  13.355  12.180  1.00  0.00    -0.365 N 
ATOM     23  O   UNL     1      25.881  14.082  10.556  1.00  0.00    -0.269 OA
ATOM     24  H   UNL     1      24.154  14.336  12.449  1.00  0.00     0.159 HD
ATOM     25  H   UNL     1      24.026  12.575  12.768  1.00  0.00     0.159 HD
ENDBRANCH  11  21
ENDBRANCH   8   9
ENDBRANCH   1   8
BRANCH   4  26
ATOM     26  N   UNL     1      34.999   9.757   9.029  1.00  0.00    -0.307 N 
ATOM     27  C   UNL     1      35.568   8.628   8.351  1.00  0.00     0.319 C 
ATOM     28  H   UNL     1      35.644  10.367   9.579  1.00  0.00     0.171 HD
ATOM     29  O   UNL     1      34.824   7.719   7.890  1.00  0.00    -0.248 OA
ATOM     30  N   UNL     1      36.991   8.517   8.229  1.00  0.00    -0.335 N 
ATOM     31  H   UNL     1      37.598   9.237   8.680  1.00  0.00     0.165 HD
BRANCH  30  32
ATOM     32  C   UNL     1      37.617   7.352   7.610  1.00  0.00     0.084 C 
ATOM     33  C   UNL     1      38.288   6.414   8.599  1.00  0.00     0.027 C 
ATOM     34  C   UNL     1      39.131   7.343   7.740  1.00  0.00     0.027 C 
ENDBRANCH  30  32
ENDBRANCH   4  26
TORSDOF 6
ENDMDL
MODEL 11
REMARK VINA RESULT:    -8.578      6.851     12.250
REMARK INTER + INTRA:         -11.864
REMARK INTER:                 -10.626
REMARK INTRA:                  -1.238
REMARK UNBOUND:                -0.277
REMARK SMILES COc1cc2nccc(Oc3ccc(NC(=O)NC4CC4)c(Cl)c3)c2cc1C(N)=O
REMARK SMILES IDX 11 1 12 2 13 3 14 4 22 5 23 6 24 7 10 8 9 9 3 10 27 11 4 12
REMARK SMILES IDX 26 13 5 14 25 15 6 16 7 17 8 18 2 19 1 20 28 21 29 22 30 23
REMARK SMILES IDX 15 26 16 27 17 29 18 30 19 32 20 33 21 34
REMARK H PARENT 29 24 29 25 15 28 18 31
REMARK Flexibility Score: inf
ROOT
ATOM      1  C   UNL     1      34.625   7.691   7.863  1.00  0.00     0.129 A 
ATOM      2  C   UNL     1      33.832   6.563   7.642  1.00  0.00     0.049 A 
ATOM      3  C   UNL     1      32.586   6.439   8.261  1.00  0.00     0.031 A 
ATOM      4  C   UNL     1      32.100   7.460   9.096  1.00  0.00     0.061 A 
ATOM      5  C   UNL     1      32.897   8.602   9.318  1.00  0.00     0.068 A 
ATOM      6  Cl  UNL     1      32.338   9.924  10.334  1.00  0.00    -0.082 Cl
ATOM      7  C   UNL     1      34.144   8.718   8.694  1.00  0.00     0.069 A 
ENDROOT
BRANCH   1   8
ATOM      8  O   UNL     1      35.862   7.786   7.208  1.00  0.00    -0.457 OA
BRANCH   8   9
ATOM      9  C   UNL     1      36.915   6.865   7.325  1.00  0.00     0.138 A 
ATOM     10  C   UNL     1      37.477   3.841   4.418  1.00  0.00     0.133 A 
ATOM     11  C   UNL     1      36.406   4.752   4.283  1.00  0.00     0.082 A 
ATOM     12  C   UNL     1      38.324   3.933   5.539  1.00  0.00     0.076 A 
ATOM     13  C   UNL     1      36.225   5.763   5.242  1.00  0.00     0.032 A 
ATOM     14  C   UNL     1      38.130   4.929   6.499  1.00  0.00     0.078 A 
ATOM     15  C   UNL     1      37.078   5.857   6.354  1.00  0.00     0.044 A 
ATOM     16  N   UNL     1      38.963   5.005   7.572  1.00  0.00    -0.256 NA
ATOM     17  C   UNL     1      38.815   5.960   8.526  1.00  0.00     0.115 A 
ATOM     18  C   UNL     1      37.790   6.900   8.424  1.00  0.00     0.068 A 
BRANCH  10  19
ATOM     19  O   UNL     1      37.693   2.882   3.414  1.00  0.00    -0.496 OA
ATOM     20  C   UNL     1      37.689   1.474   3.623  1.00  0.00     0.278 C 
ENDBRANCH  10  19
BRANCH  11  21
ATOM     21  C   UNL     1      35.481   4.688   3.127  1.00  0.00     0.252 C 
ATOM     22  N   UNL     1      34.653   3.545   2.903  1.00  0.00    -0.365 N 
ATOM     23  O   UNL     1      35.395   5.670   2.342  1.00  0.00    -0.269 OA
ATOM     24  H   UNL     1      34.059   3.488   2.046  1.00  0.00     0.159 HD
ATOM     25  H   UNL     1      34.561   2.794   3.623  1.00  0.00     0.159 HD
ENDBRANCH  11  21
ENDBRANCH   8   9
ENDBRANCH   1   8
BRANCH   4  26
ATOM     26  N   UNL     1      30.830   7.323   9.758  1.00  0.00    -0.307 N 
ATOM     27  C   UNL     1      29.598   7.836   9.231  1.00  0.00     0.319 C 
ATOM     28  H   UNL     1      30.804   6.876  10.701  1.00  0.00     0.171 HD
ATOM     29  O   UNL     1      29.602   8.605   8.231  1.00  0.00    -0.248 OA
ATOM     30  N   UNL     1      28.359   7.502   9.869  1.00  0.00    -0.335 N 
ATOM     31  H   UNL     1      28.376   6.926  10.741  1.00  0.00     0.165 HD
BRANCH  30  32
ATOM     32  C   UNL     1      27.089   8.057   9.412  1.00  0.00     0.084 C 
ATOM     33  C   UNL     1      26.671   9.323  10.143  1.00  0.00     0.027 C 
ATOM     34  C   UNL     1      25.994   8.000  10.465  1.00  0.00     0.027 C 
ENDBRANCH  30  32
ENDBRANCH   4  26
TORSDOF 6
ENDMDL
MODEL 12
REMARK VINA RESULT:    -8.546      3.632      5.626
REMARK INTER + INTRA:         -11.822
REMARK INTER:                 -11.231
REMARK INTRA:                  -0.591
REMARK UNBOUND:                -0.277
REMARK SMILES COc1cc2nccc(Oc3ccc(NC(=O)NC4CC4)c(Cl)c3)c2cc1C(N)=O
REMARK SMILES IDX 11 1 12 2 13 3 14 4 22 5 23 6 24 7 10 8 9 9 3 10 27 11 4 12
REMARK SMILES IDX 26 13 5 14 25 15 6 16 7 17 8 18 2 19 1 20 28 21 29 22 30 23
REMARK SMILES IDX 15 26 16 27 17 29 18 30 19 32 20 33 21 34
REMARK H PARENT 29 24 29 25 15 28 18 31
REMARK Flexibility Score: inf
ROOT
ATOM      1  C   UNL     1      30.105  12.816  10.283  1.00  0.00     0.129 A 
ATOM      2  C   UNL     1      31.314  12.194   9.968  1.00  0.00     0.049 A 
ATOM      3  C   UNL     1      32.503  12.609  10.572  1.00  0.00     0.031 A 
ATOM      4  C   UNL     1      32.497  13.642  11.525  1.00  0.00     0.061 A 
ATOM      5  C   UNL     1      31.276  14.269  11.848  1.00  0.00     0.068 A 
ATOM      6  Cl  UNL     1      31.196  15.552  13.048  1.00  0.00    -0.082 Cl
ATOM      7  C   UNL     1      30.090  13.848  11.238  1.00  0.00     0.069 A 
ENDROOT
BRANCH   1   8
ATOM      8  O   UNL     1      28.930  12.359   9.668  1.00  0.00    -0.457 OA
BRANCH   8   9
ATOM      9  C   UNL     1      27.624  12.642  10.097  1.00  0.00     0.138 A 
ATOM     10  C   UNL     1      24.725   9.571  10.377  1.00  0.00     0.133 A 
ATOM     11  C   UNL     1      26.031   9.263   9.936  1.00  0.00     0.082 A 
ATOM     12  C   UNL     1      24.398  10.905  10.686  1.00  0.00     0.076 A 
ATOM     13  C   UNL     1      26.997  10.281   9.852  1.00  0.00     0.032 A 
ATOM     14  C   UNL     1      25.357  11.916  10.586  1.00  0.00     0.078 A 
ATOM     15  C   UNL     1      26.669  11.608  10.171  1.00  0.00     0.044 A 
ATOM     16  N   UNL     1      25.023  13.198  10.896  1.00  0.00    -0.256 NA
ATOM     17  C   UNL     1      25.924  14.211  10.818  1.00  0.00     0.115 A 
ATOM     18  C   UNL     1      27.234  13.954  10.414  1.00  0.00     0.068 A 
BRANCH  10  19
ATOM     19  O   UNL     1      23.789   8.534  10.527  1.00  0.00    -0.496 OA
ATOM     20  C   UNL     1      22.563   8.644  11.243  1.00  0.00     0.278 C 
ENDBRANCH  10  19
BRANCH  11  21
ATOM     21  C   UNL     1      26.420   7.877   9.586  1.00  0.00     0.252 C 
ATOM     22  N   UNL     1      25.956   6.762  10.351  1.00  0.00    -0.365 N 
ATOM     23  O   UNL     1      27.147   7.668   8.578  1.00  0.00    -0.269 OA
ATOM     24  H   UNL     1      26.297   5.799  10.132  1.00  0.00     0.159 HD
ATOM     25  H   UNL     1      25.214   6.875  11.076  1.00  0.00     0.159 HD
ENDBRANCH  11  21
ENDBRANCH   8   9
ENDBRANCH   1   8
BRANCH   4  26
ATOM     26  N   UNL     1      33.724  14.090  12.128  1.00  0.00    -0.307 N 
ATOM     27  C   UNL     1      34.486  15.207  11.647  1.00  0.00     0.319 C 
ATOM     28  H   UNL     1      34.118  13.543  12.925  1.00  0.00     0.171 HD
ATOM     29  O   UNL     1      34.203  15.745  10.542  1.00  0.00    -0.248 OA
ATOM     30  N   UNL     1      35.598  15.689  12.411  1.00  0.00    -0.335 N 
ATOM     31  H   UNL     1      35.869  15.187  13.287  1.00  0.00     0.165 HD
BRANCH  30  32
ATOM     32  C   UNL     1      36.446  16.775  11.928  1.00  0.00     0.084 C 
ATOM     33  C   UNL     1      37.927  16.565  12.191  1.00  0.00     0.027 C 
ATOM     34  C   UNL     1      37.135  17.543  13.045  1.00  0.00     0.027 C 
ENDBRANCH  30  32
ENDBRANCH   4  26
TORSDOF 6
ENDMDL
MODEL 13
REMARK VINA RESULT:    -8.544      2.919      7.919
REMARK INTER + INTRA:         -11.818
REMARK INTER:                 -11.295
REMARK INTRA:                  -0.523
REMARK UNBOUND:                -0.277
REMARK SMILES COc1cc2nccc(Oc3ccc(NC(=O)NC4CC4)c(Cl)c3)c2cc1C(N)=O
REMARK SMILES IDX 11 1 12 2 13 3 14 4 22 5 23 6 24 7 10 8 9 9 3 10 27 11 4 12
REMARK SMILES IDX 26 13 5 14 25 15 6 16 7 17 8 18 2 19 1 20 28 21 29 22 30 23
REMARK SMILES IDX 15 26 16 27 17 29 18 30 19 32 20 33 21 34
REMARK H PARENT 29 24 29 25 15 28 18 31
REMARK Flexibility Score: inf
ROOT
ATOM      1  C   UNL     1      26.649  11.912   9.642  1.00  0.00     0.129 A 
ATOM      2  C   UNL     1      27.372  13.078   9.903  1.00  0.00     0.049 A 
ATOM      3  C   UNL     1      26.808  14.107  10.661  1.00  0.00     0.031 A 
ATOM      4  C   UNL     1      25.514  13.974  11.195  1.00  0.00     0.061 A 
ATOM      5  C   UNL     1      24.784  12.796  10.935  1.00  0.00     0.068 A 
ATOM      6  Cl  UNL     1      23.170  12.557  11.591  1.00  0.00    -0.082 Cl
ATOM      7  C   UNL     1      25.356  11.770  10.174  1.00  0.00     0.069 A 
ENDROOT
BRANCH   1   8
ATOM      8  O   UNL     1      27.257  10.895   8.891  1.00  0.00    -0.457 OA
BRANCH   8   9
ATOM      9  C   UNL     1      28.073   9.878   9.412  1.00  0.00     0.138 A 
ATOM     10  C   UNL     1      32.232   9.827   8.628  1.00  0.00     0.133 A 
ATOM     11  C   UNL     1      31.430  10.857   8.088  1.00  0.00     0.082 A 
ATOM     12  C   UNL     1      31.627   8.811   9.393  1.00  0.00     0.076 A 
ATOM     13  C   UNL     1      30.051  10.880   8.356  1.00  0.00     0.032 A 
ATOM     14  C   UNL     1      30.253   8.829   9.643  1.00  0.00     0.078 A 
ATOM     15  C   UNL     1      29.453   9.871   9.128  1.00  0.00     0.044 A 
ATOM     16  N   UNL     1      29.689   7.843  10.391  1.00  0.00    -0.256 NA
ATOM     17  C   UNL     1      28.359   7.823  10.664  1.00  0.00     0.115 A 
ATOM     18  C   UNL     1      27.529   8.833  10.177  1.00  0.00     0.068 A 
BRANCH  10  19
ATOM     19  O   UNL     1      33.620   9.855   8.414  1.00  0.00    -0.496 OA
ATOM     20  C   UNL     1      34.543   8.910   8.947  1.00  0.00     0.278 C 
ENDBRANCH  10  19
BRANCH  11  21
ATOM     21  C   UNL     1      32.018  11.941   7.265  1.00  0.00     0.252 C 
ATOM     22  N   UNL     1      32.653  11.661   6.016  1.00  0.00    -0.365 N 
ATOM     23  O   UNL     1      31.931  13.136   7.655  1.00  0.00    -0.269 OA
ATOM     24  H   UNL     1      33.122  12.428   5.484  1.00  0.00     0.159 HD
ATOM     25  H   UNL     1      32.587  10.717   5.575  1.00  0.00     0.159 HD
ENDBRANCH  11  21
ENDBRANCH   8   9
ENDBRANCH   1   8
BRANCH   4  26
ATOM     26  N   UNL     1      24.920  15.043  11.952  1.00  0.00    -0.307 N 
ATOM     27  C   UNL     1      25.387  16.399  11.917  1.00  0.00     0.319 C 
ATOM     28  H   UNL     1      24.141  14.816  12.610  1.00  0.00     0.171 HD
ATOM     29  O   UNL     1      26.475  16.685  11.346  1.00  0.00    -0.248 OA
ATOM     30  N   UNL     1      24.629  17.428  12.565  1.00  0.00    -0.335 N 
ATOM     31  H   UNL     1      23.769  17.167  13.098  1.00  0.00     0.165 HD
BRANCH  30  32
ATOM     32  C   UNL     1      25.101  18.809  12.616  1.00  0.00     0.084 C 
ATOM     33  C   UNL     1      23.996  19.830  12.828  1.00  0.00     0.027 C 
ATOM     34  C   UNL     1      24.615  19.654  11.450  1.00  0.00     0.027 C 
ENDBRANCH  30  32
ENDBRANCH   4  26
TORSDOF 6
ENDMDL
MODEL 14
REMARK VINA RESULT:    -8.453      7.159      9.411
REMARK INTER + INTRA:         -11.696
REMARK INTER:                 -10.759
REMARK INTRA:                  -0.937
REMARK UNBOUND:                -0.277
REMARK SMILES COc1cc2nccc(Oc3ccc(NC(=O)NC4CC4)c(Cl)c3)c2cc1C(N)=O
REMARK SMILES IDX 11 1 12 2 13 3 14 4 22 5 23 6 24 7 10 8 9 9 3 10 27 11 4 12
REMARK SMILES IDX 26 13 5 14 25 15 6 16 7 17 8 18 2 19 1 20 28 21 29 22 30 23
REMARK SMILES IDX 15 26 16 27 17 29 18 30 19 32 20 33 21 34
REMARK H PARENT 29 24 29 25 15 28 18 31
REMARK Flexibility Score: inf
ROOT
ATOM      1  C   UNL     1      33.927   5.880   7.271  1.00  0.00     0.129 A 
ATOM      2  C   UNL     1      34.272   6.653   6.160  1.00  0.00     0.049 A 
ATOM      3  C   UNL     1      35.080   6.123   5.151  1.00  0.00     0.031 A 
ATOM      4  C   UNL     1      35.538   4.796   5.226  1.00  0.00     0.061 A 
ATOM      5  C   UNL     1      35.188   4.013   6.345  1.00  0.00     0.068 A 
ATOM      6  Cl  UNL     1      35.710   2.340   6.489  1.00  0.00    -0.082 Cl
ATOM      7  C   UNL     1      34.379   4.551   7.351  1.00  0.00     0.069 A 
ENDROOT
BRANCH   1   8
ATOM      8  O   UNL     1      33.100   6.442   8.253  1.00  0.00    -0.457 OA
BRANCH   8   9
ATOM      9  C   UNL     1      33.266   7.714   8.826  1.00  0.00     0.138 A 
ATOM     10  C   UNL     1      29.939   9.873  10.302  1.00  0.00     0.133 A 
ATOM     11  C   UNL     1      29.746   8.598   9.725  1.00  0.00     0.082 A 
ATOM     12  C   UNL     1      31.235  10.421  10.347  1.00  0.00     0.076 A 
ATOM     13  C   UNL     1      30.851   7.876   9.243  1.00  0.00     0.032 A 
ATOM     14  C   UNL     1      32.329   9.707   9.853  1.00  0.00     0.078 A 
ATOM     15  C   UNL     1      32.144   8.422   9.299  1.00  0.00     0.044 A 
ATOM     16  N   UNL     1      33.574  10.251   9.912  1.00  0.00    -0.256 NA
ATOM     17  C   UNL     1      34.666   9.590   9.448  1.00  0.00     0.115 A 
ATOM     18  C   UNL     1      34.532   8.318   8.894  1.00  0.00     0.068 A 
BRANCH  10  19
ATOM     19  O   UNL     1      28.836  10.553  10.847  1.00  0.00    -0.496 OA
ATOM     20  C   UNL     1      28.455  11.882  10.509  1.00  0.00     0.278 C 
ENDBRANCH  10  19
BRANCH  11  21
ATOM     21  C   UNL     1      28.399   7.985   9.642  1.00  0.00     0.252 C 
ATOM     22  N   UNL     1      27.547   7.913  10.787  1.00  0.00    -0.365 N 
ATOM     23  O   UNL     1      27.982   7.544   8.538  1.00  0.00    -0.269 OA
ATOM     24  H   UNL     1      26.631   7.415  10.727  1.00  0.00     0.159 HD
ATOM     25  H   UNL     1      27.779   8.423  11.668  1.00  0.00     0.159 HD
ENDBRANCH  11  21
ENDBRANCH   8   9
ENDBRANCH   1   8
BRANCH   4  26
ATOM     26  N   UNL     1      36.394   4.257   4.203  1.00  0.00    -0.307 N 
ATOM     27  C   UNL     1      35.914   3.742   2.953  1.00  0.00     0.319 C 
ATOM     28  H   UNL     1      37.417   4.181   4.397  1.00  0.00     0.171 HD
ATOM     29  O   UNL     1      34.678   3.570   2.765  1.00  0.00    -0.248 OA
ATOM     30  N   UNL     1      36.848   3.389   1.925  1.00  0.00    -0.335 N 
ATOM     31  H   UNL     1      37.871   3.466   2.120  1.00  0.00     0.165 HD
BRANCH  30  32
ATOM     32  C   UNL     1      36.411   2.795   0.665  1.00  0.00     0.084 C 
ATOM     33  C   UNL     1      36.351   1.277   0.687  1.00  0.00     0.027 C 
ATOM     34  C   UNL     1      37.495   1.983  -0.026  1.00  0.00     0.027 C 
ENDBRANCH  30  32
ENDBRANCH   4  26
TORSDOF 6
ENDMDL
MODEL 15
REMARK VINA RESULT:    -8.428      4.570      6.678
REMARK INTER + INTRA:         -11.662
REMARK INTER:                 -10.507
REMARK INTRA:                  -1.156
REMARK UNBOUND:                -0.277
REMARK SMILES COc1cc2nccc(Oc3ccc(NC(=O)NC4CC4)c(Cl)c3)c2cc1C(N)=O
REMARK SMILES IDX 11 1 12 2 13 3 14 4 22 5 23 6 24 7 10 8 9 9 3 10 27 11 4 12
REMARK SMILES IDX 26 13 5 14 25 15 6 16 7 17 8 18 2 19 1 20 28 21 29 22 30 23
REMARK SMILES IDX 15 26 16 27 17 29 18 30 19 32 20 33 21 34
REMARK H PARENT 29 24 29 25 15 28 18 31
REMARK Flexibility Score: inf
ROOT
ATOM      1  C   UNL     1      28.827  15.526  10.742  1.00  0.00     0.129 A 
ATOM      2  C   UNL     1      29.401  16.610  10.074  1.00  0.00     0.049 A 
ATOM      3  C   UNL     1      30.319  17.439  10.725  1.00  0.00     0.031 A 
ATOM      4  C   UNL     1      30.697  17.179  12.054  1.00  0.00     0.061 A 
ATOM      5  C   UNL     1      30.121  16.083  12.729  1.00  0.00     0.068 A 
ATOM      6  Cl  UNL     1      30.568  15.691  14.384  1.00  0.00    -0.082 Cl
ATOM      7  C   UNL     1      29.203  15.259  12.070  1.00  0.00     0.069 A 
ENDROOT
BRANCH   1   8
ATOM      8  O   UNL     1      27.924  14.708  10.048  1.00  0.00    -0.457 OA
BRANCH   8   9
ATOM      9  C   UNL     1      26.700  14.240  10.551  1.00  0.00     0.138 A 
ATOM     10  C   UNL     1      25.577  10.186  10.084  1.00  0.00     0.133 A 
ATOM     11  C   UNL     1      26.811  10.635   9.564  1.00  0.00     0.082 A 
ATOM     12  C   UNL     1      24.722  11.105  10.722  1.00  0.00     0.076 A 
ATOM     13  C   UNL     1      27.189  11.979   9.727  1.00  0.00     0.032 A 
ATOM     14  C   UNL     1      25.095  12.443  10.868  1.00  0.00     0.078 A 
ATOM     15  C   UNL     1      26.338  12.890  10.374  1.00  0.00     0.044 A 
ATOM     16  N   UNL     1      24.258  13.313  11.495  1.00  0.00    -0.256 NA
ATOM     17  C   UNL     1      24.581  14.622  11.663  1.00  0.00     0.115 A 
ATOM     18  C   UNL     1      25.800  15.108  11.192  1.00  0.00     0.068 A 
BRANCH  10  19
ATOM     19  O   UNL     1      25.243   8.825   9.980  1.00  0.00    -0.496 OA
ATOM     20  C   UNL     1      23.915   8.313   9.979  1.00  0.00     0.278 C 
ENDBRANCH  10  19
BRANCH  11  21
ATOM     21  C   UNL     1      27.740   9.710   8.873  1.00  0.00     0.252 C 
ATOM     22  N   UNL     1      27.972   8.388   9.365  1.00  0.00    -0.365 N 
ATOM     23  O   UNL     1      28.313  10.078   7.813  1.00  0.00    -0.269 OA
ATOM     24  H   UNL     1      28.681   7.775   8.905  1.00  0.00     0.159 HD
ATOM     25  H   UNL     1      27.385   7.984  10.128  1.00  0.00     0.159 HD
ENDBRANCH  11  21
ENDBRANCH   8   9
ENDBRANCH   1   8
BRANCH   4  26
ATOM     26  N   UNL     1      31.619  18.047  12.736  1.00  0.00    -0.307 N 
ATOM     27  C   UNL     1      33.030  17.801  12.822  1.00  0.00     0.319 C 
ATOM     28  H   UNL     1      31.241  18.875  13.249  1.00  0.00     0.171 HD
ATOM     29  O   UNL     1      33.509  16.695  12.449  1.00  0.00    -0.248 OA
ATOM     30  N   UNL     1      33.894  18.805  13.367  1.00  0.00    -0.335 N 
ATOM     31  H   UNL     1      33.477  19.686  13.742  1.00  0.00     0.165 HD
BRANCH  30  32
ATOM     32  C   UNL     1      35.325  18.572  13.540  1.00  0.00     0.084 C 
ATOM     33  C   UNL     1      36.132  19.837  13.780  1.00  0.00     0.027 C 
ATOM     34  C   UNL     1      36.170  19.158  12.419  1.00  0.00     0.027 C 
ENDBRANCH  30  32
ENDBRANCH   4  26
TORSDOF 6
ENDMDL
