MODEL 1
REMARK VINA RESULT:    -8.832      0.000      0.000
REMARK INTER + INTRA:         -12.760
REMARK INTER:                 -12.446
REMARK INTRA:                  -0.314
REMARK UNBOUND:                -0.314
REMARK SMILES C=C(C)[C@@H]1CCC(C)=C[C@H]1c1c(O)cc(CCCCC)cc1O
REMARK SMILES IDX 16 1 17 2 18 3 19 4 20 5 15 6 14 7 21 8 12 9 22 10 11 11
REMARK SMILES IDX 13 12 23 14 10 16 9 17 4 18 7 19 5 20 8 21 6 22 2 23 3 24
REMARK SMILES IDX 1 25
REMARK H PARENT 13 13 23 15
REMARK Flexibility Score: inf
ROOT
ATOM      1  C   UNL     1       9.751  71.874  -3.172  1.00  0.00     0.036 C 
ENDROOT
BRANCH   1   2
ATOM      2  C   UNL     1       9.360  71.477  -4.605  1.00  0.00     0.005 C 
BRANCH   2   3
ATOM      3  C   UNL     1      10.536  71.532  -5.599  1.00  0.00     0.000 C 
BRANCH   3   4
ATOM      4  C   UNL     1      11.280  72.878  -5.659  1.00  0.00    -0.003 C 
ATOM      5  C   UNL     1      12.739  72.774  -5.201  1.00  0.00     0.004 C 
ENDBRANCH   3   4
ENDBRANCH   2   3
ENDBRANCH   1   2
BRANCH   1   6
ATOM      6  C   UNL     1       9.186  73.221  -2.800  1.00  0.00    -0.041 A 
ATOM      7  C   UNL     1       8.325  73.895  -3.676  1.00  0.00     0.050 A 
ATOM      8  C   UNL     1       9.530  73.826  -1.584  1.00  0.00     0.050 A 
ATOM      9  C   UNL     1       7.800  75.148  -3.345  1.00  0.00     0.123 A 
ATOM     10  C   UNL     1       8.992  75.070  -1.223  1.00  0.00     0.123 A 
ATOM     11  C   UNL     1       8.103  75.746  -2.099  1.00  0.00     0.043 A 
BRANCH   9  12
ATOM     12  O   UNL     1       6.977  75.806  -4.261  1.00  0.00    -0.507 OA
ATOM     13  H   UNL     1       6.288  76.487  -3.963  1.00  0.00     0.293 HD
ENDBRANCH   9  12
BRANCH  10  14
ATOM     14  O   UNL     1       9.338  75.628   0.007  1.00  0.00    -0.507 OA
ATOM     15  H   UNL     1       9.881  75.119   0.694  1.00  0.00     0.293 HD
ENDBRANCH  10  14
BRANCH  11  16
ATOM     16  C   UNL     1       7.490  77.106  -1.754  1.00  0.00     0.056 C 
ATOM     17  C   UNL     1       7.072  77.230  -0.311  1.00  0.00    -0.019 C 
ATOM     18  C   UNL     1       8.343  78.306  -2.225  1.00  0.00     0.026 C 
ATOM     19  C   UNL     1       6.786  78.428   0.243  1.00  0.00    -0.077 C 
ATOM     20  C   UNL     1       7.593  79.613  -1.905  1.00  0.00     0.013 C 
ATOM     21  C   UNL     1       6.283  78.482   1.659  1.00  0.00     0.039 C 
ATOM     22  C   UNL     1       7.123  79.740  -0.441  1.00  0.00     0.031 C 
BRANCH  18  23
ATOM     23  C   UNL     1       9.805  78.336  -1.756  1.00  0.00    -0.076 C 
ATOM     24  C   UNL     1      10.863  77.649  -2.588  1.00  0.00     0.039 C 
ATOM     25  C   UNL     1      10.218  79.044  -0.689  1.00  0.00     0.008 C 
ENDBRANCH  18  23
ENDBRANCH  11  16
ENDBRANCH   1   6
TORSDOF 8
ENDMDL
MODEL 2
REMARK VINA RESULT:    -8.664      0.121      1.762
REMARK INTER + INTRA:         -12.523
REMARK INTER:                 -12.421
REMARK INTRA:                  -0.102
REMARK UNBOUND:                -0.314
REMARK SMILES C=C(C)[C@@H]1CCC(C)=C[C@H]1c1c(O)cc(CCCCC)cc1O
REMARK SMILES IDX 16 1 17 2 18 3 19 4 20 5 15 6 14 7 21 8 12 9 22 10 11 11
REMARK SMILES IDX 13 12 23 14 10 16 9 17 4 18 7 19 5 20 8 21 6 22 2 23 3 24
REMARK SMILES IDX 1 25
REMARK H PARENT 13 13 23 15
REMARK Flexibility Score: inf
ROOT
ATOM      1  C   UNL     1       9.813  71.966  -3.054  1.00  0.00     0.036 C 
ENDROOT
BRANCH   1   2
ATOM      2  C   UNL     1       9.383  71.464  -4.443  1.00  0.00     0.005 C 
BRANCH   2   3
ATOM      3  C   UNL     1      10.521  71.487  -5.482  1.00  0.00     0.000 C 
BRANCH   3   4
ATOM      4  C   UNL     1      11.198  72.856  -5.680  1.00  0.00    -0.003 C 
ATOM      5  C   UNL     1      12.659  72.871  -5.217  1.00  0.00     0.004 C 
ENDBRANCH   3   4
ENDBRANCH   2   3
ENDBRANCH   1   2
BRANCH   1   6
ATOM      6  C   UNL     1       9.200  73.308  -2.742  1.00  0.00    -0.041 A 
ATOM      7  C   UNL     1       9.461  73.939  -1.519  1.00  0.00     0.050 A 
ATOM      8  C   UNL     1       8.345  73.931  -3.661  1.00  0.00     0.050 A 
ATOM      9  C   UNL     1       8.892  75.180  -1.215  1.00  0.00     0.123 A 
ATOM     10  C   UNL     1       7.788  75.187  -3.385  1.00  0.00     0.123 A 
ATOM     11  C   UNL     1       8.066  75.839  -2.155  1.00  0.00     0.043 A 
BRANCH   9  12
ATOM     12  O   UNL     1       9.144  75.758   0.030  1.00  0.00    -0.507 OA
ATOM     13  H   UNL     1       9.989  75.551   0.551  1.00  0.00     0.293 HD
ENDBRANCH   9  12
BRANCH  10  14
ATOM     14  O   UNL     1       6.962  75.787  -4.335  1.00  0.00    -0.507 OA
ATOM     15  H   UNL     1       7.285  76.543  -4.927  1.00  0.00     0.293 HD
ENDBRANCH  10  14
BRANCH  11  16
ATOM     16  C   UNL     1       7.481  77.210  -1.804  1.00  0.00     0.056 C 
ATOM     17  C   UNL     1       7.065  77.336  -0.361  1.00  0.00    -0.019 C 
ATOM     18  C   UNL     1       8.359  78.394  -2.270  1.00  0.00     0.026 C 
ATOM     19  C   UNL     1       6.804  78.537   0.198  1.00  0.00    -0.077 C 
ATOM     20  C   UNL     1       7.636  79.715  -1.944  1.00  0.00     0.013 C 
ATOM     21  C   UNL     1       6.301  78.594   1.615  1.00  0.00     0.039 C 
ATOM     22  C   UNL     1       7.168  79.845  -0.479  1.00  0.00     0.031 C 
BRANCH  18  23
ATOM     23  C   UNL     1       9.820  78.391  -1.801  1.00  0.00    -0.076 C 
ATOM     24  C   UNL     1      10.861  77.672  -2.626  1.00  0.00     0.039 C 
ATOM     25  C   UNL     1      10.251  79.097  -0.739  1.00  0.00     0.008 C 
ENDBRANCH  18  23
ENDBRANCH  11  16
ENDBRANCH   1   6
TORSDOF 8
ENDMDL
MODEL 3
REMARK VINA RESULT:    -8.008      1.887      3.673
REMARK INTER + INTRA:         -11.599
REMARK INTER:                 -11.804
REMARK INTRA:                   0.205
REMARK UNBOUND:                -0.314
REMARK SMILES C=C(C)[C@@H]1CCC(C)=C[C@H]1c1c(O)cc(CCCCC)cc1O
REMARK SMILES IDX 16 1 17 2 18 3 19 4 20 5 15 6 14 7 21 8 12 9 22 10 11 11
REMARK SMILES IDX 13 12 23 14 10 16 9 17 4 18 7 19 5 20 8 21 6 22 2 23 3 24
REMARK SMILES IDX 1 25
REMARK H PARENT 13 13 23 15
REMARK Flexibility Score: inf
ROOT
ATOM      1  C   UNL     1       8.486  74.016  -3.333  1.00  0.00     0.036 C 
ENDROOT
BRANCH   1   2
ATOM      2  C   UNL     1       9.518  72.879  -3.262  1.00  0.00     0.005 C 
BRANCH   2   3
ATOM      3  C   UNL     1       9.413  71.881  -4.432  1.00  0.00     0.000 C 
BRANCH   3   4
ATOM      4  C   UNL     1      10.313  72.194  -5.641  1.00  0.00    -0.003 C 
ATOM      5  C   UNL     1      11.722  72.639  -5.236  1.00  0.00     0.004 C 
ENDBRANCH   3   4
ENDBRANCH   2   3
ENDBRANCH   1   2
BRANCH   1   6
ATOM      6  C   UNL     1       8.961  75.238  -2.588  1.00  0.00    -0.041 A 
ATOM      7  C   UNL     1       8.271  75.693  -1.458  1.00  0.00     0.050 A 
ATOM      8  C   UNL     1      10.088  75.946  -3.029  1.00  0.00     0.050 A 
ATOM      9  C   UNL     1       8.699  76.829  -0.764  1.00  0.00     0.123 A 
ATOM     10  C   UNL     1      10.548  77.070  -2.330  1.00  0.00     0.123 A 
ATOM     11  C   UNL     1       9.862  77.523  -1.173  1.00  0.00     0.043 A 
BRANCH   9  12
ATOM     12  O   UNL     1       7.961  77.275   0.334  1.00  0.00    -0.507 OA
ATOM     13  H   UNL     1       7.264  76.689   0.780  1.00  0.00     0.293 HD
ENDBRANCH   9  12
BRANCH  10  14
ATOM     14  O   UNL     1      11.687  77.733  -2.784  1.00  0.00    -0.507 OA
ATOM     15  H   UNL     1      12.080  78.527  -2.292  1.00  0.00     0.293 HD
ENDBRANCH  10  14
BRANCH  11  16
ATOM     16  C   UNL     1      10.321  78.747  -0.375  1.00  0.00     0.056 C 
ATOM     17  C   UNL     1      11.728  79.182  -0.695  1.00  0.00    -0.019 C 
ATOM     18  C   UNL     1       9.318  79.921  -0.413  1.00  0.00     0.026 C 
ATOM     19  C   UNL     1      12.198  80.391  -0.318  1.00  0.00    -0.077 C 
ATOM     20  C   UNL     1       9.838  81.058   0.489  1.00  0.00     0.013 C 
ATOM     21  C   UNL     1      13.639  80.734  -0.582  1.00  0.00     0.039 C 
ATOM     22  C   UNL     1      11.290  81.490   0.200  1.00  0.00     0.031 C 
BRANCH  18  23
ATOM     23  C   UNL     1       8.895  80.419  -1.802  1.00  0.00    -0.076 C 
ATOM     24  C   UNL     1       7.438  80.361  -2.198  1.00  0.00     0.039 C 
ATOM     25  C   UNL     1       9.746  81.014  -2.658  1.00  0.00     0.008 C 
ENDBRANCH  18  23
ENDBRANCH  11  16
ENDBRANCH   1   6
TORSDOF 8
ENDMDL
MODEL 4
REMARK VINA RESULT:    -7.938      1.863      3.584
REMARK INTER + INTRA:         -11.500
REMARK INTER:                 -11.906
REMARK INTRA:                   0.406
REMARK UNBOUND:                -0.314
REMARK SMILES C=C(C)[C@@H]1CCC(C)=C[C@H]1c1c(O)cc(CCCCC)cc1O
REMARK SMILES IDX 16 1 17 2 18 3 19 4 20 5 15 6 14 7 21 8 12 9 22 10 11 11
REMARK SMILES IDX 13 12 23 14 10 16 9 17 4 18 7 19 5 20 8 21 6 22 2 23 3 24
REMARK SMILES IDX 1 25
REMARK H PARENT 13 13 23 15
REMARK Flexibility Score: inf
ROOT
ATOM      1  C   UNL     1       8.645  73.980  -3.427  1.00  0.00     0.036 C 
ENDROOT
BRANCH   1   2
ATOM      2  C   UNL     1       9.669  72.839  -3.307  1.00  0.00     0.005 C 
BRANCH   2   3
ATOM      3  C   UNL     1       9.501  71.749  -4.383  1.00  0.00     0.000 C 
BRANCH   3   4
ATOM      4  C   UNL     1      10.485  71.838  -5.563  1.00  0.00    -0.003 C 
ATOM      5  C   UNL     1      11.771  72.594  -5.212  1.00  0.00     0.004 C 
ENDBRANCH   3   4
ENDBRANCH   2   3
ENDBRANCH   1   2
BRANCH   1   6
ATOM      6  C   UNL     1       9.075  75.189  -2.636  1.00  0.00    -0.041 A 
ATOM      7  C   UNL     1      10.214  75.914  -3.010  1.00  0.00     0.050 A 
ATOM      8  C   UNL     1       8.352  75.592  -1.505  1.00  0.00     0.050 A 
ATOM      9  C   UNL     1      10.625  77.033  -2.280  1.00  0.00     0.123 A 
ATOM     10  C   UNL     1       8.734  76.728  -0.776  1.00  0.00     0.123 A 
ATOM     11  C   UNL     1       9.877  77.476  -1.164  1.00  0.00     0.043 A 
BRANCH   9  12
ATOM     12  O   UNL     1      11.789  77.704  -2.660  1.00  0.00    -0.507 OA
ATOM     13  H   UNL     1      12.634  77.661  -2.102  1.00  0.00     0.293 HD
ENDBRANCH   9  12
BRANCH  10  14
ATOM     14  O   UNL     1       7.976  77.112   0.328  1.00  0.00    -0.507 OA
ATOM     15  H   UNL     1       7.767  78.084   0.526  1.00  0.00     0.293 HD
ENDBRANCH  10  14
BRANCH  11  16
ATOM     16  C   UNL     1      10.338  78.721  -0.402  1.00  0.00     0.056 C 
ATOM     17  C   UNL     1      11.730  79.170  -0.766  1.00  0.00    -0.019 C 
ATOM     18  C   UNL     1       9.316  79.881  -0.437  1.00  0.00     0.026 C 
ATOM     19  C   UNL     1      12.192  80.392  -0.424  1.00  0.00    -0.077 C 
ATOM     20  C   UNL     1       9.842  81.041   0.430  1.00  0.00     0.013 C 
ATOM     21  C   UNL     1      13.620  80.750  -0.732  1.00  0.00     0.039 C 
ATOM     22  C   UNL     1      11.281  81.489   0.095  1.00  0.00     0.031 C 
BRANCH  18  23
ATOM     23  C   UNL     1       8.852  80.345  -1.824  1.00  0.00    -0.076 C 
ATOM     24  C   UNL     1       7.392  80.223  -2.195  1.00  0.00     0.039 C 
ATOM     25  C   UNL     1       9.664  80.964  -2.700  1.00  0.00     0.008 C 
ENDBRANCH  18  23
ENDBRANCH  11  16
ENDBRANCH   1   6
TORSDOF 8
ENDMDL
MODEL 5
REMARK VINA RESULT:    -7.614      1.869      2.594
REMARK INTER + INTRA:         -11.044
REMARK INTER:                 -10.738
REMARK INTRA:                  -0.307
REMARK UNBOUND:                -0.314
REMARK SMILES C=C(C)[C@@H]1CCC(C)=C[C@H]1c1c(O)cc(CCCCC)cc1O
REMARK SMILES IDX 16 1 17 2 18 3 19 4 20 5 15 6 14 7 21 8 12 9 22 10 11 11
REMARK SMILES IDX 13 12 23 14 10 16 9 17 4 18 7 19 5 20 8 21 6 22 2 23 3 24
REMARK SMILES IDX 1 25
REMARK H PARENT 13 13 23 15
REMARK Flexibility Score: inf
ROOT
ATOM      1  C   UNL     1       9.362  72.637  -1.922  1.00  0.00     0.036 C 
ENDROOT
BRANCH   1   2
ATOM      2  C   UNL     1      10.386  72.039  -2.902  1.00  0.00     0.005 C 
BRANCH   2   3
ATOM      3  C   UNL     1       9.755  71.100  -3.949  1.00  0.00     0.000 C 
BRANCH   3   4
ATOM      4  C   UNL     1      10.057  71.459  -5.415  1.00  0.00    -0.003 C 
ATOM      5  C   UNL     1      11.124  72.550  -5.555  1.00  0.00     0.004 C 
ENDBRANCH   3   4
ENDBRANCH   2   3
ENDBRANCH   1   2
BRANCH   1   6
ATOM      6  C   UNL     1       9.479  74.139  -1.854  1.00  0.00    -0.041 A 
ATOM      7  C   UNL     1       8.650  74.951  -2.638  1.00  0.00     0.050 A 
ATOM      8  C   UNL     1      10.433  74.741  -1.021  1.00  0.00     0.050 A 
ATOM      9  C   UNL     1       8.755  76.345  -2.588  1.00  0.00     0.123 A 
ATOM     10  C   UNL     1      10.533  76.137  -0.938  1.00  0.00     0.123 A 
ATOM     11  C   UNL     1       9.681  76.964  -1.716  1.00  0.00     0.043 A 
BRANCH   9  12
ATOM     12  O   UNL     1       7.938  77.119  -3.415  1.00  0.00    -0.507 OA
ATOM     13  H   UNL     1       7.107  77.579  -3.060  1.00  0.00     0.293 HD
ENDBRANCH   9  12
BRANCH  10  14
ATOM     14  O   UNL     1      11.476  76.699  -0.080  1.00  0.00    -0.507 OA
ATOM     15  H   UNL     1      12.031  77.505  -0.344  1.00  0.00     0.293 HD
ENDBRANCH  10  14
BRANCH  11  16
ATOM     16  C   UNL     1       9.752  78.492  -1.664  1.00  0.00     0.056 C 
ATOM     17  C   UNL     1       9.967  79.039  -0.276  1.00  0.00    -0.019 C 
ATOM     18  C   UNL     1      10.729  79.101  -2.695  1.00  0.00     0.026 C 
ATOM     19  C   UNL     1      10.341  80.320  -0.069  1.00  0.00    -0.077 C 
ATOM     20  C   UNL     1      10.654  80.638  -2.613  1.00  0.00     0.013 C 
ATOM     21  C   UNL     1      10.448  80.836   1.340  1.00  0.00     0.039 C 
ATOM     22  C   UNL     1      10.834  81.213  -1.192  1.00  0.00     0.031 C 
BRANCH  18  23
ATOM     23  C   UNL     1      12.173  78.579  -2.664  1.00  0.00    -0.076 C 
ATOM     24  C   UNL     1      12.599  77.523  -3.656  1.00  0.00     0.039 C 
ATOM     25  C   UNL     1      13.122  79.098  -1.864  1.00  0.00     0.008 C 
ENDBRANCH  18  23
ENDBRANCH  11  16
ENDBRANCH   1   6
TORSDOF 8
ENDMDL
MODEL 6
REMARK VINA RESULT:    -7.535      2.953      6.110
REMARK INTER + INTRA:         -10.932
REMARK INTER:                 -10.590
REMARK INTRA:                  -0.342
REMARK UNBOUND:                -0.314
REMARK SMILES C=C(C)[C@@H]1CCC(C)=C[C@H]1c1c(O)cc(CCCCC)cc1O
REMARK SMILES IDX 16 1 17 2 18 3 19 4 20 5 15 6 14 7 21 8 12 9 22 10 11 11
REMARK SMILES IDX 13 12 23 14 10 16 9 17 4 18 7 19 5 20 8 21 6 22 2 23 3 24
REMARK SMILES IDX 1 25
REMARK H PARENT 13 13 23 15
REMARK Flexibility Score: inf
ROOT
ATOM      1  C   UNL     1      13.625  80.506  -2.192  1.00  0.00     0.036 C 
ENDROOT
BRANCH   1   2
ATOM      2  C   UNL     1      14.818  79.664  -2.675  1.00  0.00     0.005 C 
BRANCH   2   3
ATOM      3  C   UNL     1      15.339  80.080  -4.064  1.00  0.00     0.000 C 
BRANCH   3   4
ATOM      4  C   UNL     1      14.264  80.595  -5.038  1.00  0.00    -0.003 C 
ATOM      5  C   UNL     1      14.603  81.968  -5.628  1.00  0.00     0.004 C 
ENDBRANCH   3   4
ENDBRANCH   2   3
ENDBRANCH   1   2
BRANCH   1   6
ATOM      6  C   UNL     1      12.388  79.659  -2.024  1.00  0.00    -0.041 A 
ATOM      7  C   UNL     1      11.369  80.059  -1.150  1.00  0.00     0.050 A 
ATOM      8  C   UNL     1      12.253  78.451  -2.722  1.00  0.00     0.050 A 
ATOM      9  C   UNL     1      10.221  79.279  -0.980  1.00  0.00     0.123 A 
ATOM     10  C   UNL     1      11.097  77.670  -2.585  1.00  0.00     0.123 A 
ATOM     11  C   UNL     1      10.053  78.082  -1.716  1.00  0.00     0.043 A 
BRANCH   9  12
ATOM     12  O   UNL     1       9.246  79.691  -0.071  1.00  0.00    -0.507 OA
ATOM     13  H   UNL     1       8.798  80.597  -0.146  1.00  0.00     0.293 HD
ENDBRANCH   9  12
BRANCH  10  14
ATOM     14  O   UNL     1      10.987  76.488  -3.315  1.00  0.00    -0.507 OA
ATOM     15  H   UNL     1      11.798  76.010  -3.691  1.00  0.00     0.293 HD
ENDBRANCH  10  14
BRANCH  11  16
ATOM     16  C   UNL     1       8.772  77.264  -1.529  1.00  0.00     0.056 C 
ATOM     17  C   UNL     1       8.266  76.636  -2.802  1.00  0.00    -0.019 C 
ATOM     18  C   UNL     1       8.851  76.251  -0.364  1.00  0.00     0.026 C 
ATOM     19  C   UNL     1       7.334  75.659  -2.788  1.00  0.00    -0.077 C 
ATOM     20  C   UNL     1       7.486  75.551  -0.212  1.00  0.00     0.013 C 
ATOM     21  C   UNL     1       6.798  75.136  -4.093  1.00  0.00     0.039 C 
ATOM     22  C   UNL     1       6.935  74.936  -1.515  1.00  0.00     0.031 C 
BRANCH  18  23
ATOM     23  C   UNL     1      10.022  75.259  -0.393  1.00  0.00    -0.076 C 
ATOM     24  C   UNL     1      11.282  75.579   0.374  1.00  0.00     0.039 C 
ATOM     25  C   UNL     1       9.945  74.052  -0.983  1.00  0.00     0.008 C 
ENDBRANCH  18  23
ENDBRANCH  11  16
ENDBRANCH   1   6
TORSDOF 8
ENDMDL
MODEL 7
REMARK VINA RESULT:    -7.504      2.923      6.128
REMARK INTER + INTRA:         -10.889
REMARK INTER:                 -10.127
REMARK INTRA:                  -0.762
REMARK UNBOUND:                -0.314
REMARK SMILES C=C(C)[C@@H]1CCC(C)=C[C@H]1c1c(O)cc(CCCCC)cc1O
REMARK SMILES IDX 16 1 17 2 18 3 19 4 20 5 15 6 14 7 21 8 12 9 22 10 11 11
REMARK SMILES IDX 13 12 23 14 10 16 9 17 4 18 7 19 5 20 8 21 6 22 2 23 3 24
REMARK SMILES IDX 1 25
REMARK H PARENT 13 13 23 15
REMARK Flexibility Score: inf
ROOT
ATOM      1  C   UNL     1      13.551  80.471  -2.324  1.00  0.00     0.036 C 
ENDROOT
BRANCH   1   2
ATOM      2  C   UNL     1      14.816  79.711  -1.891  1.00  0.00     0.005 C 
BRANCH   2   3
ATOM      3  C   UNL     1      14.995  79.640  -0.362  1.00  0.00     0.000 C 
BRANCH   3   4
ATOM      4  C   UNL     1      14.626  78.289   0.278  1.00  0.00    -0.003 C 
ATOM      5  C   UNL     1      13.433  78.387   1.234  1.00  0.00     0.004 C 
ENDBRANCH   3   4
ENDBRANCH   2   3
ENDBRANCH   1   2
BRANCH   1   6
ATOM      6  C   UNL     1      12.316  79.625  -2.154  1.00  0.00    -0.041 A 
ATOM      7  C   UNL     1      11.271  80.054  -1.325  1.00  0.00     0.050 A 
ATOM      8  C   UNL     1      12.205  78.388  -2.805  1.00  0.00     0.050 A 
ATOM      9  C   UNL     1      10.123  79.273  -1.153  1.00  0.00     0.123 A 
ATOM     10  C   UNL     1      11.050  77.605  -2.667  1.00  0.00     0.123 A 
ATOM     11  C   UNL     1       9.981  78.046  -1.843  1.00  0.00     0.043 A 
BRANCH   9  12
ATOM     12  O   UNL     1       9.122  79.716  -0.287  1.00  0.00    -0.507 OA
ATOM     13  H   UNL     1       8.213  80.008  -0.631  1.00  0.00     0.293 HD
ENDBRANCH   9  12
BRANCH  10  14
ATOM     14  O   UNL     1      10.966  76.394  -3.350  1.00  0.00    -0.507 OA
ATOM     15  H   UNL     1      10.841  75.511  -2.868  1.00  0.00     0.293 HD
ENDBRANCH  10  14
BRANCH  11  16
ATOM     16  C   UNL     1       8.701  77.228  -1.656  1.00  0.00     0.056 C 
ATOM     17  C   UNL     1       8.209  76.579  -2.925  1.00  0.00    -0.019 C 
ATOM     18  C   UNL     1       8.769  76.235  -0.474  1.00  0.00     0.026 C 
ATOM     19  C   UNL     1       7.280  75.599  -2.905  1.00  0.00    -0.077 C 
ATOM     20  C   UNL     1       7.404  75.534  -0.326  1.00  0.00     0.013 C 
ATOM     21  C   UNL     1       6.759  75.054  -4.207  1.00  0.00     0.039 C 
ATOM     22  C   UNL     1       6.868  74.896  -1.625  1.00  0.00     0.031 C 
BRANCH  18  23
ATOM     23  C   UNL     1       9.942  75.245  -0.475  1.00  0.00    -0.076 C 
ATOM     24  C   UNL     1      11.181  75.566   0.326  1.00  0.00     0.039 C 
ATOM     25  C   UNL     1       9.883  74.039  -1.070  1.00  0.00     0.008 C 
ENDBRANCH  18  23
ENDBRANCH  11  16
ENDBRANCH   1   6
TORSDOF 8
ENDMDL
MODEL 8
REMARK VINA RESULT:    -7.469      2.927      5.996
REMARK INTER + INTRA:         -10.839
REMARK INTER:                 -10.714
REMARK INTRA:                  -0.125
REMARK UNBOUND:                -0.314
REMARK SMILES C=C(C)[C@@H]1CCC(C)=C[C@H]1c1c(O)cc(CCCCC)cc1O
REMARK SMILES IDX 16 1 17 2 18 3 19 4 20 5 15 6 14 7 21 8 12 9 22 10 11 11
REMARK SMILES IDX 13 12 23 14 10 16 9 17 4 18 7 19 5 20 8 21 6 22 2 23 3 24
REMARK SMILES IDX 1 25
REMARK H PARENT 13 13 23 15
REMARK Flexibility Score: inf
ROOT
ATOM      1  C   UNL     1      13.599  80.452  -2.231  1.00  0.00     0.036 C 
ENDROOT
BRANCH   1   2
ATOM      2  C   UNL     1      14.759  79.579  -2.740  1.00  0.00     0.005 C 
BRANCH   2   3
ATOM      3  C   UNL     1      15.334  80.050  -4.090  1.00  0.00     0.000 C 
BRANCH   3   4
ATOM      4  C   UNL     1      14.289  80.525  -5.116  1.00  0.00    -0.003 C 
ATOM      5  C   UNL     1      14.586  81.924  -5.667  1.00  0.00     0.004 C 
ENDBRANCH   3   4
ENDBRANCH   2   3
ENDBRANCH   1   2
BRANCH   1   6
ATOM      6  C   UNL     1      12.338  79.645  -2.060  1.00  0.00    -0.041 A 
ATOM      7  C   UNL     1      12.172  78.434  -2.744  1.00  0.00     0.050 A 
ATOM      8  C   UNL     1      11.306  80.105  -1.230  1.00  0.00     0.050 A 
ATOM      9  C   UNL     1      11.003  77.681  -2.598  1.00  0.00     0.123 A 
ATOM     10  C   UNL     1      10.139  79.349  -1.050  1.00  0.00     0.123 A 
ATOM     11  C   UNL     1       9.975  78.113  -1.727  1.00  0.00     0.043 A 
BRANCH   9  12
ATOM     12  O   UNL     1      10.858  76.500  -3.329  1.00  0.00    -0.507 OA
ATOM     13  H   UNL     1      10.269  76.453  -4.153  1.00  0.00     0.293 HD
ENDBRANCH   9  12
BRANCH  10  14
ATOM     14  O   UNL     1       9.146  79.828  -0.197  1.00  0.00    -0.507 OA
ATOM     15  H   UNL     1       9.327  80.554   0.486  1.00  0.00     0.293 HD
ENDBRANCH  10  14
BRANCH  11  16
ATOM     16  C   UNL     1       8.720  77.251  -1.567  1.00  0.00     0.056 C 
ATOM     17  C   UNL     1       8.251  76.625  -2.855  1.00  0.00    -0.019 C 
ATOM     18  C   UNL     1       8.817  76.226  -0.414  1.00  0.00     0.026 C 
ATOM     19  C   UNL     1       7.351  75.618  -2.866  1.00  0.00    -0.077 C 
ATOM     20  C   UNL     1       7.474  75.480  -0.290  1.00  0.00     0.013 C 
ATOM     21  C   UNL     1       6.849  75.095  -4.184  1.00  0.00     0.039 C 
ATOM     22  C   UNL     1       6.959  74.865  -1.608  1.00  0.00     0.031 C 
BRANCH  18  23
ATOM     23  C   UNL     1      10.020  75.273  -0.442  1.00  0.00    -0.076 C 
ATOM     24  C   UNL     1      11.255  75.617   0.356  1.00  0.00     0.039 C 
ATOM     25  C   UNL     1       9.993  74.077  -1.057  1.00  0.00     0.008 C 
ENDBRANCH  18  23
ENDBRANCH  11  16
ENDBRANCH   1   6
TORSDOF 8
ENDMDL
MODEL 9
REMARK VINA RESULT:    -7.448      6.078      9.591
REMARK INTER + INTRA:         -10.810
REMARK INTER:                 -10.962
REMARK INTRA:                   0.152
REMARK UNBOUND:                -0.314
REMARK SMILES C=C(C)[C@@H]1CCC(C)=C[C@H]1c1c(O)cc(CCCCC)cc1O
REMARK SMILES IDX 16 1 17 2 18 3 19 4 20 5 15 6 14 7 21 8 12 9 22 10 11 11
REMARK SMILES IDX 13 12 23 14 10 16 9 17 4 18 7 19 5 20 8 21 6 22 2 23 3 24
REMARK SMILES IDX 1 25
REMARK H PARENT 13 13 23 15
REMARK Flexibility Score: inf
ROOT
ATOM      1  C   UNL     1      11.738  78.627  -1.550  1.00  0.00     0.036 C 
ENDROOT
BRANCH   1   2
ATOM      2  C   UNL     1      10.661  79.659  -1.177  1.00  0.00     0.005 C 
BRANCH   2   3
ATOM      3  C   UNL     1      11.230  80.924  -0.506  1.00  0.00     0.000 C 
BRANCH   3   4
ATOM      4  C   UNL     1      10.783  81.149   0.950  1.00  0.00    -0.003 C 
ATOM      5  C   UNL     1      11.881  80.823   1.968  1.00  0.00     0.004 C 
ENDBRANCH   3   4
ENDBRANCH   2   3
ENDBRANCH   1   2
BRANCH   1   6
ATOM      6  C   UNL     1      12.761  79.214  -2.489  1.00  0.00    -0.041 A 
ATOM      7  C   UNL     1      12.356  79.975  -3.593  1.00  0.00     0.050 A 
ATOM      8  C   UNL     1      14.129  78.990  -2.281  1.00  0.00     0.050 A 
ATOM      9  C   UNL     1      13.295  80.519  -4.475  1.00  0.00     0.123 A 
ATOM     10  C   UNL     1      15.086  79.550  -3.139  1.00  0.00     0.123 A 
ATOM     11  C   UNL     1      14.680  80.338  -4.248  1.00  0.00     0.043 A 
BRANCH   9  12
ATOM     12  O   UNL     1      12.851  81.237  -5.586  1.00  0.00    -0.507 OA
ATOM     13  H   UNL     1      12.037  81.839  -5.539  1.00  0.00     0.293 HD
ENDBRANCH   9  12
BRANCH  10  14
ATOM     14  O   UNL     1      16.438  79.326  -2.885  1.00  0.00    -0.507 OA
ATOM     15  H   UNL     1      16.814  79.314  -1.944  1.00  0.00     0.293 HD
ENDBRANCH  10  14
BRANCH  11  16
ATOM     16  C   UNL     1      15.685  80.970  -5.215  1.00  0.00     0.056 C 
ATOM     17  C   UNL     1      17.064  81.133  -4.630  1.00  0.00    -0.019 C 
ATOM     18  C   UNL     1      15.710  80.297  -6.606  1.00  0.00     0.026 C 
ATOM     19  C   UNL     1      18.136  81.395  -5.408  1.00  0.00    -0.077 C 
ATOM     20  C   UNL     1      16.686  81.065  -7.519  1.00  0.00     0.013 C 
ATOM     21  C   UNL     1      19.472  81.642  -4.760  1.00  0.00     0.039 C 
ATOM     22  C   UNL     1      18.092  81.274  -6.920  1.00  0.00     0.031 C 
BRANCH  18  23
ATOM     23  C   UNL     1      15.949  78.781  -6.631  1.00  0.00    -0.076 C 
ATOM     24  C   UNL     1      14.801  77.845  -6.334  1.00  0.00     0.039 C 
ATOM     25  C   UNL     1      17.114  78.229  -7.017  1.00  0.00     0.008 C 
ENDBRANCH  18  23
ENDBRANCH  11  16
ENDBRANCH   1   6
TORSDOF 8
ENDMDL
MODEL 10
REMARK VINA RESULT:    -7.397      2.915      6.046
REMARK INTER + INTRA:         -10.738
REMARK INTER:                 -10.248
REMARK INTRA:                  -0.490
REMARK UNBOUND:                -0.314
REMARK SMILES C=C(C)[C@@H]1CCC(C)=C[C@H]1c1c(O)cc(CCCCC)cc1O
REMARK SMILES IDX 16 1 17 2 18 3 19 4 20 5 15 6 14 7 21 8 12 9 22 10 11 11
REMARK SMILES IDX 13 12 23 14 10 16 9 17 4 18 7 19 5 20 8 21 6 22 2 23 3 24
REMARK SMILES IDX 1 25
REMARK H PARENT 13 13 23 15
REMARK Flexibility Score: inf
ROOT
ATOM      1  C   UNL     1      13.521  80.485  -2.345  1.00  0.00     0.036 C 
ENDROOT
BRANCH   1   2
ATOM      2  C   UNL     1      14.776  79.693  -1.940  1.00  0.00     0.005 C 
BRANCH   2   3
ATOM      3  C   UNL     1      15.019  79.665  -0.419  1.00  0.00     0.000 C 
BRANCH   3   4
ATOM      4  C   UNL     1      14.600  78.361   0.286  1.00  0.00    -0.003 C 
ATOM      5  C   UNL     1      13.415  78.552   1.238  1.00  0.00     0.004 C 
ENDBRANCH   3   4
ENDBRANCH   2   3
ENDBRANCH   1   2
BRANCH   1   6
ATOM      6  C   UNL     1      12.268  79.672  -2.139  1.00  0.00    -0.041 A 
ATOM      7  C   UNL     1      12.108  78.440  -2.786  1.00  0.00     0.050 A 
ATOM      8  C   UNL     1      11.239  80.148  -1.315  1.00  0.00     0.050 A 
ATOM      9  C   UNL     1      10.947  77.682  -2.609  1.00  0.00     0.123 A 
ATOM     10  C   UNL     1      10.080  79.388  -1.104  1.00  0.00     0.123 A 
ATOM     11  C   UNL     1       9.922  78.131  -1.742  1.00  0.00     0.043 A 
BRANCH   9  12
ATOM     12  O   UNL     1      10.807  76.478  -3.302  1.00  0.00    -0.507 OA
ATOM     13  H   UNL     1      10.069  75.819  -3.079  1.00  0.00     0.293 HD
ENDBRANCH   9  12
BRANCH  10  14
ATOM     14  O   UNL     1       9.089  79.883  -0.257  1.00  0.00    -0.507 OA
ATOM     15  H   UNL     1       8.703  79.331   0.500  1.00  0.00     0.293 HD
ENDBRANCH  10  14
BRANCH  11  16
ATOM     16  C   UNL     1       8.676  77.264  -1.547  1.00  0.00     0.056 C 
ATOM     17  C   UNL     1       8.179  76.627  -2.819  1.00  0.00    -0.019 C 
ATOM     18  C   UNL     1       8.806  76.246  -0.391  1.00  0.00     0.026 C 
ATOM     19  C   UNL     1       7.285  75.615  -2.803  1.00  0.00    -0.077 C 
ATOM     20  C   UNL     1       7.470  75.494  -0.230  1.00  0.00     0.013 C 
ATOM     21  C   UNL     1       6.754  75.082  -4.105  1.00  0.00     0.039 C 
ATOM     22  C   UNL     1       6.928  74.868  -1.531  1.00  0.00     0.031 C 
BRANCH  18  23
ATOM     23  C   UNL     1      10.013  75.299  -0.441  1.00  0.00    -0.076 C 
ATOM     24  C   UNL     1      11.265  75.654   0.326  1.00  0.00     0.039 C 
ATOM     25  C   UNL     1       9.978  74.100  -1.050  1.00  0.00     0.008 C 
ENDBRANCH  18  23
ENDBRANCH  11  16
ENDBRANCH   1   6
TORSDOF 8
ENDMDL
MODEL 11
REMARK VINA RESULT:    -7.354      2.676      5.113
REMARK INTER + INTRA:         -10.678
REMARK INTER:                 -10.651
REMARK INTRA:                  -0.027
REMARK UNBOUND:                -0.314
REMARK SMILES C=C(C)[C@@H]1CCC(C)=C[C@H]1c1c(O)cc(CCCCC)cc1O
REMARK SMILES IDX 16 1 17 2 18 3 19 4 20 5 15 6 14 7 21 8 12 9 22 10 11 11
REMARK SMILES IDX 13 12 23 14 10 16 9 17 4 18 7 19 5 20 8 21 6 22 2 23 3 24
REMARK SMILES IDX 1 25
REMARK H PARENT 13 13 23 15
REMARK Flexibility Score: inf
ROOT
ATOM      1  C   UNL     1       8.471  74.487  -1.979  1.00  0.00     0.036 C 
ENDROOT
BRANCH   1   2
ATOM      2  C   UNL     1       9.015  73.078  -2.271  1.00  0.00     0.005 C 
BRANCH   2   3
ATOM      3  C   UNL     1       9.521  72.904  -3.716  1.00  0.00     0.000 C 
BRANCH   3   4
ATOM      4  C   UNL     1       9.742  71.446  -4.160  1.00  0.00    -0.003 C 
ATOM      5  C   UNL     1       9.404  71.214  -5.637  1.00  0.00     0.004 C 
ENDBRANCH   3   4
ENDBRANCH   2   3
ENDBRANCH   1   2
BRANCH   1   6
ATOM      6  C   UNL     1       9.582  75.444  -1.629  1.00  0.00    -0.041 A 
ATOM      7  C   UNL     1      10.338  75.258  -0.465  1.00  0.00     0.050 A 
ATOM      8  C   UNL     1       9.860  76.543  -2.453  1.00  0.00     0.050 A 
ATOM      9  C   UNL     1      11.366  76.143  -0.126  1.00  0.00     0.123 A 
ATOM     10  C   UNL     1      10.905  77.426  -2.145  1.00  0.00     0.123 A 
ATOM     11  C   UNL     1      11.686  77.229  -0.976  1.00  0.00     0.043 A 
BRANCH   9  12
ATOM     12  O   UNL     1      12.070  75.948   1.063  1.00  0.00    -0.507 OA
ATOM     13  H   UNL     1      12.656  75.132   1.206  1.00  0.00     0.293 HD
ENDBRANCH   9  12
BRANCH  10  14
ATOM     14  O   UNL     1      11.168  78.493  -3.002  1.00  0.00    -0.507 OA
ATOM     15  H   UNL     1      11.719  78.383  -3.845  1.00  0.00     0.293 HD
ENDBRANCH  10  14
BRANCH  11  16
ATOM     16  C   UNL     1      12.836  78.164  -0.592  1.00  0.00     0.056 C 
ATOM     17  C   UNL     1      13.664  78.616  -1.768  1.00  0.00    -0.019 C 
ATOM     18  C   UNL     1      12.400  79.342   0.308  1.00  0.00     0.026 C 
ATOM     19  C   UNL     1      14.524  79.652  -1.672  1.00  0.00    -0.077 C 
ATOM     20  C   UNL     1      13.644  80.162   0.702  1.00  0.00     0.013 C 
ATOM     21  C   UNL     1      15.393  79.998  -2.850  1.00  0.00     0.039 C 
ATOM     22  C   UNL     1      14.524  80.601  -0.487  1.00  0.00     0.031 C 
BRANCH  18  23
ATOM     23  C   UNL     1      11.257  80.222  -0.216  1.00  0.00    -0.076 C 
ATOM     24  C   UNL     1       9.827  79.793   0.015  1.00  0.00     0.039 C 
ATOM     25  C   UNL     1      11.459  81.426  -0.782  1.00  0.00     0.008 C 
ENDBRANCH  18  23
ENDBRANCH  11  16
ENDBRANCH   1   6
TORSDOF 8
ENDMDL
MODEL 12
REMARK VINA RESULT:    -7.338      6.054      9.318
REMARK INTER + INTRA:         -10.655
REMARK INTER:                 -10.771
REMARK INTRA:                   0.116
REMARK UNBOUND:                -0.314
REMARK SMILES C=C(C)[C@@H]1CCC(C)=C[C@H]1c1c(O)cc(CCCCC)cc1O
REMARK SMILES IDX 16 1 17 2 18 3 19 4 20 5 15 6 14 7 21 8 12 9 22 10 11 11
REMARK SMILES IDX 13 12 23 14 10 16 9 17 4 18 7 19 5 20 8 21 6 22 2 23 3 24
REMARK SMILES IDX 1 25
REMARK H PARENT 13 13 23 15
REMARK Flexibility Score: inf
ROOT
ATOM      1  C   UNL     1      11.849  78.416  -1.650  1.00  0.00     0.036 C 
ENDROOT
BRANCH   1   2
ATOM      2  C   UNL     1      10.569  79.258  -1.513  1.00  0.00     0.005 C 
BRANCH   2   3
ATOM      3  C   UNL     1       9.294  78.512  -1.950  1.00  0.00     0.000 C 
BRANCH   3   4
ATOM      4  C   UNL     1       7.971  79.221  -1.608  1.00  0.00    -0.003 C 
ATOM      5  C   UNL     1       7.816  80.570  -2.317  1.00  0.00     0.004 C 
ENDBRANCH   3   4
ENDBRANCH   2   3
ENDBRANCH   1   2
BRANCH   1   6
ATOM      6  C   UNL     1      12.841  79.071  -2.577  1.00  0.00    -0.041 A 
ATOM      7  C   UNL     1      12.399  79.857  -3.648  1.00  0.00     0.050 A 
ATOM      8  C   UNL     1      14.218  78.885  -2.391  1.00  0.00     0.050 A 
ATOM      9  C   UNL     1      13.311  80.464  -4.519  1.00  0.00     0.123 A 
ATOM     10  C   UNL     1      15.147  79.508  -3.237  1.00  0.00     0.123 A 
ATOM     11  C   UNL     1      14.703  80.321  -4.312  1.00  0.00     0.043 A 
BRANCH   9  12
ATOM     12  O   UNL     1      12.831  81.206  -5.599  1.00  0.00    -0.507 OA
ATOM     13  H   UNL     1      11.850  81.448  -5.683  1.00  0.00     0.293 HD
ENDBRANCH   9  12
BRANCH  10  14
ATOM     14  O   UNL     1      16.508  79.320  -3.004  1.00  0.00    -0.507 OA
ATOM     15  H   UNL     1      17.150  80.098  -2.908  1.00  0.00     0.293 HD
ENDBRANCH  10  14
BRANCH  11  16
ATOM     16  C   UNL     1      15.675  81.020  -5.265  1.00  0.00     0.056 C 
ATOM     17  C   UNL     1      17.041  81.252  -4.671  1.00  0.00    -0.019 C 
ATOM     18  C   UNL     1      15.745  80.368  -6.664  1.00  0.00     0.026 C 
ATOM     19  C   UNL     1      18.101  81.584  -5.439  1.00  0.00    -0.077 C 
ATOM     20  C   UNL     1      16.681  81.201  -7.562  1.00  0.00     0.013 C 
ATOM     21  C   UNL     1      19.417  81.895  -4.781  1.00  0.00     0.039 C 
ATOM     22  C   UNL     1      18.071  81.480  -6.953  1.00  0.00     0.031 C 
BRANCH  18  23
ATOM     23  C   UNL     1      16.068  78.868  -6.708  1.00  0.00    -0.076 C 
ATOM     24  C   UNL     1      14.976  77.867  -6.413  1.00  0.00     0.039 C 
ATOM     25  C   UNL     1      17.259  78.386  -7.109  1.00  0.00     0.008 C 
ENDBRANCH  18  23
ENDBRANCH  11  16
ENDBRANCH   1   6
TORSDOF 8
ENDMDL
MODEL 13
REMARK VINA RESULT:    -7.163      3.523      6.512
REMARK INTER + INTRA:         -10.408
REMARK INTER:                 -10.221
REMARK INTRA:                  -0.186
REMARK UNBOUND:                -0.314
REMARK SMILES C=C(C)[C@@H]1CCC(C)=C[C@H]1c1c(O)cc(CCCCC)cc1O
REMARK SMILES IDX 16 1 17 2 18 3 19 4 20 5 15 6 14 7 21 8 12 9 22 10 11 11
REMARK SMILES IDX 13 12 23 14 10 16 9 17 4 18 7 19 5 20 8 21 6 22 2 23 3 24
REMARK SMILES IDX 1 25
REMARK H PARENT 13 13 23 15
REMARK Flexibility Score: inf
ROOT
ATOM      1  C   UNL     1       6.733  78.607  -0.124  1.00  0.00     0.036 C 
ENDROOT
BRANCH   1   2
ATOM      2  C   UNL     1       6.556  77.530   0.960  1.00  0.00     0.005 C 
BRANCH   2   3
ATOM      3  C   UNL     1       5.538  76.438   0.578  1.00  0.00     0.000 C 
BRANCH   3   4
ATOM      4  C   UNL     1       6.139  75.045   0.321  1.00  0.00    -0.003 C 
ATOM      5  C   UNL     1       6.405  74.774  -1.164  1.00  0.00     0.004 C 
ENDBRANCH   3   4
ENDBRANCH   2   3
ENDBRANCH   1   2
BRANCH   1   6
ATOM      6  C   UNL     1       8.132  78.596  -0.686  1.00  0.00    -0.041 A 
ATOM      7  C   UNL     1       8.680  79.756  -1.248  1.00  0.00     0.050 A 
ATOM      8  C   UNL     1       8.894  77.419  -0.674  1.00  0.00     0.050 A 
ATOM      9  C   UNL     1       9.974  79.755  -1.779  1.00  0.00     0.123 A 
ATOM     10  C   UNL     1      10.203  77.406  -1.177  1.00  0.00     0.123 A 
ATOM     11  C   UNL     1      10.769  78.585  -1.728  1.00  0.00     0.043 A 
BRANCH   9  12
ATOM     12  O   UNL     1      10.470  80.920  -2.366  1.00  0.00    -0.507 OA
ATOM     13  H   UNL     1      10.865  80.918  -3.300  1.00  0.00     0.293 HD
ENDBRANCH   9  12
BRANCH  10  14
ATOM     14  O   UNL     1      10.939  76.224  -1.124  1.00  0.00    -0.507 OA
ATOM     15  H   UNL     1      10.521  75.342  -0.849  1.00  0.00     0.293 HD
ENDBRANCH  10  14
BRANCH  11  16
ATOM     16  C   UNL     1      12.191  78.624  -2.293  1.00  0.00     0.056 C 
ATOM     17  C   UNL     1      12.358  79.583  -3.443  1.00  0.00    -0.019 C 
ATOM     18  C   UNL     1      13.280  78.807  -1.211  1.00  0.00     0.026 C 
ATOM     19  C   UNL     1      13.578  79.967  -3.875  1.00  0.00    -0.077 C 
ATOM     20  C   UNL     1      14.668  78.744  -1.878  1.00  0.00     0.013 C 
ATOM     21  C   UNL     1      13.685  80.851  -5.087  1.00  0.00     0.039 C 
ATOM     22  C   UNL     1      14.843  79.692  -3.083  1.00  0.00     0.031 C 
BRANCH  18  23
ATOM     23  C   UNL     1      13.129  80.019  -0.282  1.00  0.00    -0.076 C 
ATOM     24  C   UNL     1      12.624  79.813   1.127  1.00  0.00     0.039 C 
ATOM     25  C   UNL     1      13.530  81.258  -0.621  1.00  0.00     0.008 C 
ENDBRANCH  18  23
ENDBRANCH  11  16
ENDBRANCH   1   6
TORSDOF 8
ENDMDL
MODEL 14
REMARK VINA RESULT:    -7.134      5.365      7.371
REMARK INTER + INTRA:         -10.367
REMARK INTER:                 -10.062
REMARK INTRA:                  -0.305
REMARK UNBOUND:                -0.314
REMARK SMILES C=C(C)[C@@H]1CCC(C)=C[C@H]1c1c(O)cc(CCCCC)cc1O
REMARK SMILES IDX 16 1 17 2 18 3 19 4 20 5 15 6 14 7 21 8 12 9 22 10 11 11
REMARK SMILES IDX 13 12 23 14 10 16 9 17 4 18 7 19 5 20 8 21 6 22 2 23 3 24
REMARK SMILES IDX 1 25
REMARK H PARENT 13 13 23 15
REMARK Flexibility Score: inf
ROOT
ATOM      1  C   UNL     1      15.901  78.111  -7.076  1.00  0.00     0.036 C 
ENDROOT
BRANCH   1   2
ATOM      2  C   UNL     1      17.357  78.571  -6.891  1.00  0.00     0.005 C 
BRANCH   2   3
ATOM      3  C   UNL     1      17.726  79.798  -7.747  1.00  0.00     0.000 C 
BRANCH   3   4
ATOM      4  C   UNL     1      18.553  80.876  -7.023  1.00  0.00    -0.003 C 
ATOM      5  C   UNL     1      18.741  80.582  -5.531  1.00  0.00     0.004 C 
ENDBRANCH   3   4
ENDBRANCH   2   3
ENDBRANCH   1   2
BRANCH   1   6
ATOM      6  C   UNL     1      15.015  78.634  -5.974  1.00  0.00    -0.041 A 
ATOM      7  C   UNL     1      15.022  79.995  -5.644  1.00  0.00     0.050 A 
ATOM      8  C   UNL     1      14.189  77.762  -5.252  1.00  0.00     0.050 A 
ATOM      9  C   UNL     1      14.209  80.490  -4.619  1.00  0.00     0.123 A 
ATOM     10  C   UNL     1      13.347  78.244  -4.239  1.00  0.00     0.123 A 
ATOM     11  C   UNL     1      13.337  79.626  -3.916  1.00  0.00     0.043 A 
BRANCH   9  12
ATOM     12  O   UNL     1      14.274  81.846  -4.293  1.00  0.00    -0.507 OA
ATOM     13  H   UNL     1      14.572  82.158  -3.376  1.00  0.00     0.293 HD
ENDBRANCH   9  12
BRANCH  10  14
ATOM     14  O   UNL     1      12.521  77.351  -3.560  1.00  0.00    -0.507 OA
ATOM     15  H   UNL     1      11.820  77.662  -2.898  1.00  0.00     0.293 HD
ENDBRANCH  10  14
BRANCH  11  16
ATOM     16  C   UNL     1      12.439  80.203  -2.818  1.00  0.00     0.056 C 
ATOM     17  C   UNL     1      11.122  79.485  -2.677  1.00  0.00    -0.019 C 
ATOM     18  C   UNL     1      13.160  80.384  -1.462  1.00  0.00     0.026 C 
ATOM     19  C   UNL     1      10.334  79.656  -1.593  1.00  0.00    -0.077 C 
ATOM     20  C   UNL     1      12.193  81.050  -0.463  1.00  0.00     0.013 C 
ATOM     21  C   UNL     1       8.988  78.988  -1.550  1.00  0.00     0.039 C 
ATOM     22  C   UNL     1      10.824  80.349  -0.335  1.00  0.00     0.031 C 
BRANCH  18  23
ATOM     23  C   UNL     1      13.848  79.143  -0.879  1.00  0.00    -0.076 C 
ATOM     24  C   UNL     1      15.346  78.998  -1.007  1.00  0.00     0.039 C 
ATOM     25  C   UNL     1      13.195  78.217  -0.152  1.00  0.00     0.008 C 
ENDBRANCH  18  23
ENDBRANCH  11  16
ENDBRANCH   1   6
TORSDOF 8
ENDMDL
MODEL 15
REMARK VINA RESULT:    -7.126      3.420      6.429
REMARK INTER + INTRA:         -10.356
REMARK INTER:                  -9.871
REMARK INTRA:                  -0.485
REMARK UNBOUND:                -0.314
REMARK SMILES C=C(C)[C@@H]1CCC(C)=C[C@H]1c1c(O)cc(CCCCC)cc1O
REMARK SMILES IDX 16 1 17 2 18 3 19 4 20 5 15 6 14 7 21 8 12 9 22 10 11 11
REMARK SMILES IDX 13 12 23 14 10 16 9 17 4 18 7 19 5 20 8 21 6 22 2 23 3 24
REMARK SMILES IDX 1 25
REMARK H PARENT 13 13 23 15
REMARK Flexibility Score: inf
ROOT
ATOM      1  C   UNL     1       7.494  75.862  -1.527  1.00  0.00     0.036 C 
ENDROOT
BRANCH   1   2
ATOM      2  C   UNL     1       6.940  75.361  -0.183  1.00  0.00     0.005 C 
BRANCH   2   3
ATOM      3  C   UNL     1       5.753  76.193   0.340  1.00  0.00     0.000 C 
BRANCH   3   4
ATOM      4  C   UNL     1       6.133  77.377   1.248  1.00  0.00    -0.003 C 
ATOM      5  C   UNL     1       6.355  78.678   0.470  1.00  0.00     0.004 C 
ENDBRANCH   3   4
ENDBRANCH   2   3
ENDBRANCH   1   2
BRANCH   1   6
ATOM      6  C   UNL     1       8.856  76.486  -1.362  1.00  0.00    -0.041 A 
ATOM      7  C   UNL     1       9.780  75.945  -0.459  1.00  0.00     0.050 A 
ATOM      8  C   UNL     1       9.209  77.629  -2.095  1.00  0.00     0.050 A 
ATOM      9  C   UNL     1      11.044  76.520  -0.293  1.00  0.00     0.123 A 
ATOM     10  C   UNL     1      10.481  78.202  -1.962  1.00  0.00     0.123 A 
ATOM     11  C   UNL     1      11.427  77.644  -1.062  1.00  0.00     0.043 A 
BRANCH   9  12
ATOM     12  O   UNL     1      11.922  75.976   0.646  1.00  0.00    -0.507 OA
ATOM     13  H   UNL     1      11.821  75.023   0.978  1.00  0.00     0.293 HD
ENDBRANCH   9  12
BRANCH  10  14
ATOM     14  O   UNL     1      10.804  79.322  -2.726  1.00  0.00    -0.507 OA
ATOM     15  H   UNL     1      10.271  79.585  -3.546  1.00  0.00     0.293 HD
ENDBRANCH  10  14
BRANCH  11  16
ATOM     16  C   UNL     1      12.828  78.233  -0.877  1.00  0.00     0.056 C 
ATOM     17  C   UNL     1      13.476  78.664  -2.168  1.00  0.00    -0.019 C 
ATOM     18  C   UNL     1      12.899  79.329   0.211  1.00  0.00     0.026 C 
ATOM     19  C   UNL     1      14.568  79.458  -2.182  1.00  0.00    -0.077 C 
ATOM     20  C   UNL     1      14.363  79.784   0.372  1.00  0.00     0.013 C 
ATOM     21  C   UNL     1      15.228  79.778  -3.496  1.00  0.00     0.039 C 
ATOM     22  C   UNL     1      15.054  80.192  -0.946  1.00  0.00     0.031 C 
BRANCH  18  23
ATOM     23  C   UNL     1      11.927  80.508   0.064  1.00  0.00    -0.076 C 
ATOM     24  C   UNL     1      10.640  80.509   0.854  1.00  0.00     0.039 C 
ATOM     25  C   UNL     1      12.214  81.608  -0.656  1.00  0.00     0.008 C 
ENDBRANCH  18  23
ENDBRANCH  11  16
ENDBRANCH   1   6
TORSDOF 8
ENDMDL
