MODEL 1
REMARK VINA RESULT:    -9.871      0.000      0.000
REMARK INTER + INTRA:         -14.269
REMARK INTER:                 -13.334
REMARK INTRA:                  -0.935
REMARK UNBOUND:                -0.935
REMARK SMILES COc1cc2nccc(Oc3ccc(NC(=O)NC4CC4)c(Cl)c3)c2cc1C(N)=O
REMARK SMILES IDX 11 1 12 2 13 3 14 4 22 5 23 6 24 7 10 8 9 9 3 10 27 11 4 12
REMARK SMILES IDX 26 13 5 14 25 15 6 16 7 17 8 18 2 19 1 20 28 21 29 22 30 23
REMARK SMILES IDX 15 26 16 27 17 29 18 30 19 32 20 33 21 34
REMARK H PARENT 29 24 29 25 15 28 18 31
REMARK Flexibility Score: inf
ROOT
ATOM      1  C   UNL     1     -82.100 -20.813  87.209  1.00  0.00     0.129 A 
ATOM      2  C   UNL     1     -83.147 -20.103  86.617  1.00  0.00     0.049 A 
ATOM      3  C   UNL     1     -84.257 -19.717  87.372  1.00  0.00     0.031 A 
ATOM      4  C   UNL     1     -84.327 -20.015  88.744  1.00  0.00     0.061 A 
ATOM      5  C   UNL     1     -83.269 -20.729  89.343  1.00  0.00     0.068 A 
ATOM      6  Cl  UNL     1     -83.284 -21.114  91.059  1.00  0.00    -0.082 Cl
ATOM      7  C   UNL     1     -82.161 -21.112  88.581  1.00  0.00     0.069 A 
ENDROOT
BRANCH   1   8
ATOM      8  O   UNL     1     -80.995 -21.167  86.421  1.00  0.00    -0.457 OA
BRANCH   8   9
ATOM      9  C   UNL     1     -79.950 -20.304  86.052  1.00  0.00     0.138 A 
ATOM     10  C   UNL     1     -76.643 -19.691  88.620  1.00  0.00     0.133 A 
ATOM     11  C   UNL     1     -77.685 -20.558  89.016  1.00  0.00     0.082 A 
ATOM     12  C   UNL     1     -76.737 -19.016  87.388  1.00  0.00     0.076 A 
ATOM     13  C   UNL     1     -78.779 -20.770  88.159  1.00  0.00     0.032 A 
ATOM     14  C   UNL     1     -77.834 -19.217  86.547  1.00  0.00     0.078 A 
ATOM     15  C   UNL     1     -78.864 -20.103  86.927  1.00  0.00     0.044 A 
ATOM     16  N   UNL     1     -77.903 -18.561  85.358  1.00  0.00    -0.256 NA
ATOM     17  C   UNL     1     -78.948 -18.730  84.507  1.00  0.00     0.115 A 
ATOM     18  C   UNL     1     -79.989 -19.597  84.839  1.00  0.00     0.068 A 
BRANCH  10  19
ATOM     19  O   UNL     1     -75.520 -19.544  89.452  1.00  0.00    -0.496 OA
ATOM     20  C   UNL     1     -75.124 -18.327  90.074  1.00  0.00     0.278 C 
ENDBRANCH  10  19
BRANCH  11  21
ATOM     21  C   UNL     1     -77.638 -21.281  90.309  1.00  0.00     0.252 C 
ATOM     22  N   UNL     1     -77.620 -20.576  91.552  1.00  0.00    -0.365 N 
ATOM     23  O   UNL     1     -77.645 -22.541  90.319  1.00  0.00    -0.269 OA
ATOM     24  H   UNL     1     -77.517 -21.100  92.449  1.00  0.00     0.159 HD
ATOM     25  H   UNL     1     -77.795 -19.548  91.593  1.00  0.00     0.159 HD
ENDBRANCH  11  21
ENDBRANCH   8   9
ENDBRANCH   1   8
BRANCH   4  26
ATOM     26  N   UNL     1     -85.481 -19.644  89.517  1.00  0.00    -0.307 N 
ATOM     27  C   UNL     1     -86.044 -18.324  89.524  1.00  0.00     0.319 C 
ATOM     28  H   UNL     1     -85.905 -20.354  90.155  1.00  0.00     0.171 HD
ATOM     29  O   UNL     1     -85.431 -17.365  88.981  1.00  0.00    -0.248 OA
ATOM     30  N   UNL     1     -87.294 -18.089  90.184  1.00  0.00    -0.335 N 
ATOM     31  H   UNL     1     -87.755 -18.876  90.695  1.00  0.00     0.165 HD
BRANCH  30  32
ATOM     32  C   UNL     1     -87.870 -16.751  90.279  1.00  0.00     0.084 C 
ATOM     33  C   UNL     1     -89.359 -16.740  90.581  1.00  0.00     0.027 C 
ATOM     34  C   UNL     1     -88.867 -16.445  89.173  1.00  0.00     0.027 C 
ENDBRANCH  30  32
ENDBRANCH   4  26
TORSDOF 6
ENDMDL
MODEL 2
REMARK VINA RESULT:    -9.714      2.200      4.160
REMARK INTER + INTRA:         -14.057
REMARK INTER:                 -14.247
REMARK INTRA:                   0.190
REMARK UNBOUND:                -0.935
REMARK SMILES COc1cc2nccc(Oc3ccc(NC(=O)NC4CC4)c(Cl)c3)c2cc1C(N)=O
REMARK SMILES IDX 11 1 12 2 13 3 14 4 22 5 23 6 24 7 10 8 9 9 3 10 27 11 4 12
REMARK SMILES IDX 26 13 5 14 25 15 6 16 7 17 8 18 2 19 1 20 28 21 29 22 30 23
REMARK SMILES IDX 15 26 16 27 17 29 18 30 19 32 20 33 21 34
REMARK H PARENT 29 24 29 25 15 28 18 31
REMARK Flexibility Score: inf
ROOT
ATOM      1  C   UNL     1     -81.956 -20.746  87.238  1.00  0.00     0.129 A 
ATOM      2  C   UNL     1     -82.994 -20.020  86.649  1.00  0.00     0.049 A 
ATOM      3  C   UNL     1     -84.114 -19.650  87.397  1.00  0.00     0.031 A 
ATOM      4  C   UNL     1     -84.202 -19.980  88.761  1.00  0.00     0.061 A 
ATOM      5  C   UNL     1     -83.154 -20.709  89.358  1.00  0.00     0.068 A 
ATOM      6  Cl  UNL     1     -83.193 -21.134  91.065  1.00  0.00    -0.082 Cl
ATOM      7  C   UNL     1     -82.036 -21.077  88.602  1.00  0.00     0.069 A 
ENDROOT
BRANCH   1   8
ATOM      8  O   UNL     1     -80.841 -21.083  86.458  1.00  0.00    -0.457 OA
BRANCH   8   9
ATOM      9  C   UNL     1     -79.525 -20.651  86.691  1.00  0.00     0.138 A 
ATOM     10  C   UNL     1     -77.501 -18.251  83.853  1.00  0.00     0.133 A 
ATOM     11  C   UNL     1     -78.822 -18.678  83.594  1.00  0.00     0.082 A 
ATOM     12  C   UNL     1     -76.864 -18.660  85.041  1.00  0.00     0.076 A 
ATOM     13  C   UNL     1     -79.499 -19.467  84.540  1.00  0.00     0.032 A 
ATOM     14  C   UNL     1     -77.535 -19.457  85.971  1.00  0.00     0.078 A 
ATOM     15  C   UNL     1     -78.864 -19.864  85.728  1.00  0.00     0.044 A 
ATOM     16  N   UNL     1     -76.905 -19.835  87.116  1.00  0.00    -0.256 NA
ATOM     17  C   UNL     1     -77.520 -20.606  88.050  1.00  0.00     0.115 A 
ATOM     18  C   UNL     1     -78.833 -21.031  87.853  1.00  0.00     0.068 A 
BRANCH  10  19
ATOM     19  O   UNL     1     -76.862 -17.402  82.934  1.00  0.00    -0.496 OA
ATOM     20  C   UNL     1     -75.651 -17.709  82.252  1.00  0.00     0.278 C 
ENDBRANCH  10  19
BRANCH  11  21
ATOM     21  C   UNL     1     -79.530 -18.285  82.352  1.00  0.00     0.252 C 
ATOM     22  N   UNL     1     -80.925 -18.544  82.181  1.00  0.00    -0.365 N 
ATOM     23  O   UNL     1     -78.902 -17.684  81.440  1.00  0.00    -0.269 OA
ATOM     24  H   UNL     1     -81.391 -18.323  81.273  1.00  0.00     0.159 HD
ATOM     25  H   UNL     1     -81.516 -18.872  82.977  1.00  0.00     0.159 HD
ENDBRANCH  11  21
ENDBRANCH   8   9
ENDBRANCH   1   8
BRANCH   4  26
ATOM     26  N   UNL     1     -85.367 -19.625  89.527  1.00  0.00    -0.307 N 
ATOM     27  C   UNL     1     -86.010 -18.345  89.451  1.00  0.00     0.319 C 
ATOM     28  H   UNL     1     -85.737 -20.313  90.220  1.00  0.00     0.171 HD
ATOM     29  O   UNL     1     -85.464 -17.392  88.831  1.00  0.00    -0.248 OA
ATOM     30  N   UNL     1     -87.263 -18.139  90.115  1.00  0.00    -0.335 N 
ATOM     31  H   UNL     1     -87.668 -18.914  90.688  1.00  0.00     0.165 HD
BRANCH  30  32
ATOM     32  C   UNL     1     -87.919 -16.835  90.126  1.00  0.00     0.084 C 
ATOM     33  C   UNL     1     -88.093 -16.244  91.515  1.00  0.00     0.027 C 
ATOM     34  C   UNL     1     -89.285 -16.854  90.793  1.00  0.00     0.027 C 
ENDBRANCH  30  32
ENDBRANCH   4  26
TORSDOF 6
ENDMDL
MODEL 3
REMARK VINA RESULT:    -9.214      1.735      2.214
REMARK INTER + INTRA:         -13.381
REMARK INTER:                 -13.709
REMARK INTRA:                   0.328
REMARK UNBOUND:                -0.935
REMARK SMILES COc1cc2nccc(Oc3ccc(NC(=O)NC4CC4)c(Cl)c3)c2cc1C(N)=O
REMARK SMILES IDX 11 1 12 2 13 3 14 4 22 5 23 6 24 7 10 8 9 9 3 10 27 11 4 12
REMARK SMILES IDX 26 13 5 14 25 15 6 16 7 17 8 18 2 19 1 20 28 21 29 22 30 23
REMARK SMILES IDX 15 26 16 27 17 29 18 30 19 32 20 33 21 34
REMARK H PARENT 29 24 29 25 15 28 18 31
REMARK Flexibility Score: inf
ROOT
ATOM      1  C   UNL     1     -83.193 -20.400  86.908  1.00  0.00     0.129 A 
ATOM      2  C   UNL     1     -83.337 -19.054  87.253  1.00  0.00     0.049 A 
ATOM      3  C   UNL     1     -84.290 -18.662  88.196  1.00  0.00     0.031 A 
ATOM      4  C   UNL     1     -85.103 -19.618  88.829  1.00  0.00     0.061 A 
ATOM      5  C   UNL     1     -84.957 -20.977  88.484  1.00  0.00     0.068 A 
ATOM      6  Cl  UNL     1     -85.927 -22.225  89.256  1.00  0.00    -0.082 Cl
ATOM      7  C   UNL     1     -84.000 -21.362  87.539  1.00  0.00     0.069 A 
ENDROOT
BRANCH   1   8
ATOM      8  O   UNL     1     -82.212 -20.755  85.970  1.00  0.00    -0.457 OA
BRANCH   8   9
ATOM      9  C   UNL     1     -80.836 -20.515  86.104  1.00  0.00     0.138 A 
ATOM     10  C   UNL     1     -78.879 -21.142  89.804  1.00  0.00     0.133 A 
ATOM     11  C   UNL     1     -80.267 -21.384  89.696  1.00  0.00     0.082 A 
ATOM     12  C   UNL     1     -78.173 -20.661  88.685  1.00  0.00     0.076 A 
ATOM     13  C   UNL     1     -80.915 -21.185  88.465  1.00  0.00     0.032 A 
ATOM     14  C   UNL     1     -78.825 -20.450  87.467  1.00  0.00     0.078 A 
ATOM     15  C   UNL     1     -80.205 -20.716  87.348  1.00  0.00     0.044 A 
ATOM     16  N   UNL     1     -78.123 -19.993  86.396  1.00  0.00    -0.256 NA
ATOM     17  C   UNL     1     -78.715 -19.778  85.192  1.00  0.00     0.115 A 
ATOM     18  C   UNL     1     -80.077 -20.029  85.026  1.00  0.00     0.068 A 
BRANCH  10  19
ATOM     19  O   UNL     1     -78.228 -21.414  91.019  1.00  0.00    -0.496 OA
ATOM     20  C   UNL     1     -76.853 -21.154  91.279  1.00  0.00     0.278 C 
ENDBRANCH  10  19
BRANCH  11  21
ATOM     21  C   UNL     1     -81.056 -21.877  90.849  1.00  0.00     0.252 C 
ATOM     22  N   UNL     1     -80.453 -22.667  91.876  1.00  0.00    -0.365 N 
ATOM     23  O   UNL     1     -82.274 -21.572  90.947  1.00  0.00    -0.269 OA
ATOM     24  H   UNL     1     -81.039 -23.064  92.644  1.00  0.00     0.159 HD
ATOM     25  H   UNL     1     -79.417 -22.790  91.927  1.00  0.00     0.159 HD
ENDBRANCH  11  21
ENDBRANCH   8   9
ENDBRANCH   1   8
BRANCH   4  26
ATOM     26  N   UNL     1     -86.105 -19.214  89.779  1.00  0.00    -0.307 N 
ATOM     27  C   UNL     1     -86.707 -17.912  89.796  1.00  0.00     0.319 C 
ATOM     28  H   UNL     1     -86.373 -19.881  90.536  1.00  0.00     0.171 HD
ATOM     29  O   UNL     1     -86.244 -16.984  89.077  1.00  0.00    -0.248 OA
ATOM     30  N   UNL     1     -87.818 -17.655  90.664  1.00  0.00    -0.335 N 
ATOM     31  H   UNL     1     -88.144 -18.409  91.309  1.00  0.00     0.165 HD
BRANCH  30  32
ATOM     32  C   UNL     1     -88.417 -16.327  90.768  1.00  0.00     0.084 C 
ATOM     33  C   UNL     1     -89.559 -16.242  91.766  1.00  0.00     0.027 C 
ATOM     34  C   UNL     1     -89.853 -16.275  90.274  1.00  0.00     0.027 C 
ENDBRANCH  30  32
ENDBRANCH   4  26
TORSDOF 6
ENDMDL
MODEL 4
REMARK VINA RESULT:    -8.960      4.614      9.157
REMARK INTER + INTRA:         -13.037
REMARK INTER:                 -11.932
REMARK INTRA:                  -1.105
REMARK UNBOUND:                -0.935
REMARK SMILES COc1cc2nccc(Oc3ccc(NC(=O)NC4CC4)c(Cl)c3)c2cc1C(N)=O
REMARK SMILES IDX 11 1 12 2 13 3 14 4 22 5 23 6 24 7 10 8 9 9 3 10 27 11 4 12
REMARK SMILES IDX 26 13 5 14 25 15 6 16 7 17 8 18 2 19 1 20 28 21 29 22 30 23
REMARK SMILES IDX 15 26 16 27 17 29 18 30 19 32 20 33 21 34
REMARK H PARENT 29 24 29 25 15 28 18 31
REMARK Flexibility Score: inf
ROOT
ATOM      1  C   UNL     1     -75.462 -17.951  87.286  1.00  0.00     0.129 A 
ATOM      2  C   UNL     1     -76.120 -17.639  88.478  1.00  0.00     0.049 A 
ATOM      3  C   UNL     1     -75.724 -16.536  89.238  1.00  0.00     0.031 A 
ATOM      4  C   UNL     1     -74.674 -15.708  88.802  1.00  0.00     0.061 A 
ATOM      5  C   UNL     1     -74.012 -16.020  87.598  1.00  0.00     0.068 A 
ATOM      6  Cl  UNL     1     -72.706 -15.013  86.986  1.00  0.00    -0.082 Cl
ATOM      7  C   UNL     1     -74.413 -17.127  86.843  1.00  0.00     0.069 A 
ENDROOT
BRANCH   1   8
ATOM      8  O   UNL     1     -75.900 -19.057  86.543  1.00  0.00    -0.457 OA
BRANCH   8   9
ATOM      9  C   UNL     1     -77.140 -19.160  85.893  1.00  0.00     0.138 A 
ATOM     10  C   UNL     1     -80.408 -21.097  87.760  1.00  0.00     0.133 A 
ATOM     11  C   UNL     1     -79.167 -21.012  88.431  1.00  0.00     0.082 A 
ATOM     12  C   UNL     1     -80.528 -20.564  86.462  1.00  0.00     0.076 A 
ATOM     13  C   UNL     1     -78.085 -20.360  87.816  1.00  0.00     0.032 A 
ATOM     14  C   UNL     1     -79.445 -19.930  85.848  1.00  0.00     0.078 A 
ATOM     15  C   UNL     1     -78.212 -19.820  86.526  1.00  0.00     0.044 A 
ATOM     16  N   UNL     1     -79.584 -19.415  84.597  1.00  0.00    -0.256 NA
ATOM     17  C   UNL     1     -78.559 -18.787  83.964  1.00  0.00     0.115 A 
ATOM     18  C   UNL     1     -77.322 -18.653  84.595  1.00  0.00     0.068 A 
BRANCH  10  19
ATOM     19  O   UNL     1     -81.503 -21.686  88.414  1.00  0.00    -0.496 OA
ATOM     20  C   UNL     1     -82.570 -22.364  87.761  1.00  0.00     0.278 C 
ENDBRANCH  10  19
BRANCH  11  21
ATOM     21  C   UNL     1     -78.987 -21.570  89.792  1.00  0.00     0.252 C 
ATOM     22  N   UNL     1     -80.010 -21.452  90.783  1.00  0.00    -0.365 N 
ATOM     23  O   UNL     1     -77.927 -22.188  90.077  1.00  0.00    -0.269 OA
ATOM     24  H   UNL     1     -79.838 -21.790  91.756  1.00  0.00     0.159 HD
ATOM     25  H   UNL     1     -80.965 -21.111  90.536  1.00  0.00     0.159 HD
ENDBRANCH  11  21
ENDBRANCH   8   9
ENDBRANCH   1   8
BRANCH   4  26
ATOM     26  N   UNL     1     -74.247 -14.588  89.597  1.00  0.00    -0.307 N 
ATOM     27  C   UNL     1     -73.249 -14.675  90.624  1.00  0.00     0.319 C 
ATOM     28  H   UNL     1     -74.725 -13.669  89.463  1.00  0.00     0.171 HD
ATOM     29  O   UNL     1     -72.822 -15.799  91.007  1.00  0.00    -0.248 OA
ATOM     30  N   UNL     1     -72.761 -13.478  91.243  1.00  0.00    -0.335 N 
ATOM     31  H   UNL     1     -73.177 -12.559  90.970  1.00  0.00     0.165 HD
BRANCH  30  32
ATOM     32  C   UNL     1     -71.799 -13.521  92.340  1.00  0.00     0.084 C 
ATOM     33  C   UNL     1     -72.431 -13.737  93.705  1.00  0.00     0.027 C 
ATOM     34  C   UNL     1     -71.936 -12.355  93.306  1.00  0.00     0.027 C 
ENDBRANCH  30  32
ENDBRANCH   4  26
TORSDOF 6
ENDMDL
MODEL 5
REMARK VINA RESULT:    -8.880      3.816      8.944
REMARK INTER + INTRA:         -12.930
REMARK INTER:                 -11.708
REMARK INTRA:                  -1.223
REMARK UNBOUND:                -0.935
REMARK SMILES COc1cc2nccc(Oc3ccc(NC(=O)NC4CC4)c(Cl)c3)c2cc1C(N)=O
REMARK SMILES IDX 11 1 12 2 13 3 14 4 22 5 23 6 24 7 10 8 9 9 3 10 27 11 4 12
REMARK SMILES IDX 26 13 5 14 25 15 6 16 7 17 8 18 2 19 1 20 28 21 29 22 30 23
REMARK SMILES IDX 15 26 16 27 17 29 18 30 19 32 20 33 21 34
REMARK H PARENT 29 24 29 25 15 28 18 31
REMARK Flexibility Score: inf
ROOT
ATOM      1  C   UNL     1     -77.203 -18.702  86.392  1.00  0.00     0.129 A 
ATOM      2  C   UNL     1     -76.662 -17.612  85.706  1.00  0.00     0.049 A 
ATOM      3  C   UNL     1     -75.932 -16.637  86.389  1.00  0.00     0.031 A 
ATOM      4  C   UNL     1     -75.709 -16.750  87.773  1.00  0.00     0.061 A 
ATOM      5  C   UNL     1     -76.251 -17.852  88.466  1.00  0.00     0.068 A 
ATOM      6  Cl  UNL     1     -75.991 -18.064  90.192  1.00  0.00    -0.082 Cl
ATOM      7  C   UNL     1     -76.982 -18.824  87.774  1.00  0.00     0.069 A 
ENDROOT
BRANCH   1   8
ATOM      8  O   UNL     1     -77.915 -19.669  85.666  1.00  0.00    -0.457 OA
BRANCH   8   9
ATOM      9  C   UNL     1     -79.218 -19.514  85.167  1.00  0.00     0.138 A 
ATOM     10  C   UNL     1     -82.566 -20.771  87.430  1.00  0.00     0.133 A 
ATOM     11  C   UNL     1     -81.264 -20.943  87.951  1.00  0.00     0.082 A 
ATOM     12  C   UNL     1     -82.728 -20.213  86.148  1.00  0.00     0.076 A 
ATOM     13  C   UNL     1     -80.152 -20.517  87.204  1.00  0.00     0.032 A 
ATOM     14  C   UNL     1     -81.619 -19.805  85.402  1.00  0.00     0.078 A 
ATOM     15  C   UNL     1     -80.319 -19.951  85.930  1.00  0.00     0.044 A 
ATOM     16  N   UNL     1     -81.797 -19.262  84.168  1.00  0.00    -0.256 NA
ATOM     17  C   UNL     1     -80.748 -18.848  83.411  1.00  0.00     0.115 A 
ATOM     18  C   UNL     1     -79.445 -18.971  83.891  1.00  0.00     0.068 A 
BRANCH  10  19
ATOM     19  O   UNL     1     -83.673 -21.132  88.217  1.00  0.00    -0.496 OA
ATOM     20  C   UNL     1     -84.803 -21.857  87.744  1.00  0.00     0.278 C 
ENDBRANCH  10  19
BRANCH  11  21
ATOM     21  C   UNL     1     -81.042 -21.537  89.290  1.00  0.00     0.252 C 
ATOM     22  N   UNL     1     -81.863 -22.602  89.774  1.00  0.00    -0.365 N 
ATOM     23  O   UNL     1     -80.093 -21.121  90.007  1.00  0.00    -0.269 OA
ATOM     24  H   UNL     1     -81.736 -22.960  90.747  1.00  0.00     0.159 HD
ATOM     25  H   UNL     1     -82.537 -23.093  89.147  1.00  0.00     0.159 HD
ENDBRANCH  11  21
ENDBRANCH   8   9
ENDBRANCH   1   8
BRANCH   4  26
ATOM     26  N   UNL     1     -74.982 -15.733  88.483  1.00  0.00    -0.307 N 
ATOM     27  C   UNL     1     -73.559 -15.755  88.671  1.00  0.00     0.319 C 
ATOM     28  H   UNL     1     -75.519 -14.962  88.940  1.00  0.00     0.171 HD
ATOM     29  O   UNL     1     -72.891 -16.781  88.370  1.00  0.00    -0.248 OA
ATOM     30  N   UNL     1     -72.901 -14.615  89.238  1.00  0.00    -0.335 N 
ATOM     31  H   UNL     1     -73.475 -13.801  89.552  1.00  0.00     0.165 HD
BRANCH  30  32
ATOM     32  C   UNL     1     -71.467 -14.618  89.513  1.00  0.00     0.084 C 
ATOM     33  C   UNL     1     -71.050 -13.668  90.622  1.00  0.00     0.027 C 
ATOM     34  C   UNL     1     -70.785 -13.304  89.170  1.00  0.00     0.027 C 
ENDBRANCH  30  32
ENDBRANCH   4  26
TORSDOF 6
ENDMDL
MODEL 6
REMARK VINA RESULT:    -8.850      3.587      8.690
REMARK INTER + INTRA:         -12.889
REMARK INTER:                 -11.676
REMARK INTRA:                  -1.213
REMARK UNBOUND:                -0.935
REMARK SMILES COc1cc2nccc(Oc3ccc(NC(=O)NC4CC4)c(Cl)c3)c2cc1C(N)=O
REMARK SMILES IDX 11 1 12 2 13 3 14 4 22 5 23 6 24 7 10 8 9 9 3 10 27 11 4 12
REMARK SMILES IDX 26 13 5 14 25 15 6 16 7 17 8 18 2 19 1 20 28 21 29 22 30 23
REMARK SMILES IDX 15 26 16 27 17 29 18 30 19 32 20 33 21 34
REMARK H PARENT 29 24 29 25 15 28 18 31
REMARK Flexibility Score: inf
ROOT
ATOM      1  C   UNL     1     -76.589 -18.499  87.376  1.00  0.00     0.129 A 
ATOM      2  C   UNL     1     -76.160 -17.224  87.002  1.00  0.00     0.049 A 
ATOM      3  C   UNL     1     -75.746 -16.304  87.967  1.00  0.00     0.031 A 
ATOM      4  C   UNL     1     -75.729 -16.656  89.328  1.00  0.00     0.061 A 
ATOM      5  C   UNL     1     -76.158 -17.944  89.708  1.00  0.00     0.068 A 
ATOM      6  Cl  UNL     1     -76.140 -18.454  91.390  1.00  0.00    -0.082 Cl
ATOM      7  C   UNL     1     -76.572 -18.860  88.734  1.00  0.00     0.069 A 
ENDROOT
BRANCH   1   8
ATOM      8  O   UNL     1     -76.981 -19.400  86.375  1.00  0.00    -0.457 OA
BRANCH   8   9
ATOM      9  C   UNL     1     -78.038 -19.203  85.473  1.00  0.00     0.138 A 
ATOM     10  C   UNL     1     -81.935 -20.589  86.372  1.00  0.00     0.133 A 
ATOM     11  C   UNL     1     -80.885 -20.804  87.292  1.00  0.00     0.082 A 
ATOM     12  C   UNL     1     -81.660 -19.944  85.151  1.00  0.00     0.076 A 
ATOM     13  C   UNL     1     -79.593 -20.336  86.999  1.00  0.00     0.032 A 
ATOM     14  C   UNL     1     -80.371 -19.494  84.856  1.00  0.00     0.078 A 
ATOM     15  C   UNL     1     -79.325 -19.684  85.784  1.00  0.00     0.044 A 
ATOM     16  N   UNL     1     -80.128 -18.866  83.675  1.00  0.00    -0.256 NA
ATOM     17  C   UNL     1     -78.891 -18.408  83.349  1.00  0.00     0.115 A 
ATOM     18  C   UNL     1     -77.827 -18.572  84.235  1.00  0.00     0.068 A 
BRANCH  10  19
ATOM     19  O   UNL     1     -83.237 -20.996  86.709  1.00  0.00    -0.496 OA
ATOM     20  C   UNL     1     -84.254 -20.133  87.205  1.00  0.00     0.278 C 
ENDBRANCH  10  19
BRANCH  11  21
ATOM     21  C   UNL     1     -81.122 -21.490  88.585  1.00  0.00     0.252 C 
ATOM     22  N   UNL     1     -82.039 -22.581  88.688  1.00  0.00    -0.365 N 
ATOM     23  O   UNL     1     -80.481 -21.129  89.608  1.00  0.00    -0.269 OA
ATOM     24  H   UNL     1     -82.245 -23.006  89.619  1.00  0.00     0.159 HD
ATOM     25  H   UNL     1     -82.450 -23.024  87.837  1.00  0.00     0.159 HD
ENDBRANCH  11  21
ENDBRANCH   8   9
ENDBRANCH   1   8
BRANCH   4  26
ATOM     26  N   UNL     1     -75.330 -15.701  90.327  1.00  0.00    -0.307 N 
ATOM     27  C   UNL     1     -73.979 -15.548  90.788  1.00  0.00     0.319 C 
ATOM     28  H   UNL     1     -76.067 -15.123  90.788  1.00  0.00     0.171 HD
ATOM     29  O   UNL     1     -73.094 -16.385  90.461  1.00  0.00    -0.248 OA
ATOM     30  N   UNL     1     -73.644 -14.456  91.654  1.00  0.00    -0.335 N 
ATOM     31  H   UNL     1     -74.401 -13.814  91.978  1.00  0.00     0.165 HD
BRANCH  30  32
ATOM     32  C   UNL     1     -72.301 -14.301  92.204  1.00  0.00     0.084 C 
ATOM     33  C   UNL     1     -72.232 -14.456  93.714  1.00  0.00     0.027 C 
ATOM     34  C   UNL     1     -72.151 -13.072  93.087  1.00  0.00     0.027 C 
ENDBRANCH  30  32
ENDBRANCH   4  26
TORSDOF 6
ENDMDL
MODEL 7
REMARK VINA RESULT:    -8.823      4.474      9.942
REMARK INTER + INTRA:         -12.853
REMARK INTER:                 -11.742
REMARK INTRA:                  -1.111
REMARK UNBOUND:                -0.935
REMARK SMILES COc1cc2nccc(Oc3ccc(NC(=O)NC4CC4)c(Cl)c3)c2cc1C(N)=O
REMARK SMILES IDX 11 1 12 2 13 3 14 4 22 5 23 6 24 7 10 8 9 9 3 10 27 11 4 12
REMARK SMILES IDX 26 13 5 14 25 15 6 16 7 17 8 18 2 19 1 20 28 21 29 22 30 23
REMARK SMILES IDX 15 26 16 27 17 29 18 30 19 32 20 33 21 34
REMARK H PARENT 29 24 29 25 15 28 18 31
REMARK Flexibility Score: inf
ROOT
ATOM      1  C   UNL     1     -76.827 -19.590  86.465  1.00  0.00     0.129 A 
ATOM      2  C   UNL     1     -77.221 -18.253  86.376  1.00  0.00     0.049 A 
ATOM      3  C   UNL     1     -76.294 -17.263  86.042  1.00  0.00     0.031 A 
ATOM      4  C   UNL     1     -74.957 -17.599  85.765  1.00  0.00     0.061 A 
ATOM      5  C   UNL     1     -74.559 -18.949  85.851  1.00  0.00     0.068 A 
ATOM      6  Cl  UNL     1     -72.908 -19.439  85.496  1.00  0.00    -0.082 Cl
ATOM      7  C   UNL     1     -75.493 -19.935  86.187  1.00  0.00     0.069 A 
ENDROOT
BRANCH   1   8
ATOM      8  O   UNL     1     -77.791 -20.557  86.786  1.00  0.00    -0.457 OA
BRANCH   8   9
ATOM      9  C   UNL     1     -78.295 -20.807  88.073  1.00  0.00     0.138 A 
ATOM     10  C   UNL     1     -82.420 -21.534  88.677  1.00  0.00     0.133 A 
ATOM     11  C   UNL     1     -81.938 -21.279  87.374  1.00  0.00     0.082 A 
ATOM     12  C   UNL     1     -81.523 -21.509  89.763  1.00  0.00     0.076 A 
ATOM     13  C   UNL     1     -80.566 -21.047  87.172  1.00  0.00     0.032 A 
ATOM     14  C   UNL     1     -80.164 -21.262  89.558  1.00  0.00     0.078 A 
ATOM     15  C   UNL     1     -79.673 -21.033  88.255  1.00  0.00     0.044 A 
ATOM     16  N   UNL     1     -79.312 -21.249  90.619  1.00  0.00    -0.256 NA
ATOM     17  C   UNL     1     -77.982 -21.019  90.466  1.00  0.00     0.115 A 
ATOM     18  C   UNL     1     -77.452 -20.789  89.197  1.00  0.00     0.068 A 
BRANCH  10  19
ATOM     19  O   UNL     1     -83.780 -21.837  88.858  1.00  0.00    -0.496 OA
ATOM     20  C   UNL     1     -84.823 -20.872  88.942  1.00  0.00     0.278 C 
ENDBRANCH  10  19
BRANCH  11  21
ATOM     21  C   UNL     1     -82.844 -21.282  86.202  1.00  0.00     0.252 C 
ATOM     22  N   UNL     1     -83.451 -22.489  85.737  1.00  0.00    -0.365 N 
ATOM     23  O   UNL     1     -83.113 -20.197  85.620  1.00  0.00    -0.269 OA
ATOM     24  H   UNL     1     -84.031 -22.483  84.869  1.00  0.00     0.159 HD
ATOM     25  H   UNL     1     -83.399 -23.370  86.295  1.00  0.00     0.159 HD
ENDBRANCH  11  21
ENDBRANCH   8   9
ENDBRANCH   1   8
BRANCH   4  26
ATOM     26  N   UNL     1     -73.995 -16.578  85.449  1.00  0.00    -0.307 N 
ATOM     27  C   UNL     1     -73.616 -16.228  84.110  1.00  0.00     0.319 C 
ATOM     28  H   UNL     1     -73.499 -16.100  86.233  1.00  0.00     0.171 HD
ATOM     29  O   UNL     1     -73.985 -16.940  83.135  1.00  0.00    -0.248 OA
ATOM     30  N   UNL     1     -72.785 -15.083  83.884  1.00  0.00    -0.335 N 
ATOM     31  H   UNL     1     -72.425 -14.547  84.704  1.00  0.00     0.165 HD
BRANCH  30  32
ATOM     32  C   UNL     1     -72.316 -14.730  82.547  1.00  0.00     0.084 C 
ATOM     33  C   UNL     1     -70.813 -14.863  82.366  1.00  0.00     0.027 C 
ATOM     34  C   UNL     1     -71.441 -13.487  82.525  1.00  0.00     0.027 C 
ENDBRANCH  30  32
ENDBRANCH   4  26
TORSDOF 6
ENDMDL
MODEL 8
REMARK VINA RESULT:    -8.811      4.185      8.690
REMARK INTER + INTRA:         -12.837
REMARK INTER:                 -11.621
REMARK INTRA:                  -1.217
REMARK UNBOUND:                -0.935
REMARK SMILES COc1cc2nccc(Oc3ccc(NC(=O)NC4CC4)c(Cl)c3)c2cc1C(N)=O
REMARK SMILES IDX 11 1 12 2 13 3 14 4 22 5 23 6 24 7 10 8 9 9 3 10 27 11 4 12
REMARK SMILES IDX 26 13 5 14 25 15 6 16 7 17 8 18 2 19 1 20 28 21 29 22 30 23
REMARK SMILES IDX 15 26 16 27 17 29 18 30 19 32 20 33 21 34
REMARK H PARENT 29 24 29 25 15 28 18 31
REMARK Flexibility Score: inf
ROOT
ATOM      1  C   UNL     1     -76.468 -19.452  90.982  1.00  0.00     0.129 A 
ATOM      2  C   UNL     1     -76.816 -19.808  92.287  1.00  0.00     0.049 A 
ATOM      3  C   UNL     1     -76.807 -18.854  93.308  1.00  0.00     0.031 A 
ATOM      4  C   UNL     1     -76.472 -17.517  93.033  1.00  0.00     0.061 A 
ATOM      5  C   UNL     1     -76.123 -17.156  91.716  1.00  0.00     0.068 A 
ATOM      6  Cl  UNL     1     -75.715 -15.496  91.301  1.00  0.00    -0.082 Cl
ATOM      7  C   UNL     1     -76.134 -18.117  90.699  1.00  0.00     0.069 A 
ENDROOT
BRANCH   1   8
ATOM      8  O   UNL     1     -76.506 -20.435  89.982  1.00  0.00    -0.457 OA
BRANCH   8   9
ATOM      9  C   UNL     1     -77.128 -20.298  88.731  1.00  0.00     0.138 A 
ATOM     10  C   UNL     1     -81.249 -21.135  88.259  1.00  0.00     0.133 A 
ATOM     11  C   UNL     1     -80.644 -21.287  89.527  1.00  0.00     0.082 A 
ATOM     12  C   UNL     1     -80.461 -20.738  87.161  1.00  0.00     0.076 A 
ATOM     13  C   UNL     1     -79.278 -21.000  89.686  1.00  0.00     0.032 A 
ATOM     14  C   UNL     1     -79.100 -20.469  87.322  1.00  0.00     0.078 A 
ATOM     15  C   UNL     1     -78.498 -20.594  88.591  1.00  0.00     0.044 A 
ATOM     16  N   UNL     1     -78.358 -20.080  86.250  1.00  0.00    -0.256 NA
ATOM     17  C   UNL     1     -77.032 -19.803  86.361  1.00  0.00     0.115 A 
ATOM     18  C   UNL     1     -76.394 -19.912  87.596  1.00  0.00     0.068 A 
BRANCH  10  19
ATOM     19  O   UNL     1     -82.631 -21.354  88.127  1.00  0.00    -0.496 OA
ATOM     20  C   UNL     1     -83.362 -21.218  86.914  1.00  0.00     0.278 C 
ENDBRANCH  10  19
BRANCH  11  21
ATOM     21  C   UNL     1     -81.429 -21.715  90.709  1.00  0.00     0.252 C 
ATOM     22  N   UNL     1     -82.682 -21.105  91.027  1.00  0.00    -0.365 N 
ATOM     23  O   UNL     1     -81.002 -22.654  91.433  1.00  0.00    -0.269 OA
ATOM     24  H   UNL     1     -83.186 -21.372  91.902  1.00  0.00     0.159 HD
ATOM     25  H   UNL     1     -83.153 -20.457  90.358  1.00  0.00     0.159 HD
ENDBRANCH  11  21
ENDBRANCH   8   9
ENDBRANCH   1   8
BRANCH   4  26
ATOM     26  N   UNL     1     -76.434 -16.539  94.087  1.00  0.00    -0.307 N 
ATOM     27  C   UNL     1     -75.304 -16.339  94.948  1.00  0.00     0.319 C 
ATOM     28  H   UNL     1     -77.294 -15.980  94.280  1.00  0.00     0.171 HD
ATOM     29  O   UNL     1     -74.339 -17.152  94.935  1.00  0.00    -0.248 OA
ATOM     30  N   UNL     1     -75.289 -15.229  95.853  1.00  0.00    -0.335 N 
ATOM     31  H   UNL     1     -76.126 -14.607  95.908  1.00  0.00     0.165 HD
BRANCH  30  32
ATOM     32  C   UNL     1     -74.194 -15.026  96.798  1.00  0.00     0.084 C 
ATOM     33  C   UNL     1     -74.280 -13.721  97.571  1.00  0.00     0.027 C 
ATOM     34  C   UNL     1     -73.288 -13.863  96.427  1.00  0.00     0.027 C 
ENDBRANCH  30  32
ENDBRANCH   4  26
TORSDOF 6
ENDMDL
MODEL 9
REMARK VINA RESULT:    -8.811      4.136      8.258
REMARK INTER + INTRA:         -12.837
REMARK INTER:                 -11.620
REMARK INTRA:                  -1.217
REMARK UNBOUND:                -0.935
REMARK SMILES COc1cc2nccc(Oc3ccc(NC(=O)NC4CC4)c(Cl)c3)c2cc1C(N)=O
REMARK SMILES IDX 11 1 12 2 13 3 14 4 22 5 23 6 24 7 10 8 9 9 3 10 27 11 4 12
REMARK SMILES IDX 26 13 5 14 25 15 6 16 7 17 8 18 2 19 1 20 28 21 29 22 30 23
REMARK SMILES IDX 15 26 16 27 17 29 18 30 19 32 20 33 21 34
REMARK H PARENT 29 24 29 25 15 28 18 31
REMARK Flexibility Score: inf
ROOT
ATOM      1  C   UNL     1     -76.705 -18.449  85.596  1.00  0.00     0.129 A 
ATOM      2  C   UNL     1     -77.060 -17.106  85.735  1.00  0.00     0.049 A 
ATOM      3  C   UNL     1     -76.311 -16.255  86.551  1.00  0.00     0.031 A 
ATOM      4  C   UNL     1     -75.174 -16.733  87.226  1.00  0.00     0.061 A 
ATOM      5  C   UNL     1     -74.812 -18.088  87.085  1.00  0.00     0.068 A 
ATOM      6  Cl  UNL     1     -73.389 -18.742  87.885  1.00  0.00    -0.082 Cl
ATOM      7  C   UNL     1     -75.568 -18.933  86.266  1.00  0.00     0.069 A 
ENDROOT
BRANCH   1   8
ATOM      8  O   UNL     1     -77.473 -19.266  84.753  1.00  0.00    -0.457 OA
BRANCH   8   9
ATOM      9  C   UNL     1     -78.874 -19.352  84.760  1.00  0.00     0.138 A 
ATOM     10  C   UNL     1     -80.923 -21.050  88.051  1.00  0.00     0.133 A 
ATOM     11  C   UNL     1     -79.512 -20.981  88.064  1.00  0.00     0.082 A 
ATOM     12  C   UNL     1     -81.626 -20.582  86.924  1.00  0.00     0.076 A 
ATOM     13  C   UNL     1     -78.831 -20.408  86.976  1.00  0.00     0.032 A 
ATOM     14  C   UNL     1     -80.944 -20.028  85.838  1.00  0.00     0.078 A 
ATOM     15  C   UNL     1     -79.537 -19.933  85.859  1.00  0.00     0.044 A 
ATOM     16  N   UNL     1     -81.642 -19.574  84.762  1.00  0.00    -0.256 NA
ATOM     17  C   UNL     1     -81.022 -19.024  83.687  1.00  0.00     0.115 A 
ATOM     18  C   UNL     1     -79.632 -18.908  83.663  1.00  0.00     0.068 A 
BRANCH  10  19
ATOM     19  O   UNL     1     -81.596 -21.557  89.175  1.00  0.00    -0.496 OA
ATOM     20  C   UNL     1     -82.837 -21.064  89.669  1.00  0.00     0.278 C 
ENDBRANCH  10  19
BRANCH  11  21
ATOM     21  C   UNL     1     -78.727 -21.472  89.221  1.00  0.00     0.252 C 
ATOM     22  N   UNL     1     -79.157 -21.235  90.563  1.00  0.00    -0.365 N 
ATOM     23  O   UNL     1     -77.676 -22.139  89.023  1.00  0.00    -0.269 OA
ATOM     24  H   UNL     1     -78.556 -21.528  91.365  1.00  0.00     0.159 HD
ATOM     25  H   UNL     1     -80.105 -20.849  90.767  1.00  0.00     0.159 HD
ENDBRANCH  11  21
ENDBRANCH   8   9
ENDBRANCH   1   8
BRANCH   4  26
ATOM     26  N   UNL     1     -74.417 -15.866  88.090  1.00  0.00    -0.307 N 
ATOM     27  C   UNL     1     -74.653 -15.742  89.500  1.00  0.00     0.319 C 
ATOM     28  H   UNL     1     -73.691 -15.247  87.665  1.00  0.00     0.171 HD
ATOM     29  O   UNL     1     -75.675 -16.264  90.024  1.00  0.00    -0.248 OA
ATOM     30  N   UNL     1     -73.741 -14.991  90.309  1.00  0.00    -0.335 N 
ATOM     31  H   UNL     1     -72.940 -14.501  89.851  1.00  0.00     0.165 HD
BRANCH  30  32
ATOM     32  C   UNL     1     -73.978 -14.778  91.734  1.00  0.00     0.084 C 
ATOM     33  C   UNL     1     -72.842 -14.066  92.449  1.00  0.00     0.027 C 
ATOM     34  C   UNL     1     -73.031 -15.565  92.626  1.00  0.00     0.027 C 
ENDBRANCH  30  32
ENDBRANCH   4  26
TORSDOF 6
ENDMDL
MODEL 10
REMARK VINA RESULT:    -8.806      4.043      9.144
REMARK INTER + INTRA:         -12.830
REMARK INTER:                 -11.593
REMARK INTRA:                  -1.238
REMARK UNBOUND:                -0.935
REMARK SMILES COc1cc2nccc(Oc3ccc(NC(=O)NC4CC4)c(Cl)c3)c2cc1C(N)=O
REMARK SMILES IDX 11 1 12 2 13 3 14 4 22 5 23 6 24 7 10 8 9 9 3 10 27 11 4 12
REMARK SMILES IDX 26 13 5 14 25 15 6 16 7 17 8 18 2 19 1 20 28 21 29 22 30 23
REMARK SMILES IDX 15 26 16 27 17 29 18 30 19 32 20 33 21 34
REMARK H PARENT 29 24 29 25 15 28 18 31
REMARK Flexibility Score: inf
ROOT
ATOM      1  C   UNL     1     -75.228 -17.636  87.376  1.00  0.00     0.129 A 
ATOM      2  C   UNL     1     -74.230 -16.758  86.946  1.00  0.00     0.049 A 
ATOM      3  C   UNL     1     -73.831 -15.690  87.753  1.00  0.00     0.031 A 
ATOM      4  C   UNL     1     -74.409 -15.497  89.020  1.00  0.00     0.061 A 
ATOM      5  C   UNL     1     -75.413 -16.385  89.457  1.00  0.00     0.068 A 
ATOM      6  Cl  UNL     1     -76.160 -16.213  91.040  1.00  0.00    -0.082 Cl
ATOM      7  C   UNL     1     -75.808 -17.452  88.643  1.00  0.00     0.069 A 
ENDROOT
BRANCH   1   8
ATOM      8  O   UNL     1     -75.588 -18.707  86.544  1.00  0.00    -0.457 OA
BRANCH   8   9
ATOM      9  C   UNL     1     -76.758 -18.777  85.771  1.00  0.00     0.138 A 
ATOM     10  C   UNL     1     -80.188 -20.793  87.215  1.00  0.00     0.133 A 
ATOM     11  C   UNL     1     -79.020 -20.742  88.008  1.00  0.00     0.082 A 
ATOM     12  C   UNL     1     -80.181 -20.200  85.938  1.00  0.00     0.076 A 
ATOM     13  C   UNL     1     -77.884 -20.064  87.533  1.00  0.00     0.032 A 
ATOM     14  C   UNL     1     -79.044 -19.541  85.464  1.00  0.00     0.078 A 
ATOM     15  C   UNL     1     -77.885 -19.464  86.263  1.00  0.00     0.044 A 
ATOM     16  N   UNL     1     -79.061 -18.968  84.230  1.00  0.00    -0.256 NA
ATOM     17  C   UNL     1     -77.980 -18.314  83.731  1.00  0.00     0.115 A 
ATOM     18  C   UNL     1     -76.812 -18.211  84.486  1.00  0.00     0.068 A 
BRANCH  10  19
ATOM     19  O   UNL     1     -81.340 -21.410  87.730  1.00  0.00    -0.496 OA
ATOM     20  C   UNL     1     -82.627 -20.803  87.791  1.00  0.00     0.278 C 
ENDBRANCH  10  19
BRANCH  11  21
ATOM     21  C   UNL     1     -78.973 -21.362  89.353  1.00  0.00     0.252 C 
ATOM     22  N   UNL     1     -80.037 -21.180  90.290  1.00  0.00    -0.365 N 
ATOM     23  O   UNL     1     -77.995 -22.090  89.670  1.00  0.00    -0.269 OA
ATOM     24  H   UNL     1     -79.955 -21.567  91.257  1.00  0.00     0.159 HD
ATOM     25  H   UNL     1     -80.939 -20.740  90.005  1.00  0.00     0.159 HD
ENDBRANCH  11  21
ENDBRANCH   8   9
ENDBRANCH   1   8
BRANCH   4  26
ATOM     26  N   UNL     1     -74.019 -14.382  89.841  1.00  0.00    -0.307 N 
ATOM     27  C   UNL     1     -73.036 -14.464  90.883  1.00  0.00     0.319 C 
ATOM     28  H   UNL     1     -74.516 -13.472  89.715  1.00  0.00     0.171 HD
ATOM     29  O   UNL     1     -72.591 -15.585  91.253  1.00  0.00    -0.248 OA
ATOM     30  N   UNL     1     -72.586 -13.268  91.530  1.00  0.00    -0.335 N 
ATOM     31  H   UNL     1     -73.018 -12.354  91.266  1.00  0.00     0.165 HD
BRANCH  30  32
ATOM     32  C   UNL     1     -71.641 -13.309  92.642  1.00  0.00     0.084 C 
ATOM     33  C   UNL     1     -72.293 -13.536  93.996  1.00  0.00     0.027 C 
ATOM     34  C   UNL     1     -71.803 -12.148  93.611  1.00  0.00     0.027 C 
ENDBRANCH  30  32
ENDBRANCH   4  26
TORSDOF 6
ENDMDL
MODEL 11
REMARK VINA RESULT:    -8.775      7.890     12.398
REMARK INTER + INTRA:         -12.789
REMARK INTER:                 -11.569
REMARK INTRA:                  -1.220
REMARK UNBOUND:                -0.935
REMARK SMILES COc1cc2nccc(Oc3ccc(NC(=O)NC4CC4)c(Cl)c3)c2cc1C(N)=O
REMARK SMILES IDX 11 1 12 2 13 3 14 4 22 5 23 6 24 7 10 8 9 9 3 10 27 11 4 12
REMARK SMILES IDX 26 13 5 14 25 15 6 16 7 17 8 18 2 19 1 20 28 21 29 22 30 23
REMARK SMILES IDX 15 26 16 27 17 29 18 30 19 32 20 33 21 34
REMARK H PARENT 29 24 29 25 15 28 18 31
REMARK Flexibility Score: inf
ROOT
ATOM      1  C   UNL     1     -72.638 -14.308  92.394  1.00  0.00     0.129 A 
ATOM      2  C   UNL     1     -72.278 -14.001  91.080  1.00  0.00     0.049 A 
ATOM      3  C   UNL     1     -73.154 -14.264  90.025  1.00  0.00     0.031 A 
ATOM      4  C   UNL     1     -74.423 -14.818  90.271  1.00  0.00     0.061 A 
ATOM      5  C   UNL     1     -74.790 -15.125  91.597  1.00  0.00     0.068 A 
ATOM      6  Cl  UNL     1     -76.370 -15.799  91.976  1.00  0.00    -0.082 Cl
ATOM      7  C   UNL     1     -73.906 -14.859  92.649  1.00  0.00     0.069 A 
ENDROOT
BRANCH   1   8
ATOM      8  O   UNL     1     -71.737 -14.012  93.427  1.00  0.00    -0.457 OA
BRANCH   8   9
ATOM      9  C   UNL     1     -71.473 -12.730  93.934  1.00  0.00     0.138 A 
ATOM     10  C   UNL     1     -73.135 -11.474  97.618  1.00  0.00     0.133 A 
ATOM     11  C   UNL     1     -73.420 -12.767  97.125  1.00  0.00     0.082 A 
ATOM     12  C   UNL     1     -72.327 -10.608  96.856  1.00  0.00     0.076 A 
ATOM     13  C   UNL     1     -72.861 -13.188  95.907  1.00  0.00     0.032 A 
ATOM     14  C   UNL     1     -71.786 -11.026  95.638  1.00  0.00     0.078 A 
ATOM     15  C   UNL     1     -72.047 -12.325  95.155  1.00  0.00     0.044 A 
ATOM     16  N   UNL     1     -71.002 -10.177  94.920  1.00  0.00    -0.256 NA
ATOM     17  C   UNL     1     -70.451 -10.542  93.733  1.00  0.00     0.115 A 
ATOM     18  C   UNL     1     -70.680 -11.818  93.218  1.00  0.00     0.068 A 
BRANCH  10  19
ATOM     19  O   UNL     1     -73.640 -11.090  98.872  1.00  0.00    -0.496 OA
ATOM     20  C   UNL     1     -72.862 -10.525  99.921  1.00  0.00     0.278 C 
ENDBRANCH  10  19
BRANCH  11  21
ATOM     21  C   UNL     1     -74.276 -13.709  97.884  1.00  0.00     0.252 C 
ATOM     22  N   UNL     1     -73.907 -14.159  99.189  1.00  0.00    -0.365 N 
ATOM     23  O   UNL     1     -75.366 -14.100  97.387  1.00  0.00    -0.269 OA
ATOM     24  H   UNL     1     -74.487 -14.876  99.679  1.00  0.00     0.159 HD
ATOM     25  H   UNL     1     -73.112 -13.723  99.707  1.00  0.00     0.159 HD
ENDBRANCH  11  21
ENDBRANCH   8   9
ENDBRANCH   1   8
BRANCH   4  26
ATOM     26  N   UNL     1     -75.316 -15.116  89.184  1.00  0.00    -0.307 N 
ATOM     27  C   UNL     1     -75.273 -16.335  88.428  1.00  0.00     0.319 C 
ATOM     28  H   UNL     1     -75.999 -14.385  88.885  1.00  0.00     0.171 HD
ATOM     29  O   UNL     1     -74.312 -17.141  88.571  1.00  0.00    -0.248 OA
ATOM     30  N   UNL     1     -76.309 -16.621  87.481  1.00  0.00    -0.335 N 
ATOM     31  H   UNL     1     -77.058 -15.911  87.319  1.00  0.00     0.165 HD
BRANCH  30  32
ATOM     32  C   UNL     1     -76.270 -17.813  86.640  1.00  0.00     0.084 C 
ATOM     33  C   UNL     1     -77.238 -17.774  85.470  1.00  0.00     0.027 C 
ATOM     34  C   UNL     1     -77.553 -18.627  86.689  1.00  0.00     0.027 C 
ENDBRANCH  30  32
ENDBRANCH   4  26
TORSDOF 6
ENDMDL
MODEL 12
REMARK VINA RESULT:    -8.740      4.364      8.512
REMARK INTER + INTRA:         -12.740
REMARK INTER:                 -11.669
REMARK INTRA:                  -1.071
REMARK UNBOUND:                -0.935
REMARK SMILES COc1cc2nccc(Oc3ccc(NC(=O)NC4CC4)c(Cl)c3)c2cc1C(N)=O
REMARK SMILES IDX 11 1 12 2 13 3 14 4 22 5 23 6 24 7 10 8 9 9 3 10 27 11 4 12
REMARK SMILES IDX 26 13 5 14 25 15 6 16 7 17 8 18 2 19 1 20 28 21 29 22 30 23
REMARK SMILES IDX 15 26 16 27 17 29 18 30 19 32 20 33 21 34
REMARK H PARENT 29 24 29 25 15 28 18 31
REMARK Flexibility Score: inf
ROOT
ATOM      1  C   UNL     1     -75.422 -17.251  90.156  1.00  0.00     0.129 A 
ATOM      2  C   UNL     1     -75.369 -15.884  90.438  1.00  0.00     0.049 A 
ATOM      3  C   UNL     1     -75.715 -15.408  91.704  1.00  0.00     0.031 A 
ATOM      4  C   UNL     1     -76.098 -16.298  92.722  1.00  0.00     0.061 A 
ATOM      5  C   UNL     1     -76.148 -17.679  92.441  1.00  0.00     0.068 A 
ATOM      6  Cl  UNL     1     -76.597 -18.848  93.676  1.00  0.00    -0.082 Cl
ATOM      7  C   UNL     1     -75.800 -18.148  91.170  1.00  0.00     0.069 A 
ENDROOT
BRANCH   1   8
ATOM      8  O   UNL     1     -75.049 -17.691  88.877  1.00  0.00    -0.457 OA
BRANCH   8   9
ATOM      9  C   UNL     1     -75.838 -17.589  87.721  1.00  0.00     0.138 A 
ATOM     10  C   UNL     1     -79.071 -20.241  87.065  1.00  0.00     0.133 A 
ATOM     11  C   UNL     1     -78.287 -20.368  88.233  1.00  0.00     0.082 A 
ATOM     12  C   UNL     1     -78.742 -19.252  86.117  1.00  0.00     0.076 A 
ATOM     13  C   UNL     1     -77.219 -19.481  88.456  1.00  0.00     0.032 A 
ATOM     14  C   UNL     1     -77.670 -18.383  86.336  1.00  0.00     0.078 A 
ATOM     15  C   UNL     1     -76.901 -18.490  87.514  1.00  0.00     0.044 A 
ATOM     16  N   UNL     1     -77.374 -17.430  85.412  1.00  0.00    -0.256 NA
ATOM     17  C   UNL     1     -76.344 -16.561  85.586  1.00  0.00     0.115 A 
ATOM     18  C   UNL     1     -75.557 -16.628  86.735  1.00  0.00     0.068 A 
BRANCH  10  19
ATOM     19  O   UNL     1     -80.180 -21.085  86.888  1.00  0.00    -0.496 OA
ATOM     20  C   UNL     1     -81.419 -20.687  86.310  1.00  0.00     0.278 C 
ENDBRANCH  10  19
BRANCH  11  21
ATOM     21  C   UNL     1     -78.585 -21.401  89.253  1.00  0.00     0.252 C 
ATOM     22  N   UNL     1     -79.876 -21.494  89.858  1.00  0.00    -0.365 N 
ATOM     23  O   UNL     1     -77.696 -22.234  89.573  1.00  0.00    -0.269 OA
ATOM     24  H   UNL     1     -80.047 -22.183  90.624  1.00  0.00     0.159 HD
ATOM     25  H   UNL     1     -80.685 -20.945  89.493  1.00  0.00     0.159 HD
ENDBRANCH  11  21
ENDBRANCH   8   9
ENDBRANCH   1   8
BRANCH   4  26
ATOM     26  N   UNL     1     -76.482 -15.808  94.019  1.00  0.00    -0.307 N 
ATOM     27  C   UNL     1     -75.578 -15.691  95.126  1.00  0.00     0.319 C 
ATOM     28  H   UNL     1     -77.486 -15.576  94.187  1.00  0.00     0.171 HD
ATOM     29  O   UNL     1     -74.422 -16.193  95.063  1.00  0.00    -0.248 OA
ATOM     30  N   UNL     1     -76.004 -15.030  96.324  1.00  0.00    -0.335 N 
ATOM     31  H   UNL     1     -76.988 -14.685  96.392  1.00  0.00     0.165 HD
BRANCH  30  32
ATOM     32  C   UNL     1     -75.144 -14.949  97.501  1.00  0.00     0.084 C 
ATOM     33  C   UNL     1     -75.452 -13.772  98.410  1.00  0.00     0.027 C 
ATOM     34  C   UNL     1     -74.235 -13.731  97.500  1.00  0.00     0.027 C 
ENDBRANCH  30  32
ENDBRANCH   4  26
TORSDOF 6
ENDMDL
MODEL 13
REMARK VINA RESULT:    -8.719      5.193      8.985
REMARK INTER + INTRA:         -12.712
REMARK INTER:                 -11.614
REMARK INTRA:                  -1.098
REMARK UNBOUND:                -0.935
REMARK SMILES COc1cc2nccc(Oc3ccc(NC(=O)NC4CC4)c(Cl)c3)c2cc1C(N)=O
REMARK SMILES IDX 11 1 12 2 13 3 14 4 22 5 23 6 24 7 10 8 9 9 3 10 27 11 4 12
REMARK SMILES IDX 26 13 5 14 25 15 6 16 7 17 8 18 2 19 1 20 28 21 29 22 30 23
REMARK SMILES IDX 15 26 16 27 17 29 18 30 19 32 20 33 21 34
REMARK H PARENT 29 24 29 25 15 28 18 31
REMARK Flexibility Score: inf
ROOT
ATOM      1  C   UNL     1     -76.426 -18.936  90.263  1.00  0.00     0.129 A 
ATOM      2  C   UNL     1     -76.789 -19.526  91.475  1.00  0.00     0.049 A 
ATOM      3  C   UNL     1     -76.760 -18.787  92.660  1.00  0.00     0.031 A 
ATOM      4  C   UNL     1     -76.388 -17.431  92.647  1.00  0.00     0.061 A 
ATOM      5  C   UNL     1     -76.024 -16.833  91.424  1.00  0.00     0.068 A 
ATOM      6  Cl  UNL     1     -75.571 -15.136  91.335  1.00  0.00    -0.082 Cl
ATOM      7  C   UNL     1     -76.056 -17.580  90.241  1.00  0.00     0.069 A 
ENDROOT
BRANCH   1   8
ATOM      8  O   UNL     1     -76.485 -19.707  89.093  1.00  0.00    -0.457 OA
BRANCH   8   9
ATOM      9  C   UNL     1     -77.662 -20.083  88.427  1.00  0.00     0.138 A 
ATOM     10  C   UNL     1     -78.512 -18.627  84.545  1.00  0.00     0.133 A 
ATOM     11  C   UNL     1     -77.324 -18.229  85.198  1.00  0.00     0.082 A 
ATOM     12  C   UNL     1     -79.414 -19.479  85.212  1.00  0.00     0.076 A 
ATOM     13  C   UNL     1     -77.037 -18.720  86.483  1.00  0.00     0.032 A 
ATOM     14  C   UNL     1     -79.131 -19.952  86.495  1.00  0.00     0.078 A 
ATOM     15  C   UNL     1     -77.934 -19.577  87.140  1.00  0.00     0.044 A 
ATOM     16  N   UNL     1     -80.012 -20.779  87.120  1.00  0.00    -0.256 NA
ATOM     17  C   UNL     1     -79.776 -21.267  88.365  1.00  0.00     0.115 A 
ATOM     18  C   UNL     1     -78.605 -20.925  89.041  1.00  0.00     0.068 A 
BRANCH  10  19
ATOM     19  O   UNL     1     -78.753 -18.189  83.232  1.00  0.00    -0.496 OA
ATOM     20  C   UNL     1     -79.882 -18.558  82.447  1.00  0.00     0.278 C 
ENDBRANCH  10  19
BRANCH  11  21
ATOM     21  C   UNL     1     -76.351 -17.324  84.543  1.00  0.00     0.252 C 
ATOM     22  N   UNL     1     -75.681 -17.703  83.338  1.00  0.00    -0.365 N 
ATOM     23  O   UNL     1     -76.129 -16.186  85.035  1.00  0.00    -0.269 OA
ATOM     24  H   UNL     1     -74.947 -17.082  82.930  1.00  0.00     0.159 HD
ATOM     25  H   UNL     1     -75.968 -18.552  82.804  1.00  0.00     0.159 HD
ENDBRANCH  11  21
ENDBRANCH   8   9
ENDBRANCH   1   8
BRANCH   4  26
ATOM     26  N   UNL     1     -76.330 -16.675  93.870  1.00  0.00    -0.307 N 
ATOM     27  C   UNL     1     -75.114 -16.404  94.581  1.00  0.00     0.319 C 
ATOM     28  H   UNL     1     -77.225 -16.352  94.300  1.00  0.00     0.171 HD
ATOM     29  O   UNL     1     -74.041 -16.982  94.255  1.00  0.00    -0.248 OA
ATOM     30  N   UNL     1     -75.128 -15.498  95.692  1.00  0.00    -0.335 N 
ATOM     31  H   UNL     1     -76.037 -15.085  95.999  1.00  0.00     0.165 HD
BRANCH  30  32
ATOM     32  C   UNL     1     -73.932 -15.247  96.489  1.00  0.00     0.084 C 
ATOM     33  C   UNL     1     -73.999 -13.975  97.317  1.00  0.00     0.027 C 
ATOM     34  C   UNL     1     -73.163 -14.012  96.047  1.00  0.00     0.027 C 
ENDBRANCH  30  32
ENDBRANCH   4  26
TORSDOF 6
ENDMDL
MODEL 14
REMARK VINA RESULT:    -8.664      3.465      8.159
REMARK INTER + INTRA:         -12.639
REMARK INTER:                 -11.439
REMARK INTRA:                  -1.199
REMARK UNBOUND:                -0.935
REMARK SMILES COc1cc2nccc(Oc3ccc(NC(=O)NC4CC4)c(Cl)c3)c2cc1C(N)=O
REMARK SMILES IDX 11 1 12 2 13 3 14 4 22 5 23 6 24 7 10 8 9 9 3 10 27 11 4 12
REMARK SMILES IDX 26 13 5 14 25 15 6 16 7 17 8 18 2 19 1 20 28 21 29 22 30 23
REMARK SMILES IDX 15 26 16 27 17 29 18 30 19 32 20 33 21 34
REMARK H PARENT 29 24 29 25 15 28 18 31
REMARK Flexibility Score: inf
ROOT
ATOM      1  C   UNL     1     -77.469 -20.010  87.385  1.00  0.00     0.129 A 
ATOM      2  C   UNL     1     -76.885 -20.594  88.512  1.00  0.00     0.049 A 
ATOM      3  C   UNL     1     -76.018 -19.857  89.323  1.00  0.00     0.031 A 
ATOM      4  C   UNL     1     -75.739 -18.510  89.031  1.00  0.00     0.061 A 
ATOM      5  C   UNL     1     -76.330 -17.919  87.896  1.00  0.00     0.068 A 
ATOM      6  Cl  UNL     1     -76.040 -16.233  87.488  1.00  0.00    -0.082 Cl
ATOM      7  C   UNL     1     -77.197 -18.663  87.089  1.00  0.00     0.069 A 
ENDROOT
BRANCH   1   8
ATOM      8  O   UNL     1     -78.348 -20.778  86.607  1.00  0.00    -0.457 OA
BRANCH   8   9
ATOM      9  C   UNL     1     -79.498 -20.294  85.963  1.00  0.00     0.138 A 
ATOM     10  C   UNL     1     -83.289 -20.539  87.829  1.00  0.00     0.133 A 
ATOM     11  C   UNL     1     -82.147 -21.039  88.494  1.00  0.00     0.082 A 
ATOM     12  C   UNL     1     -83.152 -19.995  86.537  1.00  0.00     0.076 A 
ATOM     13  C   UNL     1     -80.886 -20.949  87.879  1.00  0.00     0.032 A 
ATOM     14  C   UNL     1     -81.899 -19.923  85.923  1.00  0.00     0.078 A 
ATOM     15  C   UNL     1     -80.752 -20.397  86.595  1.00  0.00     0.044 A 
ATOM     16  N   UNL     1     -81.787 -19.387  84.678  1.00  0.00    -0.256 NA
ATOM     17  C   UNL     1     -80.588 -19.292  84.045  1.00  0.00     0.115 A 
ATOM     18  C   UNL     1     -79.428 -19.746  84.671  1.00  0.00     0.068 A 
BRANCH  10  19
ATOM     19  O   UNL     1     -84.531 -20.567  88.484  1.00  0.00    -0.496 OA
ATOM     20  C   UNL     1     -85.469 -21.634  88.398  1.00  0.00     0.278 C 
ENDBRANCH  10  19
BRANCH  11  21
ATOM     21  C   UNL     1     -82.242 -21.632  89.849  1.00  0.00     0.252 C 
ATOM     22  N   UNL     1     -82.960 -20.976  90.896  1.00  0.00    -0.365 N 
ATOM     23  O   UNL     1     -81.708 -22.749  90.079  1.00  0.00    -0.269 OA
ATOM     24  H   UNL     1     -82.958 -21.374  91.861  1.00  0.00     0.159 HD
ATOM     25  H   UNL     1     -83.564 -20.147  90.701  1.00  0.00     0.159 HD
ENDBRANCH  11  21
ENDBRANCH   8   9
ENDBRANCH   1   8
BRANCH   4  26
ATOM     26  N   UNL     1     -74.825 -17.758  89.848  1.00  0.00    -0.307 N 
ATOM     27  C   UNL     1     -75.235 -16.916  90.934  1.00  0.00     0.319 C 
ATOM     28  H   UNL     1     -73.809 -17.776  89.606  1.00  0.00     0.171 HD
ATOM     29  O   UNL     1     -76.455 -16.651  91.111  1.00  0.00    -0.248 OA
ATOM     30  N   UNL     1     -74.247 -16.344  91.801  1.00  0.00    -0.335 N 
ATOM     31  H   UNL     1     -73.236 -16.510  91.598  1.00  0.00     0.165 HD
BRANCH  30  32
ATOM     32  C   UNL     1     -74.612 -15.425  92.875  1.00  0.00     0.084 C 
ATOM     33  C   UNL     1     -73.546 -15.277  93.948  1.00  0.00     0.027 C 
ATOM     34  C   UNL     1     -74.788 -16.111  94.220  1.00  0.00     0.027 C 
ENDBRANCH  30  32
ENDBRANCH   4  26
TORSDOF 6
ENDMDL
MODEL 15
REMARK VINA RESULT:    -8.649      3.818      8.836
REMARK INTER + INTRA:         -12.618
REMARK INTER:                 -11.418
REMARK INTRA:                  -1.200
REMARK UNBOUND:                -0.935
REMARK SMILES COc1cc2nccc(Oc3ccc(NC(=O)NC4CC4)c(Cl)c3)c2cc1C(N)=O
REMARK SMILES IDX 11 1 12 2 13 3 14 4 22 5 23 6 24 7 10 8 9 9 3 10 27 11 4 12
REMARK SMILES IDX 26 13 5 14 25 15 6 16 7 17 8 18 2 19 1 20 28 21 29 22 30 23
REMARK SMILES IDX 15 26 16 27 17 29 18 30 19 32 20 33 21 34
REMARK H PARENT 29 24 29 25 15 28 18 31
REMARK Flexibility Score: inf
ROOT
ATOM      1  C   UNL     1     -76.853 -19.441  89.380  1.00  0.00     0.129 A 
ATOM      2  C   UNL     1     -76.822 -19.564  90.771  1.00  0.00     0.049 A 
ATOM      3  C   UNL     1     -76.386 -18.502  91.567  1.00  0.00     0.031 A 
ATOM      4  C   UNL     1     -75.995 -17.285  90.982  1.00  0.00     0.061 A 
ATOM      5  C   UNL     1     -76.029 -17.158  89.578  1.00  0.00     0.068 A 
ATOM      6  Cl  UNL     1     -75.574 -15.655  88.785  1.00  0.00    -0.082 Cl
ATOM      7  C   UNL     1     -76.466 -18.226  88.788  1.00  0.00     0.069 A 
ENDROOT
BRANCH   1   8
ATOM      8  O   UNL     1     -77.315 -20.523  88.617  1.00  0.00    -0.457 OA
BRANCH   8   9
ATOM      9  C   UNL     1     -78.343 -20.466  87.663  1.00  0.00     0.138 A 
ATOM     10  C   UNL     1     -82.325 -21.443  88.712  1.00  0.00     0.133 A 
ATOM     11  C   UNL     1     -81.306 -21.515  89.688  1.00  0.00     0.082 A 
ATOM     12  C   UNL     1     -81.993 -21.079  87.393  1.00  0.00     0.076 A 
ATOM     13  C   UNL     1     -79.985 -21.181  89.343  1.00  0.00     0.032 A 
ATOM     14  C   UNL     1     -80.676 -20.763  87.051  1.00  0.00     0.078 A 
ATOM     15  C   UNL     1     -79.660 -20.808  88.028  1.00  0.00     0.044 A 
ATOM     16  N   UNL     1     -80.377 -20.406  85.773  1.00  0.00    -0.256 NA
ATOM     17  C   UNL     1     -79.111 -20.087  85.396  1.00  0.00     0.115 A 
ATOM     18  C   UNL     1     -78.074 -20.115  86.329  1.00  0.00     0.068 A 
BRANCH  10  19
ATOM     19  O   UNL     1     -83.653 -21.707  89.086  1.00  0.00    -0.496 OA
ATOM     20  C   UNL     1     -84.652 -22.231  88.218  1.00  0.00     0.278 C 
ENDBRANCH  10  19
BRANCH  11  21
ATOM     21  C   UNL     1     -81.603 -21.906  91.086  1.00  0.00     0.252 C 
ATOM     22  N   UNL     1     -82.581 -21.206  91.859  1.00  0.00    -0.365 N 
ATOM     23  O   UNL     1     -81.009 -22.892  91.597  1.00  0.00    -0.269 OA
ATOM     24  H   UNL     1     -82.727 -21.451  92.863  1.00  0.00     0.159 HD
ATOM     25  H   UNL     1     -83.219 -20.506  91.419  1.00  0.00     0.159 HD
ENDBRANCH  11  21
ENDBRANCH   8   9
ENDBRANCH   1   8
BRANCH   4  26
ATOM     26  N   UNL     1     -75.518 -16.200  91.797  1.00  0.00    -0.307 N 
ATOM     27  C   UNL     1     -74.128 -15.924  92.023  1.00  0.00     0.319 C 
ATOM     28  H   UNL     1     -76.216 -15.611  92.303  1.00  0.00     0.171 HD
ATOM     29  O   UNL     1     -73.245 -16.747  91.654  1.00  0.00    -0.248 OA
ATOM     30  N   UNL     1     -73.744 -14.723  92.703  1.00  0.00    -0.335 N 
ATOM     31  H   UNL     1     -74.487 -14.087  93.070  1.00  0.00     0.165 HD
BRANCH  30  32
ATOM     32  C   UNL     1     -72.348 -14.435  93.018  1.00  0.00     0.084 C 
ATOM     33  C   UNL     1     -72.153 -13.676  94.320  1.00  0.00     0.027 C 
ATOM     34  C   UNL     1     -72.019 -12.951  92.990  1.00  0.00     0.027 C 
ENDBRANCH  30  32
ENDBRANCH   4  26
TORSDOF 6
ENDMDL
