MODEL 1
REMARK VINA RESULT:    -8.117      0.000      0.000
REMARK INTER + INTRA:         -11.613
REMARK INTER:                 -10.964
REMARK INTRA:                  -0.649
REMARK UNBOUND:                -0.649
REMARK SMILES COc1cc2nccc(Oc3ccc(NC(=O)NC4CC4)c(Cl)c3)c2cc1C(N)=O
REMARK SMILES IDX 11 1 12 2 13 3 14 4 22 5 23 6 24 7 10 8 9 9 3 10 27 11 4 12
REMARK SMILES IDX 26 13 5 14 25 15 6 16 7 17 8 18 2 19 1 20 28 21 29 22 30 23
REMARK SMILES IDX 15 26 16 27 17 29 18 30 19 32 20 33 21 34
REMARK H PARENT 29 24 29 25 15 28 18 31
REMARK Flexibility Score: inf
ROOT
ATOM      1  C   UNL     1      28.006  20.875   9.300  1.00  0.00     0.129 A 
ATOM      2  C   UNL     1      27.734  19.532   9.566  1.00  0.00     0.049 A 
ATOM      3  C   UNL     1      26.516  19.155  10.138  1.00  0.00     0.031 A 
ATOM      4  C   UNL     1      25.537  20.120  10.431  1.00  0.00     0.061 A 
ATOM      5  C   UNL     1      25.808  21.476  10.159  1.00  0.00     0.068 A 
ATOM      6  Cl  UNL     1      24.617  22.729  10.481  1.00  0.00    -0.082 Cl
ATOM      7  C   UNL     1      27.031  21.845   9.587  1.00  0.00     0.069 A 
ENDROOT
BRANCH   1   8
ATOM      8  O   UNL     1      29.234  21.211   8.709  1.00  0.00    -0.457 OA
BRANCH   8   9
ATOM      9  C   UNL     1      29.876  22.454   8.819  1.00  0.00     0.138 A 
ATOM     10  C   UNL     1      32.530  23.792   5.806  1.00  0.00     0.133 A 
ATOM     11  C   UNL     1      31.901  22.534   5.677  1.00  0.00     0.082 A 
ATOM     12  C   UNL     1      32.289  24.569   6.956  1.00  0.00     0.076 A 
ATOM     13  C   UNL     1      31.012  22.093   6.672  1.00  0.00     0.032 A 
ATOM     14  C   UNL     1      31.417  24.120   7.950  1.00  0.00     0.078 A 
ATOM     15  C   UNL     1      30.766  22.876   7.812  1.00  0.00     0.044 A 
ATOM     16  N   UNL     1      31.192  24.889   9.049  1.00  0.00    -0.256 NA
ATOM     17  C   UNL     1      30.348  24.494  10.038  1.00  0.00     0.115 A 
ATOM     18  C   UNL     1      29.682  23.273   9.944  1.00  0.00     0.068 A 
BRANCH  10  19
ATOM     19  O   UNL     1      33.360  24.254   4.770  1.00  0.00    -0.496 OA
ATOM     20  C   UNL     1      34.748  24.535   4.907  1.00  0.00     0.278 C 
ENDBRANCH  10  19
BRANCH  11  21
ATOM     21  C   UNL     1      32.133  21.674   4.493  1.00  0.00     0.252 C 
ATOM     22  N   UNL     1      32.244  22.232   3.182  1.00  0.00    -0.365 N 
ATOM     23  O   UNL     1      32.266  20.430   4.642  1.00  0.00    -0.269 OA
ATOM     24  H   UNL     1      32.337  21.605   2.352  1.00  0.00     0.159 HD
ATOM     25  H   UNL     1      32.320  23.264   3.038  1.00  0.00     0.159 HD
ENDBRANCH  11  21
ENDBRANCH   8   9
ENDBRANCH   1   8
BRANCH   4  26
ATOM     26  N   UNL     1      24.293  19.738  11.045  1.00  0.00    -0.307 N 
ATOM     27  C   UNL     1      24.016  19.893  12.445  1.00  0.00     0.319 C 
ATOM     28  H   UNL     1      23.569  19.269  10.457  1.00  0.00     0.171 HD
ATOM     29  O   UNL     1      24.936  20.211  13.247  1.00  0.00    -0.248 OA
ATOM     30  N   UNL     1      22.693  19.649  12.937  1.00  0.00    -0.335 N 
ATOM     31  H   UNL     1      21.958  19.313  12.275  1.00  0.00     0.165 HD
BRANCH  30  32
ATOM     32  C   UNL     1      22.380  19.725  14.361  1.00  0.00     0.084 C 
ATOM     33  C   UNL     1      22.603  18.422  15.111  1.00  0.00     0.027 C 
ATOM     34  C   UNL     1      21.191  18.867  14.762  1.00  0.00     0.027 C 
ENDBRANCH  30  32
ENDBRANCH   4  26
TORSDOF 6
ENDMDL
MODEL 2
REMARK VINA RESULT:    -8.105      4.090      6.337
REMARK INTER + INTRA:         -11.597
REMARK INTER:                 -10.492
REMARK INTRA:                  -1.105
REMARK UNBOUND:                -0.649
REMARK SMILES COc1cc2nccc(Oc3ccc(NC(=O)NC4CC4)c(Cl)c3)c2cc1C(N)=O
REMARK SMILES IDX 11 1 12 2 13 3 14 4 22 5 23 6 24 7 10 8 9 9 3 10 27 11 4 12
REMARK SMILES IDX 26 13 5 14 25 15 6 16 7 17 8 18 2 19 1 20 28 21 29 22 30 23
REMARK SMILES IDX 15 26 16 27 17 29 18 30 19 32 20 33 21 34
REMARK H PARENT 29 24 29 25 15 28 18 31
REMARK Flexibility Score: inf
ROOT
ATOM      1  C   UNL     1      22.811  20.055  12.258  1.00  0.00     0.129 A 
ATOM      2  C   UNL     1      21.421  20.083  12.388  1.00  0.00     0.049 A 
ATOM      3  C   UNL     1      20.812  19.677  13.578  1.00  0.00     0.031 A 
ATOM      4  C   UNL     1      21.591  19.259  14.671  1.00  0.00     0.061 A 
ATOM      5  C   UNL     1      22.995  19.233  14.543  1.00  0.00     0.068 A 
ATOM      6  Cl  UNL     1      24.026  18.742  15.879  1.00  0.00    -0.082 Cl
ATOM      7  C   UNL     1      23.596  19.641  13.347  1.00  0.00     0.069 A 
ENDROOT
BRANCH   1   8
ATOM      8  O   UNL     1      23.384  20.487  11.052  1.00  0.00    -0.457 OA
BRANCH   8   9
ATOM      9  C   UNL     1      24.234  21.595  10.908  1.00  0.00     0.138 A 
ATOM     10  C   UNL     1      28.296  21.080   9.836  1.00  0.00     0.133 A 
ATOM     11  C   UNL     1      27.462  19.950   9.982  1.00  0.00     0.082 A 
ATOM     12  C   UNL     1      27.770  22.363  10.083  1.00  0.00     0.076 A 
ATOM     13  C   UNL     1      26.110  20.120  10.328  1.00  0.00     0.032 A 
ATOM     14  C   UNL     1      26.430  22.526  10.443  1.00  0.00     0.078 A 
ATOM     15  C   UNL     1      25.587  21.402  10.564  1.00  0.00     0.044 A 
ATOM     16  N   UNL     1      25.939  23.774  10.670  1.00  0.00    -0.256 NA
ATOM     17  C   UNL     1      24.642  23.981  11.017  1.00  0.00     0.115 A 
ATOM     18  C   UNL     1      23.771  22.900  11.147  1.00  0.00     0.068 A 
BRANCH  10  19
ATOM     19  O   UNL     1      29.626  20.902   9.418  1.00  0.00    -0.496 OA
ATOM     20  C   UNL     1      30.764  21.005  10.266  1.00  0.00     0.278 C 
ENDBRANCH  10  19
BRANCH  11  21
ATOM     21  C   UNL     1      27.972  18.579   9.746  1.00  0.00     0.252 C 
ATOM     22  N   UNL     1      27.710  17.891   8.521  1.00  0.00    -0.365 N 
ATOM     23  O   UNL     1      28.678  18.016  10.625  1.00  0.00    -0.269 OA
ATOM     24  H   UNL     1      28.018  16.901   8.400  1.00  0.00     0.159 HD
ATOM     25  H   UNL     1      27.288  18.384   7.703  1.00  0.00     0.159 HD
ENDBRANCH  11  21
ENDBRANCH   8   9
ENDBRANCH   1   8
BRANCH   4  26
ATOM     26  N   UNL     1      20.966  18.814  15.888  1.00  0.00    -0.307 N 
ATOM     27  C   UNL     1      20.339  17.532  16.039  1.00  0.00     0.319 C 
ATOM     28  H   UNL     1      20.911  19.477  16.693  1.00  0.00     0.171 HD
ATOM     29  O   UNL     1      20.146  16.793  15.035  1.00  0.00    -0.248 OA
ATOM     30  N   UNL     1      19.899  17.105  17.334  1.00  0.00    -0.335 N 
ATOM     31  H   UNL     1      19.996  17.757  18.144  1.00  0.00     0.165 HD
BRANCH  30  32
ATOM     32  C   UNL     1      19.193  15.842  17.524  1.00  0.00     0.084 C 
ATOM     33  C   UNL     1      19.032  15.438  18.980  1.00  0.00     0.027 C 
ATOM     34  C   UNL     1      20.069  14.745  18.109  1.00  0.00     0.027 C 
ENDBRANCH  30  32
ENDBRANCH   4  26
TORSDOF 6
ENDMDL
MODEL 3
REMARK VINA RESULT:    -8.011      2.627     10.339
REMARK INTER + INTRA:         -11.470
REMARK INTER:                 -10.289
REMARK INTRA:                  -1.181
REMARK UNBOUND:                -0.649
REMARK SMILES COc1cc2nccc(Oc3ccc(NC(=O)NC4CC4)c(Cl)c3)c2cc1C(N)=O
REMARK SMILES IDX 11 1 12 2 13 3 14 4 22 5 23 6 24 7 10 8 9 9 3 10 27 11 4 12
REMARK SMILES IDX 26 13 5 14 25 15 6 16 7 17 8 18 2 19 1 20 28 21 29 22 30 23
REMARK SMILES IDX 15 26 16 27 17 29 18 30 19 32 20 33 21 34
REMARK H PARENT 29 24 29 25 15 28 18 31
REMARK Flexibility Score: inf
ROOT
ATOM      1  C   UNL     1      28.381  23.011   9.304  1.00  0.00     0.129 A 
ATOM      2  C   UNL     1      29.649  23.292   9.818  1.00  0.00     0.049 A 
ATOM      3  C   UNL     1      30.710  23.593   8.962  1.00  0.00     0.031 A 
ATOM      4  C   UNL     1      30.513  23.642   7.571  1.00  0.00     0.061 A 
ATOM      5  C   UNL     1      29.234  23.362   7.050  1.00  0.00     0.068 A 
ATOM      6  Cl  UNL     1      28.915  23.429   5.322  1.00  0.00    -0.082 Cl
ATOM      7  C   UNL     1      28.176  23.061   7.914  1.00  0.00     0.069 A 
ENDROOT
BRANCH   1   8
ATOM      8  O   UNL     1      27.337  22.731  10.198  1.00  0.00    -0.457 OA
BRANCH   8   9
ATOM      9  C   UNL     1      26.713  21.483  10.353  1.00  0.00     0.138 A 
ATOM     10  C   UNL     1      22.666  21.223  11.563  1.00  0.00     0.133 A 
ATOM     11  C   UNL     1      23.274  22.490  11.420  1.00  0.00     0.082 A 
ATOM     12  C   UNL     1      23.428  20.062  11.333  1.00  0.00     0.076 A 
ATOM     13  C   UNL     1      24.615  22.578  11.009  1.00  0.00     0.032 A 
ATOM     14  C   UNL     1      24.765  20.153  10.939  1.00  0.00     0.078 A 
ATOM     15  C   UNL     1      25.369  21.417  10.770  1.00  0.00     0.044 A 
ATOM     16  N   UNL     1      25.482  19.020  10.715  1.00  0.00    -0.256 NA
ATOM     17  C   UNL     1      26.784  19.061  10.327  1.00  0.00     0.115 A 
ATOM     18  C   UNL     1      27.422  20.287  10.145  1.00  0.00     0.068 A 
BRANCH  10  19
ATOM     19  O   UNL     1      21.304  21.151  11.903  1.00  0.00    -0.496 OA
ATOM     20  C   UNL     1      20.806  20.753  13.175  1.00  0.00     0.278 C 
ENDBRANCH  10  19
BRANCH  11  21
ATOM     21  C   UNL     1      22.518  23.741  11.664  1.00  0.00     0.252 C 
ATOM     22  N   UNL     1      21.237  23.960  11.068  1.00  0.00    -0.365 N 
ATOM     23  O   UNL     1      22.994  24.617  12.434  1.00  0.00    -0.269 OA
ATOM     24  H   UNL     1      20.751  24.876  11.195  1.00  0.00     0.159 HD
ATOM     25  H   UNL     1      20.731  23.192  10.575  1.00  0.00     0.159 HD
ENDBRANCH  11  21
ENDBRANCH   8   9
ENDBRANCH   1   8
BRANCH   4  26
ATOM     26  N   UNL     1      31.611  23.924   6.685  1.00  0.00    -0.307 N 
ATOM     27  C   UNL     1      32.305  22.919   5.931  1.00  0.00     0.319 C 
ATOM     28  H   UNL     1      31.966  24.904   6.625  1.00  0.00     0.171 HD
ATOM     29  O   UNL     1      32.096  21.695   6.155  1.00  0.00    -0.248 OA
ATOM     30  N   UNL     1      33.268  23.310   4.944  1.00  0.00    -0.335 N 
ATOM     31  H   UNL     1      33.487  24.324   4.822  1.00  0.00     0.165 HD
BRANCH  30  32
ATOM     32  C   UNL     1      34.049  22.323   4.204  1.00  0.00     0.084 C 
ATOM     33  C   UNL     1      34.650  22.854   2.914  1.00  0.00     0.027 C 
ATOM     34  C   UNL     1      33.431  21.946   2.868  1.00  0.00     0.027 C 
ENDBRANCH  30  32
ENDBRANCH   4  26
TORSDOF 6
ENDMDL
MODEL 4
REMARK VINA RESULT:    -7.940      3.451      5.656
REMARK INTER + INTRA:         -11.374
REMARK INTER:                 -10.059
REMARK INTRA:                  -1.316
REMARK UNBOUND:                -0.649
REMARK SMILES COc1cc2nccc(Oc3ccc(NC(=O)NC4CC4)c(Cl)c3)c2cc1C(N)=O
REMARK SMILES IDX 11 1 12 2 13 3 14 4 22 5 23 6 24 7 10 8 9 9 3 10 27 11 4 12
REMARK SMILES IDX 26 13 5 14 25 15 6 16 7 17 8 18 2 19 1 20 28 21 29 22 30 23
REMARK SMILES IDX 15 26 16 27 17 29 18 30 19 32 20 33 21 34
REMARK H PARENT 29 24 29 25 15 28 18 31
REMARK Flexibility Score: inf
ROOT
ATOM      1  C   UNL     1      23.987  20.445  11.548  1.00  0.00     0.129 A 
ATOM      2  C   UNL     1      22.595  20.441  11.447  1.00  0.00     0.049 A 
ATOM      3  C   UNL     1      21.802  20.283  12.587  1.00  0.00     0.031 A 
ATOM      4  C   UNL     1      22.394  20.151  13.855  1.00  0.00     0.061 A 
ATOM      5  C   UNL     1      23.799  20.159  13.959  1.00  0.00     0.068 A 
ATOM      6  Cl  UNL     1      24.602  20.021  15.518  1.00  0.00    -0.082 Cl
ATOM      7  C   UNL     1      24.586  20.317  12.813  1.00  0.00     0.069 A 
ENDROOT
BRANCH   1   8
ATOM      8  O   UNL     1      24.748  20.624  10.383  1.00  0.00    -0.457 OA
BRANCH   8   9
ATOM      9  C   UNL     1      26.032  20.103  10.163  1.00  0.00     0.138 A 
ATOM     10  C   UNL     1      29.418  22.642  10.119  1.00  0.00     0.133 A 
ATOM     11  C   UNL     1      28.135  23.190  10.336  1.00  0.00     0.082 A 
ATOM     12  C   UNL     1      29.548  21.259   9.886  1.00  0.00     0.076 A 
ATOM     13  C   UNL     1      27.011  22.347  10.360  1.00  0.00     0.032 A 
ATOM     14  C   UNL     1      28.426  20.427   9.896  1.00  0.00     0.078 A 
ATOM     15  C   UNL     1      27.145  20.966  10.138  1.00  0.00     0.044 A 
ATOM     16  N   UNL     1      28.573  19.093   9.676  1.00  0.00    -0.256 NA
ATOM     17  C   UNL     1      27.511  18.245   9.681  1.00  0.00     0.115 A 
ATOM     18  C   UNL     1      26.227  18.733   9.918  1.00  0.00     0.068 A 
BRANCH  10  19
ATOM     19  O   UNL     1      30.542  23.485  10.170  1.00  0.00    -0.496 OA
ATOM     20  C   UNL     1      31.088  24.178   9.053  1.00  0.00     0.278 C 
ENDBRANCH  10  19
BRANCH  11  21
ATOM     21  C   UNL     1      27.945  24.641  10.572  1.00  0.00     0.252 C 
ATOM     22  N   UNL     1      28.549  25.295  11.691  1.00  0.00    -0.365 N 
ATOM     23  O   UNL     1      27.267  25.322   9.758  1.00  0.00    -0.269 OA
ATOM     24  H   UNL     1      28.348  26.302  11.880  1.00  0.00     0.159 HD
ATOM     25  H   UNL     1      29.260  24.809  12.282  1.00  0.00     0.159 HD
ENDBRANCH  11  21
ENDBRANCH   8   9
ENDBRANCH   1   8
BRANCH   4  26
ATOM     26  N   UNL     1      21.581  19.960  15.026  1.00  0.00    -0.307 N 
ATOM     27  C   UNL     1      21.234  18.672  15.554  1.00  0.00     0.319 C 
ATOM     28  H   UNL     1      21.169  20.800  15.491  1.00  0.00     0.171 HD
ATOM     29  O   UNL     1      21.482  17.624  14.896  1.00  0.00    -0.248 OA
ATOM     30  N   UNL     1      20.569  18.578  16.819  1.00  0.00    -0.335 N 
ATOM     31  H   UNL     1      20.301  19.456  17.319  1.00  0.00     0.165 HD
BRANCH  30  32
ATOM     32  C   UNL     1      20.133  17.295  17.362  1.00  0.00     0.084 C 
ATOM     33  C   UNL     1      18.697  16.936  17.020  1.00  0.00     0.027 C 
ATOM     34  C   UNL     1      19.047  17.425  18.417  1.00  0.00     0.027 C 
ENDBRANCH  30  32
ENDBRANCH   4  26
TORSDOF 6
ENDMDL
MODEL 5
REMARK VINA RESULT:    -7.872      1.913      2.240
REMARK INTER + INTRA:         -11.282
REMARK INTER:                 -10.668
REMARK INTRA:                  -0.614
REMARK UNBOUND:                -0.649
REMARK SMILES COc1cc2nccc(Oc3ccc(NC(=O)NC4CC4)c(Cl)c3)c2cc1C(N)=O
REMARK SMILES IDX 11 1 12 2 13 3 14 4 22 5 23 6 24 7 10 8 9 9 3 10 27 11 4 12
REMARK SMILES IDX 26 13 5 14 25 15 6 16 7 17 8 18 2 19 1 20 28 21 29 22 30 23
REMARK SMILES IDX 15 26 16 27 17 29 18 30 19 32 20 33 21 34
REMARK H PARENT 29 24 29 25 15 28 18 31
REMARK Flexibility Score: inf
ROOT
ATOM      1  C   UNL     1      27.168  22.498   8.030  1.00  0.00     0.129 A 
ATOM      2  C   UNL     1      26.388  23.322   8.844  1.00  0.00     0.049 A 
ATOM      3  C   UNL     1      25.755  22.804   9.977  1.00  0.00     0.031 A 
ATOM      4  C   UNL     1      25.915  21.452  10.329  1.00  0.00     0.061 A 
ATOM      5  C   UNL     1      26.705  20.620   9.510  1.00  0.00     0.068 A 
ATOM      6  Cl  UNL     1      26.963  18.927   9.907  1.00  0.00    -0.082 Cl
ATOM      7  C   UNL     1      27.335  21.146   8.377  1.00  0.00     0.069 A 
ENDROOT
BRANCH   1   8
ATOM      8  O   UNL     1      27.801  23.059   6.911  1.00  0.00    -0.457 OA
BRANCH   8   9
ATOM      9  C   UNL     1      28.711  24.128   6.943  1.00  0.00     0.138 A 
ATOM     10  C   UNL     1      32.715  23.599   5.679  1.00  0.00     0.133 A 
ATOM     11  C   UNL     1      31.820  22.507   5.644  1.00  0.00     0.082 A 
ATOM     12  C   UNL     1      32.269  24.842   6.168  1.00  0.00     0.076 A 
ATOM     13  C   UNL     1      30.487  22.684   6.054  1.00  0.00     0.032 A 
ATOM     14  C   UNL     1      30.948  25.010   6.589  1.00  0.00     0.078 A 
ATOM     15  C   UNL     1      30.043  23.928   6.531  1.00  0.00     0.044 A 
ATOM     16  N   UNL     1      30.534  26.220   7.051  1.00  0.00    -0.256 NA
ATOM     17  C   UNL     1      29.258  26.430   7.466  1.00  0.00     0.115 A 
ATOM     18  C   UNL     1      28.328  25.391   7.425  1.00  0.00     0.068 A 
BRANCH  10  19
ATOM     19  O   UNL     1      34.024  23.429   5.198  1.00  0.00    -0.496 OA
ATOM     20  C   UNL     1      34.900  24.490   4.835  1.00  0.00     0.278 C 
ENDBRANCH  10  19
BRANCH  11  21
ATOM     21  C   UNL     1      32.246  21.176   5.151  1.00  0.00     0.252 C 
ATOM     22  N   UNL     1      31.863  20.708   3.856  1.00  0.00    -0.365 N 
ATOM     23  O   UNL     1      32.985  20.452   5.871  1.00  0.00    -0.269 OA
ATOM     24  H   UNL     1      32.114  19.741   3.554  1.00  0.00     0.159 HD
ATOM     25  H   UNL     1      31.408  21.344   3.164  1.00  0.00     0.159 HD
ENDBRANCH  11  21
ENDBRANCH   8   9
ENDBRANCH   1   8
BRANCH   4  26
ATOM     26  N   UNL     1      25.241  20.911  11.479  1.00  0.00    -0.307 N 
ATOM     27  C   UNL     1      23.827  20.677  11.537  1.00  0.00     0.319 C 
ATOM     28  H   UNL     1      25.798  20.728  12.343  1.00  0.00     0.171 HD
ATOM     29  O   UNL     1      23.069  21.114  10.628  1.00  0.00    -0.248 OA
ATOM     30  N   UNL     1      23.269  19.974  12.654  1.00  0.00    -0.335 N 
ATOM     31  H   UNL     1      23.897  19.684  13.437  1.00  0.00     0.165 HD
BRANCH  30  32
ATOM     32  C   UNL     1      21.829  19.776  12.792  1.00  0.00     0.084 C 
ATOM     33  C   UNL     1      21.201  20.580  13.917  1.00  0.00     0.027 C 
ATOM     34  C   UNL     1      21.438  19.088  14.090  1.00  0.00     0.027 C 
ENDBRANCH  30  32
ENDBRANCH   4  26
TORSDOF 6
ENDMDL
MODEL 6
REMARK VINA RESULT:    -7.596      2.654     11.219
REMARK INTER + INTRA:         -10.910
REMARK INTER:                  -9.983
REMARK INTRA:                  -0.927
REMARK UNBOUND:                -0.649
REMARK SMILES COc1cc2nccc(Oc3ccc(NC(=O)NC4CC4)c(Cl)c3)c2cc1C(N)=O
REMARK SMILES IDX 11 1 12 2 13 3 14 4 22 5 23 6 24 7 10 8 9 9 3 10 27 11 4 12
REMARK SMILES IDX 26 13 5 14 25 15 6 16 7 17 8 18 2 19 1 20 28 21 29 22 30 23
REMARK SMILES IDX 15 26 16 27 17 29 18 30 19 32 20 33 21 34
REMARK H PARENT 29 24 29 25 15 28 18 31
REMARK Flexibility Score: inf
ROOT
ATOM      1  C   UNL     1      25.723  20.521  11.067  1.00  0.00     0.129 A 
ATOM      2  C   UNL     1      25.830  21.861  10.688  1.00  0.00     0.049 A 
ATOM      3  C   UNL     1      26.447  22.209   9.484  1.00  0.00     0.031 A 
ATOM      4  C   UNL     1      26.947  21.215   8.624  1.00  0.00     0.061 A 
ATOM      5  C   UNL     1      26.837  19.863   9.005  1.00  0.00     0.068 A 
ATOM      6  Cl  UNL     1      27.423  18.570   7.965  1.00  0.00    -0.082 Cl
ATOM      7  C   UNL     1      26.219  19.522  10.212  1.00  0.00     0.069 A 
ENDROOT
BRANCH   1   8
ATOM      8  O   UNL     1      25.081  20.212  12.276  1.00  0.00    -0.457 OA
BRANCH   8   9
ATOM      9  C   UNL     1      23.691  20.147  12.464  1.00  0.00     0.138 A 
ATOM     10  C   UNL     1      22.065  18.743  16.110  1.00  0.00     0.133 A 
ATOM     11  C   UNL     1      23.467  18.793  15.942  1.00  0.00     0.082 A 
ATOM     12  C   UNL     1      21.228  19.131  15.047  1.00  0.00     0.076 A 
ATOM     13  C   UNL     1      24.008  19.268  14.735  1.00  0.00     0.032 A 
ATOM     14  C   UNL     1      21.770  19.588  13.843  1.00  0.00     0.078 A 
ATOM     15  C   UNL     1      23.169  19.664  13.680  1.00  0.00     0.044 A 
ATOM     16  N   UNL     1      20.944  19.966  12.831  1.00  0.00    -0.256 NA
ATOM     17  C   UNL     1      21.427  20.421  11.645  1.00  0.00     0.115 A 
ATOM     18  C   UNL     1      22.803  20.514  11.439  1.00  0.00     0.068 A 
BRANCH  10  19
ATOM     19  O   UNL     1      21.537  18.336  17.347  1.00  0.00    -0.496 OA
ATOM     20  C   UNL     1      20.424  17.463  17.507  1.00  0.00     0.278 C 
ENDBRANCH  10  19
BRANCH  11  21
ATOM     21  C   UNL     1      24.389  18.382  17.027  1.00  0.00     0.252 C 
ATOM     22  N   UNL     1      24.098  17.260  17.862  1.00  0.00    -0.365 N 
ATOM     23  O   UNL     1      25.467  19.012  17.200  1.00  0.00    -0.269 OA
ATOM     24  H   UNL     1      24.724  17.028  18.665  1.00  0.00     0.159 HD
ATOM     25  H   UNL     1      23.314  16.608  17.638  1.00  0.00     0.159 HD
ENDBRANCH  11  21
ENDBRANCH   8   9
ENDBRANCH   1   8
BRANCH   4  26
ATOM     26  N   UNL     1      27.609  21.573   7.398  1.00  0.00    -0.307 N 
ATOM     27  C   UNL     1      28.922  22.147   7.339  1.00  0.00     0.319 C 
ATOM     28  H   UNL     1      27.087  21.464   6.500  1.00  0.00     0.171 HD
ATOM     29  O   UNL     1      29.496  22.539   8.392  1.00  0.00    -0.248 OA
ATOM     30  N   UNL     1      29.570  22.308   6.071  1.00  0.00    -0.335 N 
ATOM     31  H   UNL     1      29.055  22.049   5.200  1.00  0.00     0.165 HD
BRANCH  30  32
ATOM     32  C   UNL     1      30.876  22.952   5.955  1.00  0.00     0.084 C 
ATOM     33  C   UNL     1      31.582  22.680   4.638  1.00  0.00     0.027 C 
ATOM     34  C   UNL     1      32.030  21.964   5.902  1.00  0.00     0.027 C 
ENDBRANCH  30  32
ENDBRANCH   4  26
TORSDOF 6
ENDMDL
MODEL 7
REMARK VINA RESULT:    -7.593      3.672     10.006
REMARK INTER + INTRA:         -10.905
REMARK INTER:                  -9.890
REMARK INTRA:                  -1.016
REMARK UNBOUND:                -0.649
REMARK SMILES COc1cc2nccc(Oc3ccc(NC(=O)NC4CC4)c(Cl)c3)c2cc1C(N)=O
REMARK SMILES IDX 11 1 12 2 13 3 14 4 22 5 23 6 24 7 10 8 9 9 3 10 27 11 4 12
REMARK SMILES IDX 26 13 5 14 25 15 6 16 7 17 8 18 2 19 1 20 28 21 29 22 30 23
REMARK SMILES IDX 15 26 16 27 17 29 18 30 19 32 20 33 21 34
REMARK H PARENT 29 24 29 25 15 28 18 31
REMARK Flexibility Score: inf
ROOT
ATOM      1  C   UNL     1      26.697  24.756   9.267  1.00  0.00     0.129 A 
ATOM      2  C   UNL     1      26.380  23.559   8.621  1.00  0.00     0.049 A 
ATOM      3  C   UNL     1      27.020  23.206   7.431  1.00  0.00     0.031 A 
ATOM      4  C   UNL     1      28.009  24.038   6.878  1.00  0.00     0.061 A 
ATOM      5  C   UNL     1      28.333  25.244   7.530  1.00  0.00     0.068 A 
ATOM      6  Cl  UNL     1      29.577  26.318   6.903  1.00  0.00    -0.082 Cl
ATOM      7  C   UNL     1      27.688  25.592   8.722  1.00  0.00     0.069 A 
ENDROOT
BRANCH   1   8
ATOM      8  O   UNL     1      26.046  25.067  10.470  1.00  0.00    -0.457 OA
BRANCH   8   9
ATOM      9  C   UNL     1      24.670  25.307  10.611  1.00  0.00     0.138 A 
ATOM     10  C   UNL     1      22.000  22.144  11.496  1.00  0.00     0.133 A 
ATOM     11  C   UNL     1      23.380  21.876  11.353  1.00  0.00     0.082 A 
ATOM     12  C   UNL     1      21.529  23.457  11.307  1.00  0.00     0.076 A 
ATOM     13  C   UNL     1      24.268  22.928  11.068  1.00  0.00     0.032 A 
ATOM     14  C   UNL     1      22.413  24.496  11.009  1.00  0.00     0.078 A 
ATOM     15  C   UNL     1      23.795  24.238  10.892  1.00  0.00     0.044 A 
ATOM     16  N   UNL     1      21.939  25.760  10.839  1.00  0.00    -0.256 NA
ATOM     17  C   UNL     1      22.763  26.801  10.553  1.00  0.00     0.115 A 
ATOM     18  C   UNL     1      24.136  26.594  10.429  1.00  0.00     0.068 A 
BRANCH  10  19
ATOM     19  O   UNL     1      21.132  21.098  11.852  1.00  0.00    -0.496 OA
ATOM     20  C   UNL     1      20.586  20.905  13.152  1.00  0.00     0.278 C 
ENDBRANCH  10  19
BRANCH  11  21
ATOM     21  C   UNL     1      23.923  20.509  11.528  1.00  0.00     0.252 C 
ATOM     22  N   UNL     1      23.948  19.880  12.811  1.00  0.00    -0.365 N 
ATOM     23  O   UNL     1      24.343  19.872  10.525  1.00  0.00    -0.269 OA
ATOM     24  H   UNL     1      24.397  18.945  12.927  1.00  0.00     0.159 HD
ATOM     25  H   UNL     1      23.448  20.297  13.627  1.00  0.00     0.159 HD
ENDBRANCH  11  21
ENDBRANCH   8   9
ENDBRANCH   1   8
BRANCH   4  26
ATOM     26  N   UNL     1      28.649  23.690   5.637  1.00  0.00    -0.307 N 
ATOM     27  C   UNL     1      29.815  22.858   5.547  1.00  0.00     0.319 C 
ATOM     28  H   UNL     1      28.284  24.109   4.753  1.00  0.00     0.171 HD
ATOM     29  O   UNL     1      30.451  22.536   6.588  1.00  0.00    -0.248 OA
ATOM     30  N   UNL     1      30.279  22.423   4.263  1.00  0.00    -0.335 N 
ATOM     31  H   UNL     1      29.788  22.759   3.405  1.00  0.00     0.165 HD
BRANCH  30  32
ATOM     32  C   UNL     1      31.499  21.635   4.118  1.00  0.00     0.084 C 
ATOM     33  C   UNL     1      32.425  22.131   3.019  1.00  0.00     0.027 C 
ATOM     34  C   UNL     1      31.579  20.887   2.797  1.00  0.00     0.027 C 
ENDBRANCH  30  32
ENDBRANCH   4  26
TORSDOF 6
ENDMDL
MODEL 8
REMARK VINA RESULT:    -7.586      4.494      6.474
REMARK INTER + INTRA:         -10.896
REMARK INTER:                  -9.565
REMARK INTRA:                  -1.331
REMARK UNBOUND:                -0.649
REMARK SMILES COc1cc2nccc(Oc3ccc(NC(=O)NC4CC4)c(Cl)c3)c2cc1C(N)=O
REMARK SMILES IDX 11 1 12 2 13 3 14 4 22 5 23 6 24 7 10 8 9 9 3 10 27 11 4 12
REMARK SMILES IDX 26 13 5 14 25 15 6 16 7 17 8 18 2 19 1 20 28 21 29 22 30 23
REMARK SMILES IDX 15 26 16 27 17 29 18 30 19 32 20 33 21 34
REMARK H PARENT 29 24 29 25 15 28 18 31
REMARK Flexibility Score: inf
ROOT
ATOM      1  C   UNL     1      29.636  26.021   6.565  1.00  0.00     0.129 A 
ATOM      2  C   UNL     1      28.295  25.717   6.809  1.00  0.00     0.049 A 
ATOM      3  C   UNL     1      27.883  24.389   6.942  1.00  0.00     0.031 A 
ATOM      4  C   UNL     1      28.815  23.340   6.857  1.00  0.00     0.061 A 
ATOM      5  C   UNL     1      30.170  23.646   6.614  1.00  0.00     0.068 A 
ATOM      6  Cl  UNL     1      31.389  22.382   6.518  1.00  0.00    -0.082 Cl
ATOM      7  C   UNL     1      30.575  24.979   6.481  1.00  0.00     0.069 A 
ENDROOT
BRANCH   1   8
ATOM      8  O   UNL     1      30.013  27.368   6.456  1.00  0.00    -0.457 OA
BRANCH   8   9
ATOM      9  C   UNL     1      30.608  28.131   7.473  1.00  0.00     0.138 A 
ATOM     10  C   UNL     1      34.432  29.860   6.924  1.00  0.00     0.133 A 
ATOM     11  C   UNL     1      33.856  29.091   5.888  1.00  0.00     0.082 A 
ATOM     12  C   UNL     1      33.737  30.011   8.139  1.00  0.00     0.076 A 
ATOM     13  C   UNL     1      32.582  28.524   6.066  1.00  0.00     0.032 A 
ATOM     14  C   UNL     1      32.478  29.433   8.317  1.00  0.00     0.078 A 
ATOM     15  C   UNL     1      31.887  28.687   7.276  1.00  0.00     0.044 A 
ATOM     16  N   UNL     1      31.820  29.598   9.496  1.00  0.00    -0.256 NA
ATOM     17  C   UNL     1      30.592  29.058   9.711  1.00  0.00     0.115 A 
ATOM     18  C   UNL     1      29.968  28.314   8.710  1.00  0.00     0.068 A 
BRANCH  10  19
ATOM     19  O   UNL     1      35.673  30.482   6.708  1.00  0.00    -0.496 OA
ATOM     20  C   UNL     1      35.957  31.847   6.991  1.00  0.00     0.278 C 
ENDBRANCH  10  19
BRANCH  11  21
ATOM     21  C   UNL     1      34.554  28.891   4.596  1.00  0.00     0.252 C 
ATOM     22  N   UNL     1      34.941  30.002   3.784  1.00  0.00    -0.365 N 
ATOM     23  O   UNL     1      34.841  27.725   4.217  1.00  0.00    -0.269 OA
ATOM     24  H   UNL     1      35.369  29.839   2.846  1.00  0.00     0.159 HD
ATOM     25  H   UNL     1      34.885  30.980   4.143  1.00  0.00     0.159 HD
ENDBRANCH  11  21
ENDBRANCH   8   9
ENDBRANCH   1   8
BRANCH   4  26
ATOM     26  N   UNL     1      28.389  21.970   6.965  1.00  0.00    -0.307 N 
ATOM     27  C   UNL     1      28.249  21.275   8.212  1.00  0.00     0.319 C 
ATOM     28  H   UNL     1      28.226  21.428   6.088  1.00  0.00     0.171 HD
ATOM     29  O   UNL     1      28.676  21.791   9.282  1.00  0.00    -0.248 OA
ATOM     30  N   UNL     1      27.653  19.973   8.236  1.00  0.00    -0.335 N 
ATOM     31  H   UNL     1      27.372  19.526   7.335  1.00  0.00     0.165 HD
BRANCH  30  32
ATOM     32  C   UNL     1      27.554  19.199   9.470  1.00  0.00     0.084 C 
ATOM     33  C   UNL     1      26.379  18.237   9.502  1.00  0.00     0.027 C 
ATOM     34  C   UNL     1      26.321  19.534  10.294  1.00  0.00     0.027 C 
ENDBRANCH  30  32
ENDBRANCH   4  26
TORSDOF 6
ENDMDL
MODEL 9
REMARK VINA RESULT:    -7.567      2.785      9.664
REMARK INTER + INTRA:         -10.870
REMARK INTER:                  -9.693
REMARK INTRA:                  -1.177
REMARK UNBOUND:                -0.649
REMARK SMILES COc1cc2nccc(Oc3ccc(NC(=O)NC4CC4)c(Cl)c3)c2cc1C(N)=O
REMARK SMILES IDX 11 1 12 2 13 3 14 4 22 5 23 6 24 7 10 8 9 9 3 10 27 11 4 12
REMARK SMILES IDX 26 13 5 14 25 15 6 16 7 17 8 18 2 19 1 20 28 21 29 22 30 23
REMARK SMILES IDX 15 26 16 27 17 29 18 30 19 32 20 33 21 34
REMARK H PARENT 29 24 29 25 15 28 18 31
REMARK Flexibility Score: inf
ROOT
ATOM      1  C   UNL     1      29.185  23.782   9.293  1.00  0.00     0.129 A 
ATOM      2  C   UNL     1      29.832  22.585   8.977  1.00  0.00     0.049 A 
ATOM      3  C   UNL     1      30.406  22.402   7.717  1.00  0.00     0.031 A 
ATOM      4  C   UNL     1      30.364  23.428   6.757  1.00  0.00     0.061 A 
ATOM      5  C   UNL     1      29.715  24.638   7.076  1.00  0.00     0.068 A 
ATOM      6  Cl  UNL     1      29.646  25.969   5.928  1.00  0.00    -0.082 Cl
ATOM      7  C   UNL     1      29.142  24.814   8.340  1.00  0.00     0.069 A 
ENDROOT
BRANCH   1   8
ATOM      8  O   UNL     1      28.637  23.934  10.576  1.00  0.00    -0.457 OA
BRANCH   8   9
ATOM      9  C   UNL     1      27.305  24.280  10.854  1.00  0.00     0.138 A 
ATOM     10  C   UNL     1      24.252  21.349  10.800  1.00  0.00     0.133 A 
ATOM     11  C   UNL     1      25.584  20.978  10.510  1.00  0.00     0.082 A 
ATOM     12  C   UNL     1      23.955  22.699  11.070  1.00  0.00     0.076 A 
ATOM     13  C   UNL     1      26.600  21.949  10.538  1.00  0.00     0.032 A 
ATOM     14  C   UNL     1      24.965  23.663  11.081  1.00  0.00     0.078 A 
ATOM     15  C   UNL     1      26.301  23.292  10.818  1.00  0.00     0.044 A 
ATOM     16  N   UNL     1      24.659  24.960  11.351  1.00  0.00    -0.256 NA
ATOM     17  C   UNL     1      25.610  25.930  11.377  1.00  0.00     0.115 A 
ATOM     18  C   UNL     1      26.943  25.610  11.125  1.00  0.00     0.068 A 
BRANCH  10  19
ATOM     19  O   UNL     1      23.257  20.358  10.842  1.00  0.00    -0.496 OA
ATOM     20  C   UNL     1      22.303  20.209  11.888  1.00  0.00     0.278 C 
ENDBRANCH  10  19
BRANCH  11  21
ATOM     21  C   UNL     1      25.945  19.573  10.207  1.00  0.00     0.252 C 
ATOM     22  N   UNL     1      25.350  18.876   9.110  1.00  0.00    -0.365 N 
ATOM     23  O   UNL     1      26.814  18.988  10.906  1.00  0.00    -0.269 OA
ATOM     24  H   UNL     1      25.564  17.866   8.954  1.00  0.00     0.159 HD
ATOM     25  H   UNL     1      24.766  19.376   8.404  1.00  0.00     0.159 HD
ENDBRANCH  11  21
ENDBRANCH   8   9
ENDBRANCH   1   8
BRANCH   4  26
ATOM     26  N   UNL     1      30.930  23.231   5.449  1.00  0.00    -0.307 N 
ATOM     27  C   UNL     1      32.340  23.162   5.193  1.00  0.00     0.319 C 
ATOM     28  H   UNL     1      30.286  23.193   4.627  1.00  0.00     0.171 HD
ATOM     29  O   UNL     1      33.168  23.456   6.098  1.00  0.00    -0.248 OA
ATOM     30  N   UNL     1      32.807  22.789   3.891  1.00  0.00    -0.335 N 
ATOM     31  H   UNL     1      32.112  22.621   3.130  1.00  0.00     0.165 HD
BRANCH  30  32
ATOM     32  C   UNL     1      34.230  22.774   3.564  1.00  0.00     0.084 C 
ATOM     33  C   UNL     1      34.684  23.959   2.729  1.00  0.00     0.027 C 
ATOM     34  C   UNL     1      34.505  22.595   2.080  1.00  0.00     0.027 C 
ENDBRANCH  30  32
ENDBRANCH   4  26
TORSDOF 6
ENDMDL
MODEL 10
REMARK VINA RESULT:    -7.418      3.256      5.342
REMARK INTER + INTRA:         -10.669
REMARK INTER:                  -9.455
REMARK INTRA:                  -1.214
REMARK UNBOUND:                -0.649
REMARK SMILES COc1cc2nccc(Oc3ccc(NC(=O)NC4CC4)c(Cl)c3)c2cc1C(N)=O
REMARK SMILES IDX 11 1 12 2 13 3 14 4 22 5 23 6 24 7 10 8 9 9 3 10 27 11 4 12
REMARK SMILES IDX 26 13 5 14 25 15 6 16 7 17 8 18 2 19 1 20 28 21 29 22 30 23
REMARK SMILES IDX 15 26 16 27 17 29 18 30 19 32 20 33 21 34
REMARK H PARENT 29 24 29 25 15 28 18 31
REMARK Flexibility Score: inf
ROOT
ATOM      1  C   UNL     1      24.170  20.785  11.574  1.00  0.00     0.129 A 
ATOM      2  C   UNL     1      24.826  21.448  12.613  1.00  0.00     0.049 A 
ATOM      3  C   UNL     1      24.300  21.430  13.908  1.00  0.00     0.031 A 
ATOM      4  C   UNL     1      23.117  20.725  14.188  1.00  0.00     0.061 A 
ATOM      5  C   UNL     1      22.456  20.053  13.141  1.00  0.00     0.068 A 
ATOM      6  Cl  UNL     1      20.984  19.134  13.429  1.00  0.00    -0.082 Cl
ATOM      7  C   UNL     1      22.988  20.075  11.847  1.00  0.00     0.069 A 
ENDROOT
BRANCH   1   8
ATOM      8  O   UNL     1      24.738  20.812  10.292  1.00  0.00    -0.457 OA
BRANCH   8   9
ATOM      9  C   UNL     1      26.053  20.433   9.978  1.00  0.00     0.138 A 
ATOM     10  C   UNL     1      28.637  23.083   7.925  1.00  0.00     0.133 A 
ATOM     11  C   UNL     1      27.316  23.484   8.223  1.00  0.00     0.082 A 
ATOM     12  C   UNL     1      29.064  21.790   8.286  1.00  0.00     0.076 A 
ATOM     13  C   UNL     1      26.460  22.608   8.914  1.00  0.00     0.032 A 
ATOM     14  C   UNL     1      28.205  20.918   8.958  1.00  0.00     0.078 A 
ATOM     15  C   UNL     1      26.894  21.324   9.282  1.00  0.00     0.044 A 
ATOM     16  N   UNL     1      28.639  19.676   9.305  1.00  0.00    -0.256 NA
ATOM     17  C   UNL     1      27.840  18.797   9.963  1.00  0.00     0.115 A 
ATOM     18  C   UNL     1      26.537  19.155  10.306  1.00  0.00     0.068 A 
BRANCH  10  19
ATOM     19  O   UNL     1      29.506  23.993   7.300  1.00  0.00    -0.496 OA
ATOM     20  C   UNL     1      30.722  23.639   6.651  1.00  0.00     0.278 C 
ENDBRANCH  10  19
BRANCH  11  21
ATOM     21  C   UNL     1      26.816  24.828   7.852  1.00  0.00     0.252 C 
ATOM     22  N   UNL     1      27.207  25.452   6.627  1.00  0.00    -0.365 N 
ATOM     23  O   UNL     1      26.006  25.424   8.612  1.00  0.00    -0.269 OA
ATOM     24  H   UNL     1      26.900  26.428   6.415  1.00  0.00     0.159 HD
ATOM     25  H   UNL     1      27.727  24.923   5.892  1.00  0.00     0.159 HD
ENDBRANCH  11  21
ENDBRANCH   8   9
ENDBRANCH   1   8
BRANCH   4  26
ATOM     26  N   UNL     1      22.559  20.729  15.514  1.00  0.00    -0.307 N 
ATOM     27  C   UNL     1      21.438  21.535  15.904  1.00  0.00     0.319 C 
ATOM     28  H   UNL     1      23.026  20.158  16.254  1.00  0.00     0.171 HD
ATOM     29  O   UNL     1      20.996  22.430  15.133  1.00  0.00    -0.248 OA
ATOM     30  N   UNL     1      20.842  21.345  17.193  1.00  0.00    -0.335 N 
ATOM     31  H   UNL     1      21.264  20.653  17.852  1.00  0.00     0.165 HD
BRANCH  30  32
ATOM     32  C   UNL     1      19.746  22.189  17.661  1.00  0.00     0.084 C 
ATOM     33  C   UNL     1      20.193  23.356  18.525  1.00  0.00     0.027 C 
ATOM     34  C   UNL     1      19.549  22.138  19.168  1.00  0.00     0.027 C 
ENDBRANCH  30  32
ENDBRANCH   4  26
TORSDOF 6
ENDMDL
MODEL 11
REMARK VINA RESULT:    -7.289      4.630      6.629
REMARK INTER + INTRA:         -10.496
REMARK INTER:                  -9.286
REMARK INTRA:                  -1.210
REMARK UNBOUND:                -0.649
REMARK SMILES COc1cc2nccc(Oc3ccc(NC(=O)NC4CC4)c(Cl)c3)c2cc1C(N)=O
REMARK SMILES IDX 11 1 12 2 13 3 14 4 22 5 23 6 24 7 10 8 9 9 3 10 27 11 4 12
REMARK SMILES IDX 26 13 5 14 25 15 6 16 7 17 8 18 2 19 1 20 28 21 29 22 30 23
REMARK SMILES IDX 15 26 16 27 17 29 18 30 19 32 20 33 21 34
REMARK H PARENT 29 24 29 25 15 28 18 31
REMARK Flexibility Score: inf
ROOT
ATOM      1  C   UNL     1      30.641  25.782   8.753  1.00  0.00     0.129 A 
ATOM      2  C   UNL     1      29.798  25.234   9.723  1.00  0.00     0.049 A 
ATOM      3  C   UNL     1      28.905  24.213   9.391  1.00  0.00     0.031 A 
ATOM      4  C   UNL     1      28.858  23.704   8.081  1.00  0.00     0.061 A 
ATOM      5  C   UNL     1      29.710  24.253   7.102  1.00  0.00     0.068 A 
ATOM      6  Cl  UNL     1      29.716  23.647   5.451  1.00  0.00    -0.082 Cl
ATOM      7  C   UNL     1      30.601  25.277   7.442  1.00  0.00     0.069 A 
ENDROOT
BRANCH   1   8
ATOM      8  O   UNL     1      31.536  26.794   9.131  1.00  0.00    -0.457 OA
BRANCH   8   9
ATOM      9  C   UNL     1      31.240  28.166   9.174  1.00  0.00     0.138 A 
ATOM     10  C   UNL     1      32.630  30.774   6.144  1.00  0.00     0.133 A 
ATOM     11  C   UNL     1      32.945  29.399   6.083  1.00  0.00     0.082 A 
ATOM     12  C   UNL     1      31.884  31.263   7.234  1.00  0.00     0.076 A 
ATOM     13  C   UNL     1      32.476  28.530   7.084  1.00  0.00     0.032 A 
ATOM     14  C   UNL     1      31.433  30.399   8.235  1.00  0.00     0.078 A 
ATOM     15  C   UNL     1      31.724  29.020   8.163  1.00  0.00     0.044 A 
ATOM     16  N   UNL     1      30.708  30.890   9.275  1.00  0.00    -0.256 NA
ATOM     17  C   UNL     1      30.245  30.085  10.267  1.00  0.00     0.115 A 
ATOM     18  C   UNL     1      30.506  28.716  10.238  1.00  0.00     0.068 A 
BRANCH  10  19
ATOM     19  O   UNL     1      33.042  31.620   5.101  1.00  0.00    -0.496 OA
ATOM     20  C   UNL     1      32.289  32.720   4.602  1.00  0.00     0.278 C 
ENDBRANCH  10  19
BRANCH  11  21
ATOM     21  C   UNL     1      33.739  28.838   4.964  1.00  0.00     0.252 C 
ATOM     22  N   UNL     1      34.790  29.589   4.352  1.00  0.00    -0.365 N 
ATOM     23  O   UNL     1      33.506  27.668   4.560  1.00  0.00    -0.269 OA
ATOM     24  H   UNL     1      35.292  29.206   3.520  1.00  0.00     0.159 HD
ATOM     25  H   UNL     1      35.132  30.482   4.771  1.00  0.00     0.159 HD
ENDBRANCH  11  21
ENDBRANCH   8   9
ENDBRANCH   1   8
BRANCH   4  26
ATOM     26  N   UNL     1      27.919  22.672   7.730  1.00  0.00    -0.307 N 
ATOM     27  C   UNL     1      28.101  21.286   8.053  1.00  0.00     0.319 C 
ATOM     28  H   UNL     1      27.084  22.930   7.158  1.00  0.00     0.171 HD
ATOM     29  O   UNL     1      29.203  20.876   8.511  1.00  0.00    -0.248 OA
ATOM     30  N   UNL     1      27.036  20.357   7.819  1.00  0.00    -0.335 N 
ATOM     31  H   UNL     1      26.156  20.695   7.369  1.00  0.00     0.165 HD
BRANCH  30  32
ATOM     32  C   UNL     1      27.200  18.927   8.065  1.00  0.00     0.084 C 
ATOM     33  C   UNL     1      25.970  18.099   7.733  1.00  0.00     0.027 C 
ATOM     34  C   UNL     1      26.313  18.404   9.183  1.00  0.00     0.027 C 
ENDBRANCH  30  32
ENDBRANCH   4  26
TORSDOF 6
ENDMDL
MODEL 12
REMARK VINA RESULT:    -7.271      3.595      5.213
REMARK INTER + INTRA:         -10.471
REMARK INTER:                  -9.313
REMARK INTRA:                  -1.158
REMARK UNBOUND:                -0.649
REMARK SMILES COc1cc2nccc(Oc3ccc(NC(=O)NC4CC4)c(Cl)c3)c2cc1C(N)=O
REMARK SMILES IDX 11 1 12 2 13 3 14 4 22 5 23 6 24 7 10 8 9 9 3 10 27 11 4 12
REMARK SMILES IDX 26 13 5 14 25 15 6 16 7 17 8 18 2 19 1 20 28 21 29 22 30 23
REMARK SMILES IDX 15 26 16 27 17 29 18 30 19 32 20 33 21 34
REMARK H PARENT 29 24 29 25 15 28 18 31
REMARK Flexibility Score: inf
ROOT
ATOM      1  C   UNL     1      24.320  21.890  12.677  1.00  0.00     0.129 A 
ATOM      2  C   UNL     1      24.406  20.577  12.208  1.00  0.00     0.049 A 
ATOM      3  C   UNL     1      23.338  19.693  12.378  1.00  0.00     0.031 A 
ATOM      4  C   UNL     1      22.152  20.118  13.002  1.00  0.00     0.061 A 
ATOM      5  C   UNL     1      22.063  21.443  13.473  1.00  0.00     0.068 A 
ATOM      6  Cl  UNL     1      20.600  22.044  14.243  1.00  0.00    -0.082 Cl
ATOM      7  C   UNL     1      23.137  22.323  13.300  1.00  0.00     0.069 A 
ENDROOT
BRANCH   1   8
ATOM      8  O   UNL     1      25.408  22.752  12.471  1.00  0.00    -0.457 OA
BRANCH   8   9
ATOM      9  C   UNL     1      25.448  23.800  11.537  1.00  0.00     0.138 A 
ATOM     10  C   UNL     1      27.099  23.204   7.686  1.00  0.00     0.133 A 
ATOM     11  C   UNL     1      27.076  22.136   8.611  1.00  0.00     0.082 A 
ATOM     12  C   UNL     1      26.602  24.463   8.074  1.00  0.00     0.076 A 
ATOM     13  C   UNL     1      26.519  22.331   9.887  1.00  0.00     0.032 A 
ATOM     14  C   UNL     1      26.064  24.656   9.348  1.00  0.00     0.078 A 
ATOM     15  C   UNL     1      26.014  23.585  10.265  1.00  0.00     0.044 A 
ATOM     16  N   UNL     1      25.582  25.878   9.700  1.00  0.00    -0.256 NA
ATOM     17  C   UNL     1      25.046  26.110  10.926  1.00  0.00     0.115 A 
ATOM     18  C   UNL     1      24.974  25.081  11.865  1.00  0.00     0.068 A 
BRANCH  10  19
ATOM     19  O   UNL     1      27.591  22.977   6.390  1.00  0.00    -0.496 OA
ATOM     20  C   UNL     1      28.823  23.485   5.889  1.00  0.00     0.278 C 
ENDBRANCH  10  19
BRANCH  11  21
ATOM     21  C   UNL     1      27.599  20.796   8.255  1.00  0.00     0.252 C 
ATOM     22  N   UNL     1      26.853  19.906   7.422  1.00  0.00    -0.365 N 
ATOM     23  O   UNL     1      28.735  20.441   8.667  1.00  0.00    -0.269 OA
ATOM     24  H   UNL     1      27.206  18.941   7.239  1.00  0.00     0.159 HD
ATOM     25  H   UNL     1      25.998  20.228   6.916  1.00  0.00     0.159 HD
ENDBRANCH  11  21
ENDBRANCH   8   9
ENDBRANCH   1   8
BRANCH   4  26
ATOM     26  N   UNL     1      21.062  19.201  13.205  1.00  0.00    -0.307 N 
ATOM     27  C   UNL     1      20.971  18.306  14.322  1.00  0.00     0.319 C 
ATOM     28  H   UNL     1      20.320  19.138  12.472  1.00  0.00     0.171 HD
ATOM     29  O   UNL     1      21.953  18.151  15.098  1.00  0.00    -0.248 OA
ATOM     30  N   UNL     1      19.768  17.556  14.534  1.00  0.00    -0.335 N 
ATOM     31  H   UNL     1      18.991  17.635  13.842  1.00  0.00     0.165 HD
BRANCH  30  32
ATOM     32  C   UNL     1      19.656  16.580  15.615  1.00  0.00     0.084 C 
ATOM     33  C   UNL     1      18.240  16.395  16.132  1.00  0.00     0.027 C 
ATOM     34  C   UNL     1      19.245  17.198  16.942  1.00  0.00     0.027 C 
ENDBRANCH  30  32
ENDBRANCH   4  26
TORSDOF 6
ENDMDL
MODEL 13
REMARK VINA RESULT:    -7.213      3.428     10.364
REMARK INTER + INTRA:         -10.393
REMARK INTER:                  -9.300
REMARK INTRA:                  -1.093
REMARK UNBOUND:                -0.649
REMARK SMILES COc1cc2nccc(Oc3ccc(NC(=O)NC4CC4)c(Cl)c3)c2cc1C(N)=O
REMARK SMILES IDX 11 1 12 2 13 3 14 4 22 5 23 6 24 7 10 8 9 9 3 10 27 11 4 12
REMARK SMILES IDX 26 13 5 14 25 15 6 16 7 17 8 18 2 19 1 20 28 21 29 22 30 23
REMARK SMILES IDX 15 26 16 27 17 29 18 30 19 32 20 33 21 34
REMARK H PARENT 29 24 29 25 15 28 18 31
REMARK Flexibility Score: inf
ROOT
ATOM      1  C   UNL     1      24.979  20.318  10.823  1.00  0.00     0.129 A 
ATOM      2  C   UNL     1      25.440  21.635  10.759  1.00  0.00     0.049 A 
ATOM      3  C   UNL     1      26.718  21.916  10.271  1.00  0.00     0.031 A 
ATOM      4  C   UNL     1      27.550  20.880   9.812  1.00  0.00     0.061 A 
ATOM      5  C   UNL     1      27.086  19.551   9.872  1.00  0.00     0.068 A 
ATOM      6  Cl  UNL     1      28.069  18.212   9.293  1.00  0.00    -0.082 Cl
ATOM      7  C   UNL     1      25.805  19.277  10.363  1.00  0.00     0.069 A 
ENDROOT
BRANCH   1   8
ATOM      8  O   UNL     1      23.684  20.078  11.304  1.00  0.00    -0.457 OA
BRANCH   8   9
ATOM      9  C   UNL     1      23.255  20.286  12.625  1.00  0.00     0.138 A 
ATOM     10  C   UNL     1      21.247  23.849  13.712  1.00  0.00     0.133 A 
ATOM     11  C   UNL     1      21.674  23.665  12.378  1.00  0.00     0.082 A 
ATOM     12  C   UNL     1      21.527  22.856  14.669  1.00  0.00     0.076 A 
ATOM     13  C   UNL     1      22.332  22.478  12.014  1.00  0.00     0.032 A 
ATOM     14  C   UNL     1      22.195  21.684  14.306  1.00  0.00     0.078 A 
ATOM     15  C   UNL     1      22.600  21.485  12.970  1.00  0.00     0.044 A 
ATOM     16  N   UNL     1      22.450  20.733  15.245  1.00  0.00    -0.256 NA
ATOM     17  C   UNL     1      23.093  19.577  14.936  1.00  0.00     0.115 A 
ATOM     18  C   UNL     1      23.510  19.335  13.627  1.00  0.00     0.068 A 
BRANCH  10  19
ATOM     19  O   UNL     1      20.525  25.007  14.047  1.00  0.00    -0.496 OA
ATOM     20  C   UNL     1      19.653  25.124  15.167  1.00  0.00     0.278 C 
ENDBRANCH  10  19
BRANCH  11  21
ATOM     21  C   UNL     1      21.414  24.688  11.337  1.00  0.00     0.252 C 
ATOM     22  N   UNL     1      21.782  26.055  11.534  1.00  0.00    -0.365 N 
ATOM     23  O   UNL     1      20.889  24.345  10.244  1.00  0.00    -0.269 OA
ATOM     24  H   UNL     1      21.528  26.773  10.819  1.00  0.00     0.159 HD
ATOM     25  H   UNL     1      22.377  26.344  12.341  1.00  0.00     0.159 HD
ENDBRANCH  11  21
ENDBRANCH   8   9
ENDBRANCH   1   8
BRANCH   4  26
ATOM     26  N   UNL     1      28.877  21.165   9.334  1.00  0.00    -0.307 N 
ATOM     27  C   UNL     1      29.151  21.875   8.118  1.00  0.00     0.319 C 
ATOM     28  H   UNL     1      29.691  20.786   9.868  1.00  0.00     0.171 HD
ATOM     29  O   UNL     1      28.222  22.131   7.305  1.00  0.00    -0.248 OA
ATOM     30  N   UNL     1      30.496  22.265   7.812  1.00  0.00    -0.335 N 
ATOM     31  H   UNL     1      31.267  21.981   8.457  1.00  0.00     0.165 HD
BRANCH  30  32
ATOM     32  C   UNL     1      30.833  22.926   6.554  1.00  0.00     0.084 C 
ATOM     33  C   UNL     1      32.062  22.355   5.868  1.00  0.00     0.027 C 
ATOM     34  C   UNL     1      32.150  23.682   6.606  1.00  0.00     0.027 C 
ENDBRANCH  30  32
ENDBRANCH   4  26
TORSDOF 6
ENDMDL
MODEL 14
REMARK VINA RESULT:    -7.091      3.433      9.726
REMARK INTER + INTRA:         -10.228
REMARK INTER:                  -9.025
REMARK INTRA:                  -1.203
REMARK UNBOUND:                -0.649
REMARK SMILES COc1cc2nccc(Oc3ccc(NC(=O)NC4CC4)c(Cl)c3)c2cc1C(N)=O
REMARK SMILES IDX 11 1 12 2 13 3 14 4 22 5 23 6 24 7 10 8 9 9 3 10 27 11 4 12
REMARK SMILES IDX 26 13 5 14 25 15 6 16 7 17 8 18 2 19 1 20 28 21 29 22 30 23
REMARK SMILES IDX 15 26 16 27 17 29 18 30 19 32 20 33 21 34
REMARK H PARENT 29 24 29 25 15 28 18 31
REMARK Flexibility Score: inf
ROOT
ATOM      1  C   UNL     1      26.552  24.429   8.027  1.00  0.00     0.129 A 
ATOM      2  C   UNL     1      26.746  23.057   7.856  1.00  0.00     0.049 A 
ATOM      3  C   UNL     1      27.757  22.583   7.016  1.00  0.00     0.031 A 
ATOM      4  C   UNL     1      28.611  23.480   6.352  1.00  0.00     0.061 A 
ATOM      5  C   UNL     1      28.420  24.865   6.527  1.00  0.00     0.068 A 
ATOM      6  Cl  UNL     1      29.468  26.039   5.741  1.00  0.00    -0.082 Cl
ATOM      7  C   UNL     1      27.405  25.332   7.368  1.00  0.00     0.069 A 
ENDROOT
BRANCH   1   8
ATOM      8  O   UNL     1      25.537  24.865   8.892  1.00  0.00    -0.457 OA
BRANCH   8   9
ATOM      9  C   UNL     1      25.694  25.128  10.262  1.00  0.00     0.138 A 
ATOM     10  C   UNL     1      24.193  22.441  13.167  1.00  0.00     0.133 A 
ATOM     11  C   UNL     1      24.017  22.158  11.794  1.00  0.00     0.082 A 
ATOM     12  C   UNL     1      24.837  23.633  13.549  1.00  0.00     0.076 A 
ATOM     13  C   UNL     1      24.524  23.045  10.829  1.00  0.00     0.032 A 
ATOM     14  C   UNL     1      25.326  24.519  12.586  1.00  0.00     0.078 A 
ATOM     15  C   UNL     1      25.175  24.228  11.214  1.00  0.00     0.044 A 
ATOM     16  N   UNL     1      25.952  25.662  12.975  1.00  0.00    -0.256 NA
ATOM     17  C   UNL     1      26.446  26.550  12.074  1.00  0.00     0.115 A 
ATOM     18  C   UNL     1      26.323  26.303  10.707  1.00  0.00     0.068 A 
BRANCH  10  19
ATOM     19  O   UNL     1      23.747  21.511  14.121  1.00  0.00    -0.496 OA
ATOM     20  C   UNL     1      24.597  20.672  14.896  1.00  0.00     0.278 C 
ENDBRANCH  10  19
BRANCH  11  21
ATOM     21  C   UNL     1      23.333  20.923  11.342  1.00  0.00     0.252 C 
ATOM     22  N   UNL     1      21.961  20.678  11.657  1.00  0.00    -0.365 N 
ATOM     23  O   UNL     1      23.960  20.085  10.641  1.00  0.00    -0.269 OA
ATOM     24  H   UNL     1      21.516  19.772  11.390  1.00  0.00     0.159 HD
ATOM     25  H   UNL     1      21.361  21.423  12.076  1.00  0.00     0.159 HD
ENDBRANCH  11  21
ENDBRANCH   8   9
ENDBRANCH   1   8
BRANCH   4  26
ATOM     26  N   UNL     1      29.635  22.995   5.465  1.00  0.00    -0.307 N 
ATOM     27  C   UNL     1      31.023  22.910   5.821  1.00  0.00     0.319 C 
ATOM     28  H   UNL     1      29.370  22.744   4.487  1.00  0.00     0.171 HD
ATOM     29  O   UNL     1      31.441  23.436   6.888  1.00  0.00    -0.248 OA
ATOM     30  N   UNL     1      31.942  22.253   4.940  1.00  0.00    -0.335 N 
ATOM     31  H   UNL     1      31.596  21.888   4.025  1.00  0.00     0.165 HD
BRANCH  30  32
ATOM     32  C   UNL     1      33.373  22.204   5.226  1.00  0.00     0.084 C 
ATOM     33  C   UNL     1      34.117  23.480   4.873  1.00  0.00     0.027 C 
ATOM     34  C   UNL     1      34.238  22.258   3.978  1.00  0.00     0.027 C 
ENDBRANCH  30  32
ENDBRANCH   4  26
TORSDOF 6
ENDMDL
MODEL 15
REMARK VINA RESULT:    -7.069      2.398      4.014
REMARK INTER + INTRA:         -10.198
REMARK INTER:                  -8.902
REMARK INTRA:                  -1.296
REMARK UNBOUND:                -0.649
REMARK SMILES COc1cc2nccc(Oc3ccc(NC(=O)NC4CC4)c(Cl)c3)c2cc1C(N)=O
REMARK SMILES IDX 11 1 12 2 13 3 14 4 22 5 23 6 24 7 10 8 9 9 3 10 27 11 4 12
REMARK SMILES IDX 26 13 5 14 25 15 6 16 7 17 8 18 2 19 1 20 28 21 29 22 30 23
REMARK SMILES IDX 15 26 16 27 17 29 18 30 19 32 20 33 21 34
REMARK H PARENT 29 24 29 25 15 28 18 31
REMARK Flexibility Score: inf
ROOT
ATOM      1  C   UNL     1      28.281  21.623   9.678  1.00  0.00     0.129 A 
ATOM      2  C   UNL     1      28.150  20.242   9.839  1.00  0.00     0.049 A 
ATOM      3  C   UNL     1      26.938  19.690  10.260  1.00  0.00     0.031 A 
ATOM      4  C   UNL     1      25.824  20.513  10.502  1.00  0.00     0.061 A 
ATOM      5  C   UNL     1      25.954  21.907  10.336  1.00  0.00     0.068 A 
ATOM      6  Cl  UNL     1      24.593  22.989  10.601  1.00  0.00    -0.082 Cl
ATOM      7  C   UNL     1      27.171  22.453   9.916  1.00  0.00     0.069 A 
ENDROOT
BRANCH   1   8
ATOM      8  O   UNL     1      29.510  22.137   9.237  1.00  0.00    -0.457 OA
BRANCH   8   9
ATOM      9  C   UNL     1      29.701  22.903   8.076  1.00  0.00     0.138 A 
ATOM     10  C   UNL     1      30.287  27.087   8.316  1.00  0.00     0.133 A 
ATOM     11  C   UNL     1      30.089  26.339   9.498  1.00  0.00     0.082 A 
ATOM     12  C   UNL     1      30.251  26.432   7.070  1.00  0.00     0.076 A 
ATOM     13  C   UNL     1      29.905  24.948   9.420  1.00  0.00     0.032 A 
ATOM     14  C   UNL     1      30.052  25.051   6.996  1.00  0.00     0.078 A 
ATOM     15  C   UNL     1      29.881  24.296   8.176  1.00  0.00     0.044 A 
ATOM     16  N   UNL     1      30.028  24.436   5.784  1.00  0.00    -0.256 NA
ATOM     17  C   UNL     1      29.842  23.095   5.665  1.00  0.00     0.115 A 
ATOM     18  C   UNL     1      29.670  22.308   6.803  1.00  0.00     0.068 A 
BRANCH  10  19
ATOM     19  O   UNL     1      30.543  28.466   8.411  1.00  0.00    -0.496 OA
ATOM     20  C   UNL     1      31.423  29.188   7.556  1.00  0.00     0.278 C 
ENDBRANCH  10  19
BRANCH  11  21
ATOM     21  C   UNL     1      30.104  26.985  10.831  1.00  0.00     0.252 C 
ATOM     22  N   UNL     1      31.115  27.932  11.184  1.00  0.00    -0.365 N 
ATOM     23  O   UNL     1      29.194  26.722  11.661  1.00  0.00    -0.269 OA
ATOM     24  H   UNL     1      31.150  28.325  12.151  1.00  0.00     0.159 HD
ATOM     25  H   UNL     1      31.775  28.310  10.470  1.00  0.00     0.159 HD
ENDBRANCH  11  21
ENDBRANCH   8   9
ENDBRANCH   1   8
BRANCH   4  26
ATOM     26  N   UNL     1      24.583  19.949  10.962  1.00  0.00    -0.307 N 
ATOM     27  C   UNL     1      24.126  20.032  12.320  1.00  0.00     0.319 C 
ATOM     28  H   UNL     1      24.005  19.399  10.289  1.00  0.00     0.171 HD
ATOM     29  O   UNL     1      24.893  20.455  13.228  1.00  0.00    -0.248 OA
ATOM     30  N   UNL     1      22.801  19.597  12.650  1.00  0.00    -0.335 N 
ATOM     31  H   UNL     1      22.202  19.179  11.903  1.00  0.00     0.165 HD
BRANCH  30  32
ATOM     32  C   UNL     1      22.317  19.595  14.027  1.00  0.00     0.084 C 
ATOM     33  C   UNL     1      22.354  18.230  14.692  1.00  0.00     0.027 C 
ATOM     34  C   UNL     1      21.031  18.806  14.212  1.00  0.00     0.027 C 
ENDBRANCH  30  32
ENDBRANCH   4  26
TORSDOF 6
ENDMDL
