MODEL 1
REMARK VINA RESULT:    -9.931      0.000      0.000
REMARK INTER + INTRA:         -12.896
REMARK INTER:                 -12.834
REMARK INTRA:                  -0.062
REMARK UNBOUND:                -0.062
REMARK SMILES CC(=O)c1c(C)c2cnc(Nc3ccc(N4CCNCC4)cn3)nc2n(C2CCCC2)c1=O
REMARK SMILES IDX 11 1 10 3 4 4 5 5 32 6 6 7 7 8 26 9 33 10 8 11 25 12 9 13
REMARK SMILES IDX 24 14 2 15 1 16 3 17 27 18 28 19 31 20 29 21 30 22 12 23
REMARK SMILES IDX 23 24 13 25 22 26 14 27 15 28 16 29 17 30 21 31 18 32 20 33
REMARK SMILES IDX 19 34
REMARK H PARENT 11 2 19 35
REMARK Flexibility Score: inf
ROOT
ATOM      1  N   UNL     1      20.181  38.401  -9.572  1.00  0.00    -0.309 N 
ATOM      2  H   UNL     1      19.273  37.906  -9.718  1.00  0.00     0.171 HD
ENDROOT
BRANCH   1   3
ATOM      3  C   UNL     1      21.297  37.636  -9.113  1.00  0.00     0.230 A 
ATOM      4  C   UNL     1      25.216  35.884  -6.557  1.00  0.00     0.086 A 
ATOM      5  C   UNL     1      24.733  35.615  -7.862  1.00  0.00    -0.022 A 
ATOM      6  C   UNL     1      24.649  36.935  -5.808  1.00  0.00     0.263 A 
ATOM      7  C   UNL     1      25.428  34.628  -8.770  1.00  0.00     0.046 C 
ATOM      8  C   UNL     1      23.578  36.292  -8.301  1.00  0.00     0.040 A 
ATOM      9  N   UNL     1      23.617  37.697  -6.317  1.00  0.00    -0.289 N 
ATOM     10  O   UNL     1      25.105  37.168  -4.655  1.00  0.00    -0.268 OA
ATOM     11  C   UNL     1      22.952  36.009  -9.538  1.00  0.00     0.127 A 
ATOM     12  C   UNL     1      23.008  37.308  -7.489  1.00  0.00     0.148 A 
ATOM     13  N   UNL     1      21.832  36.668  -9.901  1.00  0.00    -0.221 NA
ATOM     14  N   UNL     1      21.895  37.952  -7.947  1.00  0.00    -0.194 NA
BRANCH   4  15
ATOM     15  C   UNL     1      26.313  35.077  -5.952  1.00  0.00     0.165 C 
ATOM     16  C   UNL     1      26.060  33.696  -5.434  1.00  0.00     0.094 C 
ATOM     17  O   UNL     1      27.474  35.562  -5.881  1.00  0.00    -0.294 OA
ENDBRANCH   4  15
BRANCH   9  18
ATOM     18  C   UNL     1      23.127  38.859  -5.513  1.00  0.00     0.092 C 
ATOM     19  C   UNL     1      22.370  39.924  -6.329  1.00  0.00     0.025 C 
ATOM     20  C   UNL     1      22.207  38.420  -4.379  1.00  0.00     0.025 C 
ATOM     21  C   UNL     1      20.940  39.959  -5.781  1.00  0.00     0.002 C 
ATOM     22  C   UNL     1      20.797  38.825  -4.771  1.00  0.00     0.002 C 
ENDBRANCH   9  18
ENDBRANCH   1   3
BRANCH   1  23
ATOM     23  C   UNL     1      20.128  39.796  -9.290  1.00  0.00     0.132 A 
ATOM     24  N   UNL     1      21.189  40.589  -9.592  1.00  0.00    -0.237 NA
ATOM     25  C   UNL     1      18.995  40.344  -8.681  1.00  0.00     0.049 A 
ATOM     26  C   UNL     1      21.213  41.911  -9.252  1.00  0.00     0.139 A 
ATOM     27  C   UNL     1      18.974  41.698  -8.358  1.00  0.00     0.031 A 
ATOM     28  C   UNL     1      20.107  42.508  -8.609  1.00  0.00     0.055 A 
BRANCH  28  29
ATOM     29  N   UNL     1      20.151  43.893  -8.186  1.00  0.00    -0.368 N 
ATOM     30  C   UNL     1      20.702  44.916  -9.104  1.00  0.00     0.132 C 
ATOM     31  C   UNL     1      20.006  44.235  -6.761  1.00  0.00     0.132 C 
ATOM     32  C   UNL     1      21.448  45.973  -8.299  1.00  0.00     0.102 C 
ATOM     33  C   UNL     1      19.735  45.738  -6.530  1.00  0.00     0.102 C 
ATOM     34  N   UNL     1      20.531  46.662  -7.380  1.00  0.00    -0.313 NA
ATOM     35  H   UNL     1      19.860  47.212  -7.973  1.00  0.00     0.122 HD
ENDBRANCH  28  29
ENDBRANCH   1  23
TORSDOF 5
ENDMDL
MODEL 2
REMARK VINA RESULT:    -9.456      3.767      5.618
REMARK INTER + INTRA:         -12.282
REMARK INTER:                 -12.767
REMARK INTRA:                   0.486
REMARK UNBOUND:                -0.062
REMARK SMILES CC(=O)c1c(C)c2cnc(Nc3ccc(N4CCNCC4)cn3)nc2n(C2CCCC2)c1=O
REMARK SMILES IDX 11 1 10 3 4 4 5 5 32 6 6 7 7 8 26 9 33 10 8 11 25 12 9 13
REMARK SMILES IDX 24 14 2 15 1 16 3 17 27 18 28 19 31 20 29 21 30 22 12 23
REMARK SMILES IDX 23 24 13 25 22 26 14 27 15 28 16 29 17 30 21 31 18 32 20 33
REMARK SMILES IDX 19 34
REMARK H PARENT 11 2 19 35
REMARK Flexibility Score: inf
ROOT
ATOM      1  N   UNL     1      20.762  38.210 -10.017  1.00  0.00    -0.309 N 
ATOM      2  H   UNL     1      20.334  38.982  -9.461  1.00  0.00     0.171 HD
ENDROOT
BRANCH   1   3
ATOM      3  C   UNL     1      21.821  37.459  -9.418  1.00  0.00     0.230 A 
ATOM      4  C   UNL     1      25.460  35.806  -6.420  1.00  0.00     0.086 A 
ATOM      5  C   UNL     1      25.098  35.476  -7.751  1.00  0.00    -0.022 A 
ATOM      6  C   UNL     1      24.838  36.897  -5.781  1.00  0.00     0.263 A 
ATOM      7  C   UNL     1      25.864  34.440  -8.540  1.00  0.00     0.046 C 
ATOM      8  C   UNL     1      23.999  36.140  -8.329  1.00  0.00     0.040 A 
ATOM      9  N   UNL     1      23.868  37.641  -6.421  1.00  0.00    -0.289 N 
ATOM     10  O   UNL     1      25.187  37.183  -4.602  1.00  0.00    -0.268 OA
ATOM     11  C   UNL     1      23.489  35.801  -9.604  1.00  0.00     0.127 A 
ATOM     12  C   UNL     1      23.367  37.199  -7.625  1.00  0.00     0.148 A 
ATOM     13  N   UNL     1      22.416  36.449 -10.103  1.00  0.00    -0.221 NA
ATOM     14  N   UNL     1      22.311  37.828  -8.217  1.00  0.00    -0.194 NA
BRANCH   4  15
ATOM     15  C   UNL     1      26.485  35.021  -5.676  1.00  0.00     0.165 C 
ATOM     16  C   UNL     1      26.160  33.682  -5.094  1.00  0.00     0.094 C 
ATOM     17  O   UNL     1      27.648  35.490  -5.540  1.00  0.00    -0.294 OA
ENDBRANCH   4  15
BRANCH   9  18
ATOM     18  C   UNL     1      23.320  38.845  -5.724  1.00  0.00     0.092 C 
ATOM     19  C   UNL     1      22.587  39.836  -6.648  1.00  0.00     0.025 C 
ATOM     20  C   UNL     1      22.350  38.466  -4.609  1.00  0.00     0.025 C 
ATOM     21  C   UNL     1      21.131  39.881  -6.175  1.00  0.00     0.002 C 
ATOM     22  C   UNL     1      20.956  38.815  -5.097  1.00  0.00     0.002 C 
ENDBRANCH   9  18
ENDBRANCH   1   3
BRANCH   1  23
ATOM     23  C   UNL     1      20.692  38.306 -11.436  1.00  0.00     0.132 A 
ATOM     24  N   UNL     1      20.104  37.314 -12.154  1.00  0.00    -0.237 NA
ATOM     25  C   UNL     1      21.248  39.409 -12.091  1.00  0.00     0.049 A 
ATOM     26  C   UNL     1      20.100  37.326 -13.519  1.00  0.00     0.139 A 
ATOM     27  C   UNL     1      21.224  39.468 -13.481  1.00  0.00     0.031 A 
ATOM     28  C   UNL     1      20.675  38.401 -14.230  1.00  0.00     0.055 A 
BRANCH  28  29
ATOM     29  N   UNL     1      20.733  38.390 -15.677  1.00  0.00    -0.368 N 
ATOM     30  C   UNL     1      19.475  38.318 -16.455  1.00  0.00     0.132 C 
ATOM     31  C   UNL     1      21.999  38.080 -16.364  1.00  0.00     0.132 C 
ATOM     32  C   UNL     1      19.697  37.481 -17.708  1.00  0.00     0.102 C 
ATOM     33  C   UNL     1      21.971  38.441 -17.866  1.00  0.00     0.102 C 
ATOM     34  N   UNL     1      20.707  38.107 -18.573  1.00  0.00    -0.313 NA
ATOM     35  H   UNL     1      20.291  39.003 -18.930  1.00  0.00     0.122 HD
ENDBRANCH  28  29
ENDBRANCH   1  23
TORSDOF 5
ENDMDL
MODEL 3
REMARK VINA RESULT:    -9.232      4.379      6.399
REMARK INTER + INTRA:         -11.993
REMARK INTER:                 -12.979
REMARK INTRA:                   0.986
REMARK UNBOUND:                -0.062
REMARK SMILES CC(=O)c1c(C)c2cnc(Nc3ccc(N4CCNCC4)cn3)nc2n(C2CCCC2)c1=O
REMARK SMILES IDX 11 1 10 3 4 4 5 5 32 6 6 7 7 8 26 9 33 10 8 11 25 12 9 13
REMARK SMILES IDX 24 14 2 15 1 16 3 17 27 18 28 19 31 20 29 21 30 22 12 23
REMARK SMILES IDX 23 24 13 25 22 26 14 27 15 28 16 29 17 30 21 31 18 32 20 33
REMARK SMILES IDX 19 34
REMARK H PARENT 11 2 19 35
REMARK Flexibility Score: inf
ROOT
ATOM      1  N   UNL     1      20.717  37.219 -11.155  1.00  0.00    -0.309 N 
ATOM      2  H   UNL     1      20.056  37.840 -10.639  1.00  0.00     0.171 HD
ENDROOT
BRANCH   1   3
ATOM      3  C   UNL     1      21.786  36.617 -10.420  1.00  0.00     0.230 A 
ATOM      4  C   UNL     1      25.253  35.498  -7.001  1.00  0.00     0.086 A 
ATOM      5  C   UNL     1      25.073  35.087  -8.346  1.00  0.00    -0.022 A 
ATOM      6  C   UNL     1      24.446  36.528  -6.476  1.00  0.00     0.263 A 
ATOM      7  C   UNL     1      26.030  34.123  -9.008  1.00  0.00     0.046 C 
ATOM      8  C   UNL     1      23.972  35.598  -9.061  1.00  0.00     0.040 A 
ATOM      9  N   UNL     1      23.471  37.133  -7.243  1.00  0.00    -0.289 N 
ATOM     10  O   UNL     1      24.634  36.891  -5.281  1.00  0.00    -0.268 OA
ATOM     11  C   UNL     1      23.641  35.161 -10.365  1.00  0.00     0.127 A 
ATOM     12  C   UNL     1      23.154  36.597  -8.471  1.00  0.00     0.148 A 
ATOM     13  N   UNL     1      22.561  35.663 -10.998  1.00  0.00    -0.221 NA
ATOM     14  N   UNL     1      22.101  37.079  -9.193  1.00  0.00    -0.194 NA
BRANCH   4  15
ATOM     15  C   UNL     1      26.276  34.863  -6.123  1.00  0.00     0.165 C 
ATOM     16  C   UNL     1      26.032  33.528  -5.494  1.00  0.00     0.094 C 
ATOM     17  O   UNL     1      27.368  35.457  -5.913  1.00  0.00    -0.294 OA
ENDBRANCH   4  15
BRANCH   9  18
ATOM     18  C   UNL     1      22.719  38.286  -6.657  1.00  0.00     0.092 C 
ATOM     19  C   UNL     1      21.532  37.881  -5.762  1.00  0.00     0.025 C 
ATOM     20  C   UNL     1      23.621  39.193  -5.828  1.00  0.00     0.025 C 
ATOM     21  C   UNL     1      21.849  38.400  -4.356  1.00  0.00     0.002 C 
ATOM     22  C   UNL     1      23.269  38.956  -4.371  1.00  0.00     0.002 C 
ENDBRANCH   9  18
ENDBRANCH   1   3
BRANCH   1  23
ATOM     23  C   UNL     1      20.873  37.445 -12.553  1.00  0.00     0.132 A 
ATOM     24  N   UNL     1      19.921  37.010 -13.419  1.00  0.00    -0.237 NA
ATOM     25  C   UNL     1      22.014  38.094 -13.034  1.00  0.00     0.049 A 
ATOM     26  C   UNL     1      20.079  37.124 -14.770  1.00  0.00     0.139 A 
ATOM     27  C   UNL     1      22.184  38.261 -14.405  1.00  0.00     0.031 A 
ATOM     28  C   UNL     1      21.227  37.744 -15.310  1.00  0.00     0.055 A 
BRANCH  28  29
ATOM     29  N   UNL     1      21.432  37.812 -16.742  1.00  0.00    -0.368 N 
ATOM     30  C   UNL     1      20.272  37.666 -17.651  1.00  0.00     0.132 C 
ATOM     31  C   UNL     1      22.785  37.653 -17.303  1.00  0.00     0.132 C 
ATOM     32  C   UNL     1      20.700  36.916 -18.907  1.00  0.00     0.102 C 
ATOM     33  C   UNL     1      22.875  38.086 -18.783  1.00  0.00     0.102 C 
ATOM     34  N   UNL     1      21.728  37.675 -19.633  1.00  0.00    -0.313 NA
ATOM     35  H   UNL     1      21.267  38.546 -19.996  1.00  0.00     0.122 HD
ENDBRANCH  28  29
ENDBRANCH   1  23
TORSDOF 5
ENDMDL
MODEL 4
REMARK VINA RESULT:    -8.990      4.406      6.597
REMARK INTER + INTRA:         -11.680
REMARK INTER:                 -12.388
REMARK INTRA:                   0.708
REMARK UNBOUND:                -0.062
REMARK SMILES CC(=O)c1c(C)c2cnc(Nc3ccc(N4CCNCC4)cn3)nc2n(C2CCCC2)c1=O
REMARK SMILES IDX 11 1 10 3 4 4 5 5 32 6 6 7 7 8 26 9 33 10 8 11 25 12 9 13
REMARK SMILES IDX 24 14 2 15 1 16 3 17 27 18 28 19 31 20 29 21 30 22 12 23
REMARK SMILES IDX 23 24 13 25 22 26 14 27 15 28 16 29 17 30 21 31 18 32 20 33
REMARK SMILES IDX 19 34
REMARK H PARENT 11 2 19 35
REMARK Flexibility Score: inf
ROOT
ATOM      1  N   UNL     1      22.912  35.521 -12.007  1.00  0.00    -0.309 N 
ATOM      2  H   UNL     1      21.950  35.156 -12.183  1.00  0.00     0.171 HD
ENDROOT
BRANCH   1   3
ATOM      3  C   UNL     1      23.346  35.644 -10.650  1.00  0.00     0.230 A 
ATOM      4  C   UNL     1      23.936  37.024  -5.885  1.00  0.00     0.086 A 
ATOM      5  C   UNL     1      24.741  36.252  -6.760  1.00  0.00    -0.022 A 
ATOM      6  C   UNL     1      22.809  37.701  -6.393  1.00  0.00     0.263 A 
ATOM      7  C   UNL     1      26.056  35.663  -6.305  1.00  0.00     0.046 C 
ATOM      8  C   UNL     1      24.288  36.043  -8.077  1.00  0.00     0.040 A 
ATOM      9  N   UNL     1      22.465  37.613  -7.726  1.00  0.00    -0.289 N 
ATOM     10  O   UNL     1      22.115  38.396  -5.599  1.00  0.00    -0.268 OA
ATOM     11  C   UNL     1      24.959  35.194  -8.988  1.00  0.00     0.127 A 
ATOM     12  C   UNL     1      23.116  36.704  -8.530  1.00  0.00     0.148 A 
ATOM     13  N   UNL     1      24.469  35.005 -10.231  1.00  0.00    -0.221 NA
ATOM     14  N   UNL     1      22.707  36.487  -9.814  1.00  0.00    -0.194 NA
BRANCH   4  15
ATOM     15  C   UNL     1      24.251  37.134  -4.432  1.00  0.00     0.165 C 
ATOM     16  C   UNL     1      24.646  38.442  -3.825  1.00  0.00     0.094 C 
ATOM     17  O   UNL     1      24.175  36.109  -3.702  1.00  0.00    -0.294 OA
ENDBRANCH   4  15
BRANCH   9  18
ATOM     18  C   UNL     1      21.317  38.435  -8.220  1.00  0.00     0.092 C 
ATOM     19  C   UNL     1      21.713  39.827  -8.748  1.00  0.00     0.025 C 
ATOM     20  C   UNL     1      20.550  37.732  -9.334  1.00  0.00     0.025 C 
ATOM     21  C   UNL     1      21.342  39.854 -10.234  1.00  0.00     0.002 C 
ATOM     22  C   UNL     1      20.886  38.452 -10.627  1.00  0.00     0.002 C 
ENDBRANCH   9  18
ENDBRANCH   1   3
BRANCH   1  23
ATOM     23  C   UNL     1      23.485  36.365 -13.001  1.00  0.00     0.132 A 
ATOM     24  N   UNL     1      24.762  36.153 -13.415  1.00  0.00    -0.237 NA
ATOM     25  C   UNL     1      22.743  37.423 -13.534  1.00  0.00     0.049 A 
ATOM     26  C   UNL     1      25.377  36.995 -14.295  1.00  0.00     0.139 A 
ATOM     27  C   UNL     1      23.330  38.275 -14.464  1.00  0.00     0.031 A 
ATOM     28  C   UNL     1      24.682  38.096 -14.841  1.00  0.00     0.055 A 
BRANCH  28  29
ATOM     29  N   UNL     1      25.347  39.032 -15.725  1.00  0.00    -0.368 N 
ATOM     30  C   UNL     1      25.178  40.486 -15.505  1.00  0.00     0.132 C 
ATOM     31  C   UNL     1      25.868  38.576 -17.026  1.00  0.00     0.132 C 
ATOM     32  C   UNL     1      25.142  41.204 -16.849  1.00  0.00     0.102 C 
ATOM     33  C   UNL     1      26.829  39.596 -17.677  1.00  0.00     0.102 C 
ATOM     34  N   UNL     1      26.412  41.018 -17.565  1.00  0.00    -0.313 NA
ATOM     35  H   UNL     1      27.149  41.528 -17.018  1.00  0.00     0.122 HD
ENDBRANCH  28  29
ENDBRANCH   1  23
TORSDOF 5
ENDMDL
MODEL 5
REMARK VINA RESULT:    -8.914      4.065      5.476
REMARK INTER + INTRA:         -11.582
REMARK INTER:                 -12.353
REMARK INTRA:                   0.771
REMARK UNBOUND:                -0.062
REMARK SMILES CC(=O)c1c(C)c2cnc(Nc3ccc(N4CCNCC4)cn3)nc2n(C2CCCC2)c1=O
REMARK SMILES IDX 11 1 10 3 4 4 5 5 32 6 6 7 7 8 26 9 33 10 8 11 25 12 9 13
REMARK SMILES IDX 24 14 2 15 1 16 3 17 27 18 28 19 31 20 29 21 30 22 12 23
REMARK SMILES IDX 23 24 13 25 22 26 14 27 15 28 16 29 17 30 21 31 18 32 20 33
REMARK SMILES IDX 19 34
REMARK H PARENT 11 2 19 35
REMARK Flexibility Score: inf
ROOT
ATOM      1  N   UNL     1      20.830  37.156 -11.214  1.00  0.00    -0.309 N 
ATOM      2  H   UNL     1      19.958  37.428 -10.709  1.00  0.00     0.171 HD
ENDROOT
BRANCH   1   3
ATOM      3  C   UNL     1      21.890  36.569 -10.455  1.00  0.00     0.230 A 
ATOM      4  C   UNL     1      25.290  35.493  -6.956  1.00  0.00     0.086 A 
ATOM      5  C   UNL     1      25.150  35.084  -8.306  1.00  0.00    -0.022 A 
ATOM      6  C   UNL     1      24.454  36.506  -6.446  1.00  0.00     0.263 A 
ATOM      7  C   UNL     1      26.140  34.140  -8.949  1.00  0.00     0.046 C 
ATOM      8  C   UNL     1      24.059  35.581  -9.046  1.00  0.00     0.040 A 
ATOM      9  N   UNL     1      23.488  37.098  -7.235  1.00  0.00    -0.289 N 
ATOM     10  O   UNL     1      24.606  36.866  -5.246  1.00  0.00    -0.268 OA
ATOM     11  C   UNL     1      23.768  35.144 -10.360  1.00  0.00     0.127 A 
ATOM     12  C   UNL     1      23.210  36.563  -8.472  1.00  0.00     0.148 A 
ATOM     13  N   UNL     1      22.695  35.631 -11.017  1.00  0.00    -0.221 NA
ATOM     14  N   UNL     1      22.167  37.030  -9.218  1.00  0.00    -0.194 NA
BRANCH   4  15
ATOM     15  C   UNL     1      26.302  34.871  -6.056  1.00  0.00     0.165 C 
ATOM     16  C   UNL     1      26.045  33.550  -5.401  1.00  0.00     0.094 C 
ATOM     17  O   UNL     1      27.395  35.463  -5.848  1.00  0.00    -0.294 OA
ENDBRANCH   4  15
BRANCH   9  18
ATOM     18  C   UNL     1      22.702  38.235  -6.663  1.00  0.00     0.092 C 
ATOM     19  C   UNL     1      21.528  37.808  -5.763  1.00  0.00     0.025 C 
ATOM     20  C   UNL     1      23.577  39.179  -5.846  1.00  0.00     0.025 C 
ATOM     21  C   UNL     1      21.829  38.352  -4.363  1.00  0.00     0.002 C 
ATOM     22  C   UNL     1      23.233  38.950  -4.386  1.00  0.00     0.002 C 
ENDBRANCH   9  18
ENDBRANCH   1   3
BRANCH   1  23
ATOM     23  C   UNL     1      21.138  37.857 -12.415  1.00  0.00     0.132 A 
ATOM     24  N   UNL     1      21.106  37.205 -13.607  1.00  0.00    -0.237 NA
ATOM     25  C   UNL     1      21.493  39.208 -12.365  1.00  0.00     0.049 A 
ATOM     26  C   UNL     1      21.485  37.817 -14.766  1.00  0.00     0.139 A 
ATOM     27  C   UNL     1      21.846  39.871 -13.538  1.00  0.00     0.031 A 
ATOM     28  C   UNL     1      21.881  39.171 -14.767  1.00  0.00     0.055 A 
BRANCH  28  29
ATOM     29  N   UNL     1      22.346  39.810 -15.982  1.00  0.00    -0.368 N 
ATOM     30  C   UNL     1      22.265  39.077 -17.266  1.00  0.00     0.132 C 
ATOM     31  C   UNL     1      23.217  40.996 -15.907  1.00  0.00     0.132 C 
ATOM     32  C   UNL     1      23.468  39.430 -18.131  1.00  0.00     0.102 C 
ATOM     33  C   UNL     1      23.335  41.739 -17.256  1.00  0.00     0.102 C 
ATOM     34  N   UNL     1      23.469  40.865 -18.450  1.00  0.00    -0.313 NA
ATOM     35  H   UNL     1      22.641  41.040 -19.072  1.00  0.00     0.122 HD
ENDBRANCH  28  29
ENDBRANCH   1  23
TORSDOF 5
ENDMDL
MODEL 6
REMARK VINA RESULT:    -8.899      1.778      2.194
REMARK INTER + INTRA:         -11.562
REMARK INTER:                 -11.746
REMARK INTRA:                   0.184
REMARK UNBOUND:                -0.062
REMARK SMILES CC(=O)c1c(C)c2cnc(Nc3ccc(N4CCNCC4)cn3)nc2n(C2CCCC2)c1=O
REMARK SMILES IDX 11 1 10 3 4 4 5 5 32 6 6 7 7 8 26 9 33 10 8 11 25 12 9 13
REMARK SMILES IDX 24 14 2 15 1 16 3 17 27 18 28 19 31 20 29 21 30 22 12 23
REMARK SMILES IDX 23 24 13 25 22 26 14 27 15 28 16 29 17 30 21 31 18 32 20 33
REMARK SMILES IDX 19 34
REMARK H PARENT 11 2 19 35
REMARK Flexibility Score: inf
ROOT
ATOM      1  N   UNL     1      20.071  38.414  -9.503  1.00  0.00    -0.309 N 
ATOM      2  H   UNL     1      19.150  38.223  -9.050  1.00  0.00     0.171 HD
ENDROOT
BRANCH   1   3
ATOM      3  C   UNL     1      21.203  37.658  -9.066  1.00  0.00     0.230 A 
ATOM      4  C   UNL     1      25.171  35.924  -6.575  1.00  0.00     0.086 A 
ATOM      5  C   UNL     1      24.678  35.668  -7.879  1.00  0.00    -0.022 A 
ATOM      6  C   UNL     1      24.596  36.955  -5.805  1.00  0.00     0.263 A 
ATOM      7  C   UNL     1      25.379  34.704  -8.809  1.00  0.00     0.046 C 
ATOM      8  C   UNL     1      23.511  36.335  -8.297  1.00  0.00     0.040 A 
ATOM      9  N   UNL     1      23.549  37.710  -6.292  1.00  0.00    -0.289 N 
ATOM     10  O   UNL     1      25.061  37.177  -4.652  1.00  0.00    -0.268 OA
ATOM     11  C   UNL     1      22.876  36.061  -9.531  1.00  0.00     0.127 A 
ATOM     12  C   UNL     1      22.934  37.329  -7.464  1.00  0.00     0.148 A 
ATOM     13  N   UNL     1      21.744  36.709  -9.874  1.00  0.00    -0.221 NA
ATOM     14  N   UNL     1      21.808  37.965  -7.901  1.00  0.00    -0.194 NA
BRANCH   4  15
ATOM     15  C   UNL     1      26.285  35.123  -5.993  1.00  0.00     0.165 C 
ATOM     16  C   UNL     1      26.068  33.715  -5.537  1.00  0.00     0.094 C 
ATOM     17  O   UNL     1      27.431  35.638  -5.889  1.00  0.00    -0.294 OA
ENDBRANCH   4  15
BRANCH   9  18
ATOM     18  C   UNL     1      23.051  38.853  -5.465  1.00  0.00     0.092 C 
ATOM     19  C   UNL     1      22.341  39.958  -6.270  1.00  0.00     0.025 C 
ATOM     20  C   UNL     1      22.084  38.392  -4.380  1.00  0.00     0.025 C 
ATOM     21  C   UNL     1      20.893  40.001  -5.771  1.00  0.00     0.002 C 
ATOM     22  C   UNL     1      20.696  38.835  -4.806  1.00  0.00     0.002 C 
ENDBRANCH   9  18
ENDBRANCH   1   3
BRANCH   1  23
ATOM     23  C   UNL     1      20.271  39.709 -10.062  1.00  0.00     0.132 A 
ATOM     24  N   UNL     1      20.350  40.793  -9.247  1.00  0.00    -0.237 NA
ATOM     25  C   UNL     1      20.361  39.866 -11.448  1.00  0.00     0.049 A 
ATOM     26  C   UNL     1      20.447  42.058  -9.749  1.00  0.00     0.139 A 
ATOM     27  C   UNL     1      20.501  41.141 -11.988  1.00  0.00     0.031 A 
ATOM     28  C   UNL     1      20.512  42.276 -11.142  1.00  0.00     0.055 A 
BRANCH  28  29
ATOM     29  N   UNL     1      20.550  43.618 -11.685  1.00  0.00    -0.368 N 
ATOM     30  C   UNL     1      21.167  43.849 -13.011  1.00  0.00     0.132 C 
ATOM     31  C   UNL     1      20.328  44.778 -10.805  1.00  0.00     0.132 C 
ATOM     32  C   UNL     1      21.880  45.196 -13.014  1.00  0.00     0.102 C 
ATOM     33  C   UNL     1      20.065  46.084 -11.588  1.00  0.00     0.102 C 
ATOM     34  N   UNL     1      20.921  46.286 -12.786  1.00  0.00    -0.313 NA
ATOM     35  H   UNL     1      20.293  46.323 -13.627  1.00  0.00     0.122 HD
ENDBRANCH  28  29
ENDBRANCH   1  23
TORSDOF 5
ENDMDL
MODEL 7
REMARK VINA RESULT:    -8.830      3.554      4.825
REMARK INTER + INTRA:         -11.473
REMARK INTER:                 -11.703
REMARK INTRA:                   0.230
REMARK UNBOUND:                -0.062
REMARK SMILES CC(=O)c1c(C)c2cnc(Nc3ccc(N4CCNCC4)cn3)nc2n(C2CCCC2)c1=O
REMARK SMILES IDX 11 1 10 3 4 4 5 5 32 6 6 7 7 8 26 9 33 10 8 11 25 12 9 13
REMARK SMILES IDX 24 14 2 15 1 16 3 17 27 18 28 19 31 20 29 21 30 22 12 23
REMARK SMILES IDX 23 24 13 25 22 26 14 27 15 28 16 29 17 30 21 31 18 32 20 33
REMARK SMILES IDX 19 34
REMARK H PARENT 11 2 19 35
REMARK Flexibility Score: inf
ROOT
ATOM      1  N   UNL     1      22.831  34.660 -11.248  1.00  0.00    -0.309 N 
ATOM      2  H   UNL     1      22.333  33.773 -11.485  1.00  0.00     0.171 HD
ENDROOT
BRANCH   1   3
ATOM      3  C   UNL     1      23.613  34.691 -10.052  1.00  0.00     0.230 A 
ATOM      4  C   UNL     1      25.574  35.848  -5.604  1.00  0.00     0.086 A 
ATOM      5  C   UNL     1      26.030  35.020  -6.661  1.00  0.00    -0.022 A 
ATOM      6  C   UNL     1      24.439  36.661  -5.799  1.00  0.00     0.263 A 
ATOM      7  C   UNL     1      27.342  34.275  -6.566  1.00  0.00     0.046 C 
ATOM      8  C   UNL     1      25.230  34.903  -7.813  1.00  0.00     0.040 A 
ATOM      9  N   UNL     1      23.753  36.653  -6.997  1.00  0.00    -0.289 N 
ATOM     10  O   UNL     1      24.059  37.403  -4.851  1.00  0.00    -0.268 OA
ATOM     11  C   UNL     1      25.540  34.014  -8.870  1.00  0.00     0.127 A 
ATOM     12  C   UNL     1      24.064  35.703  -7.944  1.00  0.00     0.148 A 
ATOM     13  N   UNL     1      24.726  33.920  -9.941  1.00  0.00    -0.221 NA
ATOM     14  N   UNL     1      23.314  35.573  -9.077  1.00  0.00    -0.194 NA
BRANCH   4  15
ATOM     15  C   UNL     1      26.265  35.877  -4.284  1.00  0.00     0.165 C 
ATOM     16  C   UNL     1      25.940  34.877  -3.220  1.00  0.00     0.094 C 
ATOM     17  O   UNL     1      27.143  36.754  -4.063  1.00  0.00    -0.294 OA
ENDBRANCH   4  15
BRANCH   9  18
ATOM     18  C   UNL     1      22.619  37.612  -7.173  1.00  0.00     0.092 C 
ATOM     19  C   UNL     1      21.902  37.996  -5.864  1.00  0.00     0.025 C 
ATOM     20  C   UNL     1      23.066  38.909  -7.839  1.00  0.00     0.025 C 
ATOM     21  C   UNL     1      22.105  39.503  -5.680  1.00  0.00     0.002 C 
ATOM     22  C   UNL     1      23.063  39.982  -6.766  1.00  0.00     0.002 C 
ENDBRANCH   9  18
ENDBRANCH   1   3
BRANCH   1  23
ATOM     23  C   UNL     1      22.288  35.873 -11.759  1.00  0.00     0.132 A 
ATOM     24  N   UNL     1      21.118  36.354 -11.260  1.00  0.00    -0.237 NA
ATOM     25  C   UNL     1      22.944  36.556 -12.786  1.00  0.00     0.049 A 
ATOM     26  C   UNL     1      20.519  37.461 -11.787  1.00  0.00     0.139 A 
ATOM     27  C   UNL     1      22.377  37.712 -13.317  1.00  0.00     0.031 A 
ATOM     28  C   UNL     1      21.125  38.171 -12.846  1.00  0.00     0.055 A 
BRANCH  28  29
ATOM     29  N   UNL     1      20.464  39.308 -13.453  1.00  0.00    -0.368 N 
ATOM     30  C   UNL     1      20.113  40.478 -12.615  1.00  0.00     0.132 C 
ATOM     31  C   UNL     1      19.819  39.172 -14.771  1.00  0.00     0.132 C 
ATOM     32  C   UNL     1      18.793  41.070 -13.095  1.00  0.00     0.102 C 
ATOM     33  C   UNL     1      19.472  40.534 -15.412  1.00  0.00     0.102 C 
ATOM     34  N   UNL     1      18.917  41.549 -14.479  1.00  0.00    -0.313 NA
ATOM     35  H   UNL     1      19.577  42.366 -14.462  1.00  0.00     0.122 HD
ENDBRANCH  28  29
ENDBRANCH   1  23
TORSDOF 5
ENDMDL
MODEL 8
REMARK VINA RESULT:    -8.669      4.036      6.037
REMARK INTER + INTRA:         -11.265
REMARK INTER:                 -11.914
REMARK INTRA:                   0.649
REMARK UNBOUND:                -0.062
REMARK SMILES CC(=O)c1c(C)c2cnc(Nc3ccc(N4CCNCC4)cn3)nc2n(C2CCCC2)c1=O
REMARK SMILES IDX 11 1 10 3 4 4 5 5 32 6 6 7 7 8 26 9 33 10 8 11 25 12 9 13
REMARK SMILES IDX 24 14 2 15 1 16 3 17 27 18 28 19 31 20 29 21 30 22 12 23
REMARK SMILES IDX 23 24 13 25 22 26 14 27 15 28 16 29 17 30 21 31 18 32 20 33
REMARK SMILES IDX 19 34
REMARK H PARENT 11 2 19 35
REMARK Flexibility Score: inf
ROOT
ATOM      1  N   UNL     1      22.065  36.015 -11.044  1.00  0.00    -0.309 N 
ATOM      2  H   UNL     1      21.043  36.110 -10.856  1.00  0.00     0.171 HD
ENDROOT
BRANCH   1   3
ATOM      3  C   UNL     1      22.934  35.786  -9.933  1.00  0.00     0.230 A 
ATOM      4  C   UNL     1      25.449  36.132  -5.630  1.00  0.00     0.086 A 
ATOM      5  C   UNL     1      25.642  35.333  -6.785  1.00  0.00    -0.022 A 
ATOM      6  C   UNL     1      24.487  37.162  -5.650  1.00  0.00     0.263 A 
ATOM      7  C   UNL     1      26.782  34.346  -6.876  1.00  0.00     0.046 C 
ATOM      8  C   UNL     1      24.741  35.478  -7.857  1.00  0.00     0.040 A 
ATOM      9  N   UNL     1      23.716  37.396  -6.771  1.00  0.00    -0.289 N 
ATOM     10  O   UNL     1      24.343  37.873  -4.617  1.00  0.00    -0.268 OA
ATOM     11  C   UNL     1      24.779  34.648  -9.002  1.00  0.00     0.127 A 
ATOM     12  C   UNL     1      23.752  36.495  -7.811  1.00  0.00     0.148 A 
ATOM     13  N   UNL     1      23.876  34.810  -9.991  1.00  0.00    -0.221 NA
ATOM     14  N   UNL     1      22.899  36.616  -8.870  1.00  0.00    -0.194 NA
BRANCH   4  15
ATOM     15  C   UNL     1      26.240  35.907  -4.387  1.00  0.00     0.165 C 
ATOM     16  C   UNL     1      25.851  34.847  -3.405  1.00  0.00     0.094 C 
ATOM     17  O   UNL     1      27.257  36.616  -4.162  1.00  0.00    -0.294 OA
ENDBRANCH   4  15
BRANCH   9  18
ATOM     18  C   UNL     1      22.785  38.566  -6.761  1.00  0.00     0.092 C 
ATOM     19  C   UNL     1      23.426  39.893  -7.209  1.00  0.00     0.025 C 
ATOM     20  C   UNL     1      21.566  38.333  -7.648  1.00  0.00     0.025 C 
ATOM     21  C   UNL     1      22.690  40.328  -8.480  1.00  0.00     0.002 C 
ATOM     22  C   UNL     1      21.740  39.203  -8.879  1.00  0.00     0.002 C 
ENDBRANCH   9  18
ENDBRANCH   1   3
BRANCH   1  23
ATOM     23  C   UNL     1      22.577  36.651 -12.211  1.00  0.00     0.132 A 
ATOM     24  N   UNL     1      23.683  36.151 -12.824  1.00  0.00    -0.237 NA
ATOM     25  C   UNL     1      21.958  37.799 -12.712  1.00  0.00     0.049 A 
ATOM     26  C   UNL     1      24.258  36.785 -13.887  1.00  0.00     0.139 A 
ATOM     27  C   UNL     1      22.498  38.445 -13.821  1.00  0.00     0.031 A 
ATOM     28  C   UNL     1      23.690  37.965 -14.414  1.00  0.00     0.055 A 
BRANCH  28  29
ATOM     29  N   UNL     1      24.329  38.679 -15.500  1.00  0.00    -0.368 N 
ATOM     30  C   UNL     1      24.661  37.957 -16.750  1.00  0.00     0.132 C 
ATOM     31  C   UNL     1      24.975  39.979 -15.251  1.00  0.00     0.132 C 
ATOM     32  C   UNL     1      25.969  38.493 -17.316  1.00  0.00     0.102 C 
ATOM     33  C   UNL     1      25.299  40.747 -16.551  1.00  0.00     0.102 C 
ATOM     34  N   UNL     1      25.835  39.916 -17.660  1.00  0.00    -0.313 NA
ATOM     35  H   UNL     1      25.161  39.975 -18.463  1.00  0.00     0.122 HD
ENDBRANCH  28  29
ENDBRANCH   1  23
TORSDOF 5
ENDMDL
MODEL 9
REMARK VINA RESULT:    -8.647      1.692      2.168
REMARK INTER + INTRA:         -11.237
REMARK INTER:                 -12.056
REMARK INTRA:                   0.819
REMARK UNBOUND:                -0.062
REMARK SMILES CC(=O)c1c(C)c2cnc(Nc3ccc(N4CCNCC4)cn3)nc2n(C2CCCC2)c1=O
REMARK SMILES IDX 11 1 10 3 4 4 5 5 32 6 6 7 7 8 26 9 33 10 8 11 25 12 9 13
REMARK SMILES IDX 24 14 2 15 1 16 3 17 27 18 28 19 31 20 29 21 30 22 12 23
REMARK SMILES IDX 23 24 13 25 22 26 14 27 15 28 16 29 17 30 21 31 18 32 20 33
REMARK SMILES IDX 19 34
REMARK H PARENT 11 2 19 35
REMARK Flexibility Score: inf
ROOT
ATOM      1  N   UNL     1      20.771  37.429 -11.318  1.00  0.00    -0.309 N 
ATOM      2  H   UNL     1      19.993  36.834 -11.677  1.00  0.00     0.171 HD
ENDROOT
BRANCH   1   3
ATOM      3  C   UNL     1      21.827  36.790 -10.596  1.00  0.00     0.230 A 
ATOM      4  C   UNL     1      25.138  35.400  -7.123  1.00  0.00     0.086 A 
ATOM      5  C   UNL     1      25.067  35.167  -8.520  1.00  0.00    -0.022 A 
ATOM      6  C   UNL     1      24.240  36.305  -6.523  1.00  0.00     0.263 A 
ATOM      7  C   UNL     1      26.121  34.353  -9.235  1.00  0.00     0.046 C 
ATOM      8  C   UNL     1      23.984  35.712  -9.235  1.00  0.00     0.040 A 
ATOM      9  N   UNL     1      23.279  36.956  -7.270  1.00  0.00    -0.289 N 
ATOM     10  O   UNL     1      24.331  36.511  -5.281  1.00  0.00    -0.268 OA
ATOM     11  C   UNL     1      23.761  35.439 -10.605  1.00  0.00     0.127 A 
ATOM     12  C   UNL     1      23.071  36.577  -8.577  1.00  0.00     0.148 A 
ATOM     13  N   UNL     1      22.693  35.965 -11.240  1.00  0.00    -0.221 NA
ATOM     14  N   UNL     1      22.037  37.096  -9.300  1.00  0.00    -0.194 NA
BRANCH   4  15
ATOM     15  C   UNL     1      26.143  34.706  -6.268  1.00  0.00     0.165 C 
ATOM     16  C   UNL     1      25.962  33.275  -5.871  1.00  0.00     0.094 C 
ATOM     17  O   UNL     1      27.165  35.332  -5.879  1.00  0.00    -0.294 OA
ENDBRANCH   4  15
BRANCH   9  18
ATOM     18  C   UNL     1      22.422  37.978  -6.591  1.00  0.00     0.092 C 
ATOM     19  C   UNL     1      21.725  37.475  -5.313  1.00  0.00     0.025 C 
ATOM     20  C   UNL     1      23.214  39.225  -6.211  1.00  0.00     0.025 C 
ATOM     21  C   UNL     1      22.268  38.319  -4.156  1.00  0.00     0.002 C 
ATOM     22  C   UNL     1      23.390  39.196  -4.704  1.00  0.00     0.002 C 
ENDBRANCH   9  18
ENDBRANCH   1   3
BRANCH   1  23
ATOM     23  C   UNL     1      20.484  38.801 -11.065  1.00  0.00     0.132 A 
ATOM     24  N   UNL     1      20.637  39.719 -12.055  1.00  0.00    -0.237 NA
ATOM     25  C   UNL     1      20.068  39.206  -9.793  1.00  0.00     0.049 A 
ATOM     26  C   UNL     1      20.462  41.053 -11.826  1.00  0.00     0.139 A 
ATOM     27  C   UNL     1      19.843  40.556  -9.540  1.00  0.00     0.031 A 
ATOM     28  C   UNL     1      20.071  41.518 -10.552  1.00  0.00     0.055 A 
BRANCH  28  29
ATOM     29  N   UNL     1      19.947  42.936 -10.283  1.00  0.00    -0.368 N 
ATOM     30  C   UNL     1      18.890  43.412  -9.362  1.00  0.00     0.132 C 
ATOM     31  C   UNL     1      20.593  43.917 -11.173  1.00  0.00     0.132 C 
ATOM     32  C   UNL     1      18.354  44.752  -9.850  1.00  0.00     0.102 C 
ATOM     33  C   UNL     1      20.649  45.335 -10.563  1.00  0.00     0.102 C 
ATOM     34  N   UNL     1      19.420  45.764  -9.847  1.00  0.00    -0.313 NA
ATOM     35  H   UNL     1      19.675  45.937  -8.843  1.00  0.00     0.122 HD
ENDBRANCH  28  29
ENDBRANCH   1  23
TORSDOF 5
ENDMDL
MODEL 10
REMARK VINA RESULT:    -8.524      3.379      8.886
REMARK INTER + INTRA:         -11.077
REMARK INTER:                 -11.522
REMARK INTRA:                   0.445
REMARK UNBOUND:                -0.062
REMARK SMILES CC(=O)c1c(C)c2cnc(Nc3ccc(N4CCNCC4)cn3)nc2n(C2CCCC2)c1=O
REMARK SMILES IDX 11 1 10 3 4 4 5 5 32 6 6 7 7 8 26 9 33 10 8 11 25 12 9 13
REMARK SMILES IDX 24 14 2 15 1 16 3 17 27 18 28 19 31 20 29 21 30 22 12 23
REMARK SMILES IDX 23 24 13 25 22 26 14 27 15 28 16 29 17 30 21 31 18 32 20 33
REMARK SMILES IDX 19 34
REMARK H PARENT 11 2 19 35
REMARK Flexibility Score: inf
ROOT
ATOM      1  N   UNL     1      21.581  38.844  -3.959  1.00  0.00    -0.309 N 
ATOM      2  H   UNL     1      21.321  38.538  -2.995  1.00  0.00     0.171 HD
ENDROOT
BRANCH   1   3
ATOM      3  C   UNL     1      20.725  39.778  -4.620  1.00  0.00     0.230 A 
ATOM      4  C   UNL     1      18.670  42.970  -7.868  1.00  0.00     0.086 A 
ATOM      5  C   UNL     1      18.422  42.715  -6.496  1.00  0.00    -0.022 A 
ATOM      6  C   UNL     1      19.783  42.374  -8.496  1.00  0.00     0.263 A 
ATOM      7  C   UNL     1      17.358  43.472  -5.736  1.00  0.00     0.046 C 
ATOM      8  C   UNL     1      19.194  41.732  -5.848  1.00  0.00     0.040 A 
ATOM      9  N   UNL     1      20.627  41.531  -7.801  1.00  0.00    -0.289 N 
ATOM     10  O   UNL     1      19.995  42.627  -9.714  1.00  0.00    -0.268 OA
ATOM     11  C   UNL     1      18.945  41.323  -4.516  1.00  0.00     0.127 A 
ATOM     12  C   UNL     1      20.272  41.118  -6.537  1.00  0.00     0.148 A 
ATOM     13  N   UNL     1      19.697  40.358  -3.948  1.00  0.00    -0.221 NA
ATOM     14  N   UNL     1      21.007  40.175  -5.877  1.00  0.00    -0.194 NA
BRANCH   4  15
ATOM     15  C   UNL     1      17.777  43.854  -8.670  1.00  0.00     0.165 C 
ATOM     16  C   UNL     1      16.563  43.310  -9.353  1.00  0.00     0.094 C 
ATOM     17  O   UNL     1      18.045  45.082  -8.768  1.00  0.00    -0.294 OA
ENDBRANCH   4  15
BRANCH   9  18
ATOM     18  C   UNL     1      21.844  41.012  -8.498  1.00  0.00     0.092 C 
ATOM     19  C   UNL     1      22.890  40.377  -7.562  1.00  0.00     0.025 C 
ATOM     20  C   UNL     1      21.495  39.970  -9.556  1.00  0.00     0.025 C 
ATOM     21  C   UNL     1      23.002  38.904  -7.965  1.00  0.00     0.002 C 
ATOM     22  C   UNL     1      21.926  38.622  -9.009  1.00  0.00     0.002 C 
ENDBRANCH   9  18
ENDBRANCH   1   3
BRANCH   1  23
ATOM     23  C   UNL     1      22.375  37.953  -4.737  1.00  0.00     0.132 A 
ATOM     24  N   UNL     1      21.774  36.997  -5.494  1.00  0.00    -0.237 NA
ATOM     25  C   UNL     1      23.769  38.046  -4.703  1.00  0.00     0.049 A 
ATOM     26  C   UNL     1      22.502  36.067  -6.178  1.00  0.00     0.139 A 
ATOM     27  C   UNL     1      24.537  37.136  -5.423  1.00  0.00     0.031 A 
ATOM     28  C   UNL     1      23.913  36.098  -6.154  1.00  0.00     0.055 A 
BRANCH  28  29
ATOM     29  N   UNL     1      24.692  35.077  -6.824  1.00  0.00    -0.368 N 
ATOM     30  C   UNL     1      25.315  33.997  -6.026  1.00  0.00     0.132 C 
ATOM     31  C   UNL     1      25.171  35.297  -8.200  1.00  0.00     0.132 C 
ATOM     32  C   UNL     1      26.661  33.626  -6.635  1.00  0.00     0.102 C 
ATOM     33  C   UNL     1      25.678  34.002  -8.873  1.00  0.00     0.102 C 
ATOM     34  N   UNL     1      26.484  33.109  -8.000  1.00  0.00    -0.313 NA
ATOM     35  H   UNL     1      25.975  32.194  -7.917  1.00  0.00     0.122 HD
ENDBRANCH  28  29
ENDBRANCH   1  23
TORSDOF 5
ENDMDL
MODEL 11
REMARK VINA RESULT:    -8.419      3.225      5.225
REMARK INTER + INTRA:         -10.941
REMARK INTER:                 -12.191
REMARK INTRA:                   1.250
REMARK UNBOUND:                -0.062
REMARK SMILES CC(=O)c1c(C)c2cnc(Nc3ccc(N4CCNCC4)cn3)nc2n(C2CCCC2)c1=O
REMARK SMILES IDX 11 1 10 3 4 4 5 5 32 6 6 7 7 8 26 9 33 10 8 11 25 12 9 13
REMARK SMILES IDX 24 14 2 15 1 16 3 17 27 18 28 19 31 20 29 21 30 22 12 23
REMARK SMILES IDX 23 24 13 25 22 26 14 27 15 28 16 29 17 30 21 31 18 32 20 33
REMARK SMILES IDX 19 34
REMARK H PARENT 11 2 19 35
REMARK Flexibility Score: inf
ROOT
ATOM      1  N   UNL     1      23.382  35.261 -11.490  1.00  0.00    -0.309 N 
ATOM      2  H   UNL     1      23.334  34.290 -11.870  1.00  0.00     0.171 HD
ENDROOT
BRANCH   1   3
ATOM      3  C   UNL     1      23.828  35.433 -10.143  1.00  0.00     0.230 A 
ATOM      4  C   UNL     1      24.418  36.938  -5.416  1.00  0.00     0.086 A 
ATOM      5  C   UNL     1      25.249  36.191  -6.289  1.00  0.00    -0.022 A 
ATOM      6  C   UNL     1      23.251  37.546  -5.919  1.00  0.00     0.263 A 
ATOM      7  C   UNL     1      26.599  35.679  -5.843  1.00  0.00     0.046 C 
ATOM      8  C   UNL     1      24.787  35.931  -7.593  1.00  0.00     0.040 A 
ATOM      9  N   UNL     1      22.892  37.413  -7.245  1.00  0.00    -0.289 N 
ATOM     10  O   UNL     1      22.534  38.221  -5.128  1.00  0.00    -0.268 OA
ATOM     11  C   UNL     1      25.487  35.100  -8.499  1.00  0.00     0.127 A 
ATOM     12  C   UNL     1      23.576  36.523  -8.041  1.00  0.00     0.148 A 
ATOM     13  N   UNL     1      24.989  34.861  -9.729  1.00  0.00    -0.221 NA
ATOM     14  N   UNL     1      23.160  36.259  -9.314  1.00  0.00    -0.194 NA
BRANCH   4  15
ATOM     15  C   UNL     1      24.748  37.093  -3.971  1.00  0.00     0.165 C 
ATOM     16  C   UNL     1      24.888  38.448  -3.352  1.00  0.00     0.094 C 
ATOM     17  O   UNL     1      24.905  36.067  -3.256  1.00  0.00    -0.294 OA
ENDBRANCH   4  15
BRANCH   9  18
ATOM     18  C   UNL     1      21.696  38.166  -7.736  1.00  0.00     0.092 C 
ATOM     19  C   UNL     1      21.060  39.102  -6.691  1.00  0.00     0.025 C 
ATOM     20  C   UNL     1      22.020  39.013  -8.963  1.00  0.00     0.025 C 
ATOM     21  C   UNL     1      21.193  40.526  -7.241  1.00  0.00     0.002 C 
ATOM     22  C   UNL     1      22.038  40.461  -8.509  1.00  0.00     0.002 C 
ENDBRANCH   9  18
ENDBRANCH   1   3
BRANCH   1  23
ATOM     23  C   UNL     1      22.517  36.234 -12.068  1.00  0.00     0.132 A 
ATOM     24  N   UNL     1      21.289  36.454 -11.528  1.00  0.00    -0.237 NA
ATOM     25  C   UNL     1      22.921  36.944 -13.202  1.00  0.00     0.049 A 
ATOM     26  C   UNL     1      20.398  37.309 -12.108  1.00  0.00     0.139 A 
ATOM     27  C   UNL     1      22.048  37.853 -13.793  1.00  0.00     0.031 A 
ATOM     28  C   UNL     1      20.744  38.029 -13.272  1.00  0.00     0.055 A 
BRANCH  28  29
ATOM     29  N   UNL     1      19.782  38.889 -13.930  1.00  0.00    -0.368 N 
ATOM     30  C   UNL     1      19.679  38.868 -15.407  1.00  0.00     0.132 C 
ATOM     31  C   UNL     1      19.183  40.021 -13.202  1.00  0.00     0.132 C 
ATOM     32  C   UNL     1      19.373  40.271 -15.916  1.00  0.00     0.102 C 
ATOM     33  C   UNL     1      17.950  40.612 -13.921  1.00  0.00     0.102 C 
ATOM     34  N   UNL     1      18.078  40.735 -15.397  1.00  0.00    -0.313 NA
ATOM     35  H   UNL     1      17.338  40.133 -15.836  1.00  0.00     0.122 HD
ENDBRANCH  28  29
ENDBRANCH   1  23
TORSDOF 5
ENDMDL
MODEL 12
REMARK VINA RESULT:    -8.386      3.713      8.240
REMARK INTER + INTRA:         -10.899
REMARK INTER:                 -11.100
REMARK INTRA:                   0.200
REMARK UNBOUND:                -0.062
REMARK SMILES CC(=O)c1c(C)c2cnc(Nc3ccc(N4CCNCC4)cn3)nc2n(C2CCCC2)c1=O
REMARK SMILES IDX 11 1 10 3 4 4 5 5 32 6 6 7 7 8 26 9 33 10 8 11 25 12 9 13
REMARK SMILES IDX 24 14 2 15 1 16 3 17 27 18 28 19 31 20 29 21 30 22 12 23
REMARK SMILES IDX 23 24 13 25 22 26 14 27 15 28 16 29 17 30 21 31 18 32 20 33
REMARK SMILES IDX 19 34
REMARK H PARENT 11 2 19 35
REMARK Flexibility Score: inf
ROOT
ATOM      1  N   UNL     1      20.992  40.489  -6.933  1.00  0.00    -0.309 N 
ATOM      2  H   UNL     1      20.292  40.883  -6.267  1.00  0.00     0.171 HD
ENDROOT
BRANCH   1   3
ATOM      3  C   UNL     1      20.696  40.546  -8.330  1.00  0.00     0.230 A 
ATOM      4  C   UNL     1      19.941  39.448 -13.145  1.00  0.00     0.086 A 
ATOM      5  C   UNL     1      20.116  40.679 -12.465  1.00  0.00    -0.022 A 
ATOM      6  C   UNL     1      20.149  38.237 -12.455  1.00  0.00     0.263 A 
ATOM      7  C   UNL     1      20.087  41.997 -13.204  1.00  0.00     0.046 C 
ATOM      8  C   UNL     1      20.318  40.651 -11.071  1.00  0.00     0.040 A 
ATOM      9  N   UNL     1      20.504  38.228 -11.121  1.00  0.00    -0.289 N 
ATOM     10  O   UNL     1      20.004  37.152 -13.084  1.00  0.00    -0.268 OA
ATOM     11  C   UNL     1      20.386  41.827 -10.287  1.00  0.00     0.127 A 
ATOM     12  C   UNL     1      20.468  39.405 -10.408  1.00  0.00     0.148 A 
ATOM     13  N   UNL     1      20.555  41.746  -8.951  1.00  0.00    -0.221 NA
ATOM     14  N   UNL     1      20.673  39.412  -9.059  1.00  0.00    -0.194 NA
BRANCH   4  15
ATOM     15  C   UNL     1      19.537  39.402 -14.579  1.00  0.00     0.165 C 
ATOM     16  C   UNL     1      20.559  39.301 -15.667  1.00  0.00     0.094 C 
ATOM     17  O   UNL     1      18.314  39.441 -14.881  1.00  0.00    -0.294 OA
ENDBRANCH   4  15
BRANCH   9  18
ATOM     18  C   UNL     1      20.806  36.913 -10.475  1.00  0.00     0.092 C 
ATOM     19  C   UNL     1      21.687  35.976 -11.323  1.00  0.00     0.025 C 
ATOM     20  C   UNL     1      21.499  37.086  -9.127  1.00  0.00     0.025 C 
ATOM     21  C   UNL     1      22.983  35.762 -10.536  1.00  0.00     0.002 C 
ATOM     22  C   UNL     1      22.950  36.683  -9.320  1.00  0.00     0.002 C 
ENDBRANCH   9  18
ENDBRANCH   1   3
BRANCH   1  23
ATOM     23  C   UNL     1      21.860  39.471  -6.444  1.00  0.00     0.132 A 
ATOM     24  N   UNL     1      23.175  39.479  -6.789  1.00  0.00    -0.237 NA
ATOM     25  C   UNL     1      21.356  38.452  -5.631  1.00  0.00     0.049 A 
ATOM     26  C   UNL     1      24.016  38.471  -6.418  1.00  0.00     0.139 A 
ATOM     27  C   UNL     1      22.200  37.431  -5.203  1.00  0.00     0.031 A 
ATOM     28  C   UNL     1      23.551  37.402  -5.621  1.00  0.00     0.055 A 
BRANCH  28  29
ATOM     29  N   UNL     1      24.421  36.296  -5.278  1.00  0.00    -0.368 N 
ATOM     30  C   UNL     1      25.015  36.231  -3.923  1.00  0.00     0.132 C 
ATOM     31  C   UNL     1      25.005  35.458  -6.339  1.00  0.00     0.132 C 
ATOM     32  C   UNL     1      26.421  35.650  -4.011  1.00  0.00     0.102 C 
ATOM     33  C   UNL     1      25.614  34.145  -5.800  1.00  0.00     0.102 C 
ATOM     34  N   UNL     1      26.377  34.276  -4.532  1.00  0.00    -0.313 NA
ATOM     35  H   UNL     1      25.898  33.688  -3.805  1.00  0.00     0.122 HD
ENDBRANCH  28  29
ENDBRANCH   1  23
TORSDOF 5
ENDMDL
MODEL 13
REMARK VINA RESULT:    -8.369      5.500      8.660
REMARK INTER + INTRA:         -10.877
REMARK INTER:                 -10.859
REMARK INTRA:                  -0.018
REMARK UNBOUND:                -0.062
REMARK SMILES CC(=O)c1c(C)c2cnc(Nc3ccc(N4CCNCC4)cn3)nc2n(C2CCCC2)c1=O
REMARK SMILES IDX 11 1 10 3 4 4 5 5 32 6 6 7 7 8 26 9 33 10 8 11 25 12 9 13
REMARK SMILES IDX 24 14 2 15 1 16 3 17 27 18 28 19 31 20 29 21 30 22 12 23
REMARK SMILES IDX 23 24 13 25 22 26 14 27 15 28 16 29 17 30 21 31 18 32 20 33
REMARK SMILES IDX 19 34
REMARK H PARENT 11 2 19 35
REMARK Flexibility Score: inf
ROOT
ATOM      1  N   UNL     1      23.205  35.469 -11.782  1.00  0.00    -0.309 N 
ATOM      2  H   UNL     1      23.123  34.457 -12.023  1.00  0.00     0.171 HD
ENDROOT
BRANCH   1   3
ATOM      3  C   UNL     1      23.653  36.368 -12.800  1.00  0.00     0.230 A 
ATOM      4  C   UNL     1      23.972  39.954 -16.263  1.00  0.00     0.086 A 
ATOM      5  C   UNL     1      24.799  38.842 -15.964  1.00  0.00    -0.022 A 
ATOM      6  C   UNL     1      22.723  40.083 -15.624  1.00  0.00     0.263 A 
ATOM      7  C   UNL     1      26.056  38.562 -16.754  1.00  0.00     0.046 C 
ATOM      8  C   UNL     1      24.424  37.995 -14.903  1.00  0.00     0.040 A 
ATOM      9  N   UNL     1      22.297  39.154 -14.697  1.00  0.00    -0.289 N 
ATOM     10  O   UNL     1      21.995  41.072 -15.917  1.00  0.00    -0.268 OA
ATOM     11  C   UNL     1      25.239  36.930 -14.453  1.00  0.00     0.127 A 
ATOM     12  C   UNL     1      23.179  38.195 -14.251  1.00  0.00     0.148 A 
ATOM     13  N   UNL     1      24.847  36.163 -13.415  1.00  0.00    -0.221 NA
ATOM     14  N   UNL     1      22.840  37.352 -13.233  1.00  0.00    -0.194 NA
BRANCH   4  15
ATOM     15  C   UNL     1      24.395  40.998 -17.240  1.00  0.00     0.165 C 
ATOM     16  C   UNL     1      25.222  42.168 -16.810  1.00  0.00     0.094 C 
ATOM     17  O   UNL     1      24.056  40.890 -18.449  1.00  0.00    -0.294 OA
ENDBRANCH   4  15
BRANCH   9  18
ATOM     18  C   UNL     1      20.920  39.295 -14.130  1.00  0.00     0.092 C 
ATOM     19  C   UNL     1      20.267  37.965 -13.707  1.00  0.00     0.025 C 
ATOM     20  C   UNL     1      20.895  40.216 -12.915  1.00  0.00     0.025 C 
ATOM     21  C   UNL     1      20.040  38.051 -12.195  1.00  0.00     0.002 C 
ATOM     22  C   UNL     1      20.694  39.335 -11.695  1.00  0.00     0.002 C 
ENDBRANCH   9  18
ENDBRANCH   1   3
BRANCH   1  23
ATOM     23  C   UNL     1      23.423  35.801 -10.414  1.00  0.00     0.132 A 
ATOM     24  N   UNL     1      22.539  36.603  -9.763  1.00  0.00    -0.237 NA
ATOM     25  C   UNL     1      24.555  35.322  -9.749  1.00  0.00     0.049 A 
ATOM     26  C   UNL     1      22.761  37.018  -8.482  1.00  0.00     0.139 A 
ATOM     27  C   UNL     1      24.787  35.696  -8.428  1.00  0.00     0.031 A 
ATOM     28  C   UNL     1      23.904  36.588  -7.775  1.00  0.00     0.055 A 
BRANCH  28  29
ATOM     29  N   UNL     1      24.181  37.075  -6.439  1.00  0.00    -0.368 N 
ATOM     30  C   UNL     1      25.284  36.471  -5.658  1.00  0.00     0.132 C 
ATOM     31  C   UNL     1      23.176  37.881  -5.724  1.00  0.00     0.132 C 
ATOM     32  C   UNL     1      24.896  36.420  -4.185  1.00  0.00     0.102 C 
ATOM     33  C   UNL     1      23.753  38.593  -4.480  1.00  0.00     0.102 C 
ATOM     34  N   UNL     1      24.687  37.778  -3.662  1.00  0.00    -0.313 NA
ATOM     35  H   UNL     1      25.622  38.256  -3.668  1.00  0.00     0.122 HD
ENDBRANCH  28  29
ENDBRANCH   1  23
TORSDOF 5
ENDMDL
MODEL 14
REMARK VINA RESULT:    -8.368      4.081      9.089
REMARK INTER + INTRA:         -10.876
REMARK INTER:                 -11.181
REMARK INTRA:                   0.305
REMARK UNBOUND:                -0.062
REMARK SMILES CC(=O)c1c(C)c2cnc(Nc3ccc(N4CCNCC4)cn3)nc2n(C2CCCC2)c1=O
REMARK SMILES IDX 11 1 10 3 4 4 5 5 32 6 6 7 7 8 26 9 33 10 8 11 25 12 9 13
REMARK SMILES IDX 24 14 2 15 1 16 3 17 27 18 28 19 31 20 29 21 30 22 12 23
REMARK SMILES IDX 23 24 13 25 22 26 14 27 15 28 16 29 17 30 21 31 18 32 20 33
REMARK SMILES IDX 19 34
REMARK H PARENT 11 2 19 35
REMARK Flexibility Score: inf
ROOT
ATOM      1  N   UNL     1      21.254  40.728  -6.991  1.00  0.00    -0.309 N 
ATOM      2  H   UNL     1      21.097  41.215  -6.081  1.00  0.00     0.171 HD
ENDROOT
BRANCH   1   3
ATOM      3  C   UNL     1      20.258  40.865  -8.007  1.00  0.00     0.230 A 
ATOM      4  C   UNL     1      17.634  40.607 -12.250  1.00  0.00     0.086 A 
ATOM      5  C   UNL     1      17.525  41.446 -11.112  1.00  0.00    -0.022 A 
ATOM      6  C   UNL     1      18.745  39.750 -12.379  1.00  0.00     0.263 A 
ATOM      7  C   UNL     1      16.456  42.509 -11.019  1.00  0.00     0.046 C 
ATOM      8  C   UNL     1      18.442  41.266 -10.059  1.00  0.00     0.040 A 
ATOM      9  N   UNL     1      19.724  39.700 -11.407  1.00  0.00    -0.289 N 
ATOM     10  O   UNL     1      18.831  39.024 -13.408  1.00  0.00    -0.268 OA
ATOM     11  C   UNL     1      18.346  41.971  -8.836  1.00  0.00     0.127 A 
ATOM     12  C   UNL     1      19.517  40.351 -10.211  1.00  0.00     0.148 A 
ATOM     13  N   UNL     1      19.235  41.744  -7.847  1.00  0.00    -0.221 NA
ATOM     14  N   UNL     1      20.395  40.207  -9.176  1.00  0.00    -0.194 NA
BRANCH   4  15
ATOM     15  C   UNL     1      16.594  40.606 -13.318  1.00  0.00     0.165 C 
ATOM     16  C   UNL     1      16.708  41.505 -14.508  1.00  0.00     0.094 C 
ATOM     17  O   UNL     1      15.606  39.829 -13.221  1.00  0.00    -0.294 OA
ENDBRANCH   4  15
BRANCH   9  18
ATOM     18  C   UNL     1      20.926  38.844 -11.651  1.00  0.00     0.092 C 
ATOM     19  C   UNL     1      20.602  37.409 -12.107  1.00  0.00     0.025 C 
ATOM     20  C   UNL     1      21.855  39.451 -12.697  1.00  0.00     0.025 C 
ATOM     21  C   UNL     1      21.189  37.254 -13.513  1.00  0.00     0.002 C 
ATOM     22  C   UNL     1      21.708  38.618 -13.957  1.00  0.00     0.002 C 
ENDBRANCH   9  18
ENDBRANCH   1   3
BRANCH   1  23
ATOM     23  C   UNL     1      22.085  39.571  -6.980  1.00  0.00     0.132 A 
ATOM     24  N   UNL     1      21.601  38.395  -6.502  1.00  0.00    -0.237 NA
ATOM     25  C   UNL     1      23.404  39.652  -7.438  1.00  0.00     0.049 A 
ATOM     26  C   UNL     1      22.394  37.290  -6.388  1.00  0.00     0.139 A 
ATOM     27  C   UNL     1      24.225  38.530  -7.372  1.00  0.00     0.031 A 
ATOM     28  C   UNL     1      23.741  37.326  -6.809  1.00  0.00     0.055 A 
BRANCH  28  29
ATOM     29  N   UNL     1      24.607  36.178  -6.631  1.00  0.00    -0.368 N 
ATOM     30  C   UNL     1      25.160  35.884  -5.289  1.00  0.00     0.132 C 
ATOM     31  C   UNL     1      25.229  35.533  -7.801  1.00  0.00     0.132 C 
ATOM     32  C   UNL     1      26.571  35.327  -5.431  1.00  0.00     0.102 C 
ATOM     33  C   UNL     1      25.829  34.148  -7.474  1.00  0.00     0.102 C 
ATOM     34  N   UNL     1      26.552  34.062  -6.179  1.00  0.00    -0.313 NA
ATOM     35  H   UNL     1      26.055  33.359  -5.578  1.00  0.00     0.122 HD
ENDBRANCH  28  29
ENDBRANCH   1  23
TORSDOF 5
ENDMDL
MODEL 15
REMARK VINA RESULT:    -8.358      3.353      8.955
REMARK INTER + INTRA:         -10.863
REMARK INTER:                 -10.700
REMARK INTRA:                  -0.164
REMARK UNBOUND:                -0.062
REMARK SMILES CC(=O)c1c(C)c2cnc(Nc3ccc(N4CCNCC4)cn3)nc2n(C2CCCC2)c1=O
REMARK SMILES IDX 11 1 10 3 4 4 5 5 32 6 6 7 7 8 26 9 33 10 8 11 25 12 9 13
REMARK SMILES IDX 24 14 2 15 1 16 3 17 27 18 28 19 31 20 29 21 30 22 12 23
REMARK SMILES IDX 23 24 13 25 22 26 14 27 15 28 16 29 17 30 21 31 18 32 20 33
REMARK SMILES IDX 19 34
REMARK H PARENT 11 2 19 35
REMARK Flexibility Score: inf
ROOT
ATOM      1  N   UNL     1      19.924  39.214  -4.755  1.00  0.00    -0.309 N 
ATOM      2  H   UNL     1      19.109  38.562  -4.715  1.00  0.00     0.171 HD
ENDROOT
BRANCH   1   3
ATOM      3  C   UNL     1      19.679  40.572  -5.126  1.00  0.00     0.230 A 
ATOM      4  C   UNL     1      19.570  44.985  -7.467  1.00  0.00     0.086 A 
ATOM      5  C   UNL     1      19.241  44.600  -6.143  1.00  0.00    -0.022 A 
ATOM      6  C   UNL     1      20.195  44.058  -8.325  1.00  0.00     0.263 A 
ATOM      7  C   UNL     1      18.744  45.608  -5.132  1.00  0.00     0.046 C 
ATOM      8  C   UNL     1      19.389  43.247  -5.782  1.00  0.00     0.040 A 
ATOM      9  N   UNL     1      20.478  42.774  -7.904  1.00  0.00    -0.289 N 
ATOM     10  O   UNL     1      20.494  44.425  -9.495  1.00  0.00    -0.268 OA
ATOM     11  C   UNL     1      18.979  42.744  -4.525  1.00  0.00     0.127 A 
ATOM     12  C   UNL     1      19.975  42.335  -6.700  1.00  0.00     0.148 A 
ATOM     13  N   UNL     1      19.118  41.433  -4.238  1.00  0.00    -0.221 NA
ATOM     14  N   UNL     1      20.112  41.033  -6.317  1.00  0.00    -0.194 NA
BRANCH   4  15
ATOM     15  C   UNL     1      19.265  46.351  -7.979  1.00  0.00     0.165 C 
ATOM     16  C   UNL     1      17.940  46.666  -8.597  1.00  0.00     0.094 C 
ATOM     17  O   UNL     1      20.136  47.257  -7.884  1.00  0.00    -0.294 OA
ENDBRANCH   4  15
BRANCH   9  18
ATOM     18  C   UNL     1      21.232  41.872  -8.829  1.00  0.00     0.092 C 
ATOM     19  C   UNL     1      22.056  40.780  -8.121  1.00  0.00     0.025 C 
ATOM     20  C   UNL     1      20.308  41.170  -9.818  1.00  0.00     0.025 C 
ATOM     21  C   UNL     1      21.471  39.435  -8.563  1.00  0.00     0.002 C 
ATOM     22  C   UNL     1      20.219  39.717  -9.387  1.00  0.00     0.002 C 
ENDBRANCH   9  18
ENDBRANCH   1   3
BRANCH   1  23
ATOM     23  C   UNL     1      21.207  38.644  -4.998  1.00  0.00     0.132 A 
ATOM     24  N   UNL     1      21.322  37.554  -5.802  1.00  0.00    -0.237 NA
ATOM     25  C   UNL     1      22.342  39.192  -4.393  1.00  0.00     0.049 A 
ATOM     26  C   UNL     1      22.519  36.925  -5.984  1.00  0.00     0.139 A 
ATOM     27  C   UNL     1      23.583  38.595  -4.593  1.00  0.00     0.031 A 
ATOM     28  C   UNL     1      23.691  37.419  -5.372  1.00  0.00     0.055 A 
BRANCH  28  29
ATOM     29  N   UNL     1      24.953  36.720  -5.507  1.00  0.00    -0.368 N 
ATOM     30  C   UNL     1      25.163  35.815  -6.660  1.00  0.00     0.132 C 
ATOM     31  C   UNL     1      25.863  36.607  -4.354  1.00  0.00     0.132 C 
ATOM     32  C   UNL     1      26.004  34.622  -6.225  1.00  0.00     0.102 C 
ATOM     33  C   UNL     1      27.282  36.144  -4.753  1.00  0.00     0.102 C 
ATOM     34  N   UNL     1      27.331  35.064  -5.773  1.00  0.00    -0.313 NA
ATOM     35  H   UNL     1      27.831  35.440  -6.616  1.00  0.00     0.122 HD
ENDBRANCH  28  29
ENDBRANCH   1  23
TORSDOF 5
ENDMDL
