MODEL 1
REMARK VINA RESULT:   -11.104      0.000      0.000
REMARK INTER + INTRA:         -15.422
REMARK INTER:                 -14.999
REMARK INTRA:                  -0.424
REMARK UNBOUND:                -0.424
REMARK SMILES COc1cc2nccc(Oc3ccc(NC(=O)NC4CC4)c(Cl)c3)c2cc1C(N)=O
REMARK SMILES IDX 11 1 12 2 13 3 14 4 22 5 23 6 24 7 10 8 9 9 3 10 27 11 4 12
REMARK SMILES IDX 26 13 5 14 25 15 6 16 7 17 8 18 2 19 1 20 28 21 29 22 30 23
REMARK SMILES IDX 15 26 16 27 17 29 18 30 19 32 20 33 21 34
REMARK H PARENT 29 24 29 25 15 28 18 31
REMARK Flexibility Score: inf
ROOT
ATOM      1  C   UNL     1      20.885  24.133  39.196  1.00  0.00     0.129 A 
ATOM      2  C   UNL     1      20.844  23.512  37.945  1.00  0.00     0.049 A 
ATOM      3  C   UNL     1      21.980  22.884  37.429  1.00  0.00     0.031 A 
ATOM      4  C   UNL     1      23.173  22.845  38.171  1.00  0.00     0.061 A 
ATOM      5  C   UNL     1      23.215  23.468  39.434  1.00  0.00     0.068 A 
ATOM      6  Cl  UNL     1      24.670  23.435  40.422  1.00  0.00    -0.082 Cl
ATOM      7  C   UNL     1      22.074  24.096  39.944  1.00  0.00     0.069 A 
ENDROOT
BRANCH   1   8
ATOM      8  O   UNL     1      19.718  24.738  39.686  1.00  0.00    -0.457 OA
BRANCH   8   9
ATOM      9  C   UNL     1      19.597  26.087  40.058  1.00  0.00     0.138 A 
ATOM     10  C   UNL     1      15.867  27.664  41.289  1.00  0.00     0.133 A 
ATOM     11  C   UNL     1      15.963  26.306  40.913  1.00  0.00     0.082 A 
ATOM     12  C   UNL     1      17.010  28.483  41.216  1.00  0.00     0.076 A 
ATOM     13  C   UNL     1      17.204  25.779  40.514  1.00  0.00     0.032 A 
ATOM     14  C   UNL     1      18.238  27.958  40.803  1.00  0.00     0.078 A 
ATOM     15  C   UNL     1      18.344  26.596  40.452  1.00  0.00     0.044 A 
ATOM     16  N   UNL     1      19.332  28.764  40.746  1.00  0.00    -0.256 NA
ATOM     17  C   UNL     1      20.546  28.296  40.355  1.00  0.00     0.115 A 
ATOM     18  C   UNL     1      20.699  26.956  40.000  1.00  0.00     0.068 A 
BRANCH  10  19
ATOM     19  O   UNL     1      14.639  28.161  41.757  1.00  0.00    -0.496 OA
ATOM     20  C   UNL     1      14.359  29.535  41.999  1.00  0.00     0.278 C 
ENDBRANCH  10  19
BRANCH  11  21
ATOM     21  C   UNL     1      14.786  25.407  40.961  1.00  0.00     0.252 C 
ATOM     22  N   UNL     1      13.831  25.493  42.021  1.00  0.00    -0.365 N 
ATOM     23  O   UNL     1      14.602  24.571  40.036  1.00  0.00    -0.269 OA
ATOM     24  H   UNL     1      13.046  24.806  42.075  1.00  0.00     0.159 HD
ATOM     25  H   UNL     1      13.848  26.284  42.702  1.00  0.00     0.159 HD
ENDBRANCH  11  21
ENDBRANCH   8   9
ENDBRANCH   1   8
BRANCH   4  26
ATOM     26  N   UNL     1      24.352  22.223  37.629  1.00  0.00    -0.307 N 
ATOM     27  C   UNL     1      24.942  22.591  36.375  1.00  0.00     0.319 C 
ATOM     28  H   UNL     1      24.774  21.419  38.145  1.00  0.00     0.171 HD
ATOM     29  O   UNL     1      24.337  23.371  35.589  1.00  0.00    -0.248 OA
ATOM     30  N   UNL     1      26.211  22.041  35.998  1.00  0.00    -0.335 N 
ATOM     31  H   UNL     1      26.666  21.339  36.623  1.00  0.00     0.165 HD
BRANCH  30  32
ATOM     32  C   UNL     1      26.816  22.332  34.702  1.00  0.00     0.084 C 
ATOM     33  C   UNL     1      26.251  21.506  33.558  1.00  0.00     0.027 C 
ATOM     34  C   UNL     1      27.616  21.168  34.137  1.00  0.00     0.027 C 
ENDBRANCH  30  32
ENDBRANCH   4  26
TORSDOF 6
ENDMDL
MODEL 2
REMARK VINA RESULT:    -9.354      3.294     11.658
REMARK INTER + INTRA:         -13.058
REMARK INTER:                 -12.753
REMARK INTRA:                  -0.305
REMARK UNBOUND:                -0.424
REMARK SMILES COc1cc2nccc(Oc3ccc(NC(=O)NC4CC4)c(Cl)c3)c2cc1C(N)=O
REMARK SMILES IDX 11 1 12 2 13 3 14 4 22 5 23 6 24 7 10 8 9 9 3 10 27 11 4 12
REMARK SMILES IDX 26 13 5 14 25 15 6 16 7 17 8 18 2 19 1 20 28 21 29 22 30 23
REMARK SMILES IDX 15 26 16 27 17 29 18 30 19 32 20 33 21 34
REMARK H PARENT 29 24 29 25 15 28 18 31
REMARK Flexibility Score: inf
ROOT
ATOM      1  C   UNL     1      25.679  22.748  36.510  1.00  0.00     0.129 A 
ATOM      2  C   UNL     1      24.392  23.100  36.098  1.00  0.00     0.049 A 
ATOM      3  C   UNL     1      23.432  23.495  37.033  1.00  0.00     0.031 A 
ATOM      4  C   UNL     1      23.755  23.569  38.399  1.00  0.00     0.061 A 
ATOM      5  C   UNL     1      25.055  23.218  38.816  1.00  0.00     0.068 A 
ATOM      6  Cl  UNL     1      25.529  23.310  40.507  1.00  0.00    -0.082 Cl
ATOM      7  C   UNL     1      26.010  22.822  37.874  1.00  0.00     0.069 A 
ENDROOT
BRANCH   1   8
ATOM      8  O   UNL     1      26.619  22.373  35.538  1.00  0.00    -0.457 OA
BRANCH   8   9
ATOM      9  C   UNL     1      26.468  22.543  34.153  1.00  0.00     0.138 A 
ATOM     10  C   UNL     1      26.813  19.248  31.519  1.00  0.00     0.133 A 
ATOM     11  C   UNL     1      26.976  19.054  32.909  1.00  0.00     0.082 A 
ATOM     12  C   UNL     1      26.572  20.546  31.027  1.00  0.00     0.076 A 
ATOM     13  C   UNL     1      26.852  20.146  33.785  1.00  0.00     0.032 A 
ATOM     14  C   UNL     1      26.465  21.631  31.901  1.00  0.00     0.078 A 
ATOM     15  C   UNL     1      26.600  21.436  33.291  1.00  0.00     0.044 A 
ATOM     16  N   UNL     1      26.223  22.875  31.406  1.00  0.00    -0.256 NA
ATOM     17  C   UNL     1      26.107  23.957  32.219  1.00  0.00     0.115 A 
ATOM     18  C   UNL     1      26.232  23.813  33.600  1.00  0.00     0.068 A 
BRANCH  10  19
ATOM     19  O   UNL     1      26.866  18.138  30.660  1.00  0.00    -0.496 OA
ATOM     20  C   UNL     1      27.866  17.924  29.670  1.00  0.00     0.278 C 
ENDBRANCH  10  19
BRANCH  11  21
ATOM     21  C   UNL     1      27.245  17.710  33.473  1.00  0.00     0.252 C 
ATOM     22  N   UNL     1      28.479  17.034  33.222  1.00  0.00    -0.365 N 
ATOM     23  O   UNL     1      26.386  17.163  34.215  1.00  0.00    -0.269 OA
ATOM     24  H   UNL     1      28.622  16.060  33.570  1.00  0.00     0.159 HD
ATOM     25  H   UNL     1      29.281  17.524  32.768  1.00  0.00     0.159 HD
ENDBRANCH  11  21
ENDBRANCH   8   9
ENDBRANCH   1   8
BRANCH   4  26
ATOM     26  N   UNL     1      22.760  23.949  39.367  1.00  0.00    -0.307 N 
ATOM     27  C   UNL     1      21.565  24.672  39.040  1.00  0.00     0.319 C 
ATOM     28  H   UNL     1      22.939  23.740  40.375  1.00  0.00     0.171 HD
ATOM     29  O   UNL     1      21.417  25.175  37.892  1.00  0.00    -0.248 OA
ATOM     30  N   UNL     1      20.550  24.853  40.035  1.00  0.00    -0.335 N 
ATOM     31  H   UNL     1      20.718  24.497  41.002  1.00  0.00     0.165 HD
BRANCH  30  32
ATOM     32  C   UNL     1      19.350  25.642  39.769  1.00  0.00     0.084 C 
ATOM     33  C   UNL     1      19.110  26.756  40.774  1.00  0.00     0.027 C 
ATOM     34  C   UNL     1      18.279  25.484  40.835  1.00  0.00     0.027 C 
ENDBRANCH  30  32
ENDBRANCH   4  26
TORSDOF 6
ENDMDL
MODEL 3
REMARK VINA RESULT:    -9.108      3.269     11.624
REMARK INTER + INTRA:         -12.727
REMARK INTER:                 -12.042
REMARK INTRA:                  -0.685
REMARK UNBOUND:                -0.424
REMARK SMILES COc1cc2nccc(Oc3ccc(NC(=O)NC4CC4)c(Cl)c3)c2cc1C(N)=O
REMARK SMILES IDX 11 1 12 2 13 3 14 4 22 5 23 6 24 7 10 8 9 9 3 10 27 11 4 12
REMARK SMILES IDX 26 13 5 14 25 15 6 16 7 17 8 18 2 19 1 20 28 21 29 22 30 23
REMARK SMILES IDX 15 26 16 27 17 29 18 30 19 32 20 33 21 34
REMARK H PARENT 29 24 29 25 15 28 18 31
REMARK Flexibility Score: inf
ROOT
ATOM      1  C   UNL     1      25.630  22.863  36.395  1.00  0.00     0.129 A 
ATOM      2  C   UNL     1      24.329  23.146  35.971  1.00  0.00     0.049 A 
ATOM      3  C   UNL     1      23.325  23.420  36.901  1.00  0.00     0.031 A 
ATOM      4  C   UNL     1      23.612  23.441  38.277  1.00  0.00     0.061 A 
ATOM      5  C   UNL     1      24.925  23.159  38.707  1.00  0.00     0.068 A 
ATOM      6  Cl  UNL     1      25.356  23.190  40.412  1.00  0.00    -0.082 Cl
ATOM      7  C   UNL     1      25.926  22.884  37.768  1.00  0.00     0.069 A 
ENDROOT
BRANCH   1   8
ATOM      8  O   UNL     1      26.614  22.610  35.428  1.00  0.00    -0.457 OA
BRANCH   8   9
ATOM      9  C   UNL     1      26.552  21.606  34.448  1.00  0.00     0.138 A 
ATOM     10  C   UNL     1      27.057  22.548  30.353  1.00  0.00     0.133 A 
ATOM     11  C   UNL     1      27.117  23.576  31.320  1.00  0.00     0.082 A 
ATOM     12  C   UNL     1      26.795  21.227  30.765  1.00  0.00     0.076 A 
ATOM     13  C   UNL     1      26.959  23.262  32.681  1.00  0.00     0.032 A 
ATOM     14  C   UNL     1      26.624  20.923  32.117  1.00  0.00     0.078 A 
ATOM     15  C   UNL     1      26.709  21.942  33.089  1.00  0.00     0.044 A 
ATOM     16  N   UNL     1      26.380  19.639  32.495  1.00  0.00    -0.256 NA
ATOM     17  C   UNL     1      26.211  19.297  33.799  1.00  0.00     0.115 A 
ATOM     18  C   UNL     1      26.288  20.271  34.794  1.00  0.00     0.068 A 
BRANCH  10  19
ATOM     19  O   UNL     1      27.289  22.862  29.003  1.00  0.00    -0.496 OA
ATOM     20  C   UNL     1      27.998  22.035  28.088  1.00  0.00     0.278 C 
ENDBRANCH  10  19
BRANCH  11  21
ATOM     21  C   UNL     1      27.376  24.983  30.935  1.00  0.00     0.252 C 
ATOM     22  N   UNL     1      26.371  25.773  30.295  1.00  0.00    -0.365 N 
ATOM     23  O   UNL     1      28.490  25.508  31.203  1.00  0.00    -0.269 OA
ATOM     24  H   UNL     1      26.594  26.740  29.969  1.00  0.00     0.159 HD
ATOM     25  H   UNL     1      25.385  25.438  30.220  1.00  0.00     0.159 HD
ENDBRANCH  11  21
ENDBRANCH   8   9
ENDBRANCH   1   8
BRANCH   4  26
ATOM     26  N   UNL     1      22.573  23.695  39.239  1.00  0.00    -0.307 N 
ATOM     27  C   UNL     1      21.434  24.528  38.980  1.00  0.00     0.319 C 
ATOM     28  H   UNL     1      22.676  23.300  40.201  1.00  0.00     0.171 HD
ATOM     29  O   UNL     1      21.385  25.235  37.936  1.00  0.00    -0.248 OA
ATOM     30  N   UNL     1      20.364  24.584  39.931  1.00  0.00    -0.335 N 
ATOM     31  H   UNL     1      20.452  24.053  40.826  1.00  0.00     0.165 HD
BRANCH  30  32
ATOM     32  C   UNL     1      19.220  25.471  39.745  1.00  0.00     0.084 C 
ATOM     33  C   UNL     1      19.077  26.529  40.826  1.00  0.00     0.027 C 
ATOM     34  C   UNL     1      18.158  25.318  40.821  1.00  0.00     0.027 C 
ENDBRANCH  30  32
ENDBRANCH   4  26
TORSDOF 6
ENDMDL
MODEL 4
REMARK VINA RESULT:    -8.633      2.798      5.245
REMARK INTER + INTRA:         -12.084
REMARK INTER:                 -11.783
REMARK INTRA:                  -0.301
REMARK UNBOUND:                -0.424
REMARK SMILES COc1cc2nccc(Oc3ccc(NC(=O)NC4CC4)c(Cl)c3)c2cc1C(N)=O
REMARK SMILES IDX 11 1 12 2 13 3 14 4 22 5 23 6 24 7 10 8 9 9 3 10 27 11 4 12
REMARK SMILES IDX 26 13 5 14 25 15 6 16 7 17 8 18 2 19 1 20 28 21 29 22 30 23
REMARK SMILES IDX 15 26 16 27 17 29 18 30 19 32 20 33 21 34
REMARK H PARENT 29 24 29 25 15 28 18 31
REMARK Flexibility Score: inf
ROOT
ATOM      1  C   UNL     1      17.481  26.294  40.976  1.00  0.00     0.129 A 
ATOM      2  C   UNL     1      18.036  25.027  40.781  1.00  0.00     0.049 A 
ATOM      3  C   UNL     1      19.319  24.891  40.245  1.00  0.00     0.031 A 
ATOM      4  C   UNL     1      20.081  26.026  39.918  1.00  0.00     0.061 A 
ATOM      5  C   UNL     1      19.523  27.305  40.118  1.00  0.00     0.068 A 
ATOM      6  Cl  UNL     1      20.432  28.766  39.750  1.00  0.00    -0.082 Cl
ATOM      7  C   UNL     1      18.238  27.434  40.654  1.00  0.00     0.069 A 
ENDROOT
BRANCH   1   8
ATOM      8  O   UNL     1      16.197  26.389  41.532  1.00  0.00    -0.457 OA
BRANCH   8   9
ATOM      9  C   UNL     1      14.992  26.292  40.818  1.00  0.00     0.138 A 
ATOM     10  C   UNL     1      11.723  28.817  41.738  1.00  0.00     0.133 A 
ATOM     11  C   UNL     1      12.923  28.929  42.475  1.00  0.00     0.082 A 
ATOM     12  C   UNL     1      11.622  27.842  40.727  1.00  0.00     0.076 A 
ATOM     13  C   UNL     1      14.012  28.097  42.164  1.00  0.00     0.032 A 
ATOM     14  C   UNL     1      12.702  27.007  40.432  1.00  0.00     0.078 A 
ATOM     15  C   UNL     1      13.911  27.133  41.148  1.00  0.00     0.044 A 
ATOM     16  N   UNL     1      12.587  26.076  39.447  1.00  0.00    -0.256 NA
ATOM     17  C   UNL     1      13.612  25.246  39.123  1.00  0.00     0.115 A 
ATOM     18  C   UNL     1      14.827  25.335  39.803  1.00  0.00     0.068 A 
BRANCH  10  19
ATOM     19  O   UNL     1      10.666  29.703  42.009  1.00  0.00    -0.496 OA
ATOM     20  C   UNL     1      10.017  30.514  41.036  1.00  0.00     0.278 C 
ENDBRANCH  10  19
BRANCH  11  21
ATOM     21  C   UNL     1      13.073  29.930  43.557  1.00  0.00     0.252 C 
ATOM     22  N   UNL     1      12.735  31.303  43.347  1.00  0.00    -0.365 N 
ATOM     23  O   UNL     1      13.476  29.565  44.693  1.00  0.00    -0.269 OA
ATOM     24  H   UNL     1      12.914  32.007  44.098  1.00  0.00     0.159 HD
ATOM     25  H   UNL     1      12.232  31.611  42.486  1.00  0.00     0.159 HD
ENDBRANCH  11  21
ENDBRANCH   8   9
ENDBRANCH   1   8
BRANCH   4  26
ATOM     26  N   UNL     1      21.391  25.888  39.340  1.00  0.00    -0.307 N 
ATOM     27  C   UNL     1      21.974  24.627  38.981  1.00  0.00     0.319 C 
ATOM     28  H   UNL     1      21.979  26.743  39.226  1.00  0.00     0.171 HD
ATOM     29  O   UNL     1      21.424  23.546  39.330  1.00  0.00    -0.248 OA
ATOM     30  N   UNL     1      23.207  24.597  38.252  1.00  0.00    -0.335 N 
ATOM     31  H   UNL     1      23.691  25.497  38.035  1.00  0.00     0.165 HD
BRANCH  30  32
ATOM     32  C   UNL     1      23.874  23.340  37.927  1.00  0.00     0.084 C 
ATOM     33  C   UNL     1      25.014  22.985  38.866  1.00  0.00     0.027 C 
ATOM     34  C   UNL     1      25.314  23.521  37.476  1.00  0.00     0.027 C 
ENDBRANCH  30  32
ENDBRANCH   4  26
TORSDOF 6
ENDMDL
MODEL 5
REMARK VINA RESULT:    -8.599      3.866     10.625
REMARK INTER + INTRA:         -12.039
REMARK INTER:                 -11.231
REMARK INTRA:                  -0.807
REMARK UNBOUND:                -0.424
REMARK SMILES COc1cc2nccc(Oc3ccc(NC(=O)NC4CC4)c(Cl)c3)c2cc1C(N)=O
REMARK SMILES IDX 11 1 12 2 13 3 14 4 22 5 23 6 24 7 10 8 9 9 3 10 27 11 4 12
REMARK SMILES IDX 26 13 5 14 25 15 6 16 7 17 8 18 2 19 1 20 28 21 29 22 30 23
REMARK SMILES IDX 15 26 16 27 17 29 18 30 19 32 20 33 21 34
REMARK H PARENT 29 24 29 25 15 28 18 31
REMARK Flexibility Score: inf
ROOT
ATOM      1  C   UNL     1      15.614  25.543  40.682  1.00  0.00     0.129 A 
ATOM      2  C   UNL     1      15.021  25.345  39.433  1.00  0.00     0.049 A 
ATOM      3  C   UNL     1      13.650  25.552  39.258  1.00  0.00     0.031 A 
ATOM      4  C   UNL     1      12.852  25.987  40.331  1.00  0.00     0.061 A 
ATOM      5  C   UNL     1      13.449  26.190  41.591  1.00  0.00     0.068 A 
ATOM      6  Cl  UNL     1      12.511  26.755  42.967  1.00  0.00    -0.082 Cl
ATOM      7  C   UNL     1      14.822  25.980  41.758  1.00  0.00     0.069 A 
ENDROOT
BRANCH   1   8
ATOM      8  O   UNL     1      16.996  25.341  40.812  1.00  0.00    -0.457 OA
BRANCH   8   9
ATOM      9  C   UNL     1      17.978  26.336  40.684  1.00  0.00     0.138 A 
ATOM     10  C   UNL     1      21.659  25.507  38.767  1.00  0.00     0.133 A 
ATOM     11  C   UNL     1      20.689  24.488  38.890  1.00  0.00     0.082 A 
ATOM     12  C   UNL     1      21.399  26.778  39.316  1.00  0.00     0.076 A 
ATOM     13  C   UNL     1      19.462  24.765  39.518  1.00  0.00     0.032 A 
ATOM     14  C   UNL     1      20.185  27.044  39.953  1.00  0.00     0.078 A 
ATOM     15  C   UNL     1      19.202  26.037  40.054  1.00  0.00     0.044 A 
ATOM     16  N   UNL     1      19.950  28.280  40.469  1.00  0.00    -0.256 NA
ATOM     17  C   UNL     1      18.782  28.585  41.093  1.00  0.00     0.115 A 
ATOM     18  C   UNL     1      17.781  27.621  41.215  1.00  0.00     0.068 A 
BRANCH  10  19
ATOM     19  O   UNL     1      22.851  25.239  38.073  1.00  0.00    -0.496 OA
ATOM     20  C   UNL     1      23.928  24.458  38.581  1.00  0.00     0.278 C 
ENDBRANCH  10  19
BRANCH  11  21
ATOM     21  C   UNL     1      20.922  23.131  38.341  1.00  0.00     0.252 C 
ATOM     22  N   UNL     1      21.270  22.937  36.969  1.00  0.00    -0.365 N 
ATOM     23  O   UNL     1      20.843  22.130  39.102  1.00  0.00    -0.269 OA
ATOM     24  H   UNL     1      21.361  21.971  36.584  1.00  0.00     0.159 HD
ATOM     25  H   UNL     1      21.520  23.743  36.355  1.00  0.00     0.159 HD
ENDBRANCH  11  21
ENDBRANCH   8   9
ENDBRANCH   1   8
BRANCH   4  26
ATOM     26  N   UNL     1      11.435  26.173  40.161  1.00  0.00    -0.307 N 
ATOM     27  C   UNL     1      10.815  27.457  40.000  1.00  0.00     0.319 C 
ATOM     28  H   UNL     1      10.812  25.337  40.213  1.00  0.00     0.171 HD
ATOM     29  O   UNL     1      11.477  28.514  40.185  1.00  0.00    -0.248 OA
ATOM     30  N   UNL     1       9.424  27.536  39.662  1.00  0.00    -0.335 N 
ATOM     31  H   UNL     1       8.869  26.654  39.586  1.00  0.00     0.165 HD
BRANCH  30  32
ATOM     32  C   UNL     1       8.734  28.818  39.558  1.00  0.00     0.084 C 
ATOM     33  C   UNL     1       7.357  28.727  38.923  1.00  0.00     0.027 C 
ATOM     34  C   UNL     1       8.528  29.276  38.124  1.00  0.00     0.027 C 
ENDBRANCH  30  32
ENDBRANCH   4  26
TORSDOF 6
ENDMDL
MODEL 6
REMARK VINA RESULT:    -8.514      6.407     14.281
REMARK INTER + INTRA:         -11.925
REMARK INTER:                 -11.077
REMARK INTRA:                  -0.847
REMARK UNBOUND:                -0.424
REMARK SMILES COc1cc2nccc(Oc3ccc(NC(=O)NC4CC4)c(Cl)c3)c2cc1C(N)=O
REMARK SMILES IDX 11 1 12 2 13 3 14 4 22 5 23 6 24 7 10 8 9 9 3 10 27 11 4 12
REMARK SMILES IDX 26 13 5 14 25 15 6 16 7 17 8 18 2 19 1 20 28 21 29 22 30 23
REMARK SMILES IDX 15 26 16 27 17 29 18 30 19 32 20 33 21 34
REMARK H PARENT 29 24 29 25 15 28 18 31
REMARK Flexibility Score: inf
ROOT
ATOM      1  C   UNL     1      26.753  20.731  32.159  1.00  0.00     0.129 A 
ATOM      2  C   UNL     1      26.705  20.136  33.421  1.00  0.00     0.049 A 
ATOM      3  C   UNL     1      26.539  20.917  34.567  1.00  0.00     0.031 A 
ATOM      4  C   UNL     1      26.394  22.312  34.466  1.00  0.00     0.061 A 
ATOM      5  C   UNL     1      26.439  22.914  33.192  1.00  0.00     0.068 A 
ATOM      6  Cl  UNL     1      26.242  24.650  32.995  1.00  0.00    -0.082 Cl
ATOM      7  C   UNL     1      26.606  22.125  32.049  1.00  0.00     0.069 A 
ENDROOT
BRANCH   1   8
ATOM      8  O   UNL     1      26.903  19.911  31.031  1.00  0.00    -0.457 OA
BRANCH   8   9
ATOM      9  C   UNL     1      28.117  19.634  30.383  1.00  0.00     0.138 A 
ATOM     10  C   UNL     1      30.508  16.352  31.575  1.00  0.00     0.133 A 
ATOM     11  C   UNL     1      29.293  16.614  32.247  1.00  0.00     0.082 A 
ATOM     12  C   UNL     1      30.922  17.209  30.538  1.00  0.00     0.076 A 
ATOM     13  C   UNL     1      28.494  17.698  31.845  1.00  0.00     0.032 A 
ATOM     14  C   UNL     1      30.132  18.295  30.153  1.00  0.00     0.078 A 
ATOM     15  C   UNL     1      28.906  18.545  30.803  1.00  0.00     0.044 A 
ATOM     16  N   UNL     1      30.546  19.107  29.143  1.00  0.00    -0.256 NA
ATOM     17  C   UNL     1      29.808  20.171  28.732  1.00  0.00     0.115 A 
ATOM     18  C   UNL     1      28.588  20.456  29.345  1.00  0.00     0.068 A 
BRANCH  10  19
ATOM     19  O   UNL     1      31.262  15.223  31.937  1.00  0.00    -0.496 OA
ATOM     20  C   UNL     1      31.341  14.022  31.177  1.00  0.00     0.278 C 
ENDBRANCH  10  19
BRANCH  11  21
ATOM     21  C   UNL     1      28.822  15.748  33.354  1.00  0.00     0.252 C 
ATOM     22  N   UNL     1      29.721  15.274  34.358  1.00  0.00    -0.365 N 
ATOM     23  O   UNL     1      27.601  15.448  33.432  1.00  0.00    -0.269 OA
ATOM     24  H   UNL     1      29.384  14.609  35.090  1.00  0.00     0.159 HD
ATOM     25  H   UNL     1      30.694  15.644  34.431  1.00  0.00     0.159 HD
ENDBRANCH  11  21
ENDBRANCH   8   9
ENDBRANCH   1   8
BRANCH   4  26
ATOM     26  N   UNL     1      26.252  23.121  35.647  1.00  0.00    -0.307 N 
ATOM     27  C   UNL     1      25.024  23.256  36.377  1.00  0.00     0.319 C 
ATOM     28  H   UNL     1      27.068  23.690  35.963  1.00  0.00     0.171 HD
ATOM     29  O   UNL     1      23.946  22.804  35.902  1.00  0.00    -0.248 OA
ATOM     30  N   UNL     1      25.019  23.940  37.636  1.00  0.00    -0.335 N 
ATOM     31  H   UNL     1      25.903  24.375  37.981  1.00  0.00     0.165 HD
BRANCH  30  32
ATOM     32  C   UNL     1      23.782  24.164  38.379  1.00  0.00     0.084 C 
ATOM     33  C   UNL     1      23.817  23.640  39.805  1.00  0.00     0.027 C 
ATOM     34  C   UNL     1      23.052  22.879  38.733  1.00  0.00     0.027 C 
ENDBRANCH  30  32
ENDBRANCH   4  26
TORSDOF 6
ENDMDL
MODEL 7
REMARK VINA RESULT:    -8.487      3.064      5.787
REMARK INTER + INTRA:         -11.888
REMARK INTER:                 -10.610
REMARK INTRA:                  -1.278
REMARK UNBOUND:                -0.424
REMARK SMILES COc1cc2nccc(Oc3ccc(NC(=O)NC4CC4)c(Cl)c3)c2cc1C(N)=O
REMARK SMILES IDX 11 1 12 2 13 3 14 4 22 5 23 6 24 7 10 8 9 9 3 10 27 11 4 12
REMARK SMILES IDX 26 13 5 14 25 15 6 16 7 17 8 18 2 19 1 20 28 21 29 22 30 23
REMARK SMILES IDX 15 26 16 27 17 29 18 30 19 32 20 33 21 34
REMARK H PARENT 29 24 29 25 15 28 18 31
REMARK Flexibility Score: inf
ROOT
ATOM      1  C   UNL     1      16.441  27.233  40.532  1.00  0.00     0.129 A 
ATOM      2  C   UNL     1      16.559  25.871  40.820  1.00  0.00     0.049 A 
ATOM      3  C   UNL     1      17.816  25.264  40.871  1.00  0.00     0.031 A 
ATOM      4  C   UNL     1      18.982  26.019  40.658  1.00  0.00     0.061 A 
ATOM      5  C   UNL     1      18.866  27.394  40.370  1.00  0.00     0.068 A 
ATOM      6  Cl  UNL     1      20.287  28.398  40.116  1.00  0.00    -0.082 Cl
ATOM      7  C   UNL     1      17.603  27.995  40.320  1.00  0.00     0.069 A 
ENDROOT
BRANCH   1   8
ATOM      8  O   UNL     1      15.162  27.809  40.507  1.00  0.00    -0.457 OA
BRANCH   8   9
ATOM      9  C   UNL     1      14.336  28.001  41.625  1.00  0.00     0.138 A 
ATOM     10  C   UNL     1      11.100  25.384  42.399  1.00  0.00     0.133 A 
ATOM     11  C   UNL     1      11.915  25.175  41.263  1.00  0.00     0.082 A 
ATOM     12  C   UNL     1      11.358  26.484  43.239  1.00  0.00     0.076 A 
ATOM     13  C   UNL     1      12.995  26.038  41.011  1.00  0.00     0.032 A 
ATOM     14  C   UNL     1      12.424  27.348  42.976  1.00  0.00     0.078 A 
ATOM     15  C   UNL     1      13.256  27.127  41.858  1.00  0.00     0.044 A 
ATOM     16  N   UNL     1      12.661  28.400  43.805  1.00  0.00    -0.256 NA
ATOM     17  C   UNL     1      13.688  29.263  43.590  1.00  0.00     0.115 A 
ATOM     18  C   UNL     1      14.537  29.083  42.499  1.00  0.00     0.068 A 
BRANCH  10  19
ATOM     19  O   UNL     1      10.069  24.472  42.681  1.00  0.00    -0.496 OA
ATOM     20  C   UNL     1       9.965  23.710  43.878  1.00  0.00     0.278 C 
ENDBRANCH  10  19
BRANCH  11  21
ATOM     21  C   UNL     1      11.675  24.040  40.341  1.00  0.00     0.252 C 
ATOM     22  N   UNL     1      11.864  22.688  40.765  1.00  0.00    -0.365 N 
ATOM     23  O   UNL     1      11.267  24.263  39.170  1.00  0.00    -0.269 OA
ATOM     24  H   UNL     1      11.758  21.905  40.082  1.00  0.00     0.159 HD
ATOM     25  H   UNL     1      12.024  22.453  41.770  1.00  0.00     0.159 HD
ENDBRANCH  11  21
ENDBRANCH   8   9
ENDBRANCH   1   8
BRANCH   4  26
ATOM     26  N   UNL     1      20.276  25.390  40.682  1.00  0.00    -0.307 N 
ATOM     27  C   UNL     1      20.869  24.744  39.546  1.00  0.00     0.319 C 
ATOM     28  H   UNL     1      20.794  25.347  41.588  1.00  0.00     0.171 HD
ATOM     29  O   UNL     1      20.190  24.537  38.503  1.00  0.00    -0.248 OA
ATOM     30  N   UNL     1      22.230  24.300  39.612  1.00  0.00    -0.335 N 
ATOM     31  H   UNL     1      22.757  24.409  40.507  1.00  0.00     0.165 HD
BRANCH  30  32
ATOM     32  C   UNL     1      22.853  23.575  38.509  1.00  0.00     0.084 C 
ATOM     33  C   UNL     1      24.297  23.181  38.767  1.00  0.00     0.027 C 
ATOM     34  C   UNL     1      23.981  24.347  37.843  1.00  0.00     0.027 C 
ENDBRANCH  30  32
ENDBRANCH   4  26
TORSDOF 6
ENDMDL
MODEL 8
REMARK VINA RESULT:    -8.219      3.083      6.010
REMARK INTER + INTRA:         -11.525
REMARK INTER:                 -10.779
REMARK INTRA:                  -0.745
REMARK UNBOUND:                -0.424
REMARK SMILES COc1cc2nccc(Oc3ccc(NC(=O)NC4CC4)c(Cl)c3)c2cc1C(N)=O
REMARK SMILES IDX 11 1 12 2 13 3 14 4 22 5 23 6 24 7 10 8 9 9 3 10 27 11 4 12
REMARK SMILES IDX 26 13 5 14 25 15 6 16 7 17 8 18 2 19 1 20 28 21 29 22 30 23
REMARK SMILES IDX 15 26 16 27 17 29 18 30 19 32 20 33 21 34
REMARK H PARENT 29 24 29 25 15 28 18 31
REMARK Flexibility Score: inf
ROOT
ATOM      1  C   UNL     1      16.597  27.153  40.655  1.00  0.00     0.129 A 
ATOM      2  C   UNL     1      16.792  25.791  40.897  1.00  0.00     0.049 A 
ATOM      3  C   UNL     1      18.067  25.229  40.795  1.00  0.00     0.031 A 
ATOM      4  C   UNL     1      19.177  26.030  40.473  1.00  0.00     0.061 A 
ATOM      5  C   UNL     1      18.983  27.405  40.233  1.00  0.00     0.068 A 
ATOM      6  Cl  UNL     1      20.332  28.465  39.847  1.00  0.00    -0.082 Cl
ATOM      7  C   UNL     1      17.703  27.961  40.335  1.00  0.00     0.069 A 
ENDROOT
BRANCH   1   8
ATOM      8  O   UNL     1      15.305  27.683  40.784  1.00  0.00    -0.457 OA
BRANCH   8   9
ATOM      9  C   UNL     1      14.150  26.944  41.088  1.00  0.00     0.138 A 
ATOM     10  C   UNL     1      11.630  28.089  44.289  1.00  0.00     0.133 A 
ATOM     11  C   UNL     1      12.790  28.844  44.007  1.00  0.00     0.082 A 
ATOM     12  C   UNL     1      11.348  26.944  43.520  1.00  0.00     0.076 A 
ATOM     13  C   UNL     1      13.622  28.470  42.938  1.00  0.00     0.032 A 
ATOM     14  C   UNL     1      12.186  26.567  42.468  1.00  0.00     0.078 A 
ATOM     15  C   UNL     1      13.332  27.334  42.166  1.00  0.00     0.044 A 
ATOM     16  N   UNL     1      11.892  25.462  41.733  1.00  0.00    -0.256 NA
ATOM     17  C   UNL     1      12.677  25.061  40.699  1.00  0.00     0.115 A 
ATOM     18  C   UNL     1      13.818  25.788  40.362  1.00  0.00     0.068 A 
BRANCH  10  19
ATOM     19  O   UNL     1      10.767  28.515  45.313  1.00  0.00    -0.496 OA
ATOM     20  C   UNL     1      10.506  27.789  46.509  1.00  0.00     0.278 C 
ENDBRANCH  10  19
BRANCH  11  21
ATOM     21  C   UNL     1      13.137  30.050  44.796  1.00  0.00     0.252 C 
ATOM     22  N   UNL     1      13.540  29.949  46.163  1.00  0.00    -0.365 N 
ATOM     23  O   UNL     1      13.107  31.184  44.247  1.00  0.00    -0.269 OA
ATOM     24  H   UNL     1      13.713  30.814  46.723  1.00  0.00     0.159 HD
ATOM     25  H   UNL     1      13.751  29.024  46.598  1.00  0.00     0.159 HD
ENDBRANCH  11  21
ENDBRANCH   8   9
ENDBRANCH   1   8
BRANCH   4  26
ATOM     26  N   UNL     1      20.486  25.448  40.341  1.00  0.00    -0.307 N 
ATOM     27  C   UNL     1      20.989  24.889  39.119  1.00  0.00     0.319 C 
ATOM     28  H   UNL     1      21.088  25.373  41.191  1.00  0.00     0.171 HD
ATOM     29  O   UNL     1      20.222  24.716  38.132  1.00  0.00    -0.248 OA
ATOM     30  N   UNL     1      22.363  24.491  39.033  1.00  0.00    -0.335 N 
ATOM     31  H   UNL     1      22.968  24.570  39.880  1.00  0.00     0.165 HD
BRANCH  30  32
ATOM     32  C   UNL     1      22.901  23.853  37.835  1.00  0.00     0.084 C 
ATOM     33  C   UNL     1      24.079  22.932  38.104  1.00  0.00     0.027 C 
ATOM     34  C   UNL     1      24.312  24.306  37.495  1.00  0.00     0.027 C 
ENDBRANCH  30  32
ENDBRANCH   4  26
TORSDOF 6
ENDMDL
MODEL 9
REMARK VINA RESULT:    -8.193      8.885     13.142
REMARK INTER + INTRA:         -11.490
REMARK INTER:                 -10.374
REMARK INTRA:                  -1.117
REMARK UNBOUND:                -0.424
REMARK SMILES COc1cc2nccc(Oc3ccc(NC(=O)NC4CC4)c(Cl)c3)c2cc1C(N)=O
REMARK SMILES IDX 11 1 12 2 13 3 14 4 22 5 23 6 24 7 10 8 9 9 3 10 27 11 4 12
REMARK SMILES IDX 26 13 5 14 25 15 6 16 7 17 8 18 2 19 1 20 28 21 29 22 30 23
REMARK SMILES IDX 15 26 16 27 17 29 18 30 19 32 20 33 21 34
REMARK H PARENT 29 24 29 25 15 28 18 31
REMARK Flexibility Score: inf
ROOT
ATOM      1  C   UNL     1       9.933  21.922  37.901  1.00  0.00     0.129 A 
ATOM      2  C   UNL     1       9.800  22.921  38.868  1.00  0.00     0.049 A 
ATOM      3  C   UNL     1      10.918  23.385  39.565  1.00  0.00     0.031 A 
ATOM      4  C   UNL     1      12.197  22.872  39.287  1.00  0.00     0.061 A 
ATOM      5  C   UNL     1      12.333  21.866  38.309  1.00  0.00     0.068 A 
ATOM      6  Cl  UNL     1      13.907  21.198  37.898  1.00  0.00    -0.082 Cl
ATOM      7  C   UNL     1      11.209  21.406  37.615  1.00  0.00     0.069 A 
ENDROOT
BRANCH   1   8
ATOM      8  O   UNL     1       8.789  21.496  37.210  1.00  0.00    -0.457 OA
BRANCH   8   9
ATOM      9  C   UNL     1       8.333  20.170  37.133  1.00  0.00     0.138 A 
ATOM     10  C   UNL     1       7.941  18.234  33.390  1.00  0.00     0.133 A 
ATOM     11  C   UNL     1       8.395  19.570  33.442  1.00  0.00     0.082 A 
ATOM     12  C   UNL     1       7.593  17.576  34.585  1.00  0.00     0.076 A 
ATOM     13  C   UNL     1       8.535  20.211  34.686  1.00  0.00     0.032 A 
ATOM     14  C   UNL     1       7.719  18.221  35.817  1.00  0.00     0.078 A 
ATOM     15  C   UNL     1       8.197  19.547  35.876  1.00  0.00     0.044 A 
ATOM     16  N   UNL     1       7.384  17.566  36.961  1.00  0.00    -0.256 NA
ATOM     17  C   UNL     1       7.495  18.153  38.181  1.00  0.00     0.115 A 
ATOM     18  C   UNL     1       7.964  19.462  38.288  1.00  0.00     0.068 A 
BRANCH  10  19
ATOM     19  O   UNL     1       7.876  17.580  32.148  1.00  0.00    -0.496 OA
ATOM     20  C   UNL     1       6.721  17.529  31.317  1.00  0.00     0.278 C 
ENDBRANCH  10  19
BRANCH  11  21
ATOM     21  C   UNL     1       8.761  20.310  32.211  1.00  0.00     0.252 C 
ATOM     22  N   UNL     1      10.106  20.323  31.727  1.00  0.00    -0.365 N 
ATOM     23  O   UNL     1       7.868  20.913  31.558  1.00  0.00    -0.269 OA
ATOM     24  H   UNL     1      10.358  20.906  30.898  1.00  0.00     0.159 HD
ATOM     25  H   UNL     1      10.833  19.694  32.133  1.00  0.00     0.159 HD
ENDBRANCH  11  21
ENDBRANCH   8   9
ENDBRANCH   1   8
BRANCH   4  26
ATOM     26  N   UNL     1      13.346  23.327  40.023  1.00  0.00    -0.307 N 
ATOM     27  C   UNL     1      14.110  24.489  39.669  1.00  0.00     0.319 C 
ATOM     28  H   UNL     1      13.682  22.754  40.829  1.00  0.00     0.171 HD
ATOM     29  O   UNL     1      13.912  25.072  38.568  1.00  0.00    -0.248 OA
ATOM     30  N   UNL     1      15.128  24.967  40.557  1.00  0.00    -0.335 N 
ATOM     31  H   UNL     1      15.333  24.432  41.430  1.00  0.00     0.165 HD
BRANCH  30  32
ATOM     32  C   UNL     1      15.978  26.101  40.206  1.00  0.00     0.084 C 
ATOM     33  C   UNL     1      17.347  26.072  40.864  1.00  0.00     0.027 C 
ATOM     34  C   UNL     1      16.274  27.017  41.383  1.00  0.00     0.027 C 
ENDBRANCH  30  32
ENDBRANCH   4  26
TORSDOF 6
ENDMDL
MODEL 10
REMARK VINA RESULT:    -8.162      8.974     12.907
REMARK INTER + INTRA:         -11.448
REMARK INTER:                 -10.223
REMARK INTRA:                  -1.226
REMARK UNBOUND:                -0.424
REMARK SMILES COc1cc2nccc(Oc3ccc(NC(=O)NC4CC4)c(Cl)c3)c2cc1C(N)=O
REMARK SMILES IDX 11 1 12 2 13 3 14 4 22 5 23 6 24 7 10 8 9 9 3 10 27 11 4 12
REMARK SMILES IDX 26 13 5 14 25 15 6 16 7 17 8 18 2 19 1 20 28 21 29 22 30 23
REMARK SMILES IDX 15 26 16 27 17 29 18 30 19 32 20 33 21 34
REMARK H PARENT 29 24 29 25 15 28 18 31
REMARK Flexibility Score: inf
ROOT
ATOM      1  C   UNL     1      12.339  19.478  37.300  1.00  0.00     0.129 A 
ATOM      2  C   UNL     1      13.715  19.571  37.524  1.00  0.00     0.049 A 
ATOM      3  C   UNL     1      14.226  20.528  38.404  1.00  0.00     0.031 A 
ATOM      4  C   UNL     1      13.363  21.395  39.097  1.00  0.00     0.061 A 
ATOM      5  C   UNL     1      11.974  21.300  38.874  1.00  0.00     0.068 A 
ATOM      6  Cl  UNL     1      10.839  22.340  39.725  1.00  0.00    -0.082 Cl
ATOM      7  C   UNL     1      11.469  20.340  37.991  1.00  0.00     0.069 A 
ENDROOT
BRANCH   1   8
ATOM      8  O   UNL     1      11.864  18.493  36.423  1.00  0.00    -0.457 OA
BRANCH   8   9
ATOM      9  C   UNL     1      10.567  17.955  36.430  1.00  0.00     0.138 A 
ATOM     10  C   UNL     1       7.662  19.274  33.649  1.00  0.00     0.133 A 
ATOM     11  C   UNL     1       8.958  19.835  33.626  1.00  0.00     0.082 A 
ATOM     12  C   UNL     1       7.346  18.306  34.622  1.00  0.00     0.076 A 
ATOM     13  C   UNL     1       9.927  19.390  34.543  1.00  0.00     0.032 A 
ATOM     14  C   UNL     1       8.307  17.879  35.541  1.00  0.00     0.078 A 
ATOM     15  C   UNL     1       9.610  18.417  35.505  1.00  0.00     0.044 A 
ATOM     16  N   UNL     1       7.983  16.937  36.468  1.00  0.00    -0.256 NA
ATOM     17  C   UNL     1       8.887  16.489  37.378  1.00  0.00     0.115 A 
ATOM     18  C   UNL     1      10.188  16.991  37.379  1.00  0.00     0.068 A 
BRANCH  10  19
ATOM     19  O   UNL     1       6.725  19.673  32.681  1.00  0.00    -0.496 OA
ATOM     20  C   UNL     1       6.345  18.896  31.551  1.00  0.00     0.278 C 
ENDBRANCH  10  19
BRANCH  11  21
ATOM     21  C   UNL     1       9.336  20.866  32.631  1.00  0.00     0.252 C 
ATOM     22  N   UNL     1       9.572  20.524  31.263  1.00  0.00    -0.365 N 
ATOM     23  O   UNL     1       9.420  22.072  32.985  1.00  0.00    -0.269 OA
ATOM     24  H   UNL     1       9.904  21.252  30.592  1.00  0.00     0.159 HD
ATOM     25  H   UNL     1       9.338  19.576  30.895  1.00  0.00     0.159 HD
ENDBRANCH  11  21
ENDBRANCH   8   9
ENDBRANCH   1   8
BRANCH   4  26
ATOM     26  N   UNL     1      13.889  22.400  39.982  1.00  0.00    -0.307 N 
ATOM     27  C   UNL     1      14.030  23.782  39.623  1.00  0.00     0.319 C 
ATOM     28  H   UNL     1      14.243  22.104  40.918  1.00  0.00     0.171 HD
ATOM     29  O   UNL     1      13.863  24.152  38.429  1.00  0.00    -0.248 OA
ATOM     30  N   UNL     1      14.398  24.740  40.623  1.00  0.00    -0.335 N 
ATOM     31  H   UNL     1      14.606  24.410  41.592  1.00  0.00     0.165 HD
BRANCH  30  32
ATOM     32  C   UNL     1      14.622  26.144  40.291  1.00  0.00     0.084 C 
ATOM     33  C   UNL     1      15.823  26.758  40.990  1.00  0.00     0.027 C 
ATOM     34  C   UNL     1      14.417  27.081  41.471  1.00  0.00     0.027 C 
ENDBRANCH  30  32
ENDBRANCH   4  26
TORSDOF 6
ENDMDL
MODEL 11
REMARK VINA RESULT:    -8.107     11.440     13.915
REMARK INTER + INTRA:         -11.374
REMARK INTER:                 -10.322
REMARK INTRA:                  -1.052
REMARK UNBOUND:                -0.424
REMARK SMILES COc1cc2nccc(Oc3ccc(NC(=O)NC4CC4)c(Cl)c3)c2cc1C(N)=O
REMARK SMILES IDX 11 1 12 2 13 3 14 4 22 5 23 6 24 7 10 8 9 9 3 10 27 11 4 12
REMARK SMILES IDX 26 13 5 14 25 15 6 16 7 17 8 18 2 19 1 20 28 21 29 22 30 23
REMARK SMILES IDX 15 26 16 27 17 29 18 30 19 32 20 33 21 34
REMARK H PARENT 29 24 29 25 15 28 18 31
REMARK Flexibility Score: inf
ROOT
ATOM      1  C   UNL     1      28.484  16.850  32.547  1.00  0.00     0.129 A 
ATOM      2  C   UNL     1      28.001  17.914  33.310  1.00  0.00     0.049 A 
ATOM      3  C   UNL     1      28.080  19.224  32.830  1.00  0.00     0.031 A 
ATOM      4  C   UNL     1      28.625  19.487  31.561  1.00  0.00     0.061 A 
ATOM      5  C   UNL     1      29.110  18.413  30.788  1.00  0.00     0.068 A 
ATOM      6  Cl  UNL     1      29.782  18.672  29.183  1.00  0.00    -0.082 Cl
ATOM      7  C   UNL     1      29.027  17.105  31.276  1.00  0.00     0.069 A 
ENDROOT
BRANCH   1   8
ATOM      8  O   UNL     1      28.370  15.548  33.057  1.00  0.00    -0.457 OA
BRANCH   8   9
ATOM      9  C   UNL     1      27.287  15.060  33.805  1.00  0.00     0.138 A 
ATOM     10  C   UNL     1      23.558  14.283  31.959  1.00  0.00     0.133 A 
ATOM     11  C   UNL     1      24.632  14.780  31.187  1.00  0.00     0.082 A 
ATOM     12  C   UNL     1      23.737  14.085  33.342  1.00  0.00     0.076 A 
ATOM     13  C   UNL     1      25.873  15.029  31.797  1.00  0.00     0.032 A 
ATOM     14  C   UNL     1      24.968  14.349  33.947  1.00  0.00     0.078 A 
ATOM     15  C   UNL     1      26.050  14.820  33.175  1.00  0.00     0.044 A 
ATOM     16  N   UNL     1      25.122  14.144  35.283  1.00  0.00    -0.256 NA
ATOM     17  C   UNL     1      26.302  14.383  35.912  1.00  0.00     0.115 A 
ATOM     18  C   UNL     1      27.400  14.848  35.189  1.00  0.00     0.068 A 
BRANCH  10  19
ATOM     19  O   UNL     1      22.345  13.968  31.325  1.00  0.00    -0.496 OA
ATOM     20  C   UNL     1      21.058  14.126  31.911  1.00  0.00     0.278 C 
ENDBRANCH  10  19
BRANCH  11  21
ATOM     21  C   UNL     1      24.490  15.017  29.731  1.00  0.00     0.252 C 
ATOM     22  N   UNL     1      23.576  15.992  29.225  1.00  0.00    -0.365 N 
ATOM     23  O   UNL     1      25.208  14.371  28.922  1.00  0.00    -0.269 OA
ATOM     24  H   UNL     1      23.439  16.096  28.195  1.00  0.00     0.159 HD
ATOM     25  H   UNL     1      23.100  16.668  29.861  1.00  0.00     0.159 HD
ENDBRANCH  11  21
ENDBRANCH   8   9
ENDBRANCH   1   8
BRANCH   4  26
ATOM     26  N   UNL     1      28.734  20.837  31.076  1.00  0.00    -0.307 N 
ATOM     27  C   UNL     1      27.604  21.660  30.750  1.00  0.00     0.319 C 
ATOM     28  H   UNL     1      29.685  21.228  30.895  1.00  0.00     0.171 HD
ATOM     29  O   UNL     1      26.445  21.163  30.701  1.00  0.00    -0.248 OA
ATOM     30  N   UNL     1      27.800  23.046  30.443  1.00  0.00    -0.335 N 
ATOM     31  H   UNL     1      28.772  23.427  30.413  1.00  0.00     0.165 HD
BRANCH  30  32
ATOM     32  C   UNL     1      26.692  23.904  30.036  1.00  0.00     0.084 C 
ATOM     33  C   UNL     1      26.749  25.304  30.621  1.00  0.00     0.027 C 
ATOM     34  C   UNL     1      25.772  24.284  31.185  1.00  0.00     0.027 C 
ENDBRANCH  30  32
ENDBRANCH   4  26
TORSDOF 6
ENDMDL
