MODEL 1
REMARK VINA RESULT:    -8.488      0.000      0.000
REMARK INTER + INTRA:         -15.054
REMARK INTER:                 -13.451
REMARK INTRA:                  -1.603
REMARK UNBOUND:                -1.603
REMARK SMILES COC(=O)N[C@@H](C)CNc1nccc(-c2cn(C(C)C)nc2-c2cc(Cl)cc(NS(C)(=O)=O)c2F)n1
REMARK SMILES IDX 10 1 11 2 12 3 13 4 14 5 36 6 9 7 8 9 6 10 7 11 5 12 3 13
REMARK SMILES IDX 4 14 2 16 1 17 15 18 16 19 22 20 17 21 21 22 23 23 24 24
REMARK SMILES IDX 34 25 25 26 28 27 35 28 26 29 27 30 29 31 30 33 31 34 32 35
REMARK SMILES IDX 33 36 18 37 19 38 20 39
REMARK H PARENT 9 8 5 15 29 32
REMARK Flexibility Score: inf
ROOT
ATOM      1  C   UNL     1      27.990   8.686   9.686  1.00  0.00     0.223 A 
ATOM      2  N   UNL     1      27.665   9.846   9.049  1.00  0.00    -0.222 NA
ATOM      3  C   UNL     1      28.579  10.505   8.287  1.00  0.00     0.117 A 
ATOM      4  C   UNL     1      29.873   9.997   8.150  1.00  0.00     0.049 A 
ATOM      5  C   UNL     1      30.192   8.789   8.799  1.00  0.00     0.080 A 
ATOM      6  N   UNL     1      29.236   8.170   9.544  1.00  0.00    -0.213 NA
ENDROOT
BRANCH   1   7
ATOM      7  N   UNL     1      27.033   8.006  10.507  1.00  0.00    -0.352 N 
ATOM      8  H   UNL     1      27.295   7.776  11.494  1.00  0.00     0.163 HD
BRANCH   7   9
ATOM      9  C   UNL     1      25.716   7.600  10.019  1.00  0.00     0.140 C 
BRANCH   9  10
ATOM     10  C   UNL     1      24.623   8.545  10.553  1.00  0.00     0.101 C 
ATOM     11  C   UNL     1      23.244   8.155  10.001  1.00  0.00     0.033 C 
BRANCH  10  12
ATOM     12  N   UNL     1      24.943   9.929  10.187  1.00  0.00    -0.317 N 
ATOM     13  C   UNL     1      24.486  11.057  10.953  1.00  0.00     0.407 C 
ATOM     14  O   UNL     1      23.764  10.892  11.978  1.00  0.00    -0.225 OA
ATOM     15  H   UNL     1      25.491  10.121   9.320  1.00  0.00     0.167 HD
BRANCH  13  16
ATOM     16  O   UNL     1      24.855  12.340  10.552  1.00  0.00    -0.453 OA
ATOM     17  C   UNL     1      26.081  12.942  10.932  1.00  0.00     0.284 C 
ENDBRANCH  13  16
ENDBRANCH  10  12
ENDBRANCH   9  10
ENDBRANCH   7   9
ENDBRANCH   1   7
BRANCH   5  18
ATOM     18  C   UNL     1      31.535   8.168   8.676  1.00  0.00     0.047 A 
ATOM     19  C   UNL     1      31.842   6.817   8.590  1.00  0.00     0.120 A 
ATOM     20  C   UNL     1      32.778   8.803   8.725  1.00  0.00     0.105 A 
ATOM     21  N   UNL     1      33.185   6.688   8.584  1.00  0.00    -0.269 N 
ATOM     22  N   UNL     1      33.758   7.882   8.683  1.00  0.00    -0.172 NA
BRANCH  20  23
ATOM     23  C   UNL     1      33.040  10.245   8.883  1.00  0.00     0.042 A 
ATOM     24  C   UNL     1      33.665  10.965   7.855  1.00  0.00     0.034 A 
ATOM     25  C   UNL     1      32.628  10.909  10.049  1.00  0.00     0.156 A 
ATOM     26  C   UNL     1      33.846  12.343   7.978  1.00  0.00     0.044 A 
ATOM     27  C   UNL     1      32.805  12.299  10.181  1.00  0.00     0.086 A 
ATOM     28  F   UNL     1      32.030  10.204  11.044  1.00  0.00    -0.204 F 
ATOM     29  Cl  UNL     1      34.575  13.245   6.662  1.00  0.00    -0.084 Cl
ATOM     30  C   UNL     1      33.416  13.009   9.129  1.00  0.00     0.050 A 
BRANCH  27  31
ATOM     31  N   UNL     1      32.333  12.963  11.371  1.00  0.00    -0.281 N 
ATOM     32  H   UNL     1      32.948  12.994  12.217  1.00  0.00     0.180 HD
BRANCH  31  33
ATOM     33  S   UNL     1      30.817  13.804  11.495  1.00  0.00     0.229 S 
ATOM     34  C   UNL     1      30.711  15.078  10.259  1.00  0.00     0.183 C 
ATOM     35  O   UNL     1      29.675  12.837  11.360  1.00  0.00    -0.207 OA
ATOM     36  O   UNL     1      30.738  14.450  12.848  1.00  0.00    -0.207 OA
ENDBRANCH  31  33
ENDBRANCH  27  31
ENDBRANCH  20  23
BRANCH  21  37
ATOM     37  C   UNL     1      33.921   5.420   8.536  1.00  0.00     0.101 C 
ATOM     38  C   UNL     1      34.832   5.387   7.307  1.00  0.00     0.033 C 
ATOM     39  C   UNL     1      32.945   4.238   8.531  1.00  0.00     0.033 C 
ENDBRANCH  21  37
ENDBRANCH   5  18
TORSDOF 10
ENDMDL
MODEL 2
REMARK VINA RESULT:    -8.262      1.979      2.098
REMARK INTER + INTRA:         -14.695
REMARK INTER:                 -13.655
REMARK INTRA:                  -1.041
REMARK UNBOUND:                -1.603
REMARK SMILES COC(=O)N[C@@H](C)CNc1nccc(-c2cn(C(C)C)nc2-c2cc(Cl)cc(NS(C)(=O)=O)c2F)n1
REMARK SMILES IDX 10 1 11 2 12 3 13 4 14 5 36 6 9 7 8 9 6 10 7 11 5 12 3 13
REMARK SMILES IDX 4 14 2 16 1 17 15 18 16 19 22 20 17 21 21 22 23 23 24 24
REMARK SMILES IDX 34 25 25 26 28 27 35 28 26 29 27 30 29 31 30 33 31 34 32 35
REMARK SMILES IDX 33 36 18 37 19 38 20 39
REMARK H PARENT 9 8 5 15 29 32
REMARK Flexibility Score: inf
ROOT
ATOM      1  C   UNL     1      28.007   8.704  10.459  1.00  0.00     0.223 A 
ATOM      2  N   UNL     1      27.872   9.957  10.974  1.00  0.00    -0.222 NA
ATOM      3  C   UNL     1      28.902  10.845  10.937  1.00  0.00     0.117 A 
ATOM      4  C   UNL     1      30.123  10.475  10.368  1.00  0.00     0.049 A 
ATOM      5  C   UNL     1      30.247   9.183   9.824  1.00  0.00     0.080 A 
ATOM      6  N   UNL     1      29.181   8.339   9.884  1.00  0.00    -0.213 NA
ENDROOT
BRANCH   1   7
ATOM      7  N   UNL     1      26.929   7.762  10.520  1.00  0.00    -0.352 N 
ATOM      8  H   UNL     1      27.009   6.951  11.177  1.00  0.00     0.163 HD
BRANCH   7   9
ATOM      9  C   UNL     1      25.731   7.875   9.689  1.00  0.00     0.140 C 
BRANCH   9  10
ATOM     10  C   UNL     1      24.590   8.556  10.468  1.00  0.00     0.101 C 
ATOM     11  C   UNL     1      23.225   8.197   9.864  1.00  0.00     0.033 C 
BRANCH  10  12
ATOM     12  N   UNL     1      24.783  10.010  10.458  1.00  0.00    -0.317 N 
ATOM     13  C   UNL     1      23.978  10.902  11.248  1.00  0.00     0.407 C 
ATOM     14  O   UNL     1      23.046  10.457  11.978  1.00  0.00    -0.225 OA
ATOM     15  H   UNL     1      25.504  10.431   9.832  1.00  0.00     0.167 HD
BRANCH  13  16
ATOM     16  O   UNL     1      24.242  12.270  11.202  1.00  0.00    -0.453 OA
ATOM     17  C   UNL     1      25.496  12.798  10.803  1.00  0.00     0.284 C 
ENDBRANCH  13  16
ENDBRANCH  10  12
ENDBRANCH   9  10
ENDBRANCH   7   9
ENDBRANCH   1   7
BRANCH   5  18
ATOM     18  C   UNL     1      31.501   8.727   9.173  1.00  0.00     0.047 A 
ATOM     19  C   UNL     1      31.883   7.424   8.887  1.00  0.00     0.120 A 
ATOM     20  C   UNL     1      32.604   9.501   8.805  1.00  0.00     0.105 A 
ATOM     21  N   UNL     1      33.133   7.452   8.379  1.00  0.00    -0.269 N 
ATOM     22  N   UNL     1      33.582   8.702   8.342  1.00  0.00    -0.172 NA
BRANCH  20  23
ATOM     23  C   UNL     1      32.763  10.958   8.955  1.00  0.00     0.042 A 
ATOM     24  C   UNL     1      32.428  11.817   7.899  1.00  0.00     0.034 A 
ATOM     25  C   UNL     1      33.216  11.493  10.172  1.00  0.00     0.156 A 
ATOM     26  C   UNL     1      32.510  13.199   8.069  1.00  0.00     0.044 A 
ATOM     27  C   UNL     1      33.302  12.886  10.353  1.00  0.00     0.086 A 
ATOM     28  F   UNL     1      33.547  10.654  11.188  1.00  0.00    -0.204 F 
ATOM     29  Cl  UNL     1      32.032  14.266   6.763  1.00  0.00    -0.084 Cl
ATOM     30  C   UNL     1      32.940  13.733   9.288  1.00  0.00     0.050 A 
BRANCH  27  31
ATOM     31  N   UNL     1      33.728  13.409  11.627  1.00  0.00    -0.281 N 
ATOM     32  H   UNL     1      33.243  13.090  12.498  1.00  0.00     0.180 HD
BRANCH  31  33
ATOM     33  S   UNL     1      35.064  14.499  11.850  1.00  0.00     0.229 S 
ATOM     34  C   UNL     1      34.508  16.186  11.766  1.00  0.00     0.183 C 
ATOM     35  O   UNL     1      35.741  14.228  13.163  1.00  0.00    -0.207 OA
ATOM     36  O   UNL     1      36.055  14.272  10.746  1.00  0.00    -0.207 OA
ENDBRANCH  31  33
ENDBRANCH  27  31
ENDBRANCH  20  23
BRANCH  21  37
ATOM     37  C   UNL     1      33.918   6.280   7.975  1.00  0.00     0.101 C 
ATOM     38  C   UNL     1      34.361   6.420   6.517  1.00  0.00     0.033 C 
ATOM     39  C   UNL     1      33.106   4.997   8.184  1.00  0.00     0.033 C 
ENDBRANCH  21  37
ENDBRANCH   5  18
TORSDOF 10
ENDMDL
MODEL 3
REMARK VINA RESULT:    -8.251      3.847      8.010
REMARK INTER + INTRA:         -14.677
REMARK INTER:                 -13.992
REMARK INTRA:                  -0.685
REMARK UNBOUND:                -1.603
REMARK SMILES COC(=O)N[C@@H](C)CNc1nccc(-c2cn(C(C)C)nc2-c2cc(Cl)cc(NS(C)(=O)=O)c2F)n1
REMARK SMILES IDX 10 1 11 2 12 3 13 4 14 5 36 6 9 7 8 9 6 10 7 11 5 12 3 13
REMARK SMILES IDX 4 14 2 16 1 17 15 18 16 19 22 20 17 21 21 22 23 23 24 24
REMARK SMILES IDX 34 25 25 26 28 27 35 28 26 29 27 30 29 31 30 33 31 34 32 35
REMARK SMILES IDX 33 36 18 37 19 38 20 39
REMARK H PARENT 9 8 5 15 29 32
REMARK Flexibility Score: inf
ROOT
ATOM      1  C   UNL     1      29.880   8.812   9.314  1.00  0.00     0.223 A 
ATOM      2  N   UNL     1      30.208   9.389   8.124  1.00  0.00    -0.222 NA
ATOM      3  C   UNL     1      29.341  10.221   7.487  1.00  0.00     0.117 A 
ATOM      4  C   UNL     1      28.092  10.495   8.051  1.00  0.00     0.049 A 
ATOM      5  C   UNL     1      27.771   9.907   9.288  1.00  0.00     0.080 A 
ATOM      6  N   UNL     1      28.680   9.087   9.883  1.00  0.00    -0.213 NA
ENDROOT
BRANCH   1   7
ATOM      7  N   UNL     1      30.785   7.917   9.971  1.00  0.00    -0.352 N 
ATOM      8  H   UNL     1      30.990   8.068  10.986  1.00  0.00     0.163 HD
BRANCH   7   9
ATOM      9  C   UNL     1      31.450   6.814   9.279  1.00  0.00     0.140 C 
BRANCH   9  10
ATOM     10  C   UNL     1      32.967   7.065   9.187  1.00  0.00     0.101 C 
ATOM     11  C   UNL     1      33.288   8.554   9.384  1.00  0.00     0.033 C 
BRANCH  10  12
ATOM     12  N   UNL     1      33.467   6.606   7.887  1.00  0.00    -0.317 N 
ATOM     13  C   UNL     1      33.875   5.248   7.650  1.00  0.00     0.407 C 
ATOM     14  O   UNL     1      33.834   4.390   8.579  1.00  0.00    -0.225 OA
ATOM     15  H   UNL     1      33.571   7.288   7.103  1.00  0.00     0.167 HD
BRANCH  13  16
ATOM     16  O   UNL     1      34.315   4.886   6.378  1.00  0.00    -0.453 OA
ATOM     17  C   UNL     1      35.301   3.891   6.159  1.00  0.00     0.284 C 
ENDBRANCH  13  16
ENDBRANCH  10  12
ENDBRANCH   9  10
ENDBRANCH   7   9
ENDBRANCH   1   7
BRANCH   5  18
ATOM     18  C   UNL     1      26.478  10.174   9.967  1.00  0.00     0.047 A 
ATOM     19  C   UNL     1      25.354   9.360  10.002  1.00  0.00     0.120 A 
ATOM     20  C   UNL     1      26.082  11.340  10.626  1.00  0.00     0.105 A 
ATOM     21  N   UNL     1      24.372  10.023  10.649  1.00  0.00    -0.269 N 
ATOM     22  N   UNL     1      24.799  11.227  11.014  1.00  0.00    -0.172 NA
BRANCH  20  23
ATOM     23  C   UNL     1      26.873  12.568  10.822  1.00  0.00     0.042 A 
ATOM     24  C   UNL     1      28.262  12.493  10.993  1.00  0.00     0.034 A 
ATOM     25  C   UNL     1      26.239  13.821  10.798  1.00  0.00     0.156 A 
ATOM     26  C   UNL     1      29.016  13.661  11.105  1.00  0.00     0.044 A 
ATOM     27  C   UNL     1      26.993  15.005  10.909  1.00  0.00     0.086 A 
ATOM     28  F   UNL     1      24.892  13.886  10.639  1.00  0.00    -0.204 F 
ATOM     29  Cl  UNL     1      30.760  13.559  11.259  1.00  0.00    -0.084 Cl
ATOM     30  C   UNL     1      28.389  14.910  11.059  1.00  0.00     0.050 A 
BRANCH  27  31
ATOM     31  N   UNL     1      26.322  16.280  10.837  1.00  0.00    -0.281 N 
ATOM     32  H   UNL     1      26.256  16.771   9.916  1.00  0.00     0.180 HD
BRANCH  31  33
ATOM     33  S   UNL     1      25.528  17.054  12.176  1.00  0.00     0.229 S 
ATOM     34  C   UNL     1      24.912  18.651  11.692  1.00  0.00     0.183 C 
ATOM     35  O   UNL     1      24.413  16.188  12.689  1.00  0.00    -0.207 OA
ATOM     36  O   UNL     1      26.529  17.247  13.278  1.00  0.00    -0.207 OA
ENDBRANCH  31  33
ENDBRANCH  27  31
ENDBRANCH  20  23
BRANCH  21  37
ATOM     37  C   UNL     1      23.011   9.526  10.875  1.00  0.00     0.101 C 
ATOM     38  C   UNL     1      22.532   9.919  12.274  1.00  0.00     0.033 C 
ATOM     39  C   UNL     1      22.959   8.006  10.681  1.00  0.00     0.033 C 
ENDBRANCH  21  37
ENDBRANCH   5  18
TORSDOF 10
ENDMDL
MODEL 4
REMARK VINA RESULT:    -8.159      3.422      7.656
REMARK INTER + INTRA:         -14.532
REMARK INTER:                 -14.014
REMARK INTRA:                  -0.518
REMARK UNBOUND:                -1.603
REMARK SMILES COC(=O)N[C@@H](C)CNc1nccc(-c2cn(C(C)C)nc2-c2cc(Cl)cc(NS(C)(=O)=O)c2F)n1
REMARK SMILES IDX 10 1 11 2 12 3 13 4 14 5 36 6 9 7 8 9 6 10 7 11 5 12 3 13
REMARK SMILES IDX 4 14 2 16 1 17 15 18 16 19 22 20 17 21 21 22 23 23 24 24
REMARK SMILES IDX 34 25 25 26 28 27 35 28 26 29 27 30 29 31 30 33 31 34 32 35
REMARK SMILES IDX 33 36 18 37 19 38 20 39
REMARK H PARENT 9 8 5 15 29 32
REMARK Flexibility Score: inf
ROOT
ATOM      1  C   UNL     1      30.243  10.014   8.284  1.00  0.00     0.223 A 
ATOM      2  N   UNL     1      30.839   8.863   8.704  1.00  0.00    -0.222 NA
ATOM      3  C   UNL     1      30.211   8.027   9.574  1.00  0.00     0.117 A 
ATOM      4  C   UNL     1      28.936   8.342  10.051  1.00  0.00     0.049 A 
ATOM      5  C   UNL     1      28.323   9.525   9.597  1.00  0.00     0.080 A 
ATOM      6  N   UNL     1      28.997  10.322   8.723  1.00  0.00    -0.213 NA
ENDROOT
BRANCH   1   7
ATOM      7  N   UNL     1      30.916  10.906   7.388  1.00  0.00    -0.352 N 
ATOM      8  H   UNL     1      30.752  10.800   6.359  1.00  0.00     0.163 HD
BRANCH   7   9
ATOM      9  C   UNL     1      31.838  11.944   7.846  1.00  0.00     0.140 C 
BRANCH   9  10
ATOM     10  C   UNL     1      33.123  11.316   8.419  1.00  0.00     0.101 C 
ATOM     11  C   UNL     1      34.201  12.386   8.644  1.00  0.00     0.033 C 
BRANCH  10  12
ATOM     12  N   UNL     1      33.618  10.281   7.505  1.00  0.00    -0.317 N 
ATOM     13  C   UNL     1      34.252   9.078   7.970  1.00  0.00     0.407 C 
ATOM     14  O   UNL     1      34.425   8.875   9.207  1.00  0.00    -0.225 OA
ATOM     15  H   UNL     1      33.548  10.426   6.474  1.00  0.00     0.167 HD
BRANCH  13  16
ATOM     16  O   UNL     1      34.672   8.131   7.038  1.00  0.00    -0.453 OA
ATOM     17  C   UNL     1      34.167   6.807   7.004  1.00  0.00     0.284 C 
ENDBRANCH  13  16
ENDBRANCH  10  12
ENDBRANCH   9  10
ENDBRANCH   7   9
ENDBRANCH   1   7
BRANCH   5  18
ATOM     18  C   UNL     1      26.958   9.914  10.033  1.00  0.00     0.047 A 
ATOM     19  C   UNL     1      25.798   9.154   9.972  1.00  0.00     0.120 A 
ATOM     20  C   UNL     1      26.533  11.159  10.503  1.00  0.00     0.105 A 
ATOM     21  N   UNL     1      24.768   9.920  10.387  1.00  0.00    -0.269 N 
ATOM     22  N   UNL     1      25.201  11.138  10.693  1.00  0.00    -0.172 NA
BRANCH  20  23
ATOM     23  C   UNL     1      27.351  12.368  10.698  1.00  0.00     0.042 A 
ATOM     24  C   UNL     1      28.735  12.259  10.891  1.00  0.00     0.034 A 
ATOM     25  C   UNL     1      26.751  13.637  10.651  1.00  0.00     0.156 A 
ATOM     26  C   UNL     1      29.518  13.409  11.002  1.00  0.00     0.044 A 
ATOM     27  C   UNL     1      27.533  14.802  10.761  1.00  0.00     0.086 A 
ATOM     28  F   UNL     1      25.408  13.734  10.471  1.00  0.00    -0.204 F 
ATOM     29  Cl  UNL     1      31.256  13.264  11.185  1.00  0.00    -0.084 Cl
ATOM     30  C   UNL     1      28.924  14.673  10.934  1.00  0.00     0.050 A 
BRANCH  27  31
ATOM     31  N   UNL     1      26.897  16.093  10.666  1.00  0.00    -0.281 N 
ATOM     32  H   UNL     1      26.829  16.561   9.733  1.00  0.00     0.180 HD
BRANCH  31  33
ATOM     33  S   UNL     1      26.148  16.924  11.996  1.00  0.00     0.229 S 
ATOM     34  C   UNL     1      25.437  18.459  11.447  1.00  0.00     0.183 C 
ATOM     35  O   UNL     1      25.102  16.051  12.630  1.00  0.00    -0.207 OA
ATOM     36  O   UNL     1      27.200  17.231  13.022  1.00  0.00    -0.207 OA
ENDBRANCH  31  33
ENDBRANCH  27  31
ENDBRANCH  20  23
BRANCH  21  37
ATOM     37  C   UNL     1      23.363   9.505  10.443  1.00  0.00     0.101 C 
ATOM     38  C   UNL     1      22.688  10.097  11.683  1.00  0.00     0.033 C 
ATOM     39  C   UNL     1      23.258   7.976  10.436  1.00  0.00     0.033 C 
ENDBRANCH  21  37
ENDBRANCH   5  18
TORSDOF 10
ENDMDL
MODEL 5
REMARK VINA RESULT:    -8.121      3.244      5.394
REMARK INTER + INTRA:         -14.472
REMARK INTER:                 -13.004
REMARK INTRA:                  -1.468
REMARK UNBOUND:                -1.603
REMARK SMILES COC(=O)N[C@@H](C)CNc1nccc(-c2cn(C(C)C)nc2-c2cc(Cl)cc(NS(C)(=O)=O)c2F)n1
REMARK SMILES IDX 10 1 11 2 12 3 13 4 14 5 36 6 9 7 8 9 6 10 7 11 5 12 3 13
REMARK SMILES IDX 4 14 2 16 1 17 15 18 16 19 22 20 17 21 21 22 23 23 24 24
REMARK SMILES IDX 34 25 25 26 28 27 35 28 26 29 27 30 29 31 30 33 31 34 32 35
REMARK SMILES IDX 33 36 18 37 19 38 20 39
REMARK H PARENT 9 8 5 15 29 32
REMARK Flexibility Score: inf
ROOT
ATOM      1  C   UNL     1      27.918   9.432   9.749  1.00  0.00     0.223 A 
ATOM      2  N   UNL     1      28.723   8.351   9.548  1.00  0.00    -0.222 NA
ATOM      3  C   UNL     1      30.074   8.453   9.663  1.00  0.00     0.117 A 
ATOM      4  C   UNL     1      30.657   9.680   9.991  1.00  0.00     0.049 A 
ATOM      5  C   UNL     1      29.816  10.786  10.212  1.00  0.00     0.080 A 
ATOM      6  N   UNL     1      28.470  10.624  10.088  1.00  0.00    -0.213 NA
ENDROOT
BRANCH   1   7
ATOM      7  N   UNL     1      26.497   9.329   9.602  1.00  0.00    -0.352 N 
ATOM      8  H   UNL     1      26.008  10.006   8.972  1.00  0.00     0.163 HD
BRANCH   7   9
ATOM      9  C   UNL     1      25.698   8.331  10.313  1.00  0.00     0.140 C 
BRANCH   9  10
ATOM     10  C   UNL     1      24.289   8.876  10.614  1.00  0.00     0.101 C 
ATOM     11  C   UNL     1      23.259   8.306   9.628  1.00  0.00     0.033 C 
BRANCH  10  12
ATOM     12  N   UNL     1      24.300  10.341  10.545  1.00  0.00    -0.317 N 
ATOM     13  C   UNL     1      23.503  11.163  11.415  1.00  0.00     0.407 C 
ATOM     14  O   UNL     1      22.736  10.639  12.274  1.00  0.00    -0.225 OA
ATOM     15  H   UNL     1      24.876  10.820   9.818  1.00  0.00     0.167 HD
BRANCH  13  16
ATOM     16  O   UNL     1      23.590  12.549  11.302  1.00  0.00    -0.453 OA
ATOM     17  C   UNL     1      24.812  13.256  11.430  1.00  0.00     0.284 C 
ENDBRANCH  13  16
ENDBRANCH  10  12
ENDBRANCH   9  10
ENDBRANCH   7   9
ENDBRANCH   1   7
BRANCH   5  18
ATOM     18  C   UNL     1      30.357  12.115  10.594  1.00  0.00     0.047 A 
ATOM     19  C   UNL     1      29.758  13.077  11.394  1.00  0.00     0.120 A 
ATOM     20  C   UNL     1      31.535  12.718  10.148  1.00  0.00     0.105 A 
ATOM     21  N   UNL     1      30.552  14.169  11.409  1.00  0.00    -0.269 N 
ATOM     22  N   UNL     1      31.619  13.966  10.644  1.00  0.00    -0.172 NA
BRANCH  20  23
ATOM     23  C   UNL     1      32.527  12.160   9.213  1.00  0.00     0.042 A 
ATOM     24  C   UNL     1      33.606  11.407   9.696  1.00  0.00     0.034 A 
ATOM     25  C   UNL     1      32.372  12.348   7.830  1.00  0.00     0.156 A 
ATOM     26  C   UNL     1      34.503  10.818   8.804  1.00  0.00     0.044 A 
ATOM     27  C   UNL     1      33.271  11.757   6.922  1.00  0.00     0.086 A 
ATOM     28  F   UNL     1      31.328  13.085   7.369  1.00  0.00    -0.204 F 
ATOM     29  Cl  UNL     1      35.815   9.828   9.415  1.00  0.00    -0.084 Cl
ATOM     30  C   UNL     1      34.336  10.986   7.426  1.00  0.00     0.050 A 
BRANCH  27  31
ATOM     31  N   UNL     1      33.063  11.930   5.506  1.00  0.00    -0.281 N 
ATOM     32  H   UNL     1      32.669  11.138   4.948  1.00  0.00     0.180 HD
BRANCH  31  33
ATOM     33  S   UNL     1      33.351  13.409   4.640  1.00  0.00     0.229 S 
ATOM     34  C   UNL     1      34.284  14.543   5.642  1.00  0.00     0.183 C 
ATOM     35  O   UNL     1      34.069  13.124   3.351  1.00  0.00    -0.207 OA
ATOM     36  O   UNL     1      32.027  14.041   4.319  1.00  0.00    -0.207 OA
ENDBRANCH  31  33
ENDBRANCH  27  31
ENDBRANCH  20  23
BRANCH  21  37
ATOM     37  C   UNL     1      30.266  15.424  12.111  1.00  0.00     0.101 C 
ATOM     38  C   UNL     1      30.908  16.599  11.371  1.00  0.00     0.033 C 
ATOM     39  C   UNL     1      30.762  15.348  13.560  1.00  0.00     0.033 C 
ENDBRANCH  21  37
ENDBRANCH   5  18
TORSDOF 10
ENDMDL
MODEL 6
REMARK VINA RESULT:    -7.981      1.523      2.647
REMARK INTER + INTRA:         -14.250
REMARK INTER:                 -12.737
REMARK INTRA:                  -1.513
REMARK UNBOUND:                -1.603
REMARK SMILES COC(=O)N[C@@H](C)CNc1nccc(-c2cn(C(C)C)nc2-c2cc(Cl)cc(NS(C)(=O)=O)c2F)n1
REMARK SMILES IDX 10 1 11 2 12 3 13 4 14 5 36 6 9 7 8 9 6 10 7 11 5 12 3 13
REMARK SMILES IDX 4 14 2 16 1 17 15 18 16 19 22 20 17 21 21 22 23 23 24 24
REMARK SMILES IDX 34 25 25 26 28 27 35 28 26 29 27 30 29 31 30 33 31 34 32 35
REMARK SMILES IDX 33 36 18 37 19 38 20 39
REMARK H PARENT 9 8 5 15 29 32
REMARK Flexibility Score: inf
ROOT
ATOM      1  C   UNL     1      28.178  10.679   9.596  1.00  0.00     0.223 A 
ATOM      2  N   UNL     1      27.342   9.807  10.225  1.00  0.00    -0.222 NA
ATOM      3  C   UNL     1      27.709   8.514  10.436  1.00  0.00     0.117 A 
ATOM      4  C   UNL     1      28.959   8.063  10.005  1.00  0.00     0.049 A 
ATOM      5  C   UNL     1      29.821   8.977   9.372  1.00  0.00     0.080 A 
ATOM      6  N   UNL     1      29.403  10.260   9.192  1.00  0.00    -0.213 NA
ENDROOT
BRANCH   1   7
ATOM      7  N   UNL     1      27.780  12.034   9.353  1.00  0.00    -0.352 N 
ATOM      8  H   UNL     1      27.497  12.306   8.382  1.00  0.00     0.163 HD
BRANCH   7   9
ATOM      9  C   UNL     1      27.772  13.058  10.397  1.00  0.00     0.140 C 
BRANCH   9  10
ATOM     10  C   UNL     1      26.424  13.801  10.420  1.00  0.00     0.101 C 
ATOM     11  C   UNL     1      26.623  15.286  10.758  1.00  0.00     0.033 C 
BRANCH  10  12
ATOM     12  N   UNL     1      25.529  13.174  11.398  1.00  0.00    -0.317 N 
ATOM     13  C   UNL     1      24.663  12.077  11.063  1.00  0.00     0.407 C 
ATOM     14  O   UNL     1      24.628  11.618   9.885  1.00  0.00    -0.225 OA
ATOM     15  H   UNL     1      25.480  13.551  12.371  1.00  0.00     0.167 HD
BRANCH  13  16
ATOM     16  O   UNL     1      23.861  11.520  12.057  1.00  0.00    -0.453 OA
ATOM     17  C   UNL     1      22.835  10.581  11.782  1.00  0.00     0.284 C 
ENDBRANCH  13  16
ENDBRANCH  10  12
ENDBRANCH   9  10
ENDBRANCH   7   9
ENDBRANCH   1   7
BRANCH   5  18
ATOM     18  C   UNL     1      31.177   8.583   8.914  1.00  0.00     0.047 A 
ATOM     19  C   UNL     1      31.667   7.299   8.718  1.00  0.00     0.120 A 
ATOM     20  C   UNL     1      32.277   9.413   8.682  1.00  0.00     0.105 A 
ATOM     21  N   UNL     1      32.972   7.390   8.388  1.00  0.00    -0.269 N 
ATOM     22  N   UNL     1      33.353   8.663   8.381  1.00  0.00    -0.172 NA
BRANCH  20  23
ATOM     23  C   UNL     1      32.333  10.879   8.814  1.00  0.00     0.042 A 
ATOM     24  C   UNL     1      32.275  11.693   7.675  1.00  0.00     0.034 A 
ATOM     25  C   UNL     1      32.407  11.466  10.088  1.00  0.00     0.156 A 
ATOM     26  C   UNL     1      32.255  13.081   7.808  1.00  0.00     0.044 A 
ATOM     27  C   UNL     1      32.386  12.867  10.232  1.00  0.00     0.086 A 
ATOM     28  F   UNL     1      32.470  10.672  11.188  1.00  0.00    -0.204 F 
ATOM     29  Cl  UNL     1      32.122  14.090   6.380  1.00  0.00    -0.084 Cl
ATOM     30  C   UNL     1      32.305  13.667   9.076  1.00  0.00     0.050 A 
BRANCH  27  31
ATOM     31  N   UNL     1      32.418  13.443  11.553  1.00  0.00    -0.281 N 
ATOM     32  H   UNL     1      33.039  13.017  12.281  1.00  0.00     0.180 HD
BRANCH  31  33
ATOM     33  S   UNL     1      31.544  14.867  12.030  1.00  0.00     0.229 S 
ATOM     34  C   UNL     1      32.620  16.283  12.034  1.00  0.00     0.183 C 
ATOM     35  O   UNL     1      30.376  15.091  11.111  1.00  0.00    -0.207 OA
ATOM     36  O   UNL     1      31.023  14.665  13.423  1.00  0.00    -0.207 OA
ENDBRANCH  31  33
ENDBRANCH  27  31
ENDBRANCH  20  23
BRANCH  21  37
ATOM     37  C   UNL     1      33.869   6.259   8.128  1.00  0.00     0.101 C 
ATOM     38  C   UNL     1      34.445   6.358   6.714  1.00  0.00     0.033 C 
ATOM     39  C   UNL     1      33.127   4.934   8.330  1.00  0.00     0.033 C 
ENDBRANCH  21  37
ENDBRANCH   5  18
TORSDOF 10
ENDMDL
MODEL 7
REMARK VINA RESULT:    -7.975      3.057      5.423
REMARK INTER + INTRA:         -14.241
REMARK INTER:                 -13.224
REMARK INTRA:                  -1.017
REMARK UNBOUND:                -1.603
REMARK SMILES COC(=O)N[C@@H](C)CNc1nccc(-c2cn(C(C)C)nc2-c2cc(Cl)cc(NS(C)(=O)=O)c2F)n1
REMARK SMILES IDX 10 1 11 2 12 3 13 4 14 5 36 6 9 7 8 9 6 10 7 11 5 12 3 13
REMARK SMILES IDX 4 14 2 16 1 17 15 18 16 19 22 20 17 21 21 22 23 23 24 24
REMARK SMILES IDX 34 25 25 26 28 27 35 28 26 29 27 30 29 31 30 33 31 34 32 35
REMARK SMILES IDX 33 36 18 37 19 38 20 39
REMARK H PARENT 9 8 5 15 29 32
REMARK Flexibility Score: inf
ROOT
ATOM      1  C   UNL     1      27.961   9.605   9.609  1.00  0.00     0.223 A 
ATOM      2  N   UNL     1      28.710   8.525   9.250  1.00  0.00    -0.222 NA
ATOM      3  C   UNL     1      30.069   8.572   9.289  1.00  0.00     0.117 A 
ATOM      4  C   UNL     1      30.717   9.739   9.700  1.00  0.00     0.049 A 
ATOM      5  C   UNL     1      29.934  10.843  10.085  1.00  0.00     0.080 A 
ATOM      6  N   UNL     1      28.578  10.738  10.031  1.00  0.00    -0.213 NA
ENDROOT
BRANCH   1   7
ATOM      7  N   UNL     1      26.531   9.562   9.544  1.00  0.00    -0.352 N 
ATOM      8  H   UNL     1      26.023  10.382   9.137  1.00  0.00     0.163 HD
BRANCH   7   9
ATOM      9  C   UNL     1      25.748   8.431  10.042  1.00  0.00     0.140 C 
BRANCH   9  10
ATOM     10  C   UNL     1      24.376   8.904  10.557  1.00  0.00     0.101 C 
ATOM     11  C   UNL     1      23.241   8.321   9.703  1.00  0.00     0.033 C 
BRANCH  10  12
ATOM     12  N   UNL     1      24.320  10.370  10.543  1.00  0.00    -0.317 N 
ATOM     13  C   UNL     1      23.457  11.119  11.415  1.00  0.00     0.407 C 
ATOM     14  O   UNL     1      22.687  10.528  12.226  1.00  0.00    -0.225 OA
ATOM     15  H   UNL     1      24.896  10.903   9.855  1.00  0.00     0.167 HD
BRANCH  13  16
ATOM     16  O   UNL     1      23.481  12.512  11.357  1.00  0.00    -0.453 OA
ATOM     17  C   UNL     1      24.665  13.269  11.549  1.00  0.00     0.284 C 
ENDBRANCH  13  16
ENDBRANCH  10  12
ENDBRANCH   9  10
ENDBRANCH   7   9
ENDBRANCH   1   7
BRANCH   5  18
ATOM     18  C   UNL     1      30.547  12.107  10.563  1.00  0.00     0.047 A 
ATOM     19  C   UNL     1      29.929  13.146  11.246  1.00  0.00     0.120 A 
ATOM     20  C   UNL     1      31.848  12.565  10.340  1.00  0.00     0.105 A 
ATOM     21  N   UNL     1      30.828  14.140  11.407  1.00  0.00    -0.269 N 
ATOM     22  N   UNL     1      31.984  13.803  10.847  1.00  0.00    -0.172 NA
BRANCH  20  23
ATOM     23  C   UNL     1      32.921  11.881   9.597  1.00  0.00     0.042 A 
ATOM     24  C   UNL     1      33.024  12.031   8.208  1.00  0.00     0.034 A 
ATOM     25  C   UNL     1      33.867  11.106  10.287  1.00  0.00     0.156 A 
ATOM     26  C   UNL     1      34.083  11.441   7.518  1.00  0.00     0.044 A 
ATOM     27  C   UNL     1      34.940  10.508   9.599  1.00  0.00     0.086 A 
ATOM     28  F   UNL     1      33.758  10.959  11.633  1.00  0.00    -0.204 F 
ATOM     29  Cl  UNL     1      34.237  11.683   5.788  1.00  0.00    -0.084 Cl
ATOM     30  C   UNL     1      35.039  10.688   8.207  1.00  0.00     0.050 A 
BRANCH  27  31
ATOM     31  N   UNL     1      35.923   9.755  10.339  1.00  0.00    -0.281 N 
ATOM     32  H   UNL     1      35.605   9.103  11.093  1.00  0.00     0.180 HD
BRANCH  31  33
ATOM     33  S   UNL     1      37.632   9.785  10.022  1.00  0.00     0.229 S 
ATOM     34  C   UNL     1      37.992   8.970   8.483  1.00  0.00     0.183 C 
ATOM     35  O   UNL     1      38.131  11.202  10.002  1.00  0.00    -0.207 OA
ATOM     36  O   UNL     1      38.335   9.047  11.124  1.00  0.00    -0.207 OA
ENDBRANCH  31  33
ENDBRANCH  27  31
ENDBRANCH  20  23
BRANCH  21  37
ATOM     37  C   UNL     1      30.567  15.431  12.051  1.00  0.00     0.101 C 
ATOM     38  C   UNL     1      30.883  15.347  13.547  1.00  0.00     0.033 C 
ATOM     39  C   UNL     1      29.114  15.859  11.818  1.00  0.00     0.033 C 
ENDBRANCH  21  37
ENDBRANCH   5  18
TORSDOF 10
ENDMDL
MODEL 8
REMARK VINA RESULT:    -7.947      3.704      5.967
REMARK INTER + INTRA:         -14.196
REMARK INTER:                 -12.566
REMARK INTRA:                  -1.630
REMARK UNBOUND:                -1.603
REMARK SMILES COC(=O)N[C@@H](C)CNc1nccc(-c2cn(C(C)C)nc2-c2cc(Cl)cc(NS(C)(=O)=O)c2F)n1
REMARK SMILES IDX 10 1 11 2 12 3 13 4 14 5 36 6 9 7 8 9 6 10 7 11 5 12 3 13
REMARK SMILES IDX 4 14 2 16 1 17 15 18 16 19 22 20 17 21 21 22 23 23 24 24
REMARK SMILES IDX 34 25 25 26 28 27 35 28 26 29 27 30 29 31 30 33 31 34 32 35
REMARK SMILES IDX 33 36 18 37 19 38 20 39
REMARK H PARENT 9 8 5 15 29 32
REMARK Flexibility Score: inf
ROOT
ATOM      1  C   UNL     1      27.780  11.220   9.841  1.00  0.00     0.223 A 
ATOM      2  N   UNL     1      28.124   9.916  10.030  1.00  0.00    -0.222 NA
ATOM      3  C   UNL     1      29.361   9.576  10.481  1.00  0.00     0.117 A 
ATOM      4  C   UNL     1      30.302  10.570  10.757  1.00  0.00     0.049 A 
ATOM      5  C   UNL     1      29.932  11.915  10.575  1.00  0.00     0.080 A 
ATOM      6  N   UNL     1      28.678  12.197  10.125  1.00  0.00    -0.213 NA
ENDROOT
BRANCH   1   7
ATOM      7  N   UNL     1      26.486  11.575   9.342  1.00  0.00    -0.352 N 
ATOM      8  H   UNL     1      26.314  11.523   8.311  1.00  0.00     0.163 HD
BRANCH   7   9
ATOM      9  C   UNL     1      25.399  12.030  10.209  1.00  0.00     0.140 C 
BRANCH   9  10
ATOM     10  C   UNL     1      24.412  10.882  10.491  1.00  0.00     0.101 C 
ATOM     11  C   UNL     1      23.655  11.122  11.806  1.00  0.00     0.033 C 
BRANCH  10  12
ATOM     12  N   UNL     1      25.137   9.608  10.550  1.00  0.00    -0.317 N 
ATOM     13  C   UNL     1      24.538   8.359  10.165  1.00  0.00     0.407 C 
ATOM     14  O   UNL     1      23.337   8.312   9.774  1.00  0.00    -0.225 OA
ATOM     15  H   UNL     1      26.114   9.586  10.916  1.00  0.00     0.167 HD
BRANCH  13  16
ATOM     16  O   UNL     1      25.304   7.196  10.225  1.00  0.00    -0.453 OA
ATOM     17  C   UNL     1      26.455   6.989   9.423  1.00  0.00     0.284 C 
ENDBRANCH  13  16
ENDBRANCH  10  12
ENDBRANCH   9  10
ENDBRANCH   7   9
ENDBRANCH   1   7
BRANCH   5  18
ATOM     18  C   UNL     1      30.865  13.030  10.876  1.00  0.00     0.047 A 
ATOM     19  C   UNL     1      30.657  14.104  11.731  1.00  0.00     0.120 A 
ATOM     20  C   UNL     1      32.105  13.290  10.288  1.00  0.00     0.105 A 
ATOM     21  N   UNL     1      31.721  14.928  11.640  1.00  0.00    -0.269 N 
ATOM     22  N   UNL     1      32.593  14.452  10.757  1.00  0.00    -0.172 NA
BRANCH  20  23
ATOM     23  C   UNL     1      32.785  12.497   9.249  1.00  0.00     0.042 A 
ATOM     24  C   UNL     1      33.688  11.488   9.609  1.00  0.00     0.034 A 
ATOM     25  C   UNL     1      32.499  12.726   7.893  1.00  0.00     0.156 A 
ATOM     26  C   UNL     1      34.274  10.691   8.625  1.00  0.00     0.044 A 
ATOM     27  C   UNL     1      33.085  11.925   6.894  1.00  0.00     0.086 A 
ATOM     28  F   UNL     1      31.628  13.710   7.550  1.00  0.00    -0.204 F 
ATOM     29  Cl  UNL     1      35.357   9.392   9.089  1.00  0.00    -0.084 Cl
ATOM     30  C   UNL     1      33.973  10.902   7.277  1.00  0.00     0.050 A 
BRANCH  27  31
ATOM     31  N   UNL     1      32.740  12.153   5.512  1.00  0.00    -0.281 N 
ATOM     32  H   UNL     1      32.166  11.440   5.005  1.00  0.00     0.180 HD
BRANCH  31  33
ATOM     33  S   UNL     1      33.147  13.586   4.617  1.00  0.00     0.229 S 
ATOM     34  C   UNL     1      34.198  13.180   3.241  1.00  0.00     0.183 C 
ATOM     35  O   UNL     1      31.897  14.274   4.144  1.00  0.00    -0.207 OA
ATOM     36  O   UNL     1      33.893  14.521   5.523  1.00  0.00    -0.207 OA
ENDBRANCH  31  33
ENDBRANCH  27  31
ENDBRANCH  20  23
BRANCH  21  37
ATOM     37  C   UNL     1      31.883  16.197  12.358  1.00  0.00     0.101 C 
ATOM     38  C   UNL     1      30.513  16.795  12.684  1.00  0.00     0.033 C 
ATOM     39  C   UNL     1      32.728  17.172  11.531  1.00  0.00     0.033 C 
ENDBRANCH  21  37
ENDBRANCH   5  18
TORSDOF 10
ENDMDL
MODEL 9
REMARK VINA RESULT:    -7.905      2.673      3.668
REMARK INTER + INTRA:         -14.130
REMARK INTER:                 -11.809
REMARK INTRA:                  -2.321
REMARK UNBOUND:                -1.603
REMARK SMILES COC(=O)N[C@@H](C)CNc1nccc(-c2cn(C(C)C)nc2-c2cc(Cl)cc(NS(C)(=O)=O)c2F)n1
REMARK SMILES IDX 10 1 11 2 12 3 13 4 14 5 36 6 9 7 8 9 6 10 7 11 5 12 3 13
REMARK SMILES IDX 4 14 2 16 1 17 15 18 16 19 22 20 17 21 21 22 23 23 24 24
REMARK SMILES IDX 34 25 25 26 28 27 35 28 26 29 27 30 29 31 30 33 31 34 32 35
REMARK SMILES IDX 33 36 18 37 19 38 20 39
REMARK H PARENT 9 8 5 15 29 32
REMARK Flexibility Score: inf
ROOT
ATOM      1  C   UNL     1      31.369   9.317   9.349  1.00  0.00     0.223 A 
ATOM      2  N   UNL     1      30.853  10.173   8.424  1.00  0.00    -0.222 NA
ATOM      3  C   UNL     1      31.640  11.095   7.806  1.00  0.00     0.117 A 
ATOM      4  C   UNL     1      33.000  11.174   8.118  1.00  0.00     0.049 A 
ATOM      5  C   UNL     1      33.526  10.274   9.063  1.00  0.00     0.080 A 
ATOM      6  N   UNL     1      32.692   9.370   9.646  1.00  0.00    -0.213 NA
ENDROOT
BRANCH   1   7
ATOM      7  N   UNL     1      30.533   8.364  10.016  1.00  0.00    -0.352 N 
ATOM      8  H   UNL     1      30.880   7.927  10.902  1.00  0.00     0.163 HD
BRANCH   7   9
ATOM      9  C   UNL     1      29.226   7.959   9.502  1.00  0.00     0.140 C 
BRANCH   9  10
ATOM     10  C   UNL     1      28.096   8.692  10.250  1.00  0.00     0.101 C 
ATOM     11  C   UNL     1      26.775   7.916  10.140  1.00  0.00     0.033 C 
BRANCH  10  12
ATOM     12  N   UNL     1      27.937  10.044   9.705  1.00  0.00    -0.317 N 
ATOM     13  C   UNL     1      28.214  11.226  10.475  1.00  0.00     0.407 C 
ATOM     14  O   UNL     1      28.594  11.138  11.678  1.00  0.00    -0.225 OA
ATOM     15  H   UNL     1      27.575  10.171   8.734  1.00  0.00     0.167 HD
BRANCH  13  16
ATOM     16  O   UNL     1      28.063  12.475   9.875  1.00  0.00    -0.453 OA
ATOM     17  C   UNL     1      27.377  13.549  10.497  1.00  0.00     0.284 C 
ENDBRANCH  13  16
ENDBRANCH  10  12
ENDBRANCH   9  10
ENDBRANCH   7   9
ENDBRANCH   1   7
BRANCH   5  18
ATOM     18  C   UNL     1      34.966  10.275   9.425  1.00  0.00     0.047 A 
ATOM     19  C   UNL     1      35.836   9.193   9.450  1.00  0.00     0.120 A 
ATOM     20  C   UNL     1      35.724  11.341   9.913  1.00  0.00     0.105 A 
ATOM     21  N   UNL     1      37.026   9.619   9.922  1.00  0.00    -0.269 N 
ATOM     22  N   UNL     1      36.962  10.912  10.221  1.00  0.00    -0.172 NA
BRANCH  20  23
ATOM     23  C   UNL     1      35.272  12.722  10.157  1.00  0.00     0.042 A 
ATOM     24  C   UNL     1      35.634  13.749   9.275  1.00  0.00     0.034 A 
ATOM     25  C   UNL     1      34.443  13.005  11.254  1.00  0.00     0.156 A 
ATOM     26  C   UNL     1      35.144  15.041   9.467  1.00  0.00     0.044 A 
ATOM     27  C   UNL     1      33.942  14.306  11.456  1.00  0.00     0.086 A 
ATOM     28  F   UNL     1      34.101  12.006  12.109  1.00  0.00    -0.204 F 
ATOM     29  Cl  UNL     1      35.555  16.307   8.325  1.00  0.00    -0.084 Cl
ATOM     30  C   UNL     1      34.300  15.319  10.546  1.00  0.00     0.050 A 
BRANCH  27  31
ATOM     31  N   UNL     1      33.057  14.559  12.565  1.00  0.00    -0.281 N 
ATOM     32  H   UNL     1      33.461  14.682  13.523  1.00  0.00     0.180 HD
BRANCH  31  33
ATOM     33  S   UNL     1      31.336  14.757  12.429  1.00  0.00     0.229 S 
ATOM     34  C   UNL     1      30.952  16.215  11.485  1.00  0.00     0.183 C 
ATOM     35  O   UNL     1      30.722  13.539  11.798  1.00  0.00    -0.207 OA
ATOM     36  O   UNL     1      30.763  14.921  13.807  1.00  0.00    -0.207 OA
ENDBRANCH  31  33
ENDBRANCH  27  31
ENDBRANCH  20  23
BRANCH  21  37
ATOM     37  C   UNL     1      38.210   8.780  10.136  1.00  0.00     0.101 C 
ATOM     38  C   UNL     1      38.226   7.626   9.131  1.00  0.00     0.033 C 
ATOM     39  C   UNL     1      38.238   8.257  11.576  1.00  0.00     0.033 C 
ENDBRANCH  21  37
ENDBRANCH   5  18
TORSDOF 10
ENDMDL
MODEL 10
REMARK VINA RESULT:    -7.865      4.475      8.129
REMARK INTER + INTRA:         -14.065
REMARK INTER:                 -12.439
REMARK INTRA:                  -1.626
REMARK UNBOUND:                -1.603
REMARK SMILES COC(=O)N[C@@H](C)CNc1nccc(-c2cn(C(C)C)nc2-c2cc(Cl)cc(NS(C)(=O)=O)c2F)n1
REMARK SMILES IDX 10 1 11 2 12 3 13 4 14 5 36 6 9 7 8 9 6 10 7 11 5 12 3 13
REMARK SMILES IDX 4 14 2 16 1 17 15 18 16 19 22 20 17 21 21 22 23 23 24 24
REMARK SMILES IDX 34 25 25 26 28 27 35 28 26 29 27 30 29 31 30 33 31 34 32 35
REMARK SMILES IDX 33 36 18 37 19 38 20 39
REMARK H PARENT 9 8 5 15 29 32
REMARK Flexibility Score: inf
ROOT
ATOM      1  C   UNL     1      31.264  12.814  10.774  1.00  0.00     0.223 A 
ATOM      2  N   UNL     1      31.761  13.886  11.450  1.00  0.00    -0.222 NA
ATOM      3  C   UNL     1      30.932  14.815  11.998  1.00  0.00     0.117 A 
ATOM      4  C   UNL     1      29.548  14.678  11.869  1.00  0.00     0.049 A 
ATOM      5  C   UNL     1      29.044  13.557  11.183  1.00  0.00     0.080 A 
ATOM      6  N   UNL     1      29.921  12.657  10.660  1.00  0.00    -0.213 NA
ENDROOT
BRANCH   1   7
ATOM      7  N   UNL     1      32.139  11.850  10.176  1.00  0.00    -0.352 N 
ATOM      8  H   UNL     1      32.630  12.102   9.287  1.00  0.00     0.163 HD
BRANCH   7   9
ATOM      9  C   UNL     1      32.360  10.520  10.745  1.00  0.00     0.140 C 
BRANCH   9  10
ATOM     10  C   UNL     1      32.021   9.426   9.716  1.00  0.00     0.101 C 
ATOM     11  C   UNL     1      33.115   9.327   8.642  1.00  0.00     0.033 C 
BRANCH  10  12
ATOM     12  N   UNL     1      30.725   9.714   9.095  1.00  0.00    -0.317 N 
ATOM     13  C   UNL     1      29.559   8.904   9.324  1.00  0.00     0.407 C 
ATOM     14  O   UNL     1      29.619   7.884  10.069  1.00  0.00    -0.225 OA
ATOM     15  H   UNL     1      30.636  10.514   8.429  1.00  0.00     0.167 HD
BRANCH  13  16
ATOM     16  O   UNL     1      28.357   9.261   8.715  1.00  0.00    -0.453 OA
ATOM     17  C   UNL     1      28.162  10.508   8.070  1.00  0.00     0.284 C 
ENDBRANCH  13  16
ENDBRANCH  10  12
ENDBRANCH   9  10
ENDBRANCH   7   9
ENDBRANCH   1   7
BRANCH   5  18
ATOM     18  C   UNL     1      27.585  13.325  11.031  1.00  0.00     0.047 A 
ATOM     19  C   UNL     1      26.919  12.108  10.993  1.00  0.00     0.120 A 
ATOM     20  C   UNL     1      26.588  14.274  10.794  1.00  0.00     0.105 A 
ATOM     21  N   UNL     1      25.613  12.349  10.751  1.00  0.00    -0.269 N 
ATOM     22  N   UNL     1      25.408  13.654  10.613  1.00  0.00    -0.172 NA
BRANCH  20  23
ATOM     23  C   UNL     1      26.755  15.733  10.666  1.00  0.00     0.042 A 
ATOM     24  C   UNL     1      27.520  16.267   9.620  1.00  0.00     0.034 A 
ATOM     25  C   UNL     1      26.114  16.594  11.572  1.00  0.00     0.156 A 
ATOM     26  C   UNL     1      27.615  17.649   9.460  1.00  0.00     0.044 A 
ATOM     27  C   UNL     1      26.204  17.990  11.417  1.00  0.00     0.086 A 
ATOM     28  F   UNL     1      25.380  16.070  12.588  1.00  0.00    -0.204 F 
ATOM     29  Cl  UNL     1      28.526  18.307   8.113  1.00  0.00    -0.084 Cl
ATOM     30  C   UNL     1      26.959  18.507  10.347  1.00  0.00     0.050 A 
BRANCH  27  31
ATOM     31  N   UNL     1      25.500  18.851  12.335  1.00  0.00    -0.281 N 
ATOM     32  H   UNL     1      25.790  18.872  13.340  1.00  0.00     0.180 HD
BRANCH  31  33
ATOM     33  S   UNL     1      24.224  19.941  11.883  1.00  0.00     0.229 S 
ATOM     34  C   UNL     1      24.874  21.571  11.593  1.00  0.00     0.183 C 
ATOM     35  O   UNL     1      23.512  19.429  10.663  1.00  0.00    -0.207 OA
ATOM     36  O   UNL     1      23.239  20.019  13.013  1.00  0.00    -0.207 OA
ENDBRANCH  31  33
ENDBRANCH  27  31
ENDBRANCH  20  23
BRANCH  21  37
ATOM     37  C   UNL     1      24.570  11.329  10.602  1.00  0.00     0.101 C 
ATOM     38  C   UNL     1      23.683  11.297  11.849  1.00  0.00     0.033 C 
ATOM     39  C   UNL     1      25.200   9.957  10.339  1.00  0.00     0.033 C 
ENDBRANCH  21  37
ENDBRANCH   5  18
TORSDOF 10
ENDMDL
MODEL 11
REMARK VINA RESULT:    -7.846      5.024      9.124
REMARK INTER + INTRA:         -14.036
REMARK INTER:                 -12.926
REMARK INTRA:                  -1.110
REMARK UNBOUND:                -1.603
REMARK SMILES COC(=O)N[C@@H](C)CNc1nccc(-c2cn(C(C)C)nc2-c2cc(Cl)cc(NS(C)(=O)=O)c2F)n1
REMARK SMILES IDX 10 1 11 2 12 3 13 4 14 5 36 6 9 7 8 9 6 10 7 11 5 12 3 13
REMARK SMILES IDX 4 14 2 16 1 17 15 18 16 19 22 20 17 21 21 22 23 23 24 24
REMARK SMILES IDX 34 25 25 26 28 27 35 28 26 29 27 30 29 31 30 33 31 34 32 35
REMARK SMILES IDX 33 36 18 37 19 38 20 39
REMARK H PARENT 9 8 5 15 29 32
REMARK Flexibility Score: inf
ROOT
ATOM      1  C   UNL     1      30.639  13.930  11.545  1.00  0.00     0.223 A 
ATOM      2  N   UNL     1      31.371  13.346  10.556  1.00  0.00    -0.222 NA
ATOM      3  C   UNL     1      30.779  12.561   9.616  1.00  0.00     0.117 A 
ATOM      4  C   UNL     1      29.400  12.343   9.656  1.00  0.00     0.049 A 
ATOM      5  C   UNL     1      28.650  12.964  10.672  1.00  0.00     0.080 A 
ATOM      6  N   UNL     1      29.295  13.743  11.583  1.00  0.00    -0.213 NA
ENDROOT
BRANCH   1   7
ATOM      7  N   UNL     1      31.268  14.735  12.549  1.00  0.00    -0.352 N 
ATOM      8  H   UNL     1      31.264  14.395  13.539  1.00  0.00     0.163 HD
BRANCH   7   9
ATOM      9  C   UNL     1      31.896  16.022  12.253  1.00  0.00     0.140 C 
BRANCH   9  10
ATOM     10  C   UNL     1      33.430  15.888  12.235  1.00  0.00     0.101 C 
ATOM     11  C   UNL     1      34.078  17.105  11.558  1.00  0.00     0.033 C 
BRANCH  10  12
ATOM     12  N   UNL     1      33.811  14.657  11.534  1.00  0.00    -0.317 N 
ATOM     13  C   UNL     1      34.868  13.799  11.997  1.00  0.00     0.407 C 
ATOM     14  O   UNL     1      35.531  14.092  13.034  1.00  0.00    -0.225 OA
ATOM     15  H   UNL     1      33.330  14.398  10.645  1.00  0.00     0.167 HD
BRANCH  13  16
ATOM     16  O   UNL     1      35.151  12.633  11.289  1.00  0.00    -0.453 OA
ATOM     17  C   UNL     1      34.402  11.438  11.441  1.00  0.00     0.284 C 
ENDBRANCH  13  16
ENDBRANCH  10  12
ENDBRANCH   9  10
ENDBRANCH   7   9
ENDBRANCH   1   7
BRANCH   5  18
ATOM     18  C   UNL     1      27.177  12.807  10.763  1.00  0.00     0.047 A 
ATOM     19  C   UNL     1      26.444  11.629  10.707  1.00  0.00     0.120 A 
ATOM     20  C   UNL     1      26.211  13.814  10.823  1.00  0.00     0.105 A 
ATOM     21  N   UNL     1      25.132  11.946  10.737  1.00  0.00    -0.269 N 
ATOM     22  N   UNL     1      24.983  13.265  10.789  1.00  0.00    -0.172 NA
BRANCH  20  23
ATOM     23  C   UNL     1      26.437  15.270  10.835  1.00  0.00     0.042 A 
ATOM     24  C   UNL     1      27.353  15.849   9.947  1.00  0.00     0.034 A 
ATOM     25  C   UNL     1      25.706  16.086  11.714  1.00  0.00     0.156 A 
ATOM     26  C   UNL     1      27.511  17.235   9.911  1.00  0.00     0.044 A 
ATOM     27  C   UNL     1      25.858  17.485  11.684  1.00  0.00     0.086 A 
ATOM     28  F   UNL     1      24.825  15.517  12.578  1.00  0.00    -0.204 F 
ATOM     29  Cl  UNL     1      28.616  17.955   8.755  1.00  0.00    -0.084 Cl
ATOM     30  C   UNL     1      26.767  18.050  10.769  1.00  0.00     0.050 A 
BRANCH  27  31
ATOM     31  N   UNL     1      25.062  18.302  12.566  1.00  0.00    -0.281 N 
ATOM     32  H   UNL     1      25.033  18.073  13.587  1.00  0.00     0.180 HD
BRANCH  31  33
ATOM     33  S   UNL     1      24.183  19.718  12.074  1.00  0.00     0.229 S 
ATOM     34  C   UNL     1      25.264  21.129  12.013  1.00  0.00     0.183 C 
ATOM     35  O   UNL     1      23.535  19.488  10.738  1.00  0.00    -0.207 OA
ATOM     36  O   UNL     1      23.108  19.989  13.085  1.00  0.00    -0.207 OA
ENDBRANCH  31  33
ENDBRANCH  27  31
ENDBRANCH  20  23
BRANCH  21  37
ATOM     37  C   UNL     1      24.021  10.991  10.664  1.00  0.00     0.101 C 
ATOM     38  C   UNL     1      23.194  11.048  11.951  1.00  0.00     0.033 C 
ATOM     39  C   UNL     1      24.551   9.576  10.411  1.00  0.00     0.033 C 
ENDBRANCH  21  37
ENDBRANCH   5  18
TORSDOF 10
ENDMDL
MODEL 12
REMARK VINA RESULT:    -7.735      3.456      6.160
REMARK INTER + INTRA:         -13.859
REMARK INTER:                 -12.617
REMARK INTRA:                  -1.243
REMARK UNBOUND:                -1.603
REMARK SMILES COC(=O)N[C@@H](C)CNc1nccc(-c2cn(C(C)C)nc2-c2cc(Cl)cc(NS(C)(=O)=O)c2F)n1
REMARK SMILES IDX 10 1 11 2 12 3 13 4 14 5 36 6 9 7 8 9 6 10 7 11 5 12 3 13
REMARK SMILES IDX 4 14 2 16 1 17 15 18 16 19 22 20 17 21 21 22 23 23 24 24
REMARK SMILES IDX 34 25 25 26 28 27 35 28 26 29 27 30 29 31 30 33 31 34 32 35
REMARK SMILES IDX 33 36 18 37 19 38 20 39
REMARK H PARENT 9 8 5 15 29 32
REMARK Flexibility Score: inf
ROOT
ATOM      1  C   UNL     1      27.823  11.810  10.997  1.00  0.00     0.223 A 
ATOM      2  N   UNL     1      28.152  10.579  10.516  1.00  0.00    -0.222 NA
ATOM      3  C   UNL     1      29.441  10.265  10.218  1.00  0.00     0.117 A 
ATOM      4  C   UNL     1      30.452  11.211  10.403  1.00  0.00     0.049 A 
ATOM      5  C   UNL     1      30.104  12.474  10.917  1.00  0.00     0.080 A 
ATOM      6  N   UNL     1      28.798  12.731  11.202  1.00  0.00    -0.213 NA
ENDROOT
BRANCH   1   7
ATOM      7  N   UNL     1      26.461  12.147  11.287  1.00  0.00    -0.352 N 
ATOM      8  H   UNL     1      26.202  12.380  12.274  1.00  0.00     0.163 HD
BRANCH   7   9
ATOM      9  C   UNL     1      25.413  12.158  10.267  1.00  0.00     0.140 C 
BRANCH   9  10
ATOM     10  C   UNL     1      24.465  10.958  10.449  1.00  0.00     0.101 C 
ATOM     11  C   UNL     1      23.624  11.114  11.725  1.00  0.00     0.033 C 
BRANCH  10  12
ATOM     12  N   UNL     1      25.242   9.716  10.502  1.00  0.00    -0.317 N 
ATOM     13  C   UNL     1      24.695   8.443  10.115  1.00  0.00     0.407 C 
ATOM     14  O   UNL     1      23.495   8.348   9.727  1.00  0.00    -0.225 OA
ATOM     15  H   UNL     1      26.220   9.733  10.866  1.00  0.00     0.167 HD
BRANCH  13  16
ATOM     16  O   UNL     1      25.507   7.313  10.171  1.00  0.00    -0.453 OA
ATOM     17  C   UNL     1      26.661   7.154   9.362  1.00  0.00     0.284 C 
ENDBRANCH  13  16
ENDBRANCH  10  12
ENDBRANCH   9  10
ENDBRANCH   7   9
ENDBRANCH   1   7
BRANCH   5  18
ATOM     18  C   UNL     1      31.124  13.522  11.171  1.00  0.00     0.047 A 
ATOM     19  C   UNL     1      30.962  14.716  11.861  1.00  0.00     0.120 A 
ATOM     20  C   UNL     1      32.432  13.579  10.684  1.00  0.00     0.105 A 
ATOM     21  N   UNL     1      32.114  15.412  11.777  1.00  0.00    -0.269 N 
ATOM     22  N   UNL     1      33.002  14.740  11.053  1.00  0.00    -0.172 NA
BRANCH  20  23
ATOM     23  C   UNL     1      33.109  12.592   9.824  1.00  0.00     0.042 A 
ATOM     24  C   UNL     1      32.972  12.658   8.431  1.00  0.00     0.034 A 
ATOM     25  C   UNL     1      33.925  11.604  10.399  1.00  0.00     0.156 A 
ATOM     26  C   UNL     1      33.672  11.767   7.617  1.00  0.00     0.044 A 
ATOM     27  C   UNL     1      34.636  10.701   9.585  1.00  0.00     0.086 A 
ATOM     28  F   UNL     1      34.047  11.540  11.750  1.00  0.00    -0.204 F 
ATOM     29  Cl  UNL     1      33.542  11.896   5.873  1.00  0.00    -0.084 Cl
ATOM     30  C   UNL     1      34.503  10.798   8.187  1.00  0.00     0.050 A 
BRANCH  27  31
ATOM     31  N   UNL     1      35.502   9.725  10.200  1.00  0.00    -0.281 N 
ATOM     32  H   UNL     1      35.078   8.935  10.739  1.00  0.00     0.180 HD
BRANCH  31  33
ATOM     33  S   UNL     1      37.233   9.711  10.052  1.00  0.00     0.229 S 
ATOM     34  C   UNL     1      37.721   8.888   8.553  1.00  0.00     0.183 C 
ATOM     35  O   UNL     1      37.769  11.114  10.086  1.00  0.00    -0.207 OA
ATOM     36  O   UNL     1      37.806   8.953  11.215  1.00  0.00    -0.207 OA
ENDBRANCH  31  33
ENDBRANCH  27  31
ENDBRANCH  20  23
BRANCH  21  37
ATOM     37  C   UNL     1      32.352  16.743  12.346  1.00  0.00     0.101 C 
ATOM     38  C   UNL     1      31.472  16.953  13.580  1.00  0.00     0.033 C 
ATOM     39  C   UNL     1      32.091  17.826  11.293  1.00  0.00     0.033 C 
ENDBRANCH  21  37
ENDBRANCH   5  18
TORSDOF 10
ENDMDL
MODEL 13
REMARK VINA RESULT:    -7.718      3.389      6.967
REMARK INTER + INTRA:         -13.833
REMARK INTER:                 -11.300
REMARK INTRA:                  -2.533
REMARK UNBOUND:                -1.603
REMARK SMILES COC(=O)N[C@@H](C)CNc1nccc(-c2cn(C(C)C)nc2-c2cc(Cl)cc(NS(C)(=O)=O)c2F)n1
REMARK SMILES IDX 10 1 11 2 12 3 13 4 14 5 36 6 9 7 8 9 6 10 7 11 5 12 3 13
REMARK SMILES IDX 4 14 2 16 1 17 15 18 16 19 22 20 17 21 21 22 23 23 24 24
REMARK SMILES IDX 34 25 25 26 28 27 35 28 26 29 27 30 29 31 30 33 31 34 32 35
REMARK SMILES IDX 33 36 18 37 19 38 20 39
REMARK H PARENT 9 8 5 15 29 32
REMARK Flexibility Score: inf
ROOT
ATOM      1  C   UNL     1      29.045  10.909  11.158  1.00  0.00     0.223 A 
ATOM      2  N   UNL     1      27.827  11.237  10.646  1.00  0.00    -0.222 NA
ATOM      3  C   UNL     1      27.485  12.536  10.428  1.00  0.00     0.117 A 
ATOM      4  C   UNL     1      28.389  13.556  10.733  1.00  0.00     0.049 A 
ATOM      5  C   UNL     1      29.652  13.205  11.246  1.00  0.00     0.080 A 
ATOM      6  N   UNL     1      29.940  11.889  11.438  1.00  0.00    -0.213 NA
ENDROOT
BRANCH   1   7
ATOM      7  N   UNL     1      29.393   9.542  11.410  1.00  0.00    -0.352 N 
ATOM      8  H   UNL     1      30.199   9.339  12.047  1.00  0.00     0.163 HD
BRANCH   7   9
ATOM      9  C   UNL     1      28.685   8.418  10.798  1.00  0.00     0.140 C 
BRANCH   9  10
ATOM     10  C   UNL     1      29.137   8.220   9.339  1.00  0.00     0.101 C 
ATOM     11  C   UNL     1      28.009   7.607   8.495  1.00  0.00     0.033 C 
BRANCH  10  12
ATOM     12  N   UNL     1      30.324   7.359   9.301  1.00  0.00    -0.317 N 
ATOM     13  C   UNL     1      31.662   7.884   9.319  1.00  0.00     0.407 C 
ATOM     14  O   UNL     1      31.865   9.132   9.349  1.00  0.00    -0.225 OA
ATOM     15  H   UNL     1      30.209   6.324   9.221  1.00  0.00     0.167 HD
BRANCH  13  16
ATOM     16  O   UNL     1      32.737   6.997   9.306  1.00  0.00    -0.453 OA
ATOM     17  C   UNL     1      32.802   5.881   8.434  1.00  0.00     0.284 C 
ENDBRANCH  13  16
ENDBRANCH  10  12
ENDBRANCH   9  10
ENDBRANCH   7   9
ENDBRANCH   1   7
BRANCH   5  18
ATOM     18  C   UNL     1      30.678  14.229  11.565  1.00  0.00     0.047 A 
ATOM     19  C   UNL     1      30.608  15.232  12.522  1.00  0.00     0.120 A 
ATOM     20  C   UNL     1      31.885  14.466  10.902  1.00  0.00     0.105 A 
ATOM     21  N   UNL     1      31.716  15.995  12.416  1.00  0.00    -0.269 N 
ATOM     22  N   UNL     1      32.484  15.550  11.428  1.00  0.00    -0.172 NA
BRANCH  20  23
ATOM     23  C   UNL     1      32.429  13.731   9.747  1.00  0.00     0.042 A 
ATOM     24  C   UNL     1      32.151  14.161   8.442  1.00  0.00     0.034 A 
ATOM     25  C   UNL     1      33.261  12.618   9.952  1.00  0.00     0.156 A 
ATOM     26  C   UNL     1      32.727  13.507   7.353  1.00  0.00     0.044 A 
ATOM     27  C   UNL     1      33.848  11.953   8.859  1.00  0.00     0.086 A 
ATOM     28  F   UNL     1      33.521  12.202  11.219  1.00  0.00    -0.204 F 
ATOM     29  Cl  UNL     1      32.421  14.089   5.727  1.00  0.00    -0.084 Cl
ATOM     30  C   UNL     1      33.574  12.413   7.557  1.00  0.00     0.050 A 
BRANCH  27  31
ATOM     31  N   UNL     1      34.733  10.841   9.100  1.00  0.00    -0.281 N 
ATOM     32  H   UNL     1      34.365   9.866   9.009  1.00  0.00     0.180 HD
BRANCH  31  33
ATOM     33  S   UNL     1      36.426  10.989   9.467  1.00  0.00     0.229 S 
ATOM     34  C   UNL     1      37.407  10.265   8.173  1.00  0.00     0.183 C 
ATOM     35  O   UNL     1      36.789  12.434   9.663  1.00  0.00    -0.207 OA
ATOM     36  O   UNL     1      36.705  10.249  10.743  1.00  0.00    -0.207 OA
ENDBRANCH  31  33
ENDBRANCH  27  31
ENDBRANCH  20  23
BRANCH  21  37
ATOM     37  C   UNL     1      32.017  17.182  13.224  1.00  0.00     0.101 C 
ATOM     38  C   UNL     1      30.992  17.323  14.353  1.00  0.00     0.033 C 
ATOM     39  C   UNL     1      32.042  18.435  12.342  1.00  0.00     0.033 C 
ENDBRANCH  21  37
ENDBRANCH   5  18
TORSDOF 10
ENDMDL
MODEL 14
REMARK VINA RESULT:    -7.690      3.690      6.398
REMARK INTER + INTRA:         -13.789
REMARK INTER:                 -11.970
REMARK INTRA:                  -1.819
REMARK UNBOUND:                -1.603
REMARK SMILES COC(=O)N[C@@H](C)CNc1nccc(-c2cn(C(C)C)nc2-c2cc(Cl)cc(NS(C)(=O)=O)c2F)n1
REMARK SMILES IDX 10 1 11 2 12 3 13 4 14 5 36 6 9 7 8 9 6 10 7 11 5 12 3 13
REMARK SMILES IDX 4 14 2 16 1 17 15 18 16 19 22 20 17 21 21 22 23 23 24 24
REMARK SMILES IDX 34 25 25 26 28 27 35 28 26 29 27 30 29 31 30 33 31 34 32 35
REMARK SMILES IDX 33 36 18 37 19 38 20 39
REMARK H PARENT 9 8 5 15 29 32
REMARK Flexibility Score: inf
ROOT
ATOM      1  C   UNL     1      29.007  11.097  10.735  1.00  0.00     0.223 A 
ATOM      2  N   UNL     1      27.706  11.432  10.516  1.00  0.00    -0.222 NA
ATOM      3  C   UNL     1      27.289  12.723  10.618  1.00  0.00     0.117 A 
ATOM      4  C   UNL     1      28.200  13.727  10.953  1.00  0.00     0.049 A 
ATOM      5  C   UNL     1      29.546  13.372  11.160  1.00  0.00     0.080 A 
ATOM      6  N   UNL     1      29.907  12.065  11.039  1.00  0.00    -0.213 NA
ENDROOT
BRANCH   1   7
ATOM      7  N   UNL     1      29.440   9.733  10.651  1.00  0.00    -0.352 N 
ATOM      8  H   UNL     1      30.402   9.534  10.292  1.00  0.00     0.163 HD
BRANCH   7   9
ATOM      9  C   UNL     1      28.585   8.607  11.025  1.00  0.00     0.140 C 
BRANCH   9  10
ATOM     10  C   UNL     1      27.845   8.052   9.794  1.00  0.00     0.101 C 
ATOM     11  C   UNL     1      28.669   8.270   8.516  1.00  0.00     0.033 C 
BRANCH  10  12
ATOM     12  N   UNL     1      26.536   8.702   9.670  1.00  0.00    -0.317 N 
ATOM     13  C   UNL     1      25.317   8.075  10.106  1.00  0.00     0.407 C 
ATOM     14  O   UNL     1      25.331   6.913  10.603  1.00  0.00    -0.225 OA
ATOM     15  H   UNL     1      26.464   9.640   9.217  1.00  0.00     0.167 HD
BRANCH  13  16
ATOM     16  O   UNL     1      24.116   8.770   9.976  1.00  0.00    -0.453 OA
ATOM     17  C   UNL     1      23.860   9.996  10.641  1.00  0.00     0.284 C 
ENDBRANCH  13  16
ENDBRANCH  10  12
ENDBRANCH   9  10
ENDBRANCH   7   9
ENDBRANCH   1   7
BRANCH   5  18
ATOM     18  C   UNL     1      30.579  14.386  11.487  1.00  0.00     0.047 A 
ATOM     19  C   UNL     1      30.434  15.526  12.265  1.00  0.00     0.120 A 
ATOM     20  C   UNL     1      31.887  14.462  11.001  1.00  0.00     0.105 A 
ATOM     21  N   UNL     1      31.595  16.213  12.229  1.00  0.00    -0.269 N 
ATOM     22  N   UNL     1      32.472  15.586  11.454  1.00  0.00    -0.172 NA
BRANCH  20  23
ATOM     23  C   UNL     1      32.549  13.534  10.069  1.00  0.00     0.042 A 
ATOM     24  C   UNL     1      33.485  12.605  10.543  1.00  0.00     0.034 A 
ATOM     25  C   UNL     1      32.215  13.552   8.705  1.00  0.00     0.156 A 
ATOM     26  C   UNL     1      34.055  11.679   9.670  1.00  0.00     0.044 A 
ATOM     27  C   UNL     1      32.784  12.621   7.816  1.00  0.00     0.086 A 
ATOM     28  F   UNL     1      31.312  14.460   8.250  1.00  0.00    -0.204 F 
ATOM     29  Cl  UNL     1      35.180  10.482  10.284  1.00  0.00    -0.084 Cl
ATOM     30  C   UNL     1      33.706  11.681   8.316  1.00  0.00     0.050 A 
BRANCH  27  31
ATOM     31  N   UNL     1      32.390  12.633   6.429  1.00  0.00    -0.281 N 
ATOM     32  H   UNL     1      31.553  12.081   6.132  1.00  0.00     0.180 HD
BRANCH  31  33
ATOM     33  S   UNL     1      33.166  13.574   5.191  1.00  0.00     0.229 S 
ATOM     34  C   UNL     1      33.809  15.086   5.872  1.00  0.00     0.183 C 
ATOM     35  O   UNL     1      34.262  12.776   4.543  1.00  0.00    -0.207 OA
ATOM     36  O   UNL     1      32.147  13.923   4.145  1.00  0.00    -0.207 OA
ENDBRANCH  31  33
ENDBRANCH  27  31
ENDBRANCH  20  23
BRANCH  21  37
ATOM     37  C   UNL     1      31.850  17.496  12.895  1.00  0.00     0.101 C 
ATOM     38  C   UNL     1      33.356  17.733  13.020  1.00  0.00     0.033 C 
ATOM     39  C   UNL     1      31.171  17.527  14.269  1.00  0.00     0.033 C 
ENDBRANCH  21  37
ENDBRANCH   5  18
TORSDOF 10
ENDMDL
MODEL 15
REMARK VINA RESULT:    -7.632      2.142      3.213
REMARK INTER + INTRA:         -13.697
REMARK INTER:                 -11.720
REMARK INTRA:                  -1.977
REMARK UNBOUND:                -1.603
REMARK SMILES COC(=O)N[C@@H](C)CNc1nccc(-c2cn(C(C)C)nc2-c2cc(Cl)cc(NS(C)(=O)=O)c2F)n1
REMARK SMILES IDX 10 1 11 2 12 3 13 4 14 5 36 6 9 7 8 9 6 10 7 11 5 12 3 13
REMARK SMILES IDX 4 14 2 16 1 17 15 18 16 19 22 20 17 21 21 22 23 23 24 24
REMARK SMILES IDX 34 25 25 26 28 27 35 28 26 29 27 30 29 31 30 33 31 34 32 35
REMARK SMILES IDX 33 36 18 37 19 38 20 39
REMARK H PARENT 9 8 5 15 29 32
REMARK Flexibility Score: inf
ROOT
ATOM      1  C   UNL     1      28.287  11.298   9.659  1.00  0.00     0.223 A 
ATOM      2  N   UNL     1      27.618  10.608   8.694  1.00  0.00    -0.222 NA
ATOM      3  C   UNL     1      28.290   9.891   7.753  1.00  0.00     0.117 A 
ATOM      4  C   UNL     1      29.686   9.856   7.766  1.00  0.00     0.049 A 
ATOM      5  C   UNL     1      30.367  10.558   8.778  1.00  0.00     0.080 A 
ATOM      6  N   UNL     1      29.643  11.255   9.696  1.00  0.00    -0.213 NA
ENDROOT
BRANCH   1   7
ATOM      7  N   UNL     1      27.579  12.073  10.634  1.00  0.00    -0.352 N 
ATOM      8  H   UNL     1      27.906  12.046  11.628  1.00  0.00     0.163 HD
BRANCH   7   9
ATOM      9  C   UNL     1      26.407  12.882  10.304  1.00  0.00     0.140 C 
BRANCH   9  10
ATOM     10  C   UNL     1      25.113  12.172  10.747  1.00  0.00     0.101 C 
ATOM     11  C   UNL     1      24.847  12.401  12.242  1.00  0.00     0.033 C 
BRANCH  10  12
ATOM     12  N   UNL     1      25.215  10.736  10.464  1.00  0.00    -0.317 N 
ATOM     13  C   UNL     1      24.100   9.840  10.603  1.00  0.00     0.407 C 
ATOM     14  O   UNL     1      22.976  10.263  10.998  1.00  0.00    -0.225 OA
ATOM     15  H   UNL     1      26.135  10.328  10.186  1.00  0.00     0.167 HD
BRANCH  13  16
ATOM     16  O   UNL     1      24.273   8.493  10.290  1.00  0.00    -0.453 OA
ATOM     17  C   UNL     1      25.516   7.953   9.875  1.00  0.00     0.284 C 
ENDBRANCH  13  16
ENDBRANCH  10  12
ENDBRANCH   9  10
ENDBRANCH   7   9
ENDBRANCH   1   7
BRANCH   5  18
ATOM     18  C   UNL     1      31.848  10.544   8.877  1.00  0.00     0.047 A 
ATOM     19  C   UNL     1      32.679   9.441   9.016  1.00  0.00     0.120 A 
ATOM     20  C   UNL     1      32.711  11.640   8.955  1.00  0.00     0.105 A 
ATOM     21  N   UNL     1      33.946   9.882   9.161  1.00  0.00    -0.269 N 
ATOM     22  N   UNL     1      33.971  11.210   9.142  1.00  0.00    -0.172 NA
BRANCH  20  23
ATOM     23  C   UNL     1      32.346  13.068   8.928  1.00  0.00     0.042 A 
ATOM     24  C   UNL     1      32.164  13.727   7.705  1.00  0.00     0.034 A 
ATOM     25  C   UNL     1      32.144  13.763  10.132  1.00  0.00     0.156 A 
ATOM     26  C   UNL     1      31.748  15.058   7.684  1.00  0.00     0.044 A 
ATOM     27  C   UNL     1      31.723  15.106  10.120  1.00  0.00     0.086 A 
ATOM     28  F   UNL     1      32.329  13.120  11.314  1.00  0.00    -0.204 F 
ATOM     29  Cl  UNL     1      31.464  15.857   6.148  1.00  0.00    -0.084 Cl
ATOM     30  C   UNL     1      31.524  15.744   8.881  1.00  0.00     0.050 A 
BRANCH  27  31
ATOM     31  N   UNL     1      31.479  15.782  11.370  1.00  0.00    -0.281 N 
ATOM     32  H   UNL     1      32.073  16.603  11.630  1.00  0.00     0.180 HD
BRANCH  31  33
ATOM     33  S   UNL     1      30.198  15.382  12.475  1.00  0.00     0.229 S 
ATOM     34  C   UNL     1      29.274  16.838  12.906  1.00  0.00     0.183 C 
ATOM     35  O   UNL     1      29.298  14.342  11.870  1.00  0.00    -0.207 OA
ATOM     36  O   UNL     1      30.805  14.819  13.727  1.00  0.00    -0.207 OA
ENDBRANCH  31  33
ENDBRANCH  27  31
ENDBRANCH  20  23
BRANCH  21  37
ATOM     37  C   UNL     1      35.127   9.037   9.367  1.00  0.00     0.101 C 
ATOM     38  C   UNL     1      36.375   9.907   9.528  1.00  0.00     0.033 C 
ATOM     39  C   UNL     1      35.287   8.052   8.203  1.00  0.00     0.033 C 
ENDBRANCH  21  37
ENDBRANCH   5  18
TORSDOF 10
ENDMDL
