MODEL 1
REMARK VINA RESULT:    -8.796      0.000      0.000
REMARK INTER + INTRA:         -15.047
REMARK INTER:                 -13.937
REMARK INTRA:                  -1.109
REMARK UNBOUND:                -1.109
REMARK SMILES COC(=O)N[C@@H](C)CNc1nccc(-c2cn(C(C)C)nc2-c2cc(Cl)cc(NS(C)(=O)=O)c2F)n1
REMARK SMILES IDX 10 1 11 2 12 3 13 4 14 5 36 6 9 7 8 9 6 10 7 11 5 12 3 13
REMARK SMILES IDX 4 14 2 16 1 17 15 18 16 19 22 20 17 21 21 22 23 23 24 24
REMARK SMILES IDX 34 25 25 26 28 27 35 28 26 29 27 30 29 31 30 33 31 34 32 35
REMARK SMILES IDX 33 36 18 37 19 38 20 39
REMARK H PARENT 9 8 5 15 29 32
REMARK Flexibility Score: inf
ROOT
ATOM      1  C   UNL     1      22.658  36.196 -11.522  1.00  0.00     0.223 A 
ATOM      2  N   UNL     1      21.339  36.529 -11.456  1.00  0.00    -0.222 NA
ATOM      3  C   UNL     1      20.766  36.887 -10.276  1.00  0.00     0.117 A 
ATOM      4  C   UNL     1      21.530  36.915  -9.107  1.00  0.00     0.049 A 
ATOM      5  C   UNL     1      22.896  36.585  -9.189  1.00  0.00     0.080 A 
ATOM      6  N   UNL     1      23.417  36.239 -10.398  1.00  0.00    -0.213 NA
ENDROOT
BRANCH   1   7
ATOM      7  N   UNL     1      23.255  35.795 -12.761  1.00  0.00    -0.352 N 
ATOM      8  H   UNL     1      22.740  35.116 -13.368  1.00  0.00     0.163 HD
BRANCH   7   9
ATOM      9  C   UNL     1      24.563  36.278 -13.203  1.00  0.00     0.140 C 
BRANCH   9  10
ATOM     10  C   UNL     1      24.444  37.012 -14.552  1.00  0.00     0.101 C 
ATOM     11  C   UNL     1      23.193  37.902 -14.583  1.00  0.00     0.033 C 
BRANCH  10  12
ATOM     12  N   UNL     1      24.397  36.034 -15.645  1.00  0.00    -0.317 N 
ATOM     13  C   UNL     1      25.086  36.234 -16.891  1.00  0.00     0.407 C 
ATOM     14  O   UNL     1      25.753  37.288 -17.099  1.00  0.00    -0.225 OA
ATOM     15  H   UNL     1      23.817  35.173 -15.544  1.00  0.00     0.167 HD
BRANCH  13  16
ATOM     16  O   UNL     1      25.012  35.245 -17.870  1.00  0.00    -0.453 OA
ATOM     17  C   UNL     1      23.786  34.678 -18.300  1.00  0.00     0.284 C 
ENDBRANCH  13  16
ENDBRANCH  10  12
ENDBRANCH   9  10
ENDBRANCH   7   9
ENDBRANCH   1   7
BRANCH   5  18
ATOM     18  C   UNL     1      23.781  36.622  -7.998  1.00  0.00     0.047 A 
ATOM     19  C   UNL     1      24.854  35.790  -7.711  1.00  0.00     0.120 A 
ATOM     20  C   UNL     1      23.660  37.434  -6.867  1.00  0.00     0.105 A 
ATOM     21  N   UNL     1      25.323  36.111  -6.488  1.00  0.00    -0.269 N 
ATOM     22  N   UNL     1      24.596  37.091  -5.964  1.00  0.00    -0.172 NA
BRANCH  20  23
ATOM     23  C   UNL     1      22.637  38.462  -6.611  1.00  0.00     0.042 A 
ATOM     24  C   UNL     1      21.772  38.339  -5.514  1.00  0.00     0.034 A 
ATOM     25  C   UNL     1      22.550  39.589  -7.444  1.00  0.00     0.156 A 
ATOM     26  C   UNL     1      20.854  39.350  -5.232  1.00  0.00     0.044 A 
ATOM     27  C   UNL     1      21.627  40.615  -7.165  1.00  0.00     0.086 A 
ATOM     28  F   UNL     1      23.387  39.699  -8.509  1.00  0.00    -0.204 F 
ATOM     29  Cl  UNL     1      19.817  39.215  -3.823  1.00  0.00    -0.084 Cl
ATOM     30  C   UNL     1      20.782  40.483  -6.047  1.00  0.00     0.050 A 
BRANCH  27  31
ATOM     31  N   UNL     1      21.590  41.782  -8.011  1.00  0.00    -0.281 N 
ATOM     32  H   UNL     1      22.253  42.570  -7.824  1.00  0.00     0.180 HD
BRANCH  31  33
ATOM     33  S   UNL     1      20.558  41.963  -9.398  1.00  0.00     0.229 S 
ATOM     34  C   UNL     1      18.849  41.888  -8.913  1.00  0.00     0.183 C 
ATOM     35  O   UNL     1      20.855  43.259 -10.100  1.00  0.00    -0.207 OA
ATOM     36  O   UNL     1      20.831  40.833 -10.348  1.00  0.00    -0.207 OA
ENDBRANCH  31  33
ENDBRANCH  27  31
ENDBRANCH  20  23
BRANCH  21  37
ATOM     37  C   UNL     1      26.434  35.447  -5.797  1.00  0.00     0.101 C 
ATOM     38  C   UNL     1      26.083  33.983  -5.523  1.00  0.00     0.033 C 
ATOM     39  C   UNL     1      26.770  36.186  -4.497  1.00  0.00     0.033 C 
ENDBRANCH  21  37
ENDBRANCH   5  18
TORSDOF 10
ENDMDL
MODEL 2
REMARK VINA RESULT:    -8.769      3.486      4.828
REMARK INTER + INTRA:         -15.005
REMARK INTER:                 -13.766
REMARK INTRA:                  -1.239
REMARK UNBOUND:                -1.109
REMARK SMILES COC(=O)N[C@@H](C)CNc1nccc(-c2cn(C(C)C)nc2-c2cc(Cl)cc(NS(C)(=O)=O)c2F)n1
REMARK SMILES IDX 10 1 11 2 12 3 13 4 14 5 36 6 9 7 8 9 6 10 7 11 5 12 3 13
REMARK SMILES IDX 4 14 2 16 1 17 15 18 16 19 22 20 17 21 21 22 23 23 24 24
REMARK SMILES IDX 34 25 25 26 28 27 35 28 26 29 27 30 29 31 30 33 31 34 32 35
REMARK SMILES IDX 33 36 18 37 19 38 20 39
REMARK H PARENT 9 8 5 15 29 32
REMARK Flexibility Score: inf
ROOT
ATOM      1  C   UNL     1      21.108  37.291 -10.384  1.00  0.00     0.223 A 
ATOM      2  N   UNL     1      21.257  36.313 -11.321  1.00  0.00    -0.222 NA
ATOM      3  C   UNL     1      22.252  35.392 -11.221  1.00  0.00     0.117 A 
ATOM      4  C   UNL     1      23.143  35.440 -10.146  1.00  0.00     0.049 A 
ATOM      5  C   UNL     1      22.970  36.444  -9.174  1.00  0.00     0.080 A 
ATOM      6  N   UNL     1      21.953  37.336  -9.324  1.00  0.00    -0.213 NA
ENDROOT
BRANCH   1   7
ATOM      7  N   UNL     1      20.074  38.275 -10.505  1.00  0.00    -0.352 N 
ATOM      8  H   UNL     1      19.077  37.964 -10.439  1.00  0.00     0.163 HD
BRANCH   7   9
ATOM      9  C   UNL     1      20.352  39.692 -10.737  1.00  0.00     0.140 C 
BRANCH   9  10
ATOM     10  C   UNL     1      19.374  40.274 -11.775  1.00  0.00     0.101 C 
ATOM     11  C   UNL     1      20.044  41.389 -12.592  1.00  0.00     0.033 C 
BRANCH  10  12
ATOM     12  N   UNL     1      18.181  40.791 -11.096  1.00  0.00    -0.317 N 
ATOM     13  C   UNL     1      16.856  40.632 -11.631  1.00  0.00     0.407 C 
ATOM     14  O   UNL     1      16.673  40.047 -12.737  1.00  0.00    -0.225 OA
ATOM     15  H   UNL     1      18.284  41.328 -10.206  1.00  0.00     0.167 HD
BRANCH  13  16
ATOM     16  O   UNL     1      15.772  41.129 -10.911  1.00  0.00    -0.453 OA
ATOM     17  C   UNL     1      14.726  41.875 -11.512  1.00  0.00     0.284 C 
ENDBRANCH  13  16
ENDBRANCH  10  12
ENDBRANCH   9  10
ENDBRANCH   7   9
ENDBRANCH   1   7
BRANCH   5  18
ATOM     18  C   UNL     1      23.856  36.542  -7.987  1.00  0.00     0.047 A 
ATOM     19  C   UNL     1      24.918  35.715  -7.649  1.00  0.00     0.120 A 
ATOM     20  C   UNL     1      23.746  37.422  -6.908  1.00  0.00     0.105 A 
ATOM     21  N   UNL     1      25.392  36.104  -6.447  1.00  0.00    -0.269 N 
ATOM     22  N   UNL     1      24.677  37.124  -5.984  1.00  0.00    -0.172 NA
BRANCH  20  23
ATOM     23  C   UNL     1      22.735  38.477  -6.715  1.00  0.00     0.042 A 
ATOM     24  C   UNL     1      21.800  38.377  -5.676  1.00  0.00     0.034 A 
ATOM     25  C   UNL     1      22.732  39.606  -7.550  1.00  0.00     0.156 A 
ATOM     26  C   UNL     1      20.892  39.411  -5.451  1.00  0.00     0.044 A 
ATOM     27  C   UNL     1      21.820  40.656  -7.329  1.00  0.00     0.086 A 
ATOM     28  F   UNL     1      23.637  39.694  -8.559  1.00  0.00    -0.204 F 
ATOM     29  Cl  UNL     1      19.764  39.304  -4.112  1.00  0.00    -0.084 Cl
ATOM     30  C   UNL     1      20.902  40.546  -6.267  1.00  0.00     0.050 A 
BRANCH  27  31
ATOM     31  N   UNL     1      21.868  41.824  -8.174  1.00  0.00    -0.281 N 
ATOM     32  H   UNL     1      22.724  42.003  -8.749  1.00  0.00     0.180 HD
BRANCH  31  33
ATOM     33  S   UNL     1      20.558  42.948  -8.377  1.00  0.00     0.229 S 
ATOM     34  C   UNL     1      20.877  44.030  -9.752  1.00  0.00     0.183 C 
ATOM     35  O   UNL     1      19.265  42.208  -8.573  1.00  0.00    -0.207 OA
ATOM     36  O   UNL     1      20.447  43.783  -7.135  1.00  0.00    -0.207 OA
ENDBRANCH  31  33
ENDBRANCH  27  31
ENDBRANCH  20  23
BRANCH  21  37
ATOM     37  C   UNL     1      26.494  35.469  -5.716  1.00  0.00     0.101 C 
ATOM     38  C   UNL     1      26.366  33.946  -5.790  1.00  0.00     0.033 C 
ATOM     39  C   UNL     1      26.514  35.950  -4.261  1.00  0.00     0.033 C 
ENDBRANCH  21  37
ENDBRANCH   5  18
TORSDOF 10
ENDMDL
MODEL 3
REMARK VINA RESULT:    -8.709      2.574      3.246
REMARK INTER + INTRA:         -14.910
REMARK INTER:                 -13.978
REMARK INTRA:                  -0.932
REMARK UNBOUND:                -1.109
REMARK SMILES COC(=O)N[C@@H](C)CNc1nccc(-c2cn(C(C)C)nc2-c2cc(Cl)cc(NS(C)(=O)=O)c2F)n1
REMARK SMILES IDX 10 1 11 2 12 3 13 4 14 5 36 6 9 7 8 9 6 10 7 11 5 12 3 13
REMARK SMILES IDX 4 14 2 16 1 17 15 18 16 19 22 20 17 21 21 22 23 23 24 24
REMARK SMILES IDX 34 25 25 26 28 27 35 28 26 29 27 30 29 31 30 33 31 34 32 35
REMARK SMILES IDX 33 36 18 37 19 38 20 39
REMARK H PARENT 9 8 5 15 29 32
REMARK Flexibility Score: inf
ROOT
ATOM      1  C   UNL     1      21.113  37.323 -10.376  1.00  0.00     0.223 A 
ATOM      2  N   UNL     1      21.303  36.377 -11.337  1.00  0.00    -0.222 NA
ATOM      3  C   UNL     1      22.325  35.483 -11.248  1.00  0.00     0.117 A 
ATOM      4  C   UNL     1      23.200  35.528 -10.160  1.00  0.00     0.049 A 
ATOM      5  C   UNL     1      22.984  36.498  -9.164  1.00  0.00     0.080 A 
ATOM      6  N   UNL     1      21.943  37.363  -9.303  1.00  0.00    -0.213 NA
ENDROOT
BRANCH   1   7
ATOM      7  N   UNL     1      20.052  38.278 -10.483  1.00  0.00    -0.352 N 
ATOM      8  H   UNL     1      19.078  37.974 -10.251  1.00  0.00     0.163 HD
BRANCH   7   9
ATOM      9  C   UNL     1      20.267  39.656 -10.925  1.00  0.00     0.140 C 
BRANCH   9  10
ATOM     10  C   UNL     1      19.420  39.966 -12.173  1.00  0.00     0.101 C 
ATOM     11  C   UNL     1      18.091  40.629 -11.781  1.00  0.00     0.033 C 
BRANCH  10  12
ATOM     12  N   UNL     1      19.168  38.729 -12.920  1.00  0.00    -0.317 N 
ATOM     13  C   UNL     1      20.062  38.243 -13.936  1.00  0.00     0.407 C 
ATOM     14  O   UNL     1      21.106  38.888 -14.239  1.00  0.00    -0.225 OA
ATOM     15  H   UNL     1      18.292  38.188 -12.745  1.00  0.00     0.167 HD
BRANCH  13  16
ATOM     16  O   UNL     1      19.763  37.046 -14.583  1.00  0.00    -0.453 OA
ATOM     17  C   UNL     1      19.709  36.926 -15.995  1.00  0.00     0.284 C 
ENDBRANCH  13  16
ENDBRANCH  10  12
ENDBRANCH   9  10
ENDBRANCH   7   9
ENDBRANCH   1   7
BRANCH   5  18
ATOM     18  C   UNL     1      23.851  36.589  -7.962  1.00  0.00     0.047 A 
ATOM     19  C   UNL     1      24.908  35.761  -7.613  1.00  0.00     0.120 A 
ATOM     20  C   UNL     1      23.722  37.462  -6.879  1.00  0.00     0.105 A 
ATOM     21  N   UNL     1      25.362  36.142  -6.400  1.00  0.00    -0.269 N 
ATOM     22  N   UNL     1      24.639  37.159  -5.943  1.00  0.00    -0.172 NA
BRANCH  20  23
ATOM     23  C   UNL     1      22.708  38.515  -6.696  1.00  0.00     0.042 A 
ATOM     24  C   UNL     1      21.764  38.413  -5.665  1.00  0.00     0.034 A 
ATOM     25  C   UNL     1      22.710  39.645  -7.531  1.00  0.00     0.156 A 
ATOM     26  C   UNL     1      20.852  39.446  -5.449  1.00  0.00     0.044 A 
ATOM     27  C   UNL     1      21.794  40.692  -7.319  1.00  0.00     0.086 A 
ATOM     28  F   UNL     1      23.624  39.734  -8.532  1.00  0.00    -0.204 F 
ATOM     29  Cl  UNL     1      19.712  39.337  -4.120  1.00  0.00    -0.084 Cl
ATOM     30  C   UNL     1      20.867  40.581  -6.265  1.00  0.00     0.050 A 
BRANCH  27  31
ATOM     31  N   UNL     1      21.848  41.860  -8.163  1.00  0.00    -0.281 N 
ATOM     32  H   UNL     1      22.664  41.990  -8.804  1.00  0.00     0.180 HD
BRANCH  31  33
ATOM     33  S   UNL     1      20.599  43.065  -8.259  1.00  0.00     0.229 S 
ATOM     34  C   UNL     1      20.954  44.223  -9.562  1.00  0.00     0.183 C 
ATOM     35  O   UNL     1      19.264  42.412  -8.479  1.00  0.00    -0.207 OA
ATOM     36  O   UNL     1      20.556  43.815  -6.959  1.00  0.00    -0.207 OA
ENDBRANCH  31  33
ENDBRANCH  27  31
ENDBRANCH  20  23
BRANCH  21  37
ATOM     37  C   UNL     1      26.453  35.504  -5.656  1.00  0.00     0.101 C 
ATOM     38  C   UNL     1      26.077  34.062  -5.306  1.00  0.00     0.033 C 
ATOM     39  C   UNL     1      26.780  36.310  -4.394  1.00  0.00     0.033 C 
ENDBRANCH  21  37
ENDBRANCH   5  18
TORSDOF 10
ENDMDL
MODEL 4
REMARK VINA RESULT:    -8.684      1.683      2.317
REMARK INTER + INTRA:         -14.870
REMARK INTER:                 -13.207
REMARK INTRA:                  -1.663
REMARK UNBOUND:                -1.109
REMARK SMILES COC(=O)N[C@@H](C)CNc1nccc(-c2cn(C(C)C)nc2-c2cc(Cl)cc(NS(C)(=O)=O)c2F)n1
REMARK SMILES IDX 10 1 11 2 12 3 13 4 14 5 36 6 9 7 8 9 6 10 7 11 5 12 3 13
REMARK SMILES IDX 4 14 2 16 1 17 15 18 16 19 22 20 17 21 21 22 23 23 24 24
REMARK SMILES IDX 34 25 25 26 28 27 35 28 26 29 27 30 29 31 30 33 31 34 32 35
REMARK SMILES IDX 33 36 18 37 19 38 20 39
REMARK H PARENT 9 8 5 15 29 32
REMARK Flexibility Score: inf
ROOT
ATOM      1  C   UNL     1      22.521  36.195 -11.569  1.00  0.00     0.223 A 
ATOM      2  N   UNL     1      21.216  36.576 -11.490  1.00  0.00    -0.222 NA
ATOM      3  C   UNL     1      20.674  36.976 -10.308  1.00  0.00     0.117 A 
ATOM      4  C   UNL     1      21.458  36.999  -9.152  1.00  0.00     0.049 A 
ATOM      5  C   UNL     1      22.809  36.619  -9.249  1.00  0.00     0.080 A 
ATOM      6  N   UNL     1      23.299  36.233 -10.458  1.00  0.00    -0.213 NA
ENDROOT
BRANCH   1   7
ATOM      7  N   UNL     1      23.084  35.750 -12.810  1.00  0.00    -0.352 N 
ATOM      8  H   UNL     1      22.565  35.031 -13.366  1.00  0.00     0.163 HD
BRANCH   7   9
ATOM      9  C   UNL     1      24.362  36.242 -13.322  1.00  0.00     0.140 C 
BRANCH   9  10
ATOM     10  C   UNL     1      24.152  37.074 -14.601  1.00  0.00     0.101 C 
ATOM     11  C   UNL     1      25.370  36.964 -15.531  1.00  0.00     0.033 C 
BRANCH  10  12
ATOM     12  N   UNL     1      23.910  38.476 -14.246  1.00  0.00    -0.317 N 
ATOM     13  C   UNL     1      22.587  39.024 -14.119  1.00  0.00     0.407 C 
ATOM     14  O   UNL     1      21.567  38.307 -14.331  1.00  0.00    -0.225 OA
ATOM     15  H   UNL     1      24.719  39.123 -14.112  1.00  0.00     0.167 HD
BRANCH  13  16
ATOM     16  O   UNL     1      22.442  40.361 -13.753  1.00  0.00    -0.453 OA
ATOM     17  C   UNL     1      22.892  41.434 -14.563  1.00  0.00     0.284 C 
ENDBRANCH  13  16
ENDBRANCH  10  12
ENDBRANCH   9  10
ENDBRANCH   7   9
ENDBRANCH   1   7
BRANCH   5  18
ATOM     18  C   UNL     1      23.714  36.647  -8.072  1.00  0.00     0.047 A 
ATOM     19  C   UNL     1      24.785  35.805  -7.804  1.00  0.00     0.120 A 
ATOM     20  C   UNL     1      23.619  37.458  -6.939  1.00  0.00     0.105 A 
ATOM     21  N   UNL     1      25.276  36.120  -6.588  1.00  0.00    -0.269 N 
ATOM     22  N   UNL     1      24.567  37.107  -6.051  1.00  0.00    -0.172 NA
BRANCH  20  23
ATOM     23  C   UNL     1      22.609  38.495  -6.665  1.00  0.00     0.042 A 
ATOM     24  C   UNL     1      21.751  38.370  -5.564  1.00  0.00     0.034 A 
ATOM     25  C   UNL     1      22.531  39.633  -7.485  1.00  0.00     0.156 A 
ATOM     26  C   UNL     1      20.845  39.389  -5.265  1.00  0.00     0.044 A 
ATOM     27  C   UNL     1      21.621  40.666  -7.190  1.00  0.00     0.086 A 
ATOM     28  F   UNL     1      23.361  39.744  -8.554  1.00  0.00    -0.204 F 
ATOM     29  Cl  UNL     1      19.816  39.250  -3.851  1.00  0.00    -0.084 Cl
ATOM     30  C   UNL     1      20.782  40.532  -6.067  1.00  0.00     0.050 A 
BRANCH  27  31
ATOM     31  N   UNL     1      21.592  41.842  -8.023  1.00  0.00    -0.281 N 
ATOM     32  H   UNL     1      22.263  42.622  -7.829  1.00  0.00     0.180 HD
BRANCH  31  33
ATOM     33  S   UNL     1      20.558  42.048  -9.405  1.00  0.00     0.229 S 
ATOM     34  C   UNL     1      20.828  43.639 -10.150  1.00  0.00     0.183 C 
ATOM     35  O   UNL     1      20.797  40.948 -10.400  1.00  0.00    -0.207 OA
ATOM     36  O   UNL     1      19.130  41.976  -8.948  1.00  0.00    -0.207 OA
ENDBRANCH  31  33
ENDBRANCH  27  31
ENDBRANCH  20  23
BRANCH  21  37
ATOM     37  C   UNL     1      26.392  35.446  -5.916  1.00  0.00     0.101 C 
ATOM     38  C   UNL     1      26.032  33.985  -5.636  1.00  0.00     0.033 C 
ATOM     39  C   UNL     1      26.757  36.181  -4.621  1.00  0.00     0.033 C 
ENDBRANCH  21  37
ENDBRANCH   5  18
TORSDOF 10
ENDMDL
MODEL 5
REMARK VINA RESULT:    -8.092      3.289      8.539
REMARK INTER + INTRA:         -13.932
REMARK INTER:                 -13.345
REMARK INTRA:                  -0.587
REMARK UNBOUND:                -1.109
REMARK SMILES COC(=O)N[C@@H](C)CNc1nccc(-c2cn(C(C)C)nc2-c2cc(Cl)cc(NS(C)(=O)=O)c2F)n1
REMARK SMILES IDX 10 1 11 2 12 3 13 4 14 5 36 6 9 7 8 9 6 10 7 11 5 12 3 13
REMARK SMILES IDX 4 14 2 16 1 17 15 18 16 19 22 20 17 21 21 22 23 23 24 24
REMARK SMILES IDX 34 25 25 26 28 27 35 28 26 29 27 30 29 31 30 33 31 34 32 35
REMARK SMILES IDX 33 36 18 37 19 38 20 39
REMARK H PARENT 9 8 5 15 29 32
REMARK Flexibility Score: inf
ROOT
ATOM      1  C   UNL     1      21.555  39.574  -6.797  1.00  0.00     0.223 A 
ATOM      2  N   UNL     1      22.176  40.708  -7.226  1.00  0.00    -0.222 NA
ATOM      3  C   UNL     1      23.440  40.668  -7.727  1.00  0.00     0.117 A 
ATOM      4  C   UNL     1      24.122  39.452  -7.807  1.00  0.00     0.049 A 
ATOM      5  C   UNL     1      23.465  38.284  -7.377  1.00  0.00     0.080 A 
ATOM      6  N   UNL     1      22.199  38.383  -6.889  1.00  0.00    -0.213 NA
ENDROOT
BRANCH   1   7
ATOM      7  N   UNL     1      20.234  39.621  -6.247  1.00  0.00    -0.352 N 
ATOM      8  H   UNL     1      19.503  38.985  -6.643  1.00  0.00     0.163 HD
BRANCH   7   9
ATOM      9  C   UNL     1      19.855  40.536  -5.171  1.00  0.00     0.140 C 
BRANCH   9  10
ATOM     10  C   UNL     1      19.057  41.730  -5.726  1.00  0.00     0.101 C 
ATOM     11  C   UNL     1      18.914  41.631  -7.252  1.00  0.00     0.033 C 
BRANCH  10  12
ATOM     12  N   UNL     1      19.723  42.985  -5.360  1.00  0.00    -0.317 N 
ATOM     13  C   UNL     1      19.116  43.959  -4.494  1.00  0.00     0.407 C 
ATOM     14  O   UNL     1      17.957  43.772  -4.024  1.00  0.00    -0.225 OA
ATOM     15  H   UNL     1      20.658  43.211  -5.764  1.00  0.00     0.167 HD
BRANCH  13  16
ATOM     16  O   UNL     1      19.826  45.114  -4.174  1.00  0.00    -0.453 OA
ATOM     17  C   UNL     1      19.646  45.815  -2.954  1.00  0.00     0.284 C 
ENDBRANCH  13  16
ENDBRANCH  10  12
ENDBRANCH   9  10
ENDBRANCH   7   9
ENDBRANCH   1   7
BRANCH   5  18
ATOM     18  C   UNL     1      24.112  36.950  -7.459  1.00  0.00     0.047 A 
ATOM     19  C   UNL     1      24.936  36.346  -6.520  1.00  0.00     0.120 A 
ATOM     20  C   UNL     1      24.110  36.064  -8.539  1.00  0.00     0.105 A 
ATOM     21  N   UNL     1      25.377  35.179  -7.032  1.00  0.00    -0.269 N 
ATOM     22  N   UNL     1      24.897  35.010  -8.259  1.00  0.00    -0.172 NA
BRANCH  20  23
ATOM     23  C   UNL     1      23.442  36.242  -9.840  1.00  0.00     0.042 A 
ATOM     24  C   UNL     1      22.184  36.856  -9.909  1.00  0.00     0.034 A 
ATOM     25  C   UNL     1      24.082  35.830 -11.020  1.00  0.00     0.156 A 
ATOM     26  C   UNL     1      21.586  37.088 -11.148  1.00  0.00     0.044 A 
ATOM     27  C   UNL     1      23.487  36.062 -12.275  1.00  0.00     0.086 A 
ATOM     28  F   UNL     1      25.299  35.230 -10.946  1.00  0.00    -0.204 F 
ATOM     29  Cl  UNL     1      20.039  37.910 -11.227  1.00  0.00    -0.084 Cl
ATOM     30  C   UNL     1      22.233  36.700 -12.325  1.00  0.00     0.050 A 
BRANCH  27  31
ATOM     31  N   UNL     1      24.187  35.670 -13.473  1.00  0.00    -0.281 N 
ATOM     32  H   UNL     1      24.298  34.652 -13.689  1.00  0.00     0.180 HD
BRANCH  31  33
ATOM     33  S   UNL     1      24.813  36.777 -14.658  1.00  0.00     0.229 S 
ATOM     34  C   UNL     1      24.604  36.116 -16.296  1.00  0.00     0.183 C 
ATOM     35  O   UNL     1      24.132  38.110 -14.532  1.00  0.00    -0.207 OA
ATOM     36  O   UNL     1      26.281  36.965 -14.407  1.00  0.00    -0.207 OA
ENDBRANCH  31  33
ENDBRANCH  27  31
ENDBRANCH  20  23
BRANCH  21  37
ATOM     37  C   UNL     1      26.299  34.249  -6.371  1.00  0.00     0.101 C 
ATOM     38  C   UNL     1      26.129  32.841  -6.946  1.00  0.00     0.033 C 
ATOM     39  C   UNL     1      26.067  34.257  -4.856  1.00  0.00     0.033 C 
ENDBRANCH  21  37
ENDBRANCH   5  18
TORSDOF 10
ENDMDL
MODEL 6
REMARK VINA RESULT:    -8.090      3.599      6.633
REMARK INTER + INTRA:         -13.929
REMARK INTER:                 -12.291
REMARK INTRA:                  -1.638
REMARK UNBOUND:                -1.109
REMARK SMILES COC(=O)N[C@@H](C)CNc1nccc(-c2cn(C(C)C)nc2-c2cc(Cl)cc(NS(C)(=O)=O)c2F)n1
REMARK SMILES IDX 10 1 11 2 12 3 13 4 14 5 36 6 9 7 8 9 6 10 7 11 5 12 3 13
REMARK SMILES IDX 4 14 2 16 1 17 15 18 16 19 22 20 17 21 21 22 23 23 24 24
REMARK SMILES IDX 34 25 25 26 28 27 35 28 26 29 27 30 29 31 30 33 31 34 32 35
REMARK SMILES IDX 33 36 18 37 19 38 20 39
REMARK H PARENT 9 8 5 15 29 32
REMARK Flexibility Score: inf
ROOT
ATOM      1  C   UNL     1      22.954  38.512  -5.083  1.00  0.00     0.223 A 
ATOM      2  N   UNL     1      22.006  39.135  -4.330  1.00  0.00    -0.222 NA
ATOM      3  C   UNL     1      20.853  39.590  -4.891  1.00  0.00     0.117 A 
ATOM      4  C   UNL     1      20.628  39.422  -6.259  1.00  0.00     0.049 A 
ATOM      5  C   UNL     1      21.606  38.762  -7.025  1.00  0.00     0.080 A 
ATOM      6  N   UNL     1      22.738  38.323  -6.409  1.00  0.00    -0.213 NA
ENDROOT
BRANCH   1   7
ATOM      7  N   UNL     1      24.178  38.055  -4.495  1.00  0.00    -0.352 N 
ATOM      8  H   UNL     1      24.975  38.729  -4.411  1.00  0.00     0.163 HD
BRANCH   7   9
ATOM      9  C   UNL     1      24.370  36.683  -4.028  1.00  0.00     0.140 C 
BRANCH   9  10
ATOM     10  C   UNL     1      25.426  35.959  -4.884  1.00  0.00     0.101 C 
ATOM     11  C   UNL     1      26.844  36.401  -4.493  1.00  0.00     0.033 C 
BRANCH  10  12
ATOM     12  N   UNL     1      25.184  36.232  -6.305  1.00  0.00    -0.317 N 
ATOM     13  C   UNL     1      25.436  35.259  -7.333  1.00  0.00     0.407 C 
ATOM     14  O   UNL     1      25.902  34.120  -7.044  1.00  0.00    -0.225 OA
ATOM     15  H   UNL     1      24.850  37.176  -6.600  1.00  0.00     0.167 HD
BRANCH  13  16
ATOM     16  O   UNL     1      25.155  35.588  -8.658  1.00  0.00    -0.453 OA
ATOM     17  C   UNL     1      25.446  34.724  -9.744  1.00  0.00     0.284 C 
ENDBRANCH  13  16
ENDBRANCH  10  12
ENDBRANCH   9  10
ENDBRANCH   7   9
ENDBRANCH   1   7
BRANCH   5  18
ATOM     18  C   UNL     1      21.427  38.517  -8.478  1.00  0.00     0.047 A 
ATOM     19  C   UNL     1      21.897  37.444  -9.223  1.00  0.00     0.120 A 
ATOM     20  C   UNL     1      20.836  39.361  -9.421  1.00  0.00     0.105 A 
ATOM     21  N   UNL     1      21.588  37.662 -10.519  1.00  0.00    -0.269 N 
ATOM     22  N   UNL     1      20.962  38.826 -10.649  1.00  0.00    -0.172 NA
BRANCH  20  23
ATOM     23  C   UNL     1      20.229  40.683  -9.181  1.00  0.00     0.042 A 
ATOM     24  C   UNL     1      18.848  40.864  -9.336  1.00  0.00     0.034 A 
ATOM     25  C   UNL     1      21.030  41.756  -8.759  1.00  0.00     0.156 A 
ATOM     26  C   UNL     1      18.267  42.096  -9.038  1.00  0.00     0.044 A 
ATOM     27  C   UNL     1      20.452  43.003  -8.455  1.00  0.00     0.086 A 
ATOM     28  F   UNL     1      22.370  41.576  -8.618  1.00  0.00    -0.204 F 
ATOM     29  Cl  UNL     1      16.530  42.296  -9.178  1.00  0.00    -0.084 Cl
ATOM     30  C   UNL     1      19.060  43.159  -8.596  1.00  0.00     0.050 A 
BRANCH  27  31
ATOM     31  N   UNL     1      21.292  44.075  -7.980  1.00  0.00    -0.281 N 
ATOM     32  H   UNL     1      22.013  43.874  -7.249  1.00  0.00     0.180 HD
BRANCH  31  33
ATOM     33  S   UNL     1      21.255  45.702  -8.592  1.00  0.00     0.229 S 
ATOM     34  C   UNL     1      20.129  46.697  -7.641  1.00  0.00     0.183 C 
ATOM     35  O   UNL     1      22.635  46.295  -8.571  1.00  0.00    -0.207 OA
ATOM     36  O   UNL     1      20.772  45.667 -10.013  1.00  0.00    -0.207 OA
ENDBRANCH  31  33
ENDBRANCH  27  31
ENDBRANCH  20  23
BRANCH  21  37
ATOM     37  C   UNL     1      21.936  36.782 -11.639  1.00  0.00     0.101 C 
ATOM     38  C   UNL     1      20.887  36.901 -12.747  1.00  0.00     0.033 C 
ATOM     39  C   UNL     1      22.067  35.333 -11.158  1.00  0.00     0.033 C 
ENDBRANCH  21  37
ENDBRANCH   5  18
TORSDOF 10
ENDMDL
MODEL 7
REMARK VINA RESULT:    -8.085      4.908      7.706
REMARK INTER + INTRA:         -13.921
REMARK INTER:                 -12.784
REMARK INTRA:                  -1.136
REMARK UNBOUND:                -1.109
REMARK SMILES COC(=O)N[C@@H](C)CNc1nccc(-c2cn(C(C)C)nc2-c2cc(Cl)cc(NS(C)(=O)=O)c2F)n1
REMARK SMILES IDX 10 1 11 2 12 3 13 4 14 5 36 6 9 7 8 9 6 10 7 11 5 12 3 13
REMARK SMILES IDX 4 14 2 16 1 17 15 18 16 19 22 20 17 21 21 22 23 23 24 24
REMARK SMILES IDX 34 25 25 26 28 27 35 28 26 29 27 30 29 31 30 33 31 34 32 35
REMARK SMILES IDX 33 36 18 37 19 38 20 39
REMARK H PARENT 9 8 5 15 29 32
REMARK Flexibility Score: inf
ROOT
ATOM      1  C   UNL     1      23.324  37.668  -7.793  1.00  0.00     0.223 A 
ATOM      2  N   UNL     1      24.195  38.575  -7.269  1.00  0.00    -0.222 NA
ATOM      3  C   UNL     1      23.997  39.911  -7.432  1.00  0.00     0.117 A 
ATOM      4  C   UNL     1      22.888  40.371  -8.145  1.00  0.00     0.049 A 
ATOM      5  C   UNL     1      21.985  39.426  -8.667  1.00  0.00     0.080 A 
ATOM      6  N   UNL     1      22.232  38.102  -8.470  1.00  0.00    -0.213 NA
ENDROOT
BRANCH   1   7
ATOM      7  N   UNL     1      23.548  36.261  -7.642  1.00  0.00    -0.352 N 
ATOM      8  H   UNL     1      22.756  35.660  -7.315  1.00  0.00     0.163 HD
BRANCH   7   9
ATOM      9  C   UNL     1      24.842  35.632  -7.905  1.00  0.00     0.140 C 
BRANCH   9  10
ATOM     10  C   UNL     1      25.634  35.449  -6.597  1.00  0.00     0.101 C 
ATOM     11  C   UNL     1      25.784  33.960  -6.252  1.00  0.00     0.033 C 
BRANCH  10  12
ATOM     12  N   UNL     1      24.956  36.156  -5.505  1.00  0.00    -0.317 N 
ATOM     13  C   UNL     1      25.661  36.670  -4.362  1.00  0.00     0.407 C 
ATOM     14  O   UNL     1      26.910  36.510  -4.247  1.00  0.00    -0.225 OA
ATOM     15  H   UNL     1      23.918  36.267  -5.526  1.00  0.00     0.167 HD
BRANCH  13  16
ATOM     16  O   UNL     1      24.947  37.354  -3.379  1.00  0.00    -0.453 OA
ATOM     17  C   UNL     1      24.162  38.502  -3.656  1.00  0.00     0.284 C 
ENDBRANCH  13  16
ENDBRANCH  10  12
ENDBRANCH   9  10
ENDBRANCH   7   9
ENDBRANCH   1   7
BRANCH   5  18
ATOM     18  C   UNL     1      20.767  39.837  -9.409  1.00  0.00     0.047 A 
ATOM     19  C   UNL     1      20.526  39.729 -10.772  1.00  0.00     0.120 A 
ATOM     20  C   UNL     1      19.649  40.511  -8.912  1.00  0.00     0.105 A 
ATOM     21  N   UNL     1      19.335  40.304 -11.038  1.00  0.00    -0.269 N 
ATOM     22  N   UNL     1      18.807  40.795  -9.922  1.00  0.00    -0.172 NA
BRANCH  20  23
ATOM     23  C   UNL     1      19.412  40.947  -7.525  1.00  0.00     0.042 A 
ATOM     24  C   UNL     1      19.816  40.139  -6.453  1.00  0.00     0.034 A 
ATOM     25  C   UNL     1      18.814  42.192  -7.273  1.00  0.00     0.156 A 
ATOM     26  C   UNL     1      19.656  40.587  -5.142  1.00  0.00     0.044 A 
ATOM     27  C   UNL     1      18.650  42.653  -5.952  1.00  0.00     0.086 A 
ATOM     28  F   UNL     1      18.418  42.967  -8.316  1.00  0.00    -0.204 F 
ATOM     29  Cl  UNL     1      20.220  39.595  -3.809  1.00  0.00    -0.084 Cl
ATOM     30  C   UNL     1      19.082  41.836  -4.890  1.00  0.00     0.050 A 
BRANCH  27  31
ATOM     31  N   UNL     1      18.073  43.954  -5.723  1.00  0.00    -0.281 N 
ATOM     32  H   UNL     1      17.042  44.036  -5.571  1.00  0.00     0.180 HD
BRANCH  31  33
ATOM     33  S   UNL     1      18.985  45.430  -5.603  1.00  0.00     0.229 S 
ATOM     34  C   UNL     1      19.800  45.528  -4.026  1.00  0.00     0.183 C 
ATOM     35  O   UNL     1      19.983  45.515  -6.723  1.00  0.00    -0.207 OA
ATOM     36  O   UNL     1      18.037  46.588  -5.719  1.00  0.00    -0.207 OA
ENDBRANCH  31  33
ENDBRANCH  27  31
ENDBRANCH  20  23
BRANCH  21  37
ATOM     37  C   UNL     1      18.724  40.431 -12.365  1.00  0.00     0.101 C 
ATOM     38  C   UNL     1      17.208  40.594 -12.234  1.00  0.00     0.033 C 
ATOM     39  C   UNL     1      19.075  39.216 -13.231  1.00  0.00     0.033 C 
ENDBRANCH  21  37
ENDBRANCH   5  18
TORSDOF 10
ENDMDL
MODEL 8
REMARK VINA RESULT:    -7.999      4.634      7.500
REMARK INTER + INTRA:         -13.784
REMARK INTER:                 -12.199
REMARK INTRA:                  -1.584
REMARK UNBOUND:                -1.109
REMARK SMILES COC(=O)N[C@@H](C)CNc1nccc(-c2cn(C(C)C)nc2-c2cc(Cl)cc(NS(C)(=O)=O)c2F)n1
REMARK SMILES IDX 10 1 11 2 12 3 13 4 14 5 36 6 9 7 8 9 6 10 7 11 5 12 3 13
REMARK SMILES IDX 4 14 2 16 1 17 15 18 16 19 22 20 17 21 21 22 23 23 24 24
REMARK SMILES IDX 34 25 25 26 28 27 35 28 26 29 27 30 29 31 30 33 31 34 32 35
REMARK SMILES IDX 33 36 18 37 19 38 20 39
REMARK H PARENT 9 8 5 15 29 32
REMARK Flexibility Score: inf
ROOT
ATOM      1  C   UNL     1      23.475  37.359  -7.760  1.00  0.00     0.223 A 
ATOM      2  N   UNL     1      24.160  38.296  -7.047  1.00  0.00    -0.222 NA
ATOM      3  C   UNL     1      23.874  39.620  -7.174  1.00  0.00     0.117 A 
ATOM      4  C   UNL     1      22.867  40.037  -8.047  1.00  0.00     0.049 A 
ATOM      5  C   UNL     1      22.154  39.060  -8.766  1.00  0.00     0.080 A 
ATOM      6  N   UNL     1      22.480  37.749  -8.596  1.00  0.00    -0.213 NA
ENDROOT
BRANCH   1   7
ATOM      7  N   UNL     1      23.794  35.968  -7.644  1.00  0.00    -0.352 N 
ATOM      8  H   UNL     1      23.038  35.303  -7.356  1.00  0.00     0.163 HD
BRANCH   7   9
ATOM      9  C   UNL     1      25.135  35.439  -7.888  1.00  0.00     0.140 C 
BRANCH   9  10
ATOM     10  C   UNL     1      25.865  35.169  -6.559  1.00  0.00     0.101 C 
ATOM     11  C   UNL     1      25.986  33.661  -6.297  1.00  0.00     0.033 C 
BRANCH  10  12
ATOM     12  N   UNL     1      25.145  35.819  -5.459  1.00  0.00    -0.317 N 
ATOM     13  C   UNL     1      25.821  36.486  -4.379  1.00  0.00     0.407 C 
ATOM     14  O   UNL     1      27.084  36.519  -4.330  1.00  0.00    -0.225 OA
ATOM     15  H   UNL     1      24.102  35.773  -5.424  1.00  0.00     0.167 HD
BRANCH  13  16
ATOM     16  O   UNL     1      25.063  37.101  -3.384  1.00  0.00    -0.453 OA
ATOM     17  C   UNL     1      24.372  38.322  -3.587  1.00  0.00     0.284 C 
ENDBRANCH  13  16
ENDBRANCH  10  12
ENDBRANCH   9  10
ENDBRANCH   7   9
ENDBRANCH   1   7
BRANCH   5  18
ATOM     18  C   UNL     1      21.049  39.421  -9.690  1.00  0.00     0.047 A 
ATOM     19  C   UNL     1      20.753  38.855 -10.922  1.00  0.00     0.120 A 
ATOM     20  C   UNL     1      20.137  40.471  -9.562  1.00  0.00     0.105 A 
ATOM     21  N   UNL     1      19.726  39.541 -11.466  1.00  0.00    -0.269 N 
ATOM     22  N   UNL     1      19.360  40.530 -10.658  1.00  0.00    -0.172 NA
BRANCH  20  23
ATOM     23  C   UNL     1      20.047  41.449  -8.463  1.00  0.00     0.042 A 
ATOM     24  C   UNL     1      19.428  41.098  -7.256  1.00  0.00     0.034 A 
ATOM     25  C   UNL     1      20.617  42.724  -8.610  1.00  0.00     0.156 A 
ATOM     26  C   UNL     1      19.409  42.000  -6.192  1.00  0.00     0.044 A 
ATOM     27  C   UNL     1      20.604  43.640  -7.542  1.00  0.00     0.086 A 
ATOM     28  F   UNL     1      21.209  43.060  -9.786  1.00  0.00    -0.204 F 
ATOM     29  Cl  UNL     1      18.685  41.530  -4.665  1.00  0.00    -0.084 Cl
ATOM     30  C   UNL     1      19.996  43.261  -6.329  1.00  0.00     0.050 A 
BRANCH  27  31
ATOM     31  N   UNL     1      21.235  44.927  -7.705  1.00  0.00    -0.281 N 
ATOM     32  H   UNL     1      22.234  45.045  -7.417  1.00  0.00     0.180 HD
BRANCH  31  33
ATOM     33  S   UNL     1      20.477  46.313  -8.428  1.00  0.00     0.229 S 
ATOM     34  C   UNL     1      20.835  46.379 -10.168  1.00  0.00     0.183 C 
ATOM     35  O   UNL     1      18.993  46.275  -8.192  1.00  0.00    -0.207 OA
ATOM     36  O   UNL     1      21.030  47.551  -7.784  1.00  0.00    -0.207 OA
ENDBRANCH  31  33
ENDBRANCH  27  31
ENDBRANCH  20  23
BRANCH  21  37
ATOM     37  C   UNL     1      19.128  39.283 -12.780  1.00  0.00     0.101 C 
ATOM     38  C   UNL     1      19.788  38.065 -13.430  1.00  0.00     0.033 C 
ATOM     39  C   UNL     1      19.255  40.522 -13.675  1.00  0.00     0.033 C 
ENDBRANCH  21  37
ENDBRANCH   5  18
TORSDOF 10
ENDMDL
MODEL 9
REMARK VINA RESULT:    -7.967      4.853      7.599
REMARK INTER + INTRA:         -13.733
REMARK INTER:                 -12.537
REMARK INTRA:                  -1.196
REMARK UNBOUND:                -1.109
REMARK SMILES COC(=O)N[C@@H](C)CNc1nccc(-c2cn(C(C)C)nc2-c2cc(Cl)cc(NS(C)(=O)=O)c2F)n1
REMARK SMILES IDX 10 1 11 2 12 3 13 4 14 5 36 6 9 7 8 9 6 10 7 11 5 12 3 13
REMARK SMILES IDX 4 14 2 16 1 17 15 18 16 19 22 20 17 21 21 22 23 23 24 24
REMARK SMILES IDX 34 25 25 26 28 27 35 28 26 29 27 30 29 31 30 33 31 34 32 35
REMARK SMILES IDX 33 36 18 37 19 38 20 39
REMARK H PARENT 9 8 5 15 29 32
REMARK Flexibility Score: inf
ROOT
ATOM      1  C   UNL     1      23.463  36.904  -8.739  1.00  0.00     0.223 A 
ATOM      2  N   UNL     1      22.881  36.254  -9.786  1.00  0.00    -0.222 NA
ATOM      3  C   UNL     1      21.642  36.603 -10.224  1.00  0.00     0.117 A 
ATOM      4  C   UNL     1      20.945  37.640  -9.599  1.00  0.00     0.049 A 
ATOM      5  C   UNL     1      21.563  38.316  -8.530  1.00  0.00     0.080 A 
ATOM      6  N   UNL     1      22.806  37.927  -8.137  1.00  0.00    -0.213 NA
ENDROOT
BRANCH   1   7
ATOM      7  N   UNL     1      24.758  36.518  -8.263  1.00  0.00    -0.352 N 
ATOM      8  H   UNL     1      25.504  37.249  -8.193  1.00  0.00     0.163 HD
BRANCH   7   9
ATOM      9  C   UNL     1      25.088  35.144  -7.889  1.00  0.00     0.140 C 
BRANCH   9  10
ATOM     10  C   UNL     1      25.788  35.105  -6.518  1.00  0.00     0.101 C 
ATOM     11  C   UNL     1      26.048  33.657  -6.077  1.00  0.00     0.033 C 
BRANCH  10  12
ATOM     12  N   UNL     1      24.963  35.798  -5.522  1.00  0.00    -0.317 N 
ATOM     13  C   UNL     1      25.530  36.520  -4.415  1.00  0.00     0.407 C 
ATOM     14  O   UNL     1      26.783  36.567  -4.249  1.00  0.00    -0.225 OA
ATOM     15  H   UNL     1      23.922  35.744  -5.584  1.00  0.00     0.167 HD
BRANCH  13  16
ATOM     16  O   UNL     1      24.678  37.173  -3.527  1.00  0.00    -0.453 OA
ATOM     17  C   UNL     1      24.329  38.541  -3.660  1.00  0.00     0.284 C 
ENDBRANCH  13  16
ENDBRANCH  10  12
ENDBRANCH   9  10
ENDBRANCH   7   9
ENDBRANCH   1   7
BRANCH   5  18
ATOM     18  C   UNL     1      20.901  39.448  -7.835  1.00  0.00     0.047 A 
ATOM     19  C   UNL     1      20.866  39.705  -6.472  1.00  0.00     0.120 A 
ATOM     20  C   UNL     1      20.088  40.437  -8.395  1.00  0.00     0.105 A 
ATOM     21  N   UNL     1      20.082  40.783  -6.264  1.00  0.00    -0.269 N 
ATOM     22  N   UNL     1      19.594  41.221  -7.419  1.00  0.00    -0.172 NA
BRANCH  20  23
ATOM     23  C   UNL     1      19.724  40.598  -9.813  1.00  0.00     0.042 A 
ATOM     24  C   UNL     1      20.721  40.762 -10.784  1.00  0.00     0.034 A 
ATOM     25  C   UNL     1      18.375  40.548 -10.201  1.00  0.00     0.156 A 
ATOM     26  C   UNL     1      20.377  40.841 -12.133  1.00  0.00     0.044 A 
ATOM     27  C   UNL     1      18.018  40.625 -11.561  1.00  0.00     0.086 A 
ATOM     28  F   UNL     1      17.412  40.396  -9.254  1.00  0.00    -0.204 F 
ATOM     29  Cl  UNL     1      21.636  40.986 -13.346  1.00  0.00    -0.084 Cl
ATOM     30  C   UNL     1      19.036  40.768 -12.523  1.00  0.00     0.050 A 
BRANCH  27  31
ATOM     31  N   UNL     1      16.629  40.526 -11.934  1.00  0.00    -0.281 N 
ATOM     32  H   UNL     1      16.289  39.659 -12.411  1.00  0.00     0.180 HD
BRANCH  31  33
ATOM     33  S   UNL     1      15.425  41.729 -11.583  1.00  0.00     0.229 S 
ATOM     34  C   UNL     1      14.338  41.944 -12.974  1.00  0.00     0.183 C 
ATOM     35  O   UNL     1      14.647  41.342 -10.357  1.00  0.00    -0.207 OA
ATOM     36  O   UNL     1      16.116  43.035 -11.317  1.00  0.00    -0.207 OA
ENDBRANCH  31  33
ENDBRANCH  27  31
ENDBRANCH  20  23
BRANCH  21  37
ATOM     37  C   UNL     1      19.757  41.364  -4.957  1.00  0.00     0.101 C 
ATOM     38  C   UNL     1      19.442  40.255  -3.951  1.00  0.00     0.033 C 
ATOM     39  C   UNL     1      18.583  42.341  -5.086  1.00  0.00     0.033 C 
ENDBRANCH  21  37
ENDBRANCH   5  18
TORSDOF 10
ENDMDL
MODEL 10
REMARK VINA RESULT:    -7.927      3.893      8.859
REMARK INTER + INTRA:         -13.671
REMARK INTER:                 -11.992
REMARK INTRA:                  -1.679
REMARK UNBOUND:                -1.109
REMARK SMILES COC(=O)N[C@@H](C)CNc1nccc(-c2cn(C(C)C)nc2-c2cc(Cl)cc(NS(C)(=O)=O)c2F)n1
REMARK SMILES IDX 10 1 11 2 12 3 13 4 14 5 36 6 9 7 8 9 6 10 7 11 5 12 3 13
REMARK SMILES IDX 4 14 2 16 1 17 15 18 16 19 22 20 17 21 21 22 23 23 24 24
REMARK SMILES IDX 34 25 25 26 28 27 35 28 26 29 27 30 29 31 30 33 31 34 32 35
REMARK SMILES IDX 33 36 18 37 19 38 20 39
REMARK H PARENT 9 8 5 15 29 32
REMARK Flexibility Score: inf
ROOT
ATOM      1  C   UNL     1      21.520  38.831  -7.840  1.00  0.00     0.223 A 
ATOM      2  N   UNL     1      22.225  39.943  -7.492  1.00  0.00    -0.222 NA
ATOM      3  C   UNL     1      22.182  41.068  -8.256  1.00  0.00     0.117 A 
ATOM      4  C   UNL     1      21.407  41.093  -9.418  1.00  0.00     0.049 A 
ATOM      5  C   UNL     1      20.669  39.945  -9.760  1.00  0.00     0.080 A 
ATOM      6  N   UNL     1      20.747  38.850  -8.955  1.00  0.00    -0.213 NA
ENDROOT
BRANCH   1   7
ATOM      7  N   UNL     1      21.587  37.640  -7.047  1.00  0.00    -0.352 N 
ATOM      8  H   UNL     1      21.011  37.585  -6.175  1.00  0.00     0.163 HD
BRANCH   7   9
ATOM      9  C   UNL     1      22.443  36.505  -7.393  1.00  0.00     0.140 C 
BRANCH   9  10
ATOM     10  C   UNL     1      23.929  36.880  -7.248  1.00  0.00     0.101 C 
ATOM     11  C   UNL     1      24.729  36.433  -8.481  1.00  0.00     0.033 C 
BRANCH  10  12
ATOM     12  N   UNL     1      24.480  36.265  -6.036  1.00  0.00    -0.317 N 
ATOM     13  C   UNL     1      24.357  36.869  -4.737  1.00  0.00     0.407 C 
ATOM     14  O   UNL     1      23.775  37.982  -4.595  1.00  0.00    -0.225 OA
ATOM     15  H   UNL     1      25.016  35.372  -6.107  1.00  0.00     0.167 HD
BRANCH  13  16
ATOM     16  O   UNL     1      24.886  36.206  -3.631  1.00  0.00    -0.453 OA
ATOM     17  C   UNL     1      25.918  35.240  -3.734  1.00  0.00     0.284 C 
ENDBRANCH  13  16
ENDBRANCH  10  12
ENDBRANCH   9  10
ENDBRANCH   7   9
ENDBRANCH   1   7
BRANCH   5  18
ATOM     18  C   UNL     1      19.798  39.904 -10.961  1.00  0.00     0.047 A 
ATOM     19  C   UNL     1      18.620  40.605 -11.179  1.00  0.00     0.120 A 
ATOM     20  C   UNL     1      19.924  39.079 -12.081  1.00  0.00     0.105 A 
ATOM     21  N   UNL     1      18.103  40.206 -12.361  1.00  0.00    -0.269 N 
ATOM     22  N   UNL     1      18.876  39.271 -12.903  1.00  0.00    -0.172 NA
BRANCH  20  23
ATOM     23  C   UNL     1      20.970  38.075 -12.338  1.00  0.00     0.042 A 
ATOM     24  C   UNL     1      21.165  37.013 -11.444  1.00  0.00     0.034 A 
ATOM     25  C   UNL     1      21.751  38.158 -13.503  1.00  0.00     0.156 A 
ATOM     26  C   UNL     1      22.107  36.025 -11.727  1.00  0.00     0.044 A 
ATOM     27  C   UNL     1      22.703  37.164 -13.797  1.00  0.00     0.086 A 
ATOM     28  F   UNL     1      21.562  39.193 -14.362  1.00  0.00    -0.204 F 
ATOM     29  Cl  UNL     1      22.302  34.669 -10.632  1.00  0.00    -0.084 Cl
ATOM     30  C   UNL     1      22.869  36.094 -12.897  1.00  0.00     0.050 A 
BRANCH  27  31
ATOM     31  N   UNL     1      23.460  37.250 -15.022  1.00  0.00    -0.281 N 
ATOM     32  H   UNL     1      23.024  36.924 -15.916  1.00  0.00     0.180 HD
BRANCH  31  33
ATOM     33  S   UNL     1      25.052  37.935 -15.151  1.00  0.00     0.229 S 
ATOM     34  C   UNL     1      25.560  38.007 -16.854  1.00  0.00     0.183 C 
ATOM     35  O   UNL     1      25.080  39.303 -14.531  1.00  0.00    -0.207 OA
ATOM     36  O   UNL     1      26.014  37.055 -14.408  1.00  0.00    -0.207 OA
ENDBRANCH  31  33
ENDBRANCH  27  31
ENDBRANCH  20  23
BRANCH  21  37
ATOM     37  C   UNL     1      16.845  40.679 -12.947  1.00  0.00     0.101 C 
ATOM     38  C   UNL     1      16.987  40.805 -14.466  1.00  0.00     0.033 C 
ATOM     39  C   UNL     1      16.435  42.016 -12.319  1.00  0.00     0.033 C 
ENDBRANCH  21  37
ENDBRANCH   5  18
TORSDOF 10
ENDMDL
MODEL 11
REMARK VINA RESULT:    -7.889      2.590      5.485
REMARK INTER + INTRA:         -13.610
REMARK INTER:                 -12.406
REMARK INTRA:                  -1.203
REMARK UNBOUND:                -1.109
REMARK SMILES COC(=O)N[C@@H](C)CNc1nccc(-c2cn(C(C)C)nc2-c2cc(Cl)cc(NS(C)(=O)=O)c2F)n1
REMARK SMILES IDX 10 1 11 2 12 3 13 4 14 5 36 6 9 7 8 9 6 10 7 11 5 12 3 13
REMARK SMILES IDX 4 14 2 16 1 17 15 18 16 19 22 20 17 21 21 22 23 23 24 24
REMARK SMILES IDX 34 25 25 26 28 27 35 28 26 29 27 30 29 31 30 33 31 34 32 35
REMARK SMILES IDX 33 36 18 37 19 38 20 39
REMARK H PARENT 9 8 5 15 29 32
REMARK Flexibility Score: inf
ROOT
ATOM      1  C   UNL     1      21.085  37.499 -11.932  1.00  0.00     0.223 A 
ATOM      2  N   UNL     1      20.975  36.518 -10.994  1.00  0.00    -0.222 NA
ATOM      3  C   UNL     1      20.822  36.823  -9.677  1.00  0.00     0.117 A 
ATOM      4  C   UNL     1      20.779  38.158  -9.269  1.00  0.00     0.049 A 
ATOM      5  C   UNL     1      20.878  39.163 -10.248  1.00  0.00     0.080 A 
ATOM      6  N   UNL     1      21.024  38.800 -11.552  1.00  0.00    -0.213 NA
ENDROOT
BRANCH   1   7
ATOM      7  N   UNL     1      21.270  37.176 -13.315  1.00  0.00    -0.352 N 
ATOM      8  H   UNL     1      21.103  36.191 -13.627  1.00  0.00     0.163 HD
BRANCH   7   9
ATOM      9  C   UNL     1      21.704  38.159 -14.308  1.00  0.00     0.140 C 
BRANCH   9  10
ATOM     10  C   UNL     1      23.238  38.290 -14.309  1.00  0.00     0.101 C 
ATOM     11  C   UNL     1      23.662  39.762 -14.429  1.00  0.00     0.033 C 
BRANCH  10  12
ATOM     12  N   UNL     1      23.801  37.509 -15.416  1.00  0.00    -0.317 N 
ATOM     13  C   UNL     1      25.068  36.835 -15.322  1.00  0.00     0.407 C 
ATOM     14  O   UNL     1      25.762  36.910 -14.268  1.00  0.00    -0.225 OA
ATOM     15  H   UNL     1      23.292  37.461 -16.326  1.00  0.00     0.167 HD
BRANCH  13  16
ATOM     16  O   UNL     1      25.520  36.092 -16.411  1.00  0.00    -0.453 OA
ATOM     17  C   UNL     1      24.690  35.193 -17.127  1.00  0.00     0.284 C 
ENDBRANCH  13  16
ENDBRANCH  10  12
ENDBRANCH   9  10
ENDBRANCH   7   9
ENDBRANCH   1   7
BRANCH   5  18
ATOM     18  C   UNL     1      20.809  40.604  -9.898  1.00  0.00     0.047 A 
ATOM     19  C   UNL     1      20.650  41.681 -10.760  1.00  0.00     0.120 A 
ATOM     20  C   UNL     1      20.991  41.189  -8.642  1.00  0.00     0.105 A 
ATOM     21  N   UNL     1      20.732  42.817 -10.036  1.00  0.00    -0.269 N 
ATOM     22  N   UNL     1      20.955  42.528  -8.758  1.00  0.00    -0.172 NA
BRANCH  20  23
ATOM     23  C   UNL     1      21.267  40.502  -7.369  1.00  0.00     0.042 A 
ATOM     24  C   UNL     1      20.290  40.457  -6.365  1.00  0.00     0.034 A 
ATOM     25  C   UNL     1      22.499  39.857  -7.172  1.00  0.00     0.156 A 
ATOM     26  C   UNL     1      20.528  39.744  -5.190  1.00  0.00     0.044 A 
ATOM     27  C   UNL     1      22.747  39.134  -5.990  1.00  0.00     0.086 A 
ATOM     28  F   UNL     1      23.444  39.910  -8.147  1.00  0.00    -0.204 F 
ATOM     29  Cl  UNL     1      19.277  39.643  -3.964  1.00  0.00    -0.084 Cl
ATOM     30  C   UNL     1      21.745  39.082  -5.003  1.00  0.00     0.050 A 
BRANCH  27  31
ATOM     31  N   UNL     1      24.004  38.443  -5.834  1.00  0.00    -0.281 N 
ATOM     32  H   UNL     1      24.772  38.899  -5.289  1.00  0.00     0.180 HD
BRANCH  31  33
ATOM     33  S   UNL     1      24.331  36.843  -6.427  1.00  0.00     0.229 S 
ATOM     34  C   UNL     1      25.713  36.132  -5.564  1.00  0.00     0.183 C 
ATOM     35  O   UNL     1      23.111  35.977  -6.282  1.00  0.00    -0.207 OA
ATOM     36  O   UNL     1      24.679  36.935  -7.884  1.00  0.00    -0.207 OA
ENDBRANCH  31  33
ENDBRANCH  27  31
ENDBRANCH  20  23
BRANCH  21  37
ATOM     37  C   UNL     1      20.648  44.180 -10.572  1.00  0.00     0.101 C 
ATOM     38  C   UNL     1      21.175  45.183  -9.544  1.00  0.00     0.033 C 
ATOM     39  C   UNL     1      19.205  44.507 -10.972  1.00  0.00     0.033 C 
ENDBRANCH  21  37
ENDBRANCH   5  18
TORSDOF 10
ENDMDL
MODEL 12
REMARK VINA RESULT:    -7.885      3.847      8.653
REMARK INTER + INTRA:         -13.604
REMARK INTER:                 -12.186
REMARK INTRA:                  -1.418
REMARK UNBOUND:                -1.109
REMARK SMILES COC(=O)N[C@@H](C)CNc1nccc(-c2cn(C(C)C)nc2-c2cc(Cl)cc(NS(C)(=O)=O)c2F)n1
REMARK SMILES IDX 10 1 11 2 12 3 13 4 14 5 36 6 9 7 8 9 6 10 7 11 5 12 3 13
REMARK SMILES IDX 4 14 2 16 1 17 15 18 16 19 22 20 17 21 21 22 23 23 24 24
REMARK SMILES IDX 34 25 25 26 28 27 35 28 26 29 27 30 29 31 30 33 31 34 32 35
REMARK SMILES IDX 33 36 18 37 19 38 20 39
REMARK H PARENT 9 8 5 15 29 32
REMARK Flexibility Score: inf
ROOT
ATOM      1  C   UNL     1      21.319  39.040  -7.993  1.00  0.00     0.223 A 
ATOM      2  N   UNL     1      21.996  40.178  -7.674  1.00  0.00    -0.222 NA
ATOM      3  C   UNL     1      21.909  41.287  -8.457  1.00  0.00     0.117 A 
ATOM      4  C   UNL     1      21.117  41.270  -9.608  1.00  0.00     0.049 A 
ATOM      5  C   UNL     1      20.408  40.095  -9.918  1.00  0.00     0.080 A 
ATOM      6  N   UNL     1      20.529  39.017  -9.096  1.00  0.00    -0.213 NA
ENDROOT
BRANCH   1   7
ATOM      7  N   UNL     1      21.431  37.865  -7.181  1.00  0.00    -0.352 N 
ATOM      8  H   UNL     1      21.383  36.929  -7.646  1.00  0.00     0.163 HD
BRANCH   7   9
ATOM      9  C   UNL     1      21.588  37.918  -5.728  1.00  0.00     0.140 C 
BRANCH   9  10
ATOM     10  C   UNL     1      23.046  37.624  -5.327  1.00  0.00     0.101 C 
ATOM     11  C   UNL     1      23.603  38.741  -4.433  1.00  0.00     0.033 C 
BRANCH  10  12
ATOM     12  N   UNL     1      23.871  37.479  -6.531  1.00  0.00    -0.317 N 
ATOM     13  C   UNL     1      24.586  36.270  -6.839  1.00  0.00     0.407 C 
ATOM     14  O   UNL     1      24.542  35.277  -6.057  1.00  0.00    -0.225 OA
ATOM     15  H   UNL     1      23.983  38.288  -7.182  1.00  0.00     0.167 HD
BRANCH  13  16
ATOM     16  O   UNL     1      25.328  36.205  -8.017  1.00  0.00    -0.453 OA
ATOM     17  C   UNL     1      25.308  35.078  -8.877  1.00  0.00     0.284 C 
ENDBRANCH  13  16
ENDBRANCH  10  12
ENDBRANCH   9  10
ENDBRANCH   7   9
ENDBRANCH   1   7
BRANCH   5  18
ATOM     18  C   UNL     1      19.521  40.009 -11.106  1.00  0.00     0.047 A 
ATOM     19  C   UNL     1      18.319  40.669 -11.318  1.00  0.00     0.120 A 
ATOM     20  C   UNL     1      19.657  39.171 -12.215  1.00  0.00     0.105 A 
ATOM     21  N   UNL     1      17.799  40.235 -12.485  1.00  0.00    -0.269 N 
ATOM     22  N   UNL     1      18.592  39.317 -13.025  1.00  0.00    -0.172 NA
BRANCH  20  23
ATOM     23  C   UNL     1      20.731  38.195 -12.472  1.00  0.00     0.042 A 
ATOM     24  C   UNL     1      20.946  37.132 -11.585  1.00  0.00     0.034 A 
ATOM     25  C   UNL     1      21.518  38.307 -13.630  1.00  0.00     0.156 A 
ATOM     26  C   UNL     1      21.915  36.170 -11.869  1.00  0.00     0.044 A 
ATOM     27  C   UNL     1      22.497  37.340 -13.926  1.00  0.00     0.086 A 
ATOM     28  F   UNL     1      21.308  39.344 -14.483  1.00  0.00    -0.204 F 
ATOM     29  Cl  UNL     1      22.136  34.811 -10.783  1.00  0.00    -0.084 Cl
ATOM     30  C   UNL     1      22.683  36.267 -13.033  1.00  0.00     0.050 A 
BRANCH  27  31
ATOM     31  N   UNL     1      23.260  37.455 -15.144  1.00  0.00    -0.281 N 
ATOM     32  H   UNL     1      22.770  37.364 -16.064  1.00  0.00     0.180 HD
BRANCH  31  33
ATOM     33  S   UNL     1      24.959  37.814 -15.214  1.00  0.00     0.229 S 
ATOM     34  C   UNL     1      25.244  39.533 -14.861  1.00  0.00     0.183 C 
ATOM     35  O   UNL     1      25.713  36.942 -14.250  1.00  0.00    -0.207 OA
ATOM     36  O   UNL     1      25.452  37.528 -16.602  1.00  0.00    -0.207 OA
ENDBRANCH  31  33
ENDBRANCH  27  31
ENDBRANCH  20  23
BRANCH  21  37
ATOM     37  C   UNL     1      16.518  40.660 -13.060  1.00  0.00     0.101 C 
ATOM     38  C   UNL     1      16.747  41.338 -14.413  1.00  0.00     0.033 C 
ATOM     39  C   UNL     1      15.784  41.596 -12.092  1.00  0.00     0.033 C 
ENDBRANCH  21  37
ENDBRANCH   5  18
TORSDOF 10
ENDMDL
MODEL 13
REMARK VINA RESULT:    -7.824      3.904      8.934
REMARK INTER + INTRA:         -13.507
REMARK INTER:                 -12.446
REMARK INTRA:                  -1.061
REMARK UNBOUND:                -1.109
REMARK SMILES COC(=O)N[C@@H](C)CNc1nccc(-c2cn(C(C)C)nc2-c2cc(Cl)cc(NS(C)(=O)=O)c2F)n1
REMARK SMILES IDX 10 1 11 2 12 3 13 4 14 5 36 6 9 7 8 9 6 10 7 11 5 12 3 13
REMARK SMILES IDX 4 14 2 16 1 17 15 18 16 19 22 20 17 21 21 22 23 23 24 24
REMARK SMILES IDX 34 25 25 26 28 27 35 28 26 29 27 30 29 31 30 33 31 34 32 35
REMARK SMILES IDX 33 36 18 37 19 38 20 39
REMARK H PARENT 9 8 5 15 29 32
REMARK Flexibility Score: inf
ROOT
ATOM      1  C   UNL     1      19.644  41.522  -5.521  1.00  0.00     0.223 A 
ATOM      2  N   UNL     1      19.196  41.123  -4.298  1.00  0.00    -0.222 NA
ATOM      3  C   UNL     1      19.625  39.959  -3.740  1.00  0.00     0.117 A 
ATOM      4  C   UNL     1      20.538  39.152  -4.423  1.00  0.00     0.049 A 
ATOM      5  C   UNL     1      21.007  39.581  -5.678  1.00  0.00     0.080 A 
ATOM      6  N   UNL     1      20.547  40.757  -6.185  1.00  0.00    -0.213 NA
ENDROOT
BRANCH   1   7
ATOM      7  N   UNL     1      19.172  42.735  -6.118  1.00  0.00    -0.352 N 
ATOM      8  H   UNL     1      18.161  42.806  -6.377  1.00  0.00     0.163 HD
BRANCH   7   9
ATOM      9  C   UNL     1      20.048  43.872  -6.401  1.00  0.00     0.140 C 
BRANCH   9  10
ATOM     10  C   UNL     1      19.498  45.157  -5.755  1.00  0.00     0.101 C 
ATOM     11  C   UNL     1      19.717  46.368  -6.673  1.00  0.00     0.033 C 
BRANCH  10  12
ATOM     12  N   UNL     1      20.150  45.378  -4.459  1.00  0.00    -0.317 N 
ATOM     13  C   UNL     1      19.625  44.851  -3.229  1.00  0.00     0.407 C 
ATOM     14  O   UNL     1      18.552  44.181  -3.219  1.00  0.00    -0.225 OA
ATOM     15  H   UNL     1      21.009  45.969  -4.407  1.00  0.00     0.167 HD
BRANCH  13  16
ATOM     16  O   UNL     1      20.318  45.085  -2.043  1.00  0.00    -0.453 OA
ATOM     17  C   UNL     1      19.712  45.660  -0.898  1.00  0.00     0.284 C 
ENDBRANCH  13  16
ENDBRANCH  10  12
ENDBRANCH   9  10
ENDBRANCH   7   9
ENDBRANCH   1   7
BRANCH   5  18
ATOM     18  C   UNL     1      22.001  38.794  -6.451  1.00  0.00     0.047 A 
ATOM     19  C   UNL     1      23.005  37.974  -5.955  1.00  0.00     0.120 A 
ATOM     20  C   UNL     1      22.202  38.792  -7.833  1.00  0.00     0.105 A 
ATOM     21  N   UNL     1      23.736  37.524  -6.997  1.00  0.00    -0.269 N 
ATOM     22  N   UNL     1      23.268  38.028  -8.133  1.00  0.00    -0.172 NA
BRANCH  20  23
ATOM     23  C   UNL     1      21.452  39.554  -8.846  1.00  0.00     0.042 A 
ATOM     24  C   UNL     1      21.491  40.955  -8.849  1.00  0.00     0.034 A 
ATOM     25  C   UNL     1      20.724  38.875  -9.838  1.00  0.00     0.156 A 
ATOM     26  C   UNL     1      20.839  41.671  -9.853  1.00  0.00     0.044 A 
ATOM     27  C   UNL     1      20.064  39.589 -10.856  1.00  0.00     0.086 A 
ATOM     28  F   UNL     1      20.684  37.517  -9.826  1.00  0.00    -0.204 F 
ATOM     29  Cl  UNL     1      20.944  43.421  -9.882  1.00  0.00    -0.084 Cl
ATOM     30  C   UNL     1      20.134  40.996 -10.853  1.00  0.00     0.050 A 
BRANCH  27  31
ATOM     31  N   UNL     1      19.362  38.866 -11.887  1.00  0.00    -0.281 N 
ATOM     32  H   UNL     1      18.328  38.730 -11.801  1.00  0.00     0.180 HD
BRANCH  31  33
ATOM     33  S   UNL     1      20.098  38.248 -13.335  1.00  0.00     0.229 S 
ATOM     34  C   UNL     1      19.981  39.442 -14.648  1.00  0.00     0.183 C 
ATOM     35  O   UNL     1      21.533  37.886 -13.073  1.00  0.00    -0.207 OA
ATOM     36  O   UNL     1      19.362  37.010 -13.755  1.00  0.00    -0.207 OA
ENDBRANCH  31  33
ENDBRANCH  27  31
ENDBRANCH  20  23
BRANCH  21  37
ATOM     37  C   UNL     1      24.913  36.654  -6.902  1.00  0.00     0.101 C 
ATOM     38  C   UNL     1      25.252  36.077  -8.278  1.00  0.00     0.033 C 
ATOM     39  C   UNL     1      24.669  35.538  -5.881  1.00  0.00     0.033 C 
ENDBRANCH  21  37
ENDBRANCH   5  18
TORSDOF 10
ENDMDL
MODEL 14
REMARK VINA RESULT:    -7.794      4.259      7.260
REMARK INTER + INTRA:         -13.460
REMARK INTER:                 -11.907
REMARK INTRA:                  -1.553
REMARK UNBOUND:                -1.109
REMARK SMILES COC(=O)N[C@@H](C)CNc1nccc(-c2cn(C(C)C)nc2-c2cc(Cl)cc(NS(C)(=O)=O)c2F)n1
REMARK SMILES IDX 10 1 11 2 12 3 13 4 14 5 36 6 9 7 8 9 6 10 7 11 5 12 3 13
REMARK SMILES IDX 4 14 2 16 1 17 15 18 16 19 22 20 17 21 21 22 23 23 24 24
REMARK SMILES IDX 34 25 25 26 28 27 35 28 26 29 27 30 29 31 30 33 31 34 32 35
REMARK SMILES IDX 33 36 18 37 19 38 20 39
REMARK H PARENT 9 8 5 15 29 32
REMARK Flexibility Score: inf
ROOT
ATOM      1  C   UNL     1      22.920  38.802  -5.384  1.00  0.00     0.223 A 
ATOM      2  N   UNL     1      22.032  39.155  -4.413  1.00  0.00    -0.222 NA
ATOM      3  C   UNL     1      20.798  39.632  -4.732  1.00  0.00     0.117 A 
ATOM      4  C   UNL     1      20.426  39.767  -6.071  1.00  0.00     0.049 A 
ATOM      5  C   UNL     1      21.344  39.383  -7.066  1.00  0.00     0.080 A 
ATOM      6  N   UNL     1      22.562  38.908  -6.689  1.00  0.00    -0.213 NA
ENDROOT
BRANCH   1   7
ATOM      7  N   UNL     1      24.227  38.324  -5.047  1.00  0.00    -0.352 N 
ATOM      8  H   UNL     1      25.059  38.804  -5.463  1.00  0.00     0.163 HD
BRANCH   7   9
ATOM      9  C   UNL     1      24.449  37.180  -4.163  1.00  0.00     0.140 C 
BRANCH   9  10
ATOM     10  C   UNL     1      25.347  36.131  -4.845  1.00  0.00     0.101 C 
ATOM     11  C   UNL     1      26.810  36.295  -4.408  1.00  0.00     0.033 C 
BRANCH  10  12
ATOM     12  N   UNL     1      25.236  36.258  -6.302  1.00  0.00    -0.317 N 
ATOM     13  C   UNL     1      25.548  35.177  -7.198  1.00  0.00     0.407 C 
ATOM     14  O   UNL     1      25.955  34.066  -6.753  1.00  0.00    -0.225 OA
ATOM     15  H   UNL     1      24.957  37.171  -6.723  1.00  0.00     0.167 HD
BRANCH  13  16
ATOM     16  O   UNL     1      25.393  35.370  -8.570  1.00  0.00    -0.453 OA
ATOM     17  C   UNL     1      24.185  35.835  -9.149  1.00  0.00     0.284 C 
ENDBRANCH  13  16
ENDBRANCH  10  12
ENDBRANCH   9  10
ENDBRANCH   7   9
ENDBRANCH   1   7
BRANCH   5  18
ATOM     18  C   UNL     1      21.011  39.467  -8.510  1.00  0.00     0.047 A 
ATOM     19  C   UNL     1      21.195  38.493  -9.482  1.00  0.00     0.120 A 
ATOM     20  C   UNL     1      20.538  40.576  -9.216  1.00  0.00     0.105 A 
ATOM     21  N   UNL     1      20.842  39.015 -10.675  1.00  0.00    -0.269 N 
ATOM     22  N   UNL     1      20.461  40.279 -10.525  1.00  0.00    -0.172 NA
BRANCH  20  23
ATOM     23  C   UNL     1      20.235  41.914  -8.679  1.00  0.00     0.042 A 
ATOM     24  C   UNL     1      21.116  42.981  -8.904  1.00  0.00     0.034 A 
ATOM     25  C   UNL     1      19.042  42.133  -7.971  1.00  0.00     0.156 A 
ATOM     26  C   UNL     1      20.791  44.262  -8.457  1.00  0.00     0.044 A 
ATOM     27  C   UNL     1      18.705  43.422  -7.517  1.00  0.00     0.086 A 
ATOM     28  F   UNL     1      18.196  41.093  -7.750  1.00  0.00    -0.204 F 
ATOM     29  Cl  UNL     1      21.871  45.602  -8.796  1.00  0.00    -0.084 Cl
ATOM     30  C   UNL     1      19.593  44.485  -7.773  1.00  0.00     0.050 A 
BRANCH  27  31
ATOM     31  N   UNL     1      17.453  43.627  -6.832  1.00  0.00    -0.281 N 
ATOM     32  H   UNL     1      16.582  43.771  -7.394  1.00  0.00     0.180 HD
BRANCH  31  33
ATOM     33  S   UNL     1      17.253  43.579  -5.107  1.00  0.00     0.229 S 
ATOM     34  C   UNL     1      17.706  45.141  -4.386  1.00  0.00     0.183 C 
ATOM     35  O   UNL     1      15.835  43.225  -4.758  1.00  0.00    -0.207 OA
ATOM     36  O   UNL     1      18.160  42.521  -4.549  1.00  0.00    -0.207 OA
ENDBRANCH  31  33
ENDBRANCH  27  31
ENDBRANCH  20  23
BRANCH  21  37
ATOM     37  C   UNL     1      20.917  38.324 -11.967  1.00  0.00     0.101 C 
ATOM     38  C   UNL     1      19.671  38.628 -12.801  1.00  0.00     0.033 C 
ATOM     39  C   UNL     1      21.083  36.815 -11.753  1.00  0.00     0.033 C 
ENDBRANCH  21  37
ENDBRANCH   5  18
TORSDOF 10
ENDMDL
MODEL 15
REMARK VINA RESULT:    -7.763      3.956      6.923
REMARK INTER + INTRA:         -13.411
REMARK INTER:                 -11.663
REMARK INTRA:                  -1.748
REMARK UNBOUND:                -1.109
REMARK SMILES COC(=O)N[C@@H](C)CNc1nccc(-c2cn(C(C)C)nc2-c2cc(Cl)cc(NS(C)(=O)=O)c2F)n1
REMARK SMILES IDX 10 1 11 2 12 3 13 4 14 5 36 6 9 7 8 9 6 10 7 11 5 12 3 13
REMARK SMILES IDX 4 14 2 16 1 17 15 18 16 19 22 20 17 21 21 22 23 23 24 24
REMARK SMILES IDX 34 25 25 26 28 27 35 28 26 29 27 30 29 31 30 33 31 34 32 35
REMARK SMILES IDX 33 36 18 37 19 38 20 39
REMARK H PARENT 9 8 5 15 29 32
REMARK Flexibility Score: inf
ROOT
ATOM      1  C   UNL     1      22.929  38.684  -5.234  1.00  0.00     0.223 A 
ATOM      2  N   UNL     1      22.013  39.208  -4.373  1.00  0.00    -0.222 NA
ATOM      3  C   UNL     1      20.809  39.657  -4.820  1.00  0.00     0.117 A 
ATOM      4  C   UNL     1      20.498  39.587  -6.179  1.00  0.00     0.049 A 
ATOM      5  C   UNL     1      21.445  39.029  -7.058  1.00  0.00     0.080 A 
ATOM      6  N   UNL     1      22.631  38.591  -6.554  1.00  0.00    -0.213 NA
ENDROOT
BRANCH   1   7
ATOM      7  N   UNL     1      24.206  38.234  -4.765  1.00  0.00    -0.352 N 
ATOM      8  H   UNL     1      25.040  38.849  -4.916  1.00  0.00     0.163 HD
BRANCH   7   9
ATOM      9  C   UNL     1      24.398  36.944  -4.104  1.00  0.00     0.140 C 
BRANCH   9  10
ATOM     10  C   UNL     1      25.357  36.054  -4.916  1.00  0.00     0.101 C 
ATOM     11  C   UNL     1      26.803  36.217  -4.424  1.00  0.00     0.033 C 
BRANCH  10  12
ATOM     12  N   UNL     1      25.265  36.396  -6.339  1.00  0.00    -0.317 N 
ATOM     13  C   UNL     1      25.611  35.468  -7.382  1.00  0.00     0.407 C 
ATOM     14  O   UNL     1      26.034  34.310  -7.101  1.00  0.00    -0.225 OA
ATOM     15  H   UNL     1      24.973  37.357  -6.622  1.00  0.00     0.167 HD
BRANCH  13  16
ATOM     16  O   UNL     1      25.471  35.862  -8.711  1.00  0.00    -0.453 OA
ATOM     17  C   UNL     1      24.726  35.118  -9.660  1.00  0.00     0.284 C 
ENDBRANCH  13  16
ENDBRANCH  10  12
ENDBRANCH   9  10
ENDBRANCH   7   9
ENDBRANCH   1   7
BRANCH   5  18
ATOM     18  C   UNL     1      21.176  38.891  -8.511  1.00  0.00     0.047 A 
ATOM     19  C   UNL     1      21.553  37.851  -9.350  1.00  0.00     0.120 A 
ATOM     20  C   UNL     1      20.577  39.822  -9.362  1.00  0.00     0.105 A 
ATOM     21  N   UNL     1      21.186  38.169 -10.609  1.00  0.00    -0.269 N 
ATOM     22  N   UNL     1      20.611  39.366 -10.627  1.00  0.00    -0.172 NA
BRANCH  20  23
ATOM     23  C   UNL     1      20.048  41.150  -9.004  1.00  0.00     0.042 A 
ATOM     24  C   UNL     1      20.923  42.226  -8.799  1.00  0.00     0.034 A 
ATOM     25  C   UNL     1      18.662  41.350  -8.904  1.00  0.00     0.156 A 
ATOM     26  C   UNL     1      20.416  43.498  -8.531  1.00  0.00     0.044 A 
ATOM     27  C   UNL     1      18.141  42.630  -8.636  1.00  0.00     0.086 A 
ATOM     28  F   UNL     1      17.820  40.301  -9.098  1.00  0.00    -0.204 F 
ATOM     29  Cl  UNL     1      21.516  44.849  -8.335  1.00  0.00    -0.084 Cl
ATOM     30  C   UNL     1      19.035  43.703  -8.454  1.00  0.00     0.050 A 
BRANCH  27  31
ATOM     31  N   UNL     1      16.712  42.816  -8.584  1.00  0.00    -0.281 N 
ATOM     32  H   UNL     1      16.256  43.007  -7.662  1.00  0.00     0.180 HD
BRANCH  31  33
ATOM     33  S   UNL     1      15.666  42.824  -9.972  1.00  0.00     0.229 S 
ATOM     34  C   UNL     1      14.248  43.854  -9.674  1.00  0.00     0.183 C 
ATOM     35  O   UNL     1      16.419  43.294 -11.185  1.00  0.00    -0.207 OA
ATOM     36  O   UNL     1      15.190  41.422 -10.220  1.00  0.00    -0.207 OA
ENDBRANCH  31  33
ENDBRANCH  27  31
ENDBRANCH  20  23
BRANCH  21  37
ATOM     37  C   UNL     1      21.430  37.352 -11.802  1.00  0.00     0.101 C 
ATOM     38  C   UNL     1      20.259  37.483 -12.778  1.00  0.00     0.033 C 
ATOM     39  C   UNL     1      21.658  35.888 -11.408  1.00  0.00     0.033 C 
ENDBRANCH  21  37
ENDBRANCH   5  18
TORSDOF 10
ENDMDL
