MODEL 1
REMARK VINA RESULT:    -6.832      0.000      0.000
REMARK INTER + INTRA:         -13.330
REMARK INTER:                 -12.025
REMARK INTRA:                  -1.305
REMARK UNBOUND:                -1.305
REMARK SMILES C#Cc1cccc(Nc2ncnc3cc4c(cc23)OCCOCCOCCO4)c1
REMARK SMILES IDX 9 1 10 2 11 3 12 4 13 5 14 6 15 7 16 8 17 9 18 10 8 11 7 13
REMARK SMILES IDX 3 14 4 15 29 16 5 17 6 18 2 19 1 20 19 21 20 22 21 23 22 24
REMARK SMILES IDX 23 25 28 27 27 28 26 29 25 30 24 31
REMARK H PARENT 8 12
REMARK Flexibility Score: 70.00
ROOT
ATOM      1  C   UNL     1      16.888  33.662  13.258  1.00  0.00     0.141 A 
ATOM      2  N   UNL     1      15.890  34.142  14.049  1.00  0.00    -0.219 NA
ATOM      3  C   UNL     1      16.147  34.984  15.084  1.00  0.00     0.224 A 
ATOM      4  N   UNL     1      17.422  35.367  15.353  1.00  0.00    -0.236 NA
ATOM      5  C   UNL     1      18.460  34.923  14.595  1.00  0.00     0.080 A 
ATOM      6  C   UNL     1      19.761  35.313  14.906  1.00  0.00     0.079 A 
ATOM      7  C   UNL     1      20.851  34.839  14.151  1.00  0.00     0.163 A 
ATOM      8  C   UNL     1      20.611  33.993  13.045  1.00  0.00     0.162 A 
ATOM      9  C   UNL     1      19.306  33.586  12.751  1.00  0.00     0.064 A 
ATOM     10  C   UNL     1      18.220  34.052  13.512  1.00  0.00     0.047 A 
ENDROOT
BRANCH   1  11
ATOM     11  N   UNL     1      16.558  32.805  12.153  1.00  0.00    -0.340 N 
ATOM     12  H   UNL     1      16.526  31.777  12.327  1.00  0.00     0.168 HD
BRANCH  11  13
ATOM     13  C   UNL     1      16.403  33.273  10.800  1.00  0.00     0.041 A 
ATOM     14  C   UNL     1      16.419  32.894   8.391  1.00  0.00     0.026 A 
ATOM     15  C   UNL     1      16.157  34.252   8.175  1.00  0.00     0.017 A 
ATOM     16  C   UNL     1      16.554  32.407   9.700  1.00  0.00     0.043 A 
ATOM     17  C   UNL     1      16.032  35.121   9.264  1.00  0.00     0.003 A 
ATOM     18  C   UNL     1      16.150  34.635  10.568  1.00  0.00     0.026 A 
BRANCH  14  19
ATOM     19  C   UNL     1      16.554  31.999   7.269  1.00  0.00    -0.070 C 
ATOM     20  C   UNL     1      16.658  31.251   6.330  1.00  0.00     0.010 C 
ENDBRANCH  14  19
ENDBRANCH  11  13
ENDBRANCH   1  11
BRANCH   8  21
ATOM     21  O   UNL     1      21.640  33.494  12.231  1.00  0.00    -0.487 OA
BRANCH  21  22
ATOM     22  C   UNL     1      22.554  32.452  12.582  1.00  0.00     0.258 C 
BRANCH  22  23
ATOM     23  C   UNL     1      23.959  32.738  12.042  1.00  0.00     0.201 C 
BRANCH  23  24
ATOM     24  O   UNL     1      24.079  34.092  11.634  1.00  0.00    -0.376 OA
BRANCH  24  25
ATOM     25  C   UNL     1      25.179  34.756  12.239  1.00  0.00     0.188 CG0
ATOM     26  G   UNL     1      24.829  36.211  12.530  1.00  0.00     0.000 G0
ENDBRANCH  24  25
ENDBRANCH  23  24
ENDBRANCH  22  23
ENDBRANCH  21  22
ENDBRANCH   8  21
BRANCH   7  27
ATOM     27  O   UNL     1      22.176  35.145  14.499  1.00  0.00    -0.487 OA
BRANCH  27  28
ATOM     28  C   UNL     1      22.718  36.452  14.682  1.00  0.00     0.258 C 
BRANCH  28  29
ATOM     29  C   UNL     1      22.887  37.212  13.346  1.00  0.00     0.201 C 
BRANCH  29  30
ATOM     30  O   UNL     1      23.434  36.393  12.330  1.00  0.00    -0.376 OA
BRANCH  30  31
ATOM     31  C   UNL     1      24.820  36.205  12.536  1.00  0.00     0.188 CG0
ATOM     32  G   UNL     1      25.181  34.756  12.225  1.00  0.00     0.000 G0
ENDBRANCH  30  31
ENDBRANCH  29  30
ENDBRANCH  28  29
ENDBRANCH  27  28
ENDBRANCH   7  27
TORSDOF 3
ENDMDL
MODEL 2
REMARK VINA RESULT:    -6.715      4.165      6.118
REMARK INTER + INTRA:         -13.124
REMARK INTER:                 -12.165
REMARK INTRA:                  -0.959
REMARK UNBOUND:                -1.305
REMARK SMILES C#Cc1cccc(Nc2ncnc3cc4c(cc23)OCCOCCOCCO4)c1
REMARK SMILES IDX 9 1 10 2 11 3 12 4 13 5 14 6 15 7 16 8 17 9 18 10 8 11 7 13
REMARK SMILES IDX 3 14 4 15 29 16 5 17 6 18 2 19 1 20 19 21 20 22 21 23 22 24
REMARK SMILES IDX 23 25 28 27 27 28 26 29 25 30 24 31
REMARK H PARENT 8 12
REMARK Flexibility Score: 70.00
ROOT
ATOM      1  C   UNL     1      18.649  32.703  11.979  1.00  0.00     0.141 A 
ATOM      2  N   UNL     1      19.886  32.285  11.593  1.00  0.00    -0.219 NA
ATOM      3  C   UNL     1      21.008  32.694  12.242  1.00  0.00     0.224 A 
ATOM      4  N   UNL     1      20.916  33.539  13.300  1.00  0.00    -0.236 NA
ATOM      5  C   UNL     1      19.709  33.988  13.733  1.00  0.00     0.080 A 
ATOM      6  C   UNL     1      19.644  34.873  14.808  1.00  0.00     0.079 A 
ATOM      7  C   UNL     1      18.403  35.372  15.251  1.00  0.00     0.163 A 
ATOM      8  C   UNL     1      17.217  34.935  14.621  1.00  0.00     0.162 A 
ATOM      9  C   UNL     1      17.289  34.065  13.529  1.00  0.00     0.064 A 
ATOM     10  C   UNL     1      18.527  33.575  13.081  1.00  0.00     0.047 A 
ENDROOT
BRANCH   1  11
ATOM     11  N   UNL     1      17.493  32.211  11.284  1.00  0.00    -0.340 N 
ATOM     12  H   UNL     1      16.815  31.626  11.819  1.00  0.00     0.168 HD
BRANCH  11  13
ATOM     13  C   UNL     1      17.288  32.369   9.867  1.00  0.00     0.041 A 
ATOM     14  C   UNL     1      17.676  31.679   7.561  1.00  0.00     0.026 A 
ATOM     15  C   UNL     1      16.912  32.762   7.108  1.00  0.00     0.017 A 
ATOM     16  C   UNL     1      17.874  31.490   8.936  1.00  0.00     0.043 A 
ATOM     17  C   UNL     1      16.349  33.652   8.027  1.00  0.00     0.003 A 
ATOM     18  C   UNL     1      16.532  33.456   9.398  1.00  0.00     0.026 A 
BRANCH  14  19
ATOM     19  C   UNL     1      18.262  30.764   6.613  1.00  0.00    -0.070 C 
ATOM     20  C   UNL     1      18.757  29.997   5.827  1.00  0.00     0.010 C 
ENDBRANCH  14  19
ENDBRANCH  11  13
ENDBRANCH   1  11
BRANCH   8  21
ATOM     21  O   UNL     1      15.942  35.369  15.016  1.00  0.00    -0.487 OA
BRANCH  21  22
ATOM     22  C   UNL     1      14.756  34.569  15.044  1.00  0.00     0.258 C 
BRANCH  22  23
ATOM     23  C   UNL     1      14.258  34.360  16.477  1.00  0.00     0.201 C 
BRANCH  23  24
ATOM     24  O   UNL     1      15.277  34.668  17.418  1.00  0.00    -0.376 OA
BRANCH  24  25
ATOM     25  C   UNL     1      15.011  35.854  18.151  1.00  0.00     0.188 CG0
ATOM     26  G   UNL     1      16.299  36.413  18.746  1.00  0.00     0.000 G0
ENDBRANCH  24  25
ENDBRANCH  23  24
ENDBRANCH  22  23
ENDBRANCH  21  22
ENDBRANCH   8  21
BRANCH   7  27
ATOM     27  O   UNL     1      18.319  36.333  16.272  1.00  0.00    -0.487 OA
BRANCH  27  28
ATOM     28  C   UNL     1      19.234  36.493  17.355  1.00  0.00     0.258 C 
BRANCH  28  29
ATOM     29  C   UNL     1      18.610  36.101  18.714  1.00  0.00     0.201 C 
BRANCH  29  30
ATOM     30  O   UNL     1      17.349  35.478  18.567  1.00  0.00    -0.376 OA
BRANCH  30  31
ATOM     31  C   UNL     1      16.308  36.419  18.738  1.00  0.00     0.188 CG0
ATOM     32  G   UNL     1      15.017  35.849  18.160  1.00  0.00     0.000 G0
ENDBRANCH  30  31
ENDBRANCH  29  30
ENDBRANCH  28  29
ENDBRANCH  27  28
ENDBRANCH   7  27
TORSDOF 3
ENDMDL
MODEL 3
REMARK VINA RESULT:    -6.536      2.190      2.879
REMARK INTER + INTRA:         -12.808
REMARK INTER:                 -11.530
REMARK INTRA:                  -1.277
REMARK UNBOUND:                -1.305
REMARK SMILES C#Cc1cccc(Nc2ncnc3cc4c(cc23)OCCOCCOCCO4)c1
REMARK SMILES IDX 9 1 10 2 11 3 12 4 13 5 14 6 15 7 16 8 17 9 18 10 8 11 7 13
REMARK SMILES IDX 3 14 4 15 29 16 5 17 6 18 2 19 1 20 19 21 20 22 21 23 22 24
REMARK SMILES IDX 23 25 28 27 27 28 26 29 25 30 24 31
REMARK H PARENT 8 12
REMARK Flexibility Score: 70.00
ROOT
ATOM      1  C   UNL     1      16.371  33.684  13.485  1.00  0.00     0.141 A 
ATOM      2  N   UNL     1      15.098  33.827  13.946  1.00  0.00    -0.219 NA
ATOM      3  C   UNL     1      14.812  34.631  15.003  1.00  0.00     0.224 A 
ATOM      4  N   UNL     1      15.804  35.316  15.629  1.00  0.00    -0.236 NA
ATOM      5  C   UNL     1      17.093  35.217  15.211  1.00  0.00     0.080 A 
ATOM      6  C   UNL     1      18.094  35.913  15.885  1.00  0.00     0.079 A 
ATOM      7  C   UNL     1      19.440  35.797  15.485  1.00  0.00     0.163 A 
ATOM      8  C   UNL     1      19.764  34.999  14.365  1.00  0.00     0.162 A 
ATOM      9  C   UNL     1      18.758  34.284  13.707  1.00  0.00     0.064 A 
ATOM     10  C   UNL     1      17.417  34.392  14.113  1.00  0.00     0.047 A 
ENDROOT
BRANCH   1  11
ATOM     11  N   UNL     1      16.614  32.851  12.340  1.00  0.00    -0.340 N 
ATOM     12  H   UNL     1      17.032  31.909  12.503  1.00  0.00     0.168 HD
BRANCH  11  13
ATOM     13  C   UNL     1      16.440  33.294  10.981  1.00  0.00     0.041 A 
ATOM     14  C   UNL     1      16.436  32.874   8.579  1.00  0.00     0.026 A 
ATOM     15  C   UNL     1      16.156  34.225   8.342  1.00  0.00     0.017 A 
ATOM     16  C   UNL     1      16.590  32.411   9.894  1.00  0.00     0.043 A 
ATOM     17  C   UNL     1      16.031  35.111   9.417  1.00  0.00     0.003 A 
ATOM     18  C   UNL     1      16.168  34.649  10.728  1.00  0.00     0.026 A 
BRANCH  14  19
ATOM     19  C   UNL     1      16.570  31.961   7.471  1.00  0.00    -0.070 C 
ATOM     20  C   UNL     1      16.687  31.204   6.540  1.00  0.00     0.010 C 
ENDBRANCH  14  19
ENDBRANCH  11  13
ENDBRANCH   1  11
BRANCH   8  21
ATOM     21  O   UNL     1      21.076  34.849  13.892  1.00  0.00    -0.487 OA
BRANCH  21  22
ATOM     22  C   UNL     1      21.526  33.844  12.978  1.00  0.00     0.258 C 
BRANCH  22  23
ATOM     23  C   UNL     1      22.647  32.997  13.590  1.00  0.00     0.201 C 
BRANCH  23  24
ATOM     24  O   UNL     1      22.221  32.392  14.802  1.00  0.00    -0.376 OA
BRANCH  24  25
ATOM     25  C   UNL     1      22.894  32.906  15.942  1.00  0.00     0.188 CG0
ATOM     26  G   UNL     1      21.895  33.240  17.045  1.00  0.00     0.000 G0
ENDBRANCH  24  25
ENDBRANCH  23  24
ENDBRANCH  22  23
ENDBRANCH  21  22
ENDBRANCH   8  21
BRANCH   7  27
ATOM     27  O   UNL     1      20.477  36.417  16.202  1.00  0.00    -0.487 OA
BRANCH  27  28
ATOM     28  C   UNL     1      20.616  36.450  17.622  1.00  0.00     0.258 C 
BRANCH  28  29
ATOM     29  C   UNL     1      21.032  35.080  18.204  1.00  0.00     0.201 C 
BRANCH  29  30
ATOM     30  O   UNL     1      22.173  34.546  17.560  1.00  0.00    -0.376 OA
BRANCH  30  31
ATOM     31  C   UNL     1      21.904  33.248  17.069  1.00  0.00     0.188 CG0
ATOM     32  G   UNL     1      22.893  32.919  15.955  1.00  0.00     0.000 G0
ENDBRANCH  30  31
ENDBRANCH  29  30
ENDBRANCH  28  29
ENDBRANCH  27  28
ENDBRANCH   7  27
TORSDOF 3
ENDMDL
MODEL 4
REMARK VINA RESULT:    -6.479      3.835      4.922
REMARK INTER + INTRA:         -12.709
REMARK INTER:                 -11.645
REMARK INTRA:                  -1.064
REMARK UNBOUND:                -1.305
REMARK SMILES C#Cc1cccc(Nc2ncnc3cc4c(cc23)OCCOCCOCCO4)c1
REMARK SMILES IDX 9 1 10 2 11 3 12 4 13 5 14 6 15 7 16 8 17 9 18 10 8 11 7 13
REMARK SMILES IDX 3 14 4 15 29 16 5 17 6 18 2 19 1 20 19 21 20 22 21 23 22 24
REMARK SMILES IDX 23 25 28 27 27 28 26 29 25 30 24 31
REMARK H PARENT 8 12
REMARK Flexibility Score: 70.00
ROOT
ATOM      1  C   UNL     1      15.804  33.775  13.226  1.00  0.00     0.141 A 
ATOM      2  N   UNL     1      14.491  33.496  13.005  1.00  0.00    -0.219 NA
ATOM      3  C   UNL     1      13.551  33.692  13.967  1.00  0.00     0.224 A 
ATOM      4  N   UNL     1      13.911  34.175  15.184  1.00  0.00    -0.236 NA
ATOM      5  C   UNL     1      15.207  34.475  15.462  1.00  0.00     0.080 A 
ATOM      6  C   UNL     1      15.551  34.949  16.727  1.00  0.00     0.079 A 
ATOM      7  C   UNL     1      16.894  35.235  17.043  1.00  0.00     0.163 A 
ATOM      8  C   UNL     1      17.887  35.078  16.051  1.00  0.00     0.162 A 
ATOM      9  C   UNL     1      17.539  34.581  14.791  1.00  0.00     0.064 A 
ATOM     10  C   UNL     1      16.201  34.285  14.480  1.00  0.00     0.047 A 
ENDROOT
BRANCH   1  11
ATOM     11  N   UNL     1      16.752  33.585  12.163  1.00  0.00    -0.340 N 
ATOM     12  H   UNL     1      17.742  33.386  12.423  1.00  0.00     0.168 HD
BRANCH  11  13
ATOM     13  C   UNL     1      16.438  33.786  10.772  1.00  0.00     0.041 A 
ATOM     14  C   UNL     1      16.285  32.976   8.476  1.00  0.00     0.026 A 
ATOM     15  C   UNL     1      15.880  34.249   8.055  1.00  0.00     0.017 A 
ATOM     16  C   UNL     1      16.576  32.748   9.829  1.00  0.00     0.043 A 
ATOM     17  C   UNL     1      15.766  35.288   8.982  1.00  0.00     0.003 A 
ATOM     18  C   UNL     1      16.040  35.059  10.332  1.00  0.00     0.026 A 
BRANCH  14  19
ATOM     19  C   UNL     1      16.408  31.905   7.519  1.00  0.00    -0.070 C 
ATOM     20  C   UNL     1      16.513  31.016   6.712  1.00  0.00     0.010 C 
ENDBRANCH  14  19
ENDBRANCH  11  13
ENDBRANCH   1  11
BRANCH   8  21
ATOM     21  O   UNL     1      19.243  35.361  16.279  1.00  0.00    -0.487 OA
BRANCH  21  22
ATOM     22  C   UNL     1      20.236  34.419  16.693  1.00  0.00     0.258 C 
BRANCH  22  23
ATOM     23  C   UNL     1      21.557  35.117  17.034  1.00  0.00     0.201 C 
BRANCH  23  24
ATOM     24  O   UNL     1      21.326  36.305  17.776  1.00  0.00    -0.376 OA
BRANCH  24  25
ATOM     25  C   UNL     1      21.314  36.087  19.179  1.00  0.00     0.188 CG0
ATOM     26  G   UNL     1      20.238  36.940  19.843  1.00  0.00     0.000 G0
ENDBRANCH  24  25
ENDBRANCH  23  24
ENDBRANCH  22  23
ENDBRANCH  21  22
ENDBRANCH   8  21
BRANCH   7  27
ATOM     27  O   UNL     1      17.278  35.627  18.335  1.00  0.00    -0.487 OA
BRANCH  27  28
ATOM     28  C   UNL     1      16.861  36.810  19.016  1.00  0.00     0.258 C 
BRANCH  28  29
ATOM     29  C   UNL     1      18.055  37.653  19.518  1.00  0.00     0.201 C 
BRANCH  29  30
ATOM     30  O   UNL     1      19.268  37.296  18.882  1.00  0.00    -0.376 OA
BRANCH  30  31
ATOM     31  C   UNL     1      20.247  36.951  19.842  1.00  0.00     0.188 CG0
ATOM     32  G   UNL     1      21.315  36.087  19.179  1.00  0.00     0.000 G0
ENDBRANCH  30  31
ENDBRANCH  29  30
ENDBRANCH  28  29
ENDBRANCH  27  28
ENDBRANCH   7  27
TORSDOF 3
ENDMDL
MODEL 5
REMARK VINA RESULT:    -6.414      4.137      7.603
REMARK INTER + INTRA:         -12.594
REMARK INTER:                 -11.464
REMARK INTRA:                  -1.131
REMARK UNBOUND:                -1.305
REMARK SMILES C#Cc1cccc(Nc2ncnc3cc4c(cc23)OCCOCCOCCO4)c1
REMARK SMILES IDX 9 1 10 2 11 3 12 4 13 5 14 6 15 7 16 8 17 9 18 10 8 11 7 13
REMARK SMILES IDX 3 14 4 15 29 16 5 17 6 18 2 19 1 20 19 21 20 22 21 23 22 24
REMARK SMILES IDX 23 25 28 27 27 28 26 29 25 30 24 31
REMARK H PARENT 8 12
REMARK Flexibility Score: 70.00
ROOT
ATOM      1  C   UNL     1      20.074  32.537  12.470  1.00  0.00     0.141 A 
ATOM      2  N   UNL     1      19.815  32.048  11.226  1.00  0.00    -0.219 NA
ATOM      3  C   UNL     1      18.612  32.240  10.624  1.00  0.00     0.224 A 
ATOM      4  N   UNL     1      17.632  32.931  11.260  1.00  0.00    -0.236 NA
ATOM      5  C   UNL     1      17.833  33.446  12.502  1.00  0.00     0.080 A 
ATOM      6  C   UNL     1      16.803  34.131  13.142  1.00  0.00     0.079 A 
ATOM      7  C   UNL     1      16.983  34.645  14.441  1.00  0.00     0.163 A 
ATOM      8  C   UNL     1      18.235  34.495  15.077  1.00  0.00     0.162 A 
ATOM      9  C   UNL     1      19.259  33.787  14.439  1.00  0.00     0.064 A 
ATOM     10  C   UNL     1      19.075  33.265  13.148  1.00  0.00     0.047 A 
ENDROOT
BRANCH   1  11
ATOM     11  N   UNL     1      21.375  32.340  13.045  1.00  0.00    -0.340 N 
ATOM     12  H   UNL     1      21.446  31.734  13.892  1.00  0.00     0.168 HD
BRANCH  11  13
ATOM     13  C   UNL     1      22.557  33.034  12.603  1.00  0.00     0.041 A 
ATOM     14  C   UNL     1      24.875  33.042  11.845  1.00  0.00     0.026 A 
ATOM     15  C   UNL     1      24.858  34.442  11.810  1.00  0.00     0.017 A 
ATOM     16  C   UNL     1      23.731  32.340  12.253  1.00  0.00     0.043 A 
ATOM     17  C   UNL     1      23.703  35.136  12.180  1.00  0.00     0.003 A 
ATOM     18  C   UNL     1      22.558  34.439  12.570  1.00  0.00     0.026 A 
BRANCH  14  19
ATOM     19  C   UNL     1      26.068  32.326  11.469  1.00  0.00    -0.070 C 
ATOM     20  C   UNL     1      27.065  31.722  11.162  1.00  0.00     0.010 C 
ENDBRANCH  14  19
ENDBRANCH  11  13
ENDBRANCH   1  11
BRANCH   8  21
ATOM     21  O   UNL     1      18.501  34.996  16.361  1.00  0.00    -0.487 OA
BRANCH  21  22
ATOM     22  C   UNL     1      19.257  34.332  17.378  1.00  0.00     0.258 C 
BRANCH  22  23
ATOM     23  C   UNL     1      19.076  35.012  18.739  1.00  0.00     0.201 C 
BRANCH  23  24
ATOM     24  O   UNL     1      17.726  34.934  19.170  1.00  0.00    -0.376 OA
BRANCH  24  25
ATOM     25  C   UNL     1      17.070  36.193  19.163  1.00  0.00     0.188 CG0
ATOM     26  G   UNL     1      15.724  36.091  18.454  1.00  0.00     0.000 G0
ENDBRANCH  24  25
ENDBRANCH  23  24
ENDBRANCH  22  23
ENDBRANCH  21  22
ENDBRANCH   8  21
BRANCH   7  27
ATOM     27  O   UNL     1      15.933  35.260  15.141  1.00  0.00    -0.487 OA
BRANCH  27  28
ATOM     28  C   UNL     1      14.702  34.647  15.523  1.00  0.00     0.258 C 
BRANCH  28  29
ATOM     29  C   UNL     1      14.445  34.740  17.045  1.00  0.00     0.201 C 
BRANCH  29  30
ATOM     30  O   UNL     1      15.646  34.845  17.786  1.00  0.00    -0.376 OA
BRANCH  30  31
ATOM     31  C   UNL     1      15.711  36.091  18.451  1.00  0.00     0.188 CG0
ATOM     32  G   UNL     1      17.060  36.215  19.152  1.00  0.00     0.000 G0
ENDBRANCH  30  31
ENDBRANCH  29  30
ENDBRANCH  28  29
ENDBRANCH  27  28
ENDBRANCH   7  27
TORSDOF 3
ENDMDL
MODEL 6
REMARK VINA RESULT:    -6.369      1.610      1.876
REMARK INTER + INTRA:         -12.515
REMARK INTER:                 -11.216
REMARK INTRA:                  -1.299
REMARK UNBOUND:                -1.305
REMARK SMILES C#Cc1cccc(Nc2ncnc3cc4c(cc23)OCCOCCOCCO4)c1
REMARK SMILES IDX 9 1 10 2 11 3 12 4 13 5 14 6 15 7 16 8 17 9 18 10 8 11 7 13
REMARK SMILES IDX 3 14 4 15 29 16 5 17 6 18 2 19 1 20 19 21 20 22 21 23 22 24
REMARK SMILES IDX 23 25 28 27 27 28 26 29 25 30 24 31
REMARK H PARENT 8 12
REMARK Flexibility Score: 70.00
ROOT
ATOM      1  C   UNL     1      17.885  33.497  13.396  1.00  0.00     0.141 A 
ATOM      2  N   UNL     1      16.847  33.888  14.186  1.00  0.00    -0.219 NA
ATOM      3  C   UNL     1      17.004  34.836  15.147  1.00  0.00     0.224 A 
ATOM      4  N   UNL     1      18.216  35.418  15.341  1.00  0.00    -0.236 NA
ATOM      5  C   UNL     1      19.288  35.071  14.581  1.00  0.00     0.080 A 
ATOM      6  C   UNL     1      20.525  35.667  14.816  1.00  0.00     0.079 A 
ATOM      7  C   UNL     1      21.654  35.298  14.059  1.00  0.00     0.163 A 
ATOM      8  C   UNL     1      21.513  34.344  13.027  1.00  0.00     0.162 A 
ATOM      9  C   UNL     1      20.274  33.732  12.810  1.00  0.00     0.064 A 
ATOM     10  C   UNL     1      19.151  34.093  13.573  1.00  0.00     0.047 A 
ENDROOT
BRANCH   1  11
ATOM     11  N   UNL     1      17.656  32.519  12.369  1.00  0.00    -0.340 N 
ATOM     12  H   UNL     1      17.796  31.515  12.613  1.00  0.00     0.168 HD
BRANCH  11  13
ATOM     13  C   UNL     1      17.377  32.855  10.996  1.00  0.00     0.041 A 
ATOM     14  C   UNL     1      17.562  32.409   8.606  1.00  0.00     0.026 A 
ATOM     15  C   UNL     1      16.865  33.592   8.331  1.00  0.00     0.017 A 
ATOM     16  C   UNL     1      17.829  32.047   9.935  1.00  0.00     0.043 A 
ATOM     17  C   UNL     1      16.437  34.410   9.381  1.00  0.00     0.003 A 
ATOM     18  C   UNL     1      16.687  34.043  10.705  1.00  0.00     0.026 A 
BRANCH  14  19
ATOM     19  C   UNL     1      18.009  31.568   7.524  1.00  0.00    -0.070 C 
ATOM     20  C   UNL     1      18.380  30.858   6.623  1.00  0.00     0.010 C 
ENDBRANCH  14  19
ENDBRANCH  11  13
ENDBRANCH   1  11
BRANCH   8  21
ATOM     21  O   UNL     1      22.583  33.937  12.215  1.00  0.00    -0.487 OA
BRANCH  21  22
ATOM     22  C   UNL     1      23.417  32.797  12.438  1.00  0.00     0.258 C 
BRANCH  22  23
ATOM     23  C   UNL     1      24.880  33.104  12.104  1.00  0.00     0.201 C 
BRANCH  23  24
ATOM     24  O   UNL     1      25.454  33.961  13.079  1.00  0.00    -0.376 OA
BRANCH  24  25
ATOM     25  C   UNL     1      26.090  33.252  14.132  1.00  0.00     0.188 CG0
ATOM     26  G   UNL     1      25.695  33.837  15.484  1.00  0.00     0.000 G0
ENDBRANCH  24  25
ENDBRANCH  23  24
ENDBRANCH  22  23
ENDBRANCH  21  22
ENDBRANCH   8  21
BRANCH   7  27
ATOM     27  O   UNL     1      22.928  35.818  14.336  1.00  0.00    -0.487 OA
BRANCH  27  28
ATOM     28  C   UNL     1      23.435  36.162  15.625  1.00  0.00     0.258 C 
BRANCH  28  29
ATOM     29  C   UNL     1      23.868  34.921  16.438  1.00  0.00     0.201 C 
BRANCH  29  30
ATOM     30  O   UNL     1      24.292  33.856  15.607  1.00  0.00    -0.376 OA
BRANCH  30  31
ATOM     31  C   UNL     1      25.701  33.846  15.494  1.00  0.00     0.188 CG0
ATOM     32  G   UNL     1      26.090  33.252  14.144  1.00  0.00     0.000 G0
ENDBRANCH  30  31
ENDBRANCH  29  30
ENDBRANCH  28  29
ENDBRANCH  27  28
ENDBRANCH   7  27
TORSDOF 3
ENDMDL
MODEL 7
REMARK VINA RESULT:    -6.329      3.740      5.427
REMARK INTER + INTRA:         -12.444
REMARK INTER:                 -11.290
REMARK INTRA:                  -1.154
REMARK UNBOUND:                -1.305
REMARK SMILES C#Cc1cccc(Nc2ncnc3cc4c(cc23)OCCOCCOCCO4)c1
REMARK SMILES IDX 9 1 10 2 11 3 12 4 13 5 14 6 15 7 16 8 17 9 18 10 8 11 7 13
REMARK SMILES IDX 3 14 4 15 29 16 5 17 6 18 2 19 1 20 19 21 20 22 21 23 22 24
REMARK SMILES IDX 23 25 28 27 27 28 26 29 25 30 24 31
REMARK H PARENT 8 12
REMARK Flexibility Score: 70.00
ROOT
ATOM      1  C   UNL     1      19.158  33.028  12.532  1.00  0.00     0.141 A 
ATOM      2  N   UNL     1      20.151  32.376  11.867  1.00  0.00    -0.219 NA
ATOM      3  C   UNL     1      21.458  32.544  12.200  1.00  0.00     0.224 A 
ATOM      4  N   UNL     1      21.803  33.377  13.216  1.00  0.00    -0.236 NA
ATOM      5  C   UNL     1      20.856  34.052  13.918  1.00  0.00     0.080 A 
ATOM      6  C   UNL     1      21.238  34.918  14.941  1.00  0.00     0.079 A 
ATOM      7  C   UNL     1      20.272  35.649  15.659  1.00  0.00     0.163 A 
ATOM      8  C   UNL     1      18.903  35.466  15.361  1.00  0.00     0.162 A 
ATOM      9  C   UNL     1      18.526  34.614  14.319  1.00  0.00     0.064 A 
ATOM     10  C   UNL     1      19.491  33.892  13.596  1.00  0.00     0.047 A 
ENDROOT
BRANCH   1  11
ATOM     11  N   UNL     1      17.791  32.786  12.166  1.00  0.00    -0.340 N 
ATOM     12  H   UNL     1      17.217  32.183  12.795  1.00  0.00     0.168 HD
BRANCH  11  13
ATOM     13  C   UNL     1      17.212  33.217  10.919  1.00  0.00     0.041 A 
ATOM     14  C   UNL     1      16.639  32.829   8.581  1.00  0.00     0.026 A 
ATOM     15  C   UNL     1      16.132  34.131   8.489  1.00  0.00     0.017 A 
ATOM     16  C   UNL     1      17.189  32.377   9.789  1.00  0.00     0.043 A 
ATOM     17  C   UNL     1      16.176  34.977   9.601  1.00  0.00     0.003 A 
ATOM     18  C   UNL     1      16.709  34.524  10.809  1.00  0.00     0.026 A 
BRANCH  14  19
ATOM     19  C   UNL     1      16.599  31.958   7.433  1.00  0.00    -0.070 C 
ATOM     20  C   UNL     1      16.557  31.228   6.474  1.00  0.00     0.010 C 
ENDBRANCH  14  19
ENDBRANCH  11  13
ENDBRANCH   1  11
BRANCH   8  21
ATOM     21  O   UNL     1      17.879  36.141  16.044  1.00  0.00    -0.487 OA
BRANCH  21  22
ATOM     22  C   UNL     1      16.871  35.531  16.855  1.00  0.00     0.258 C 
BRANCH  22  23
ATOM     23  C   UNL     1      17.395  34.262  17.534  1.00  0.00     0.201 C 
BRANCH  23  24
ATOM     24  O   UNL     1      18.061  34.575  18.748  1.00  0.00    -0.376 OA
BRANCH  24  25
ATOM     25  C   UNL     1      17.603  35.784  19.334  1.00  0.00     0.188 CG0
ATOM     26  G   UNL     1      18.765  36.546  19.963  1.00  0.00     0.000 G0
ENDBRANCH  24  25
ENDBRANCH  23  24
ENDBRANCH  22  23
ENDBRANCH  21  22
ENDBRANCH   8  21
BRANCH   7  27
ATOM     27  O   UNL     1      20.637  36.594  16.632  1.00  0.00    -0.487 OA
BRANCH  27  28
ATOM     28  C   UNL     1      21.374  36.331  17.826  1.00  0.00     0.258 C 
BRANCH  28  29
ATOM     29  C   UNL     1      20.829  37.119  19.039  1.00  0.00     0.201 C 
BRANCH  29  30
ATOM     30  O   UNL     1      19.429  37.313  18.968  1.00  0.00    -0.376 OA
BRANCH  30  31
ATOM     31  C   UNL     1      18.773  36.559  19.969  1.00  0.00     0.188 CG0
ATOM     32  G   UNL     1      17.620  35.785  19.338  1.00  0.00     0.000 G0
ENDBRANCH  30  31
ENDBRANCH  29  30
ENDBRANCH  28  29
ENDBRANCH  27  28
ENDBRANCH   7  27
TORSDOF 3
ENDMDL
MODEL 8
REMARK VINA RESULT:    -6.302      1.412      1.890
REMARK INTER + INTRA:         -12.397
REMARK INTER:                 -11.360
REMARK INTRA:                  -1.037
REMARK UNBOUND:                -1.305
REMARK SMILES C#Cc1cccc(Nc2ncnc3cc4c(cc23)OCCOCCOCCO4)c1
REMARK SMILES IDX 9 1 10 2 11 3 12 4 13 5 14 6 15 7 16 8 17 9 18 10 8 11 7 13
REMARK SMILES IDX 3 14 4 15 29 16 5 17 6 18 2 19 1 20 19 21 20 22 21 23 22 24
REMARK SMILES IDX 23 25 28 27 27 28 26 29 25 30 24 31
REMARK H PARENT 8 12
REMARK Flexibility Score: 70.00
ROOT
ATOM      1  C   UNL     1      16.759  33.809  13.664  1.00  0.00     0.141 A 
ATOM      2  N   UNL     1      15.513  34.058  14.152  1.00  0.00    -0.219 NA
ATOM      3  C   UNL     1      15.316  34.903  15.198  1.00  0.00     0.224 A 
ATOM      4  N   UNL     1      16.373  35.521  15.785  1.00  0.00    -0.236 NA
ATOM      5  C   UNL     1      17.640  35.313  15.340  1.00  0.00     0.080 A 
ATOM      6  C   UNL     1      18.708  35.943  15.975  1.00  0.00     0.079 A 
ATOM      7  C   UNL     1      20.031  35.716  15.547  1.00  0.00     0.163 A 
ATOM      8  C   UNL     1      20.264  34.873  14.437  1.00  0.00     0.162 A 
ATOM      9  C   UNL     1      19.190  34.226  13.818  1.00  0.00     0.064 A 
ATOM     10  C   UNL     1      17.872  34.445  14.252  1.00  0.00     0.047 A 
ENDROOT
BRANCH   1  11
ATOM     11  N   UNL     1      16.909  32.937  12.532  1.00  0.00    -0.340 N 
ATOM     12  H   UNL     1      17.328  31.996  12.695  1.00  0.00     0.168 HD
BRANCH  11  13
ATOM     13  C   UNL     1      16.638  33.339  11.176  1.00  0.00     0.041 A 
ATOM     14  C   UNL     1      16.466  32.846   8.794  1.00  0.00     0.026 A 
ATOM     15  C   UNL     1      16.167  34.189   8.537  1.00  0.00     0.017 A 
ATOM     16  C   UNL     1      16.713  32.423  10.108  1.00  0.00     0.043 A 
ATOM     17  C   UNL     1      16.116  35.107   9.591  1.00  0.00     0.003 A 
ATOM     18  C   UNL     1      16.346  34.685  10.902  1.00  0.00     0.026 A 
BRANCH  14  19
ATOM     19  C   UNL     1      16.525  31.900   7.707  1.00  0.00    -0.070 C 
ATOM     20  C   UNL     1      16.568  31.115   6.794  1.00  0.00     0.010 C 
ENDBRANCH  14  19
ENDBRANCH  11  13
ENDBRANCH   1  11
BRANCH   8  21
ATOM     21  O   UNL     1      21.548  34.612  13.936  1.00  0.00    -0.487 OA
BRANCH  21  22
ATOM     22  C   UNL     1      21.926  34.617  12.557  1.00  0.00     0.258 C 
BRANCH  22  23
ATOM     23  C   UNL     1      23.026  35.648  12.285  1.00  0.00     0.201 C 
BRANCH  23  24
ATOM     24  O   UNL     1      23.304  36.412  13.448  1.00  0.00    -0.376 OA
BRANCH  24  25
ATOM     25  C   UNL     1      24.690  36.476  13.749  1.00  0.00     0.188 CG0
ATOM     26  G   UNL     1      24.908  36.499  15.259  1.00  0.00     0.000 G0
ENDBRANCH  24  25
ENDBRANCH  23  24
ENDBRANCH  22  23
ENDBRANCH  21  22
ENDBRANCH   8  21
BRANCH   7  27
ATOM     27  O   UNL     1      21.130  36.266  16.226  1.00  0.00    -0.487 OA
BRANCH  27  28
ATOM     28  C   UNL     1      22.120  35.541  16.953  1.00  0.00     0.258 C 
BRANCH  28  29
ATOM     29  C   UNL     1      23.448  36.322  17.078  1.00  0.00     0.201 C 
BRANCH  29  30
ATOM     30  O   UNL     1      23.760  37.042  15.901  1.00  0.00    -0.376 OA
BRANCH  30  31
ATOM     31  C   UNL     1      24.899  36.490  15.270  1.00  0.00     0.188 CG0
ATOM     32  G   UNL     1      24.682  36.485  13.760  1.00  0.00     0.000 G0
ENDBRANCH  30  31
ENDBRANCH  29  30
ENDBRANCH  28  29
ENDBRANCH  27  28
ENDBRANCH   7  27
TORSDOF 3
ENDMDL
MODEL 9
REMARK VINA RESULT:    -6.226      2.560      5.915
REMARK INTER + INTRA:         -12.263
REMARK INTER:                 -10.778
REMARK INTRA:                  -1.485
REMARK UNBOUND:                -1.305
REMARK SMILES C#Cc1cccc(Nc2ncnc3cc4c(cc23)OCCOCCOCCO4)c1
REMARK SMILES IDX 9 1 10 2 11 3 12 4 13 5 14 6 15 7 16 8 17 9 18 10 8 11 7 13
REMARK SMILES IDX 3 14 4 15 29 16 5 17 6 18 2 19 1 20 19 21 20 22 21 23 22 24
REMARK SMILES IDX 23 25 28 27 27 28 26 29 25 30 24 31
REMARK H PARENT 8 12
REMARK Flexibility Score: 70.00
ROOT
ATOM      1  C   UNL     1      16.994  33.773  14.450  1.00  0.00     0.141 A 
ATOM      2  N   UNL     1      16.040  34.023  13.512  1.00  0.00    -0.219 NA
ATOM      3  C   UNL     1      16.363  34.245  12.211  1.00  0.00     0.224 A 
ATOM      4  N   UNL     1      17.663  34.223  11.818  1.00  0.00    -0.236 NA
ATOM      5  C   UNL     1      18.659  33.976  12.709  1.00  0.00     0.080 A 
ATOM      6  C   UNL     1      19.986  33.982  12.282  1.00  0.00     0.079 A 
ATOM      7  C   UNL     1      21.033  33.758  13.197  1.00  0.00     0.163 A 
ATOM      8  C   UNL     1      20.725  33.486  14.549  1.00  0.00     0.162 A 
ATOM      9  C   UNL     1      19.393  33.504  14.976  1.00  0.00     0.064 A 
ATOM     10  C   UNL     1      18.350  33.737  14.065  1.00  0.00     0.047 A 
ENDROOT
BRANCH   1  11
ATOM     11  N   UNL     1      16.595  33.506  15.805  1.00  0.00    -0.340 N 
ATOM     12  H   UNL     1      16.501  32.509  16.097  1.00  0.00     0.168 HD
BRANCH  11  13
ATOM     13  C   UNL     1      16.191  34.531  16.732  1.00  0.00     0.041 A 
ATOM     14  C   UNL     1      16.713  36.239  18.393  1.00  0.00     0.026 A 
ATOM     15  C   UNL     1      15.346  36.473  18.582  1.00  0.00     0.017 A 
ATOM     16  C   UNL     1      17.135  35.261  17.480  1.00  0.00     0.043 A 
ATOM     17  C   UNL     1      14.404  35.734  17.861  1.00  0.00     0.003 A 
ATOM     18  C   UNL     1      14.822  34.771  16.939  1.00  0.00     0.026 A 
BRANCH  14  19
ATOM     19  C   UNL     1      17.685  36.998  19.140  1.00  0.00    -0.070 C 
ATOM     20  C   UNL     1      18.491  37.639  19.766  1.00  0.00     0.010 C 
ENDBRANCH  14  19
ENDBRANCH  11  13
ENDBRANCH   1  11
BRANCH   8  21
ATOM     21  O   UNL     1      21.708  33.232  15.517  1.00  0.00    -0.487 OA
BRANCH  21  22
ATOM     22  C   UNL     1      21.529  33.314  16.934  1.00  0.00     0.258 C 
BRANCH  22  23
ATOM     23  C   UNL     1      21.961  34.682  17.472  1.00  0.00     0.201 C 
BRANCH  23  24
ATOM     24  O   UNL     1      22.996  35.237  16.674  1.00  0.00    -0.376 OA
BRANCH  24  25
ATOM     25  C   UNL     1      22.572  36.369  15.929  1.00  0.00     0.188 CG0
ATOM     26  G   UNL     1      23.529  36.634  14.771  1.00  0.00     0.000 G0
ENDBRANCH  24  25
ENDBRANCH  23  24
ENDBRANCH  22  23
ENDBRANCH  21  22
ENDBRANCH   8  21
BRANCH   7  27
ATOM     27  O   UNL     1      22.380  33.848  12.811  1.00  0.00    -0.487 OA
BRANCH  27  28
ATOM     28  C   UNL     1      23.030  35.004  12.285  1.00  0.00     0.258 C 
BRANCH  28  29
ATOM     29  C   UNL     1      24.353  35.320  13.018  1.00  0.00     0.201 C 
BRANCH  29  30
ATOM     30  O   UNL     1      24.181  35.414  14.420  1.00  0.00    -0.376 OA
BRANCH  30  31
ATOM     31  C   UNL     1      23.534  36.624  14.761  1.00  0.00     0.188 CG0
ATOM     32  G   UNL     1      22.578  36.371  15.921  1.00  0.00     0.000 G0
ENDBRANCH  30  31
ENDBRANCH  29  30
ENDBRANCH  28  29
ENDBRANCH  27  28
ENDBRANCH   7  27
TORSDOF 3
ENDMDL
MODEL 10
REMARK VINA RESULT:    -6.141      4.191      7.724
REMARK INTER + INTRA:         -12.114
REMARK INTER:                 -10.875
REMARK INTRA:                  -1.239
REMARK UNBOUND:                -1.305
REMARK SMILES C#Cc1cccc(Nc2ncnc3cc4c(cc23)OCCOCCOCCO4)c1
REMARK SMILES IDX 9 1 10 2 11 3 12 4 13 5 14 6 15 7 16 8 17 9 18 10 8 11 7 13
REMARK SMILES IDX 3 14 4 15 29 16 5 17 6 18 2 19 1 20 19 21 20 22 21 23 22 24
REMARK SMILES IDX 23 25 28 27 27 28 26 29 25 30 24 31
REMARK H PARENT 8 12
REMARK Flexibility Score: 70.00
ROOT
ATOM      1  C   UNL     1      19.677  32.491  12.241  1.00  0.00     0.141 A 
ATOM      2  N   UNL     1      19.523  32.061  10.958  1.00  0.00    -0.219 NA
ATOM      3  C   UNL     1      18.365  32.261  10.276  1.00  0.00     0.224 A 
ATOM      4  N   UNL     1      17.324  32.900  10.870  1.00  0.00    -0.236 NA
ATOM      5  C   UNL     1      17.420  33.354  12.147  1.00  0.00     0.080 A 
ATOM      6  C   UNL     1      16.329  33.986  12.739  1.00  0.00     0.079 A 
ATOM      7  C   UNL     1      16.398  34.436  14.072  1.00  0.00     0.163 A 
ATOM      8  C   UNL     1      17.603  34.278  14.794  1.00  0.00     0.162 A 
ATOM      9  C   UNL     1      18.687  33.622  14.202  1.00  0.00     0.064 A 
ATOM     10  C   UNL     1      18.613  33.164  12.876  1.00  0.00     0.047 A 
ENDROOT
BRANCH   1  11
ATOM     11  N   UNL     1      20.935  32.289  12.904  1.00  0.00    -0.340 N 
ATOM     12  H   UNL     1      20.963  31.613  13.699  1.00  0.00     0.168 HD
BRANCH  11  13
ATOM     13  C   UNL     1      22.118  33.060  12.621  1.00  0.00     0.041 A 
ATOM     14  C   UNL     1      23.275  35.194  12.393  1.00  0.00     0.026 A 
ATOM     15  C   UNL     1      24.436  34.522  11.991  1.00  0.00     0.017 A 
ATOM     16  C   UNL     1      22.115  34.466  12.695  1.00  0.00     0.043 A 
ATOM     17  C   UNL     1      24.437  33.127  11.892  1.00  0.00     0.003 A 
ATOM     18  C   UNL     1      23.287  32.400  12.208  1.00  0.00     0.026 A 
BRANCH  14  19
ATOM     19  C   UNL     1      23.272  36.632  12.489  1.00  0.00    -0.070 C 
ATOM     20  C   UNL     1      23.279  37.835  12.572  1.00  0.00     0.010 C 
ENDBRANCH  14  19
ENDBRANCH  11  13
ENDBRANCH   1  11
BRANCH   8  21
ATOM     21  O   UNL     1      17.760  34.717  16.118  1.00  0.00    -0.487 OA
BRANCH  21  22
ATOM     22  C   UNL     1      18.711  35.684  16.571  1.00  0.00     0.258 C 
BRANCH  22  23
ATOM     23  C   UNL     1      18.571  35.940  18.075  1.00  0.00     0.201 C 
BRANCH  23  24
ATOM     24  O   UNL     1      17.315  35.482  18.553  1.00  0.00    -0.376 OA
BRANCH  24  25
ATOM     25  C   UNL     1      16.431  36.542  18.884  1.00  0.00     0.188 CG0
ATOM     26  G   UNL     1      14.986  36.136  18.612  1.00  0.00     0.000 G0
ENDBRANCH  24  25
ENDBRANCH  23  24
ENDBRANCH  22  23
ENDBRANCH  21  22
ENDBRANCH   8  21
BRANCH   7  27
ATOM     27  O   UNL     1      15.285  34.995  14.720  1.00  0.00    -0.487 OA
BRANCH  27  28
ATOM     28  C   UNL     1      14.295  34.281  15.459  1.00  0.00     0.258 C 
BRANCH  28  29
ATOM     29  C   UNL     1      14.332  34.614  16.968  1.00  0.00     0.201 C 
BRANCH  29  30
ATOM     30  O   UNL     1      14.807  35.924  17.217  1.00  0.00    -0.376 OA
BRANCH  30  31
ATOM     31  C   UNL     1      14.982  36.132  18.604  1.00  0.00     0.188 CG0
ATOM     32  G   UNL     1      16.425  36.550  18.869  1.00  0.00     0.000 G0
ENDBRANCH  30  31
ENDBRANCH  29  30
ENDBRANCH  28  29
ENDBRANCH  27  28
ENDBRANCH   7  27
TORSDOF 3
ENDMDL
MODEL 11
REMARK VINA RESULT:    -6.132      2.050      2.923
REMARK INTER + INTRA:         -12.098
REMARK INTER:                 -11.068
REMARK INTRA:                  -1.030
REMARK UNBOUND:                -1.305
REMARK SMILES C#Cc1cccc(Nc2ncnc3cc4c(cc23)OCCOCCOCCO4)c1
REMARK SMILES IDX 9 1 10 2 11 3 12 4 13 5 14 6 15 7 16 8 17 9 18 10 8 11 7 13
REMARK SMILES IDX 3 14 4 15 29 16 5 17 6 18 2 19 1 20 19 21 20 22 21 23 22 24
REMARK SMILES IDX 23 25 28 27 27 28 26 29 25 30 24 31
REMARK H PARENT 8 12
REMARK Flexibility Score: 70.00
ROOT
ATOM      1  C   UNL     1      17.116  33.787  11.164  1.00  0.00     0.141 A 
ATOM      2  N   UNL     1      15.824  33.796  11.592  1.00  0.00    -0.219 NA
ATOM      3  C   UNL     1      15.511  33.675  12.909  1.00  0.00     0.224 A 
ATOM      4  N   UNL     1      16.494  33.540  13.835  1.00  0.00    -0.236 NA
ATOM      5  C   UNL     1      17.803  33.528  13.469  1.00  0.00     0.080 A 
ATOM      6  C   UNL     1      18.791  33.366  14.438  1.00  0.00     0.079 A 
ATOM      7  C   UNL     1      20.151  33.320  14.073  1.00  0.00     0.163 A 
ATOM      8  C   UNL     1      20.510  33.482  12.716  1.00  0.00     0.162 A 
ATOM      9  C   UNL     1      19.513  33.621  11.745  1.00  0.00     0.064 A 
ATOM     10  C   UNL     1      18.156  33.657  12.109  1.00  0.00     0.047 A 
ENDROOT
BRANCH   1  11
ATOM     11  N   UNL     1      17.395  33.957   9.765  1.00  0.00    -0.340 N 
ATOM     12  H   UNL     1      17.600  34.921   9.423  1.00  0.00     0.168 HD
BRANCH  11  13
ATOM     13  C   UNL     1      17.274  32.900   8.795  1.00  0.00     0.041 A 
ATOM     14  C   UNL     1      16.056  31.032   7.808  1.00  0.00     0.026 A 
ATOM     15  C   UNL     1      17.119  30.805   6.926  1.00  0.00     0.017 A 
ATOM     16  C   UNL     1      16.138  32.069   8.749  1.00  0.00     0.043 A 
ATOM     17  C   UNL     1      18.260  31.610   6.985  1.00  0.00     0.003 A 
ATOM     18  C   UNL     1      18.337  32.654   7.910  1.00  0.00     0.026 A 
BRANCH  14  19
ATOM     19  C   UNL     1      14.881  30.198   7.752  1.00  0.00    -0.070 C 
ATOM     20  C   UNL     1      13.896  29.505   7.698  1.00  0.00     0.010 C 
ENDBRANCH  14  19
ENDBRANCH  11  13
ENDBRANCH   1  11
BRANCH   8  21
ATOM     21  O   UNL     1      21.841  33.469  12.274  1.00  0.00    -0.487 OA
BRANCH  21  22
ATOM     22  C   UNL     1      22.712  34.602  12.206  1.00  0.00     0.258 C 
BRANCH  22  23
ATOM     23  C   UNL     1      24.147  34.226  12.589  1.00  0.00     0.201 C 
BRANCH  23  24
ATOM     24  O   UNL     1      24.242  33.937  13.976  1.00  0.00    -0.376 OA
BRANCH  24  25
ATOM     25  C   UNL     1      24.294  35.105  14.781  1.00  0.00     0.188 CG0
ATOM     26  G   UNL     1      23.648  34.847  16.138  1.00  0.00     0.000 G0
ENDBRANCH  24  25
ENDBRANCH  23  24
ENDBRANCH  22  23
ENDBRANCH  21  22
ENDBRANCH   8  21
BRANCH   7  27
ATOM     27  O   UNL     1      21.159  33.068  15.018  1.00  0.00    -0.487 OA
BRANCH  27  28
ATOM     28  C   UNL     1      21.146  33.465  16.388  1.00  0.00     0.258 C 
BRANCH  28  29
ATOM     29  C   UNL     1      22.457  33.096  17.120  1.00  0.00     0.201 C 
BRANCH  29  30
ATOM     30  O   UNL     1      23.606  33.443  16.370  1.00  0.00    -0.376 OA
BRANCH  30  31
ATOM     31  C   UNL     1      23.651  34.839  16.150  1.00  0.00     0.188 CG0
ATOM     32  G   UNL     1      24.298  35.111  14.795  1.00  0.00     0.000 G0
ENDBRANCH  30  31
ENDBRANCH  29  30
ENDBRANCH  28  29
ENDBRANCH  27  28
ENDBRANCH   7  27
TORSDOF 3
ENDMDL
MODEL 12
REMARK VINA RESULT:    -5.979      4.130      6.351
REMARK INTER + INTRA:         -11.828
REMARK INTER:                 -10.523
REMARK INTRA:                  -1.305
REMARK UNBOUND:                -1.305
REMARK SMILES C#Cc1cccc(Nc2ncnc3cc4c(cc23)OCCOCCOCCO4)c1
REMARK SMILES IDX 9 1 10 2 11 3 12 4 13 5 14 6 15 7 16 8 17 9 18 10 8 11 7 13
REMARK SMILES IDX 3 14 4 15 29 16 5 17 6 18 2 19 1 20 19 21 20 22 21 23 22 24
REMARK SMILES IDX 23 25 28 27 27 28 26 29 25 30 24 31
REMARK H PARENT 8 12
REMARK Flexibility Score: 70.00
ROOT
ATOM      1  C   UNL     1      21.184  34.038  13.154  1.00  0.00     0.141 A 
ATOM      2  N   UNL     1      22.102  34.397  12.216  1.00  0.00    -0.219 NA
ATOM      3  C   UNL     1      23.145  35.215  12.519  1.00  0.00     0.224 A 
ATOM      4  N   UNL     1      23.291  35.696  13.780  1.00  0.00    -0.236 NA
ATOM      5  C   UNL     1      22.408  35.369  14.760  1.00  0.00     0.080 A 
ATOM      6  C   UNL     1      22.570  35.895  16.040  1.00  0.00     0.079 A 
ATOM      7  C   UNL     1      21.647  35.592  17.061  1.00  0.00     0.163 A 
ATOM      8  C   UNL     1      20.575  34.714  16.786  1.00  0.00     0.162 A 
ATOM      9  C   UNL     1      20.405  34.207  15.493  1.00  0.00     0.064 A 
ATOM     10  C   UNL     1      21.320  34.518  14.474  1.00  0.00     0.047 A 
ENDROOT
BRANCH   1  11
ATOM     11  N   UNL     1      20.122  33.140  12.792  1.00  0.00    -0.340 N 
ATOM     12  H   UNL     1      20.354  32.128  12.689  1.00  0.00     0.168 HD
BRANCH  11  13
ATOM     13  C   UNL     1      18.798  33.577  12.434  1.00  0.00     0.041 A 
ATOM     14  C   UNL     1      16.488  34.098  13.016  1.00  0.00     0.026 A 
ATOM     15  C   UNL     1      16.209  34.367  11.670  1.00  0.00     0.017 A 
ATOM     16  C   UNL     1      17.775  33.691  13.395  1.00  0.00     0.043 A 
ATOM     17  C   UNL     1      17.214  34.230  10.708  1.00  0.00     0.003 A 
ATOM     18  C   UNL     1      18.501  33.841  11.086  1.00  0.00     0.026 A 
BRANCH  14  19
ATOM     19  C   UNL     1      15.450  34.233  14.008  1.00  0.00    -0.070 C 
ATOM     20  C   UNL     1      14.578  34.339  14.834  1.00  0.00     0.010 C 
ENDBRANCH  14  19
ENDBRANCH  11  13
ENDBRANCH   1  11
BRANCH   8  21
ATOM     21  O   UNL     1      19.626  34.346  17.752  1.00  0.00    -0.487 OA
BRANCH  21  22
ATOM     22  C   UNL     1      18.283  33.928  17.490  1.00  0.00     0.258 C 
BRANCH  22  23
ATOM     23  C   UNL     1      17.390  35.119  17.127  1.00  0.00     0.201 C 
BRANCH  23  24
ATOM     24  O   UNL     1      17.945  36.334  17.607  1.00  0.00    -0.376 OA
BRANCH  24  25
ATOM     25  C   UNL     1      17.310  36.803  18.787  1.00  0.00     0.188 CG0
ATOM     26  G   UNL     1      18.292  37.595  19.644  1.00  0.00     0.000 G0
ENDBRANCH  24  25
ENDBRANCH  23  24
ENDBRANCH  22  23
ENDBRANCH  21  22
ENDBRANCH   8  21
BRANCH   7  27
ATOM     27  O   UNL     1      21.737  36.180  18.333  1.00  0.00    -0.487 OA
BRANCH  27  28
ATOM     28  C   UNL     1      21.208  37.450  18.713  1.00  0.00     0.258 C 
BRANCH  28  29
ATOM     29  C   UNL     1      20.568  37.423  20.119  1.00  0.00     0.201 C 
BRANCH  29  30
ATOM     30  O   UNL     1      19.316  36.763  20.126  1.00  0.00    -0.376 OA
BRANCH  30  31
ATOM     31  C   UNL     1      18.301  37.618  19.639  1.00  0.00     0.188 CG0
ATOM     32  G   UNL     1      17.324  36.806  18.796  1.00  0.00     0.000 G0
ENDBRANCH  30  31
ENDBRANCH  29  30
ENDBRANCH  28  29
ENDBRANCH  27  28
ENDBRANCH   7  27
TORSDOF 3
ENDMDL
MODEL 13
REMARK VINA RESULT:    -5.973      4.522      6.338
REMARK INTER + INTRA:         -11.818
REMARK INTER:                 -10.786
REMARK INTRA:                  -1.033
REMARK UNBOUND:                -1.305
REMARK SMILES C#Cc1cccc(Nc2ncnc3cc4c(cc23)OCCOCCOCCO4)c1
REMARK SMILES IDX 9 1 10 2 11 3 12 4 13 5 14 6 15 7 16 8 17 9 18 10 8 11 7 13
REMARK SMILES IDX 3 14 4 15 29 16 5 17 6 18 2 19 1 20 19 21 20 22 21 23 22 24
REMARK SMILES IDX 23 25 28 27 27 28 26 29 25 30 24 31
REMARK H PARENT 8 12
REMARK Flexibility Score: 70.00
ROOT
ATOM      1  C   UNL     1      18.444  33.330  11.500  1.00  0.00     0.141 A 
ATOM      2  N   UNL     1      19.490  32.610  11.008  1.00  0.00    -0.219 NA
ATOM      3  C   UNL     1      20.442  32.091  11.827  1.00  0.00     0.224 A 
ATOM      4  N   UNL     1      20.369  32.284  13.169  1.00  0.00    -0.236 NA
ATOM      5  C   UNL     1      19.346  32.991  13.718  1.00  0.00     0.080 A 
ATOM      6  C   UNL     1      19.307  33.193  15.097  1.00  0.00     0.079 A 
ATOM      7  C   UNL     1      18.272  33.949  15.681  1.00  0.00     0.163 A 
ATOM      8  C   UNL     1      17.246  34.469  14.859  1.00  0.00     0.162 A 
ATOM      9  C   UNL     1      17.303  34.282  13.474  1.00  0.00     0.064 A 
ATOM     10  C   UNL     1      18.342  33.537  12.892  1.00  0.00     0.047 A 
ENDROOT
BRANCH   1  11
ATOM     11  N   UNL     1      17.444  33.824  10.595  1.00  0.00    -0.340 N 
ATOM     12  H   UNL     1      16.885  34.653  10.894  1.00  0.00     0.168 HD
BRANCH  11  13
ATOM     13  C   UNL     1      17.082  33.162   9.369  1.00  0.00     0.041 A 
ATOM     14  C   UNL     1      15.784  31.507   8.134  1.00  0.00     0.026 A 
ATOM     15  C   UNL     1      16.462  31.853   6.958  1.00  0.00     0.017 A 
ATOM     16  C   UNL     1      16.102  32.151   9.339  1.00  0.00     0.043 A 
ATOM     17  C   UNL     1      17.453  32.838   6.988  1.00  0.00     0.003 A 
ATOM     18  C   UNL     1      17.760  33.492   8.183  1.00  0.00     0.026 A 
BRANCH  14  19
ATOM     19  C   UNL     1      14.766  30.488   8.106  1.00  0.00    -0.070 C 
ATOM     20  C   UNL     1      13.913  29.636   8.073  1.00  0.00     0.010 C 
ENDBRANCH  14  19
ENDBRANCH  11  13
ENDBRANCH   1  11
BRANCH   8  21
ATOM     21  O   UNL     1      16.170  35.214  15.365  1.00  0.00    -0.487 OA
BRANCH  21  22
ATOM     22  C   UNL     1      14.785  34.895  15.210  1.00  0.00     0.258 C 
BRANCH  22  23
ATOM     23  C   UNL     1      14.224  34.223  16.468  1.00  0.00     0.201 C 
BRANCH  23  24
ATOM     24  O   UNL     1      15.035  34.505  17.598  1.00  0.00    -0.376 OA
BRANCH  24  25
ATOM     25  C   UNL     1      14.723  35.749  18.206  1.00  0.00     0.188 CG0
ATOM     26  G   UNL     1      15.998  36.479  18.614  1.00  0.00     0.000 G0
ENDBRANCH  24  25
ENDBRANCH  23  24
ENDBRANCH  22  23
ENDBRANCH  21  22
ENDBRANCH   8  21
BRANCH   7  27
ATOM     27  O   UNL     1      18.259  34.243  17.054  1.00  0.00    -0.487 OA
BRANCH  27  28
ATOM     28  C   UNL     1      19.085  35.198  17.719  1.00  0.00     0.258 C 
BRANCH  28  29
ATOM     29  C   UNL     1      18.289  36.070  18.716  1.00  0.00     0.201 C 
BRANCH  29  30
ATOM     30  O   UNL     1      16.998  35.551  18.973  1.00  0.00    -0.376 OA
BRANCH  30  31
ATOM     31  C   UNL     1      16.005  36.489  18.610  1.00  0.00     0.188 CG0
ATOM     32  G   UNL     1      14.732  35.745  18.219  1.00  0.00     0.000 G0
ENDBRANCH  30  31
ENDBRANCH  29  30
ENDBRANCH  28  29
ENDBRANCH  27  28
ENDBRANCH   7  27
TORSDOF 3
ENDMDL
MODEL 14
REMARK VINA RESULT:    -5.971      1.959      5.270
REMARK INTER + INTRA:         -11.814
REMARK INTER:                 -10.612
REMARK INTRA:                  -1.202
REMARK UNBOUND:                -1.305
REMARK SMILES C#Cc1cccc(Nc2ncnc3cc4c(cc23)OCCOCCOCCO4)c1
REMARK SMILES IDX 9 1 10 2 11 3 12 4 13 5 14 6 15 7 16 8 17 9 18 10 8 11 7 13
REMARK SMILES IDX 3 14 4 15 29 16 5 17 6 18 2 19 1 20 19 21 20 22 21 23 22 24
REMARK SMILES IDX 23 25 28 27 27 28 26 29 25 30 24 31
REMARK H PARENT 8 12
REMARK Flexibility Score: 70.00
ROOT
ATOM      1  C   UNL     1      17.257  34.067  12.520  1.00  0.00     0.141 A 
ATOM      2  N   UNL     1      16.554  33.357  11.596  1.00  0.00    -0.219 NA
ATOM      3  C   UNL     1      17.121  32.333  10.904  1.00  0.00     0.224 A 
ATOM      4  N   UNL     1      18.418  31.997  11.124  1.00  0.00    -0.236 NA
ATOM      5  C   UNL     1      19.169  32.667  12.037  1.00  0.00     0.080 A 
ATOM      6  C   UNL     1      20.504  32.315  12.227  1.00  0.00     0.079 A 
ATOM      7  C   UNL     1      21.307  33.019  13.146  1.00  0.00     0.163 A 
ATOM      8  C   UNL     1      20.734  34.062  13.908  1.00  0.00     0.162 A 
ATOM      9  C   UNL     1      19.400  34.426  13.697  1.00  0.00     0.064 A 
ATOM     10  C   UNL     1      18.603  33.731  12.772  1.00  0.00     0.047 A 
ENDROOT
BRANCH   1  11
ATOM     11  N   UNL     1      16.599  35.114  13.251  1.00  0.00    -0.340 N 
ATOM     12  H   UNL     1      16.638  36.080  12.858  1.00  0.00     0.168 HD
BRANCH  11  13
ATOM     13  C   UNL     1      16.011  34.930  14.552  1.00  0.00     0.041 A 
ATOM     14  C   UNL     1      16.041  35.222  16.973  1.00  0.00     0.026 A 
ATOM     15  C   UNL     1      14.856  34.482  17.077  1.00  0.00     0.017 A 
ATOM     16  C   UNL     1      16.624  35.434  15.715  1.00  0.00     0.043 A 
ATOM     17  C   UNL     1      14.257  33.958  15.927  1.00  0.00     0.003 A 
ATOM     18  C   UNL     1      14.828  34.182  14.673  1.00  0.00     0.026 A 
BRANCH  14  19
ATOM     19  C   UNL     1      16.661  35.758  18.158  1.00  0.00    -0.070 C 
ATOM     20  C   UNL     1      17.181  36.198  19.153  1.00  0.00     0.010 C 
ENDBRANCH  14  19
ENDBRANCH  11  13
ENDBRANCH   1  11
BRANCH   8  21
ATOM     21  O   UNL     1      21.460  34.798  14.858  1.00  0.00    -0.487 OA
BRANCH  21  22
ATOM     22  C   UNL     1      21.865  36.163  14.728  1.00  0.00     0.258 C 
BRANCH  22  23
ATOM     23  C   UNL     1      23.120  36.453  15.556  1.00  0.00     0.201 C 
BRANCH  23  24
ATOM     24  O   UNL     1      24.252  35.794  15.008  1.00  0.00    -0.376 OA
BRANCH  24  25
ATOM     25  C   UNL     1      24.657  36.336  13.760  1.00  0.00     0.188 CG0
ATOM     26  G   UNL     1      25.120  35.227  12.821  1.00  0.00     0.000 G0
ENDBRANCH  24  25
ENDBRANCH  23  24
ENDBRANCH  22  23
ENDBRANCH  21  22
ENDBRANCH   8  21
BRANCH   7  27
ATOM     27  O   UNL     1      22.676  32.743  13.290  1.00  0.00    -0.487 OA
BRANCH  27  28
ATOM     28  C   UNL     1      23.688  32.969  12.310  1.00  0.00     0.258 C 
BRANCH  28  29
ATOM     29  C   UNL     1      25.112  32.897  12.907  1.00  0.00     0.201 C 
BRANCH  29  30
ATOM     30  O   UNL     1      25.469  34.085  13.588  1.00  0.00    -0.376 OA
BRANCH  30  31
ATOM     31  C   UNL     1      25.128  35.220  12.817  1.00  0.00     0.188 CG0
ATOM     32  G   UNL     1      24.667  36.337  13.748  1.00  0.00     0.000 G0
ENDBRANCH  30  31
ENDBRANCH  29  30
ENDBRANCH  28  29
ENDBRANCH  27  28
ENDBRANCH   7  27
TORSDOF 3
ENDMDL
MODEL 15
REMARK VINA RESULT:    -5.907      2.683      4.387
REMARK INTER + INTRA:         -11.702
REMARK INTER:                 -10.468
REMARK INTRA:                  -1.233
REMARK UNBOUND:                -1.305
REMARK SMILES C#Cc1cccc(Nc2ncnc3cc4c(cc23)OCCOCCOCCO4)c1
REMARK SMILES IDX 9 1 10 2 11 3 12 4 13 5 14 6 15 7 16 8 17 9 18 10 8 11 7 13
REMARK SMILES IDX 3 14 4 15 29 16 5 17 6 18 2 19 1 20 19 21 20 22 21 23 22 24
REMARK SMILES IDX 23 25 28 27 27 28 26 29 25 30 24 31
REMARK H PARENT 8 12
REMARK Flexibility Score: 70.00
ROOT
ATOM      1  C   UNL     1      18.714  35.128  17.996  1.00  0.00     0.141 A 
ATOM      2  N   UNL     1      18.484  36.198  18.805  1.00  0.00    -0.219 NA
ATOM      3  C   UNL     1      19.412  37.177  18.971  1.00  0.00     0.224 A 
ATOM      4  N   UNL     1      20.605  37.102  18.326  1.00  0.00    -0.236 NA
ATOM      5  C   UNL     1      20.891  36.059  17.503  1.00  0.00     0.080 A 
ATOM      6  C   UNL     1      22.132  35.997  16.871  1.00  0.00     0.079 A 
ATOM      7  C   UNL     1      22.458  34.908  16.040  1.00  0.00     0.163 A 
ATOM      8  C   UNL     1      21.498  33.895  15.817  1.00  0.00     0.162 A 
ATOM      9  C   UNL     1      20.263  33.951  16.471  1.00  0.00     0.064 A 
ATOM     10  C   UNL     1      19.943  35.033  17.309  1.00  0.00     0.047 A 
ENDROOT
BRANCH   1  11
ATOM     11  N   UNL     1      17.685  34.141  17.825  1.00  0.00    -0.340 N 
ATOM     12  H   UNL     1      17.768  33.252  18.365  1.00  0.00     0.168 HD
BRANCH  11  13
ATOM     13  C   UNL     1      16.625  34.255  16.857  1.00  0.00     0.041 A 
ATOM     14  C   UNL     1      15.825  34.266  14.553  1.00  0.00     0.026 A 
ATOM     15  C   UNL     1      14.531  34.556  15.003  1.00  0.00     0.017 A 
ATOM     16  C   UNL     1      16.872  34.128  15.476  1.00  0.00     0.043 A 
ATOM     17  C   UNL     1      14.286  34.707  16.371  1.00  0.00     0.003 A 
ATOM     18  C   UNL     1      15.324  34.555  17.293  1.00  0.00     0.026 A 
BRANCH  14  19
ATOM     19  C   UNL     1      16.080  34.114  13.142  1.00  0.00    -0.070 C 
ATOM     20  C   UNL     1      16.302  33.986  11.964  1.00  0.00     0.010 C 
ENDBRANCH  14  19
ENDBRANCH  11  13
ENDBRANCH   1  11
BRANCH   8  21
ATOM     21  O   UNL     1      21.737  32.789  14.987  1.00  0.00    -0.487 OA
BRANCH  21  22
ATOM     22  C   UNL     1      21.315  32.657  13.627  1.00  0.00     0.258 C 
BRANCH  22  23
ATOM     23  C   UNL     1      22.495  32.806  12.661  1.00  0.00     0.201 C 
BRANCH  23  24
ATOM     24  O   UNL     1      22.689  34.166  12.303  1.00  0.00    -0.376 OA
BRANCH  24  25
ATOM     25  C   UNL     1      23.998  34.429  11.821  1.00  0.00     0.188 CG0
ATOM     26  G   UNL     1      24.451  35.825  12.238  1.00  0.00     0.000 G0
ENDBRANCH  24  25
ENDBRANCH  23  24
ENDBRANCH  22  23
ENDBRANCH  21  22
ENDBRANCH   8  21
BRANCH   7  27
ATOM     27  O   UNL     1      23.732  34.777  15.464  1.00  0.00    -0.487 OA
BRANCH  27  28
ATOM     28  C   UNL     1      24.712  35.807  15.345  1.00  0.00     0.258 C 
BRANCH  28  29
ATOM     29  C   UNL     1      24.322  36.872  14.296  1.00  0.00     0.201 C 
BRANCH  29  30
ATOM     30  O   UNL     1      23.585  36.322  13.221  1.00  0.00    -0.376 OA
BRANCH  30  31
ATOM     31  C   UNL     1      24.457  35.825  12.225  1.00  0.00     0.188 CG0
ATOM     32  G   UNL     1      24.003  34.428  11.814  1.00  0.00     0.000 G0
ENDBRANCH  30  31
ENDBRANCH  29  30
ENDBRANCH  28  29
ENDBRANCH  27  28
ENDBRANCH   7  27
TORSDOF 3
ENDMDL
