MODEL 1
REMARK VINA RESULT:    -8.824      0.000      0.000
REMARK INTER + INTRA:         -16.965
REMARK INTER:                 -15.014
REMARK INTRA:                  -1.951
REMARK UNBOUND:                -1.951
REMARK SMILES CCOc1cc2ncc(C#N)c(Nc3ccc(OCc4ccccn4)c(Cl)c3)c2cc1NC(=O)/C=C/CN(C)C
REMARK SMILES IDX 4 1 31 2 30 3 29 4 12 5 9 6 8 7 7 8 6 9 5 10 3 11 2 12 1 13
REMARK SMILES IDX 32 14 33 15 34 17 35 18 36 19 37 20 38 21 39 22 40 23 13 24
REMARK SMILES IDX 14 26 15 27 28 28 16 29 26 30 17 31 27 32 18 33 19 34 20 35
REMARK SMILES IDX 21 36 25 37 22 38 24 39 23 40 10 41 11 42
REMARK H PARENT 32 16 13 25
REMARK Flexibility Score: inf
ROOT
ATOM      1  C   UNL     1     -80.724 -21.238  88.039  1.00  0.00     0.144 A 
ATOM      2  C   UNL     1     -79.321 -21.136  87.953  1.00  0.00     0.084 A 
ATOM      3  C   UNL     1     -78.730 -20.476  86.868  1.00  0.00     0.042 A 
ATOM      4  C   UNL     1     -79.519 -19.963  85.825  1.00  0.00     0.027 A 
ATOM      5  C   UNL     1     -78.953 -19.317  84.706  1.00  0.00     0.068 A 
ATOM      6  C   UNL     1     -79.794 -18.854  83.677  1.00  0.00     0.094 A 
ATOM      7  C   UNL     1     -81.177 -19.022  83.791  1.00  0.00     0.133 A 
ATOM      8  N   UNL     1     -81.704 -19.633  84.883  1.00  0.00    -0.255 NA
ATOM      9  C   UNL     1     -80.923 -20.105  85.891  1.00  0.00     0.076 A 
ATOM     10  C   UNL     1     -81.516 -20.726  86.993  1.00  0.00     0.077 A 
ENDROOT
BRANCH   1  11
ATOM     11  O   UNL     1     -81.289 -21.824  89.186  1.00  0.00    -0.492 OA
BRANCH  11  12
ATOM     12  C   UNL     1     -81.827 -21.124  90.307  1.00  0.00     0.226 C 
ATOM     13  C   UNL     1     -83.350 -21.166  90.290  1.00  0.00     0.049 C 
ENDBRANCH  11  12
ENDBRANCH   1  11
BRANCH   2  14
ATOM     14  N   UNL     1     -78.475 -21.674  88.983  1.00  0.00    -0.319 N 
ATOM     15  C   UNL     1     -77.555 -20.870  89.736  1.00  0.00     0.248 C 
ATOM     16  H   UNL     1     -78.627 -22.666  89.280  1.00  0.00     0.170 HD
ATOM     17  O   UNL     1     -77.589 -19.611  89.641  1.00  0.00    -0.270 OA
BRANCH  15  18
ATOM     18  C   UNL     1     -76.590 -21.519  90.643  1.00  0.00     0.068 C 
ATOM     19  C   UNL     1     -76.510 -21.210  91.941  1.00  0.00    -0.006 C 
BRANCH  19  20
ATOM     20  C   UNL     1     -75.512 -21.890  92.834  1.00  0.00     0.111 C 
BRANCH  20  21
ATOM     21  N   UNL     1     -75.792 -21.583  94.253  1.00  0.00    -0.306 NA
ATOM     22  C   UNL     1     -77.206 -21.210  94.423  1.00  0.00     0.105 C 
ATOM     23  C   UNL     1     -75.482 -22.741  95.109  1.00  0.00     0.105 C 
ENDBRANCH  20  21
ENDBRANCH  19  20
ENDBRANCH  15  18
ENDBRANCH   2  14
BRANCH   5  24
ATOM     24  N   UNL     1     -77.535 -19.120  84.609  1.00  0.00    -0.354 N 
ATOM     25  H   UNL     1     -77.067 -19.405  83.718  1.00  0.00     0.167 HD
BRANCH  24  26
ATOM     26  C   UNL     1     -76.769 -18.433  85.615  1.00  0.00     0.040 A 
ATOM     27  C   UNL     1     -76.945 -17.053  85.789  1.00  0.00     0.030 A 
ATOM     28  C   UNL     1     -75.858 -19.114  86.444  1.00  0.00     0.050 A 
ATOM     29  C   UNL     1     -76.230 -16.362  86.771  1.00  0.00     0.050 A 
ATOM     30  C   UNL     1     -75.143 -18.426  87.429  1.00  0.00     0.085 A 
ATOM     31  C   UNL     1     -75.326 -17.046  87.608  1.00  0.00     0.138 A 
ATOM     32  Cl  UNL     1     -74.023 -19.315  88.451  1.00  0.00    -0.080 Cl
BRANCH  31  33
ATOM     33  O   UNL     1     -74.598 -16.397  88.619  1.00  0.00    -0.486 OA
BRANCH  33  34
ATOM     34  C   UNL     1     -75.126 -15.436  89.535  1.00  0.00     0.285 C 
BRANCH  34  35
ATOM     35  C   UNL     1     -75.476 -16.080  90.845  1.00  0.00     0.078 A 
ATOM     36  C   UNL     1     -76.377 -15.465  91.727  1.00  0.00     0.027 A 
ATOM     37  N   UNL     1     -74.938 -17.289  91.167  1.00  0.00    -0.258 NA
ATOM     38  C   UNL     1     -76.692 -16.094  92.933  1.00  0.00     0.004 A 
ATOM     39  C   UNL     1     -75.234 -17.918  92.336  1.00  0.00     0.111 A 
ATOM     40  C   UNL     1     -76.117 -17.329  93.244  1.00  0.00     0.020 A 
ENDBRANCH  34  35
ENDBRANCH  33  34
ENDBRANCH  31  33
ENDBRANCH  24  26
ENDBRANCH   5  24
BRANCH   6  41
ATOM     41  C   UNL     1     -79.252 -18.188  82.519  1.00  0.00     0.103 C 
ATOM     42  N   UNL     1     -78.818 -17.655  81.587  1.00  0.00    -0.192 NA
ENDBRANCH   6  41
TORSDOF 12
ENDMDL
MODEL 2
REMARK VINA RESULT:    -8.683      2.418      3.249
REMARK INTER + INTRA:         -16.725
REMARK INTER:                 -15.271
REMARK INTRA:                  -1.455
REMARK UNBOUND:                -1.951
REMARK SMILES CCOc1cc2ncc(C#N)c(Nc3ccc(OCc4ccccn4)c(Cl)c3)c2cc1NC(=O)/C=C/CN(C)C
REMARK SMILES IDX 4 1 31 2 30 3 29 4 12 5 9 6 8 7 7 8 6 9 5 10 3 11 2 12 1 13
REMARK SMILES IDX 32 14 33 15 34 17 35 18 36 19 37 20 38 21 39 22 40 23 13 24
REMARK SMILES IDX 14 26 15 27 28 28 16 29 26 30 17 31 27 32 18 33 19 34 20 35
REMARK SMILES IDX 21 36 25 37 22 38 24 39 23 40 10 41 11 42
REMARK H PARENT 32 16 13 25
REMARK Flexibility Score: inf
ROOT
ATOM      1  C   UNL     1     -82.768 -21.119  87.344  1.00  0.00     0.144 A 
ATOM      2  C   UNL     1     -81.513 -21.486  87.870  1.00  0.00     0.084 A 
ATOM      3  C   UNL     1     -80.336 -21.045  87.249  1.00  0.00     0.042 A 
ATOM      4  C   UNL     1     -80.389 -20.288  86.068  1.00  0.00     0.027 A 
ATOM      5  C   UNL     1     -79.223 -19.852  85.404  1.00  0.00     0.068 A 
ATOM      6  C   UNL     1     -79.340 -19.124  84.205  1.00  0.00     0.094 A 
ATOM      7  C   UNL     1     -80.611 -18.828  83.703  1.00  0.00     0.133 A 
ATOM      8  N   UNL     1     -81.722 -19.243  84.364  1.00  0.00    -0.255 NA
ATOM      9  C   UNL     1     -81.648 -19.958  85.518  1.00  0.00     0.076 A 
ATOM     10  C   UNL     1     -82.822 -20.361  86.159  1.00  0.00     0.077 A 
ENDROOT
BRANCH   1  11
ATOM     11  O   UNL     1     -83.929 -21.499  88.042  1.00  0.00    -0.492 OA
BRANCH  11  12
ATOM     12  C   UNL     1     -85.171 -20.797  88.047  1.00  0.00     0.226 C 
ATOM     13  C   UNL     1     -85.088 -19.560  88.934  1.00  0.00     0.049 C 
ENDBRANCH  11  12
ENDBRANCH   1  11
BRANCH   2  14
ATOM     14  N   UNL     1     -81.413 -22.285  89.060  1.00  0.00    -0.319 N 
ATOM     15  C   UNL     1     -81.605 -21.749  90.377  1.00  0.00     0.248 C 
ATOM     16  H   UNL     1     -81.321 -23.321  88.953  1.00  0.00     0.170 HD
ATOM     17  O   UNL     1     -82.052 -20.577  90.526  1.00  0.00    -0.270 OA
BRANCH  15  18
ATOM     18  C   UNL     1     -81.304 -22.583  91.556  1.00  0.00     0.068 C 
ATOM     19  C   UNL     1     -81.619 -22.205  92.798  1.00  0.00    -0.006 C 
BRANCH  19  20
ATOM     20  C   UNL     1     -81.295 -23.079  93.976  1.00  0.00     0.111 C 
BRANCH  20  21
ATOM     21  N   UNL     1     -81.315 -22.293  95.227  1.00  0.00    -0.306 NA
ATOM     22  C   UNL     1     -82.312 -22.845  96.159  1.00  0.00     0.105 C 
ATOM     23  C   UNL     1     -79.988 -22.296  95.867  1.00  0.00     0.105 C 
ENDBRANCH  20  21
ENDBRANCH  19  20
ENDBRANCH  15  18
ENDBRANCH   2  14
BRANCH   5  24
ATOM     24  N   UNL     1     -77.922 -20.134  85.941  1.00  0.00    -0.354 N 
ATOM     25  H   UNL     1     -77.294 -20.757  85.384  1.00  0.00     0.167 HD
BRANCH  24  26
ATOM     26  C   UNL     1     -77.407 -19.494  87.123  1.00  0.00     0.040 A 
ATOM     27  C   UNL     1     -76.941 -18.174  87.043  1.00  0.00     0.030 A 
ATOM     28  C   UNL     1     -77.375 -20.155  88.365  1.00  0.00     0.050 A 
ATOM     29  C   UNL     1     -76.454 -17.521  88.178  1.00  0.00     0.050 A 
ATOM     30  C   UNL     1     -76.891 -19.502  89.504  1.00  0.00     0.085 A 
ATOM     31  C   UNL     1     -76.433 -18.178  89.423  1.00  0.00     0.138 A 
ATOM     32  Cl  UNL     1     -76.878 -20.358  91.038  1.00  0.00    -0.080 Cl
BRANCH  31  33
ATOM     33  O   UNL     1     -75.967 -17.556  90.594  1.00  0.00    -0.486 OA
BRANCH  33  34
ATOM     34  C   UNL     1     -76.246 -16.211  90.986  1.00  0.00     0.285 C 
BRANCH  34  35
ATOM     35  C   UNL     1     -74.984 -15.400  91.058  1.00  0.00     0.078 A 
ATOM     36  C   UNL     1     -74.486 -14.749  89.920  1.00  0.00     0.027 A 
ATOM     37  N   UNL     1     -74.333 -15.272  92.247  1.00  0.00    -0.258 NA
ATOM     38  C   UNL     1     -73.317 -13.993  90.021  1.00  0.00     0.004 A 
ATOM     39  C   UNL     1     -73.194 -14.538  92.365  1.00  0.00     0.111 A 
ATOM     40  C   UNL     1     -72.663 -13.886  91.250  1.00  0.00     0.020 A 
ENDBRANCH  34  35
ENDBRANCH  33  34
ENDBRANCH  31  33
ENDBRANCH  24  26
ENDBRANCH   5  24
BRANCH   6  41
ATOM     41  C   UNL     1     -78.171 -18.662  83.500  1.00  0.00     0.103 C 
ATOM     42  N   UNL     1     -77.232 -18.289  82.935  1.00  0.00    -0.192 NA
ENDBRANCH   6  41
TORSDOF 12
ENDMDL
MODEL 3
REMARK VINA RESULT:    -8.619      2.249      2.885
REMARK INTER + INTRA:         -16.616
REMARK INTER:                 -15.406
REMARK INTRA:                  -1.210
REMARK UNBOUND:                -1.951
REMARK SMILES CCOc1cc2ncc(C#N)c(Nc3ccc(OCc4ccccn4)c(Cl)c3)c2cc1NC(=O)/C=C/CN(C)C
REMARK SMILES IDX 4 1 31 2 30 3 29 4 12 5 9 6 8 7 7 8 6 9 5 10 3 11 2 12 1 13
REMARK SMILES IDX 32 14 33 15 34 17 35 18 36 19 37 20 38 21 39 22 40 23 13 24
REMARK SMILES IDX 14 26 15 27 28 28 16 29 26 30 17 31 27 32 18 33 19 34 20 35
REMARK SMILES IDX 21 36 25 37 22 38 24 39 23 40 10 41 11 42
REMARK H PARENT 32 16 13 25
REMARK Flexibility Score: inf
ROOT
ATOM      1  C   UNL     1     -82.754 -20.899  87.223  1.00  0.00     0.144 A 
ATOM      2  C   UNL     1     -81.492 -21.306  87.702  1.00  0.00     0.084 A 
ATOM      3  C   UNL     1     -80.324 -20.889  87.050  1.00  0.00     0.042 A 
ATOM      4  C   UNL     1     -80.395 -20.114  85.881  1.00  0.00     0.027 A 
ATOM      5  C   UNL     1     -79.240 -19.700  85.185  1.00  0.00     0.068 A 
ATOM      6  C   UNL     1     -79.376 -18.953  84.001  1.00  0.00     0.094 A 
ATOM      7  C   UNL     1     -80.653 -18.615  83.544  1.00  0.00     0.133 A 
ATOM      8  N   UNL     1     -81.753 -19.010  84.234  1.00  0.00    -0.255 NA
ATOM      9  C   UNL     1     -81.662 -19.743  85.376  1.00  0.00     0.076 A 
ATOM     10  C   UNL     1     -82.825 -20.124  86.049  1.00  0.00     0.077 A 
ENDROOT
BRANCH   1  11
ATOM     11  O   UNL     1     -83.901 -21.258  87.952  1.00  0.00    -0.492 OA
BRANCH  11  12
ATOM     12  C   UNL     1     -84.810 -22.307  87.621  1.00  0.00     0.226 C 
ATOM     13  C   UNL     1     -84.213 -23.225  86.561  1.00  0.00     0.049 C 
ENDBRANCH  11  12
ENDBRANCH   1  11
BRANCH   2  14
ATOM     14  N   UNL     1     -81.376 -22.124  88.878  1.00  0.00    -0.319 N 
ATOM     15  C   UNL     1     -81.570 -21.614  90.205  1.00  0.00     0.248 C 
ATOM     16  H   UNL     1     -81.270 -23.157  88.752  1.00  0.00     0.170 HD
ATOM     17  O   UNL     1     -82.033 -20.452  90.376  1.00  0.00    -0.270 OA
BRANCH  15  18
ATOM     18  C   UNL     1     -81.252 -22.464  91.368  1.00  0.00     0.068 C 
ATOM     19  C   UNL     1     -81.583 -22.121  92.616  1.00  0.00    -0.006 C 
BRANCH  19  20
ATOM     20  C   UNL     1     -81.241 -23.010  93.777  1.00  0.00     0.111 C 
BRANCH  20  21
ATOM     21  N   UNL     1     -81.384 -22.277  95.052  1.00  0.00    -0.306 NA
ATOM     22  C   UNL     1     -82.402 -22.922  95.898  1.00  0.00     0.105 C 
ATOM     23  C   UNL     1     -80.101 -22.230  95.775  1.00  0.00     0.105 C 
ENDBRANCH  20  21
ENDBRANCH  19  20
ENDBRANCH  15  18
ENDBRANCH   2  14
BRANCH   5  24
ATOM     24  N   UNL     1     -77.930 -20.024  85.676  1.00  0.00    -0.354 N 
ATOM     25  H   UNL     1     -77.475 -20.888  85.303  1.00  0.00     0.167 HD
BRANCH  24  26
ATOM     26  C   UNL     1     -77.179 -19.149  86.538  1.00  0.00     0.040 A 
ATOM     27  C   UNL     1     -77.353 -19.236  87.926  1.00  0.00     0.030 A 
ATOM     28  C   UNL     1     -76.257 -18.219  86.022  1.00  0.00     0.050 A 
ATOM     29  C   UNL     1     -76.622 -18.414  88.788  1.00  0.00     0.050 A 
ATOM     30  C   UNL     1     -75.522 -17.396  86.883  1.00  0.00     0.085 A 
ATOM     31  C   UNL     1     -75.692 -17.490  88.273  1.00  0.00     0.138 A 
ATOM     32  Cl  UNL     1     -74.374 -16.255  86.201  1.00  0.00    -0.080 Cl
BRANCH  31  33
ATOM     33  O   UNL     1     -74.924 -16.655  89.101  1.00  0.00    -0.486 OA
BRANCH  33  34
ATOM     34  C   UNL     1     -75.415 -15.523  89.822  1.00  0.00     0.285 C 
BRANCH  34  35
ATOM     35  C   UNL     1     -75.583 -15.847  91.279  1.00  0.00     0.078 A 
ATOM     36  C   UNL     1     -76.685 -15.360  91.998  1.00  0.00     0.027 A 
ATOM     37  N   UNL     1     -74.673 -16.647  91.901  1.00  0.00    -0.258 NA
ATOM     38  C   UNL     1     -76.820 -15.688  93.348  1.00  0.00     0.004 A 
ATOM     39  C   UNL     1     -74.789 -16.978  93.214  1.00  0.00     0.111 A 
ATOM     40  C   UNL     1     -75.867 -16.501  93.964  1.00  0.00     0.020 A 
ENDBRANCH  34  35
ENDBRANCH  33  34
ENDBRANCH  31  33
ENDBRANCH  24  26
ENDBRANCH   5  24
BRANCH   6  41
ATOM     41  C   UNL     1     -78.218 -18.511  83.264  1.00  0.00     0.103 C 
ATOM     42  N   UNL     1     -77.287 -18.158  82.674  1.00  0.00    -0.192 NA
ENDBRANCH   6  41
TORSDOF 12
ENDMDL
MODEL 4
REMARK VINA RESULT:    -8.449      2.766      7.257
REMARK INTER + INTRA:         -16.327
REMARK INTER:                 -14.599
REMARK INTRA:                  -1.729
REMARK UNBOUND:                -1.951
REMARK SMILES CCOc1cc2ncc(C#N)c(Nc3ccc(OCc4ccccn4)c(Cl)c3)c2cc1NC(=O)/C=C/CN(C)C
REMARK SMILES IDX 4 1 31 2 30 3 29 4 12 5 9 6 8 7 7 8 6 9 5 10 3 11 2 12 1 13
REMARK SMILES IDX 32 14 33 15 34 17 35 18 36 19 37 20 38 21 39 22 40 23 13 24
REMARK SMILES IDX 14 26 15 27 28 28 16 29 26 30 17 31 27 32 18 33 19 34 20 35
REMARK SMILES IDX 21 36 25 37 22 38 24 39 23 40 10 41 11 42
REMARK H PARENT 32 16 13 25
REMARK Flexibility Score: inf
ROOT
ATOM      1  C   UNL     1     -76.251 -16.826  92.974  1.00  0.00     0.144 A 
ATOM      2  C   UNL     1     -76.534 -18.134  92.530  1.00  0.00     0.084 A 
ATOM      3  C   UNL     1     -76.330 -18.479  91.187  1.00  0.00     0.042 A 
ATOM      4  C   UNL     1     -75.901 -17.518  90.257  1.00  0.00     0.027 A 
ATOM      5  C   UNL     1     -75.712 -17.827  88.894  1.00  0.00     0.068 A 
ATOM      6  C   UNL     1     -75.312 -16.813  88.004  1.00  0.00     0.094 A 
ATOM      7  C   UNL     1     -75.090 -15.521  88.489  1.00  0.00     0.133 A 
ATOM      8  N   UNL     1     -75.263 -15.246  89.807  1.00  0.00    -0.255 NA
ATOM      9  C   UNL     1     -75.659 -16.196  90.695  1.00  0.00     0.076 A 
ATOM     10  C   UNL     1     -75.822 -15.861  92.042  1.00  0.00     0.077 A 
ENDROOT
BRANCH   1  11
ATOM     11  O   UNL     1     -76.378 -16.536  94.344  1.00  0.00    -0.492 OA
BRANCH  11  12
ATOM     12  C   UNL     1     -75.380 -15.936  95.169  1.00  0.00     0.226 C 
ATOM     13  C   UNL     1     -74.226 -16.902  95.410  1.00  0.00     0.049 C 
ENDBRANCH  11  12
ENDBRANCH   1  11
BRANCH   2  14
ATOM     14  N   UNL     1     -77.004 -19.140  93.442  1.00  0.00    -0.319 N 
ATOM     15  C   UNL     1     -76.158 -20.177  93.961  1.00  0.00     0.248 C 
ATOM     16  H   UNL     1     -77.965 -19.036  93.839  1.00  0.00     0.170 HD
ATOM     17  O   UNL     1     -74.911 -20.133  93.771  1.00  0.00    -0.270 OA
BRANCH  15  18
ATOM     18  C   UNL     1     -76.751 -21.280  94.742  1.00  0.00     0.068 C 
ATOM     19  C   UNL     1     -78.034 -21.283  95.113  1.00  0.00    -0.006 C 
BRANCH  19  20
ATOM     20  C   UNL     1     -78.603 -22.422  95.910  1.00  0.00     0.111 C 
BRANCH  20  21
ATOM     21  N   UNL     1     -80.055 -22.235  96.119  1.00  0.00    -0.306 NA
ATOM     22  C   UNL     1     -80.798 -22.644  94.916  1.00  0.00     0.105 C 
ATOM     23  C   UNL     1     -80.521 -23.019  97.275  1.00  0.00     0.105 C 
ENDBRANCH  20  21
ENDBRANCH  19  20
ENDBRANCH  15  18
ENDBRANCH   2  14
BRANCH   5  24
ATOM     24  N   UNL     1     -75.912 -19.162  88.408  1.00  0.00    -0.354 N 
ATOM     25  H   UNL     1     -75.125 -19.841  88.522  1.00  0.00     0.167 HD
BRANCH  24  26
ATOM     26  C   UNL     1     -77.178 -19.632  87.907  1.00  0.00     0.040 A 
ATOM     27  C   UNL     1     -77.482 -19.470  86.548  1.00  0.00     0.030 A 
ATOM     28  C   UNL     1     -78.114 -20.266  88.745  1.00  0.00     0.050 A 
ATOM     29  C   UNL     1     -78.694 -19.934  86.030  1.00  0.00     0.050 A 
ATOM     30  C   UNL     1     -79.327 -20.733  88.228  1.00  0.00     0.085 A 
ATOM     31  C   UNL     1     -79.626 -20.578  86.866  1.00  0.00     0.138 A 
ATOM     32  Cl  UNL     1     -80.464 -21.529  89.305  1.00  0.00    -0.080 Cl
BRANCH  31  33
ATOM     33  O   UNL     1     -80.850 -21.074  86.386  1.00  0.00    -0.486 OA
BRANCH  33  34
ATOM     34  C   UNL     1     -82.027 -20.298  86.158  1.00  0.00     0.285 C 
BRANCH  34  35
ATOM     35  C   UNL     1     -83.190 -20.844  86.935  1.00  0.00     0.078 A 
ATOM     36  C   UNL     1     -83.627 -22.162  86.737  1.00  0.00     0.027 A 
ATOM     37  N   UNL     1     -83.807 -20.062  87.864  1.00  0.00    -0.258 NA
ATOM     38  C   UNL     1     -84.703 -22.646  87.483  1.00  0.00     0.004 A 
ATOM     39  C   UNL     1     -84.855 -20.517  88.601  1.00  0.00     0.111 A 
ATOM     40  C   UNL     1     -85.325 -21.820  88.421  1.00  0.00     0.020 A 
ENDBRANCH  34  35
ENDBRANCH  33  34
ENDBRANCH  31  33
ENDBRANCH  24  26
ENDBRANCH   5  24
BRANCH   6  41
ATOM     41  C   UNL     1     -75.108 -17.091  86.604  1.00  0.00     0.103 C 
ATOM     42  N   UNL     1     -74.946 -17.316  85.480  1.00  0.00    -0.192 NA
ENDBRANCH   6  41
TORSDOF 12
ENDMDL
MODEL 5
REMARK VINA RESULT:    -8.395      1.357      1.564
REMARK INTER + INTRA:         -16.235
REMARK INTER:                 -14.473
REMARK INTRA:                  -1.762
REMARK UNBOUND:                -1.951
REMARK SMILES CCOc1cc2ncc(C#N)c(Nc3ccc(OCc4ccccn4)c(Cl)c3)c2cc1NC(=O)/C=C/CN(C)C
REMARK SMILES IDX 4 1 31 2 30 3 29 4 12 5 9 6 8 7 7 8 6 9 5 10 3 11 2 12 1 13
REMARK SMILES IDX 32 14 33 15 34 17 35 18 36 19 37 20 38 21 39 22 40 23 13 24
REMARK SMILES IDX 14 26 15 27 28 28 16 29 26 30 17 31 27 32 18 33 19 34 20 35
REMARK SMILES IDX 21 36 25 37 22 38 24 39 23 40 10 41 11 42
REMARK H PARENT 32 16 13 25
REMARK Flexibility Score: inf
ROOT
ATOM      1  C   UNL     1     -80.322 -21.002  87.799  1.00  0.00     0.144 A 
ATOM      2  C   UNL     1     -78.932 -21.032  88.028  1.00  0.00     0.084 A 
ATOM      3  C   UNL     1     -78.057 -20.424  87.118  1.00  0.00     0.042 A 
ATOM      4  C   UNL     1     -78.545 -19.833  85.941  1.00  0.00     0.027 A 
ATOM      5  C   UNL     1     -77.689 -19.237  84.991  1.00  0.00     0.068 A 
ATOM      6  C   UNL     1     -78.235 -18.690  83.815  1.00  0.00     0.094 A 
ATOM      7  C   UNL     1     -79.618 -18.729  83.616  1.00  0.00     0.133 A 
ATOM      8  N   UNL     1     -80.427 -19.294  84.548  1.00  0.00    -0.255 NA
ATOM      9  C   UNL     1     -79.936 -19.843  85.691  1.00  0.00     0.076 A 
ATOM     10  C   UNL     1     -80.812 -20.412  86.618  1.00  0.00     0.077 A 
ENDROOT
BRANCH   1  11
ATOM     11  O   UNL     1     -81.179 -21.539  88.777  1.00  0.00    -0.492 OA
BRANCH  11  12
ATOM     12  C   UNL     1     -82.330 -22.345  88.530  1.00  0.00     0.226 C 
ATOM     13  C   UNL     1     -83.596 -21.636  88.998  1.00  0.00     0.049 C 
ENDBRANCH  11  12
ENDBRANCH   1  11
BRANCH   2  14
ATOM     14  N   UNL     1     -78.388 -21.653  89.204  1.00  0.00    -0.319 N 
ATOM     15  C   UNL     1     -77.515 -20.968  90.115  1.00  0.00     0.248 C 
ATOM     16  H   UNL     1     -78.743 -22.599  89.473  1.00  0.00     0.170 HD
ATOM     17  O   UNL     1     -77.337 -19.723  90.006  1.00  0.00    -0.270 OA
BRANCH  15  18
ATOM     18  C   UNL     1     -76.849 -21.721  91.194  1.00  0.00     0.068 C 
ATOM     19  C   UNL     1     -76.179 -21.116  92.179  1.00  0.00    -0.006 C 
BRANCH  19  20
ATOM     20  C   UNL     1     -75.511 -21.916  93.261  1.00  0.00     0.111 C 
BRANCH  20  21
ATOM     21  N   UNL     1     -74.281 -22.555  92.748  1.00  0.00    -0.306 NA
ATOM     22  C   UNL     1     -73.308 -21.530  92.336  1.00  0.00     0.105 C 
ATOM     23  C   UNL     1     -73.676 -23.422  93.775  1.00  0.00     0.105 C 
ENDBRANCH  20  21
ENDBRANCH  19  20
ENDBRANCH  15  18
ENDBRANCH   2  14
BRANCH   5  24
ATOM     24  N   UNL     1     -76.273 -19.173  85.215  1.00  0.00    -0.354 N 
ATOM     25  H   UNL     1     -75.657 -19.727  84.576  1.00  0.00     0.167 HD
BRANCH  24  26
ATOM     26  C   UNL     1     -75.671 -18.286  86.175  1.00  0.00     0.040 A 
ATOM     27  C   UNL     1     -76.428 -17.234  86.709  1.00  0.00     0.030 A 
ATOM     28  C   UNL     1     -74.342 -18.459  86.607  1.00  0.00     0.050 A 
ATOM     29  C   UNL     1     -75.876 -16.370  87.658  1.00  0.00     0.050 A 
ATOM     30  C   UNL     1     -73.788 -17.596  87.559  1.00  0.00     0.085 A 
ATOM     31  C   UNL     1     -74.550 -16.549  88.099  1.00  0.00     0.138 A 
ATOM     32  Cl  UNL     1     -72.130 -17.852  88.081  1.00  0.00    -0.080 Cl
BRANCH  31  33
ATOM     33  O   UNL     1     -73.958 -15.715  89.062  1.00  0.00    -0.486 OA
BRANCH  33  34
ATOM     34  C   UNL     1     -74.623 -14.671  89.775  1.00  0.00     0.285 C 
BRANCH  34  35
ATOM     35  C   UNL     1     -74.966 -15.108  91.170  1.00  0.00     0.078 A 
ATOM     36  C   UNL     1     -76.258 -15.556  91.483  1.00  0.00     0.027 A 
ATOM     37  N   UNL     1     -74.005 -15.099  92.135  1.00  0.00    -0.258 NA
ATOM     38  C   UNL     1     -76.544 -15.968  92.786  1.00  0.00     0.004 A 
ATOM     39  C   UNL     1     -74.264 -15.498  93.409  1.00  0.00     0.111 A 
ATOM     40  C   UNL     1     -75.542 -15.938  93.759  1.00  0.00     0.020 A 
ENDBRANCH  34  35
ENDBRANCH  33  34
ENDBRANCH  31  33
ENDBRANCH  24  26
ENDBRANCH   5  24
BRANCH   6  41
ATOM     41  C   UNL     1     -77.391 -18.072  82.822  1.00  0.00     0.103 C 
ATOM     42  N   UNL     1     -76.715 -17.576  82.024  1.00  0.00    -0.192 NA
ENDBRANCH   6  41
TORSDOF 12
ENDMDL
MODEL 6
REMARK VINA RESULT:    -8.362      2.631      6.510
REMARK INTER + INTRA:         -16.179
REMARK INTER:                 -15.221
REMARK INTRA:                  -0.957
REMARK UNBOUND:                -1.951
REMARK SMILES CCOc1cc2ncc(C#N)c(Nc3ccc(OCc4ccccn4)c(Cl)c3)c2cc1NC(=O)/C=C/CN(C)C
REMARK SMILES IDX 4 1 31 2 30 3 29 4 12 5 9 6 8 7 7 8 6 9 5 10 3 11 2 12 1 13
REMARK SMILES IDX 32 14 33 15 34 17 35 18 36 19 37 20 38 21 39 22 40 23 13 24
REMARK SMILES IDX 14 26 15 27 28 28 16 29 26 30 17 31 27 32 18 33 19 34 20 35
REMARK SMILES IDX 21 36 25 37 22 38 24 39 23 40 10 41 11 42
REMARK H PARENT 32 16 13 25
REMARK Flexibility Score: inf
ROOT
ATOM      1  C   UNL     1     -80.757 -19.461  84.965  1.00  0.00     0.144 A 
ATOM      2  C   UNL     1     -79.446 -19.719  85.412  1.00  0.00     0.084 A 
ATOM      3  C   UNL     1     -79.236 -20.370  86.634  1.00  0.00     0.042 A 
ATOM      4  C   UNL     1     -80.320 -20.719  87.456  1.00  0.00     0.027 A 
ATOM      5  C   UNL     1     -80.142 -21.351  88.704  1.00  0.00     0.068 A 
ATOM      6  C   UNL     1     -81.266 -21.645  89.498  1.00  0.00     0.094 A 
ATOM      7  C   UNL     1     -82.543 -21.325  89.026  1.00  0.00     0.133 A 
ATOM      8  N   UNL     1     -82.696 -20.731  87.816  1.00  0.00    -0.255 NA
ATOM      9  C   UNL     1     -81.633 -20.420  87.026  1.00  0.00     0.076 A 
ATOM     10  C   UNL     1     -81.845 -19.809  85.788  1.00  0.00     0.077 A 
ENDROOT
BRANCH   1  11
ATOM     11  O   UNL     1     -80.937 -18.890  83.692  1.00  0.00    -0.492 OA
BRANCH  11  12
ATOM     12  C   UNL     1     -80.179 -19.196  82.522  1.00  0.00     0.226 C 
ATOM     13  C   UNL     1     -79.595 -17.928  81.909  1.00  0.00     0.049 C 
ENDBRANCH  11  12
ENDBRANCH   1  11
BRANCH   2  14
ATOM     14  N   UNL     1     -78.307 -19.351  84.616  1.00  0.00    -0.319 N 
ATOM     15  C   UNL     1     -77.449 -18.248  84.945  1.00  0.00     0.248 C 
ATOM     16  H   UNL     1     -78.021 -19.989  83.838  1.00  0.00     0.170 HD
ATOM     17  O   UNL     1     -77.564 -17.667  86.060  1.00  0.00    -0.270 OA
BRANCH  15  18
ATOM     18  C   UNL     1     -76.415 -17.816  83.986  1.00  0.00     0.068 C 
ATOM     19  C   UNL     1     -75.864 -18.655  83.104  1.00  0.00    -0.006 C 
BRANCH  19  20
ATOM     20  C   UNL     1     -74.811 -18.180  82.144  1.00  0.00     0.111 C 
BRANCH  20  21
ATOM     21  N   UNL     1     -73.697 -19.150  82.074  1.00  0.00    -0.306 NA
ATOM     22  C   UNL     1     -72.470 -18.556  82.631  1.00  0.00     0.105 C 
ATOM     23  C   UNL     1     -74.028 -20.379  82.816  1.00  0.00     0.105 C 
ENDBRANCH  20  21
ENDBRANCH  19  20
ENDBRANCH  15  18
ENDBRANCH   2  14
BRANCH   5  24
ATOM     24  N   UNL     1     -78.830 -21.704  89.169  1.00  0.00    -0.354 N 
ATOM     25  H   UNL     1     -78.451 -22.635  88.882  1.00  0.00     0.167 HD
BRANCH  24  26
ATOM     26  C   UNL     1     -77.980 -20.789  89.884  1.00  0.00     0.040 A 
ATOM     27  C   UNL     1     -77.358 -19.742  89.188  1.00  0.00     0.030 A 
ATOM     28  C   UNL     1     -77.769 -20.907  91.270  1.00  0.00     0.050 A 
ATOM     29  C   UNL     1     -76.543 -18.827  89.859  1.00  0.00     0.050 A 
ATOM     30  C   UNL     1     -76.956 -19.990  91.945  1.00  0.00     0.085 A 
ATOM     31  C   UNL     1     -76.341 -18.938  91.249  1.00  0.00     0.138 A 
ATOM     32  Cl  UNL     1     -76.727 -20.165  93.678  1.00  0.00    -0.080 Cl
BRANCH  31  33
ATOM     33  O   UNL     1     -75.543 -18.033  91.968  1.00  0.00    -0.486 OA
BRANCH  33  34
ATOM     34  C   UNL     1     -75.886 -16.677  92.260  1.00  0.00     0.285 C 
BRANCH  34  35
ATOM     35  C   UNL     1     -74.993 -15.726  91.515  1.00  0.00     0.078 A 
ATOM     36  C   UNL     1     -73.910 -15.109  92.157  1.00  0.00     0.027 A 
ATOM     37  N   UNL     1     -75.220 -15.484  90.194  1.00  0.00    -0.258 NA
ATOM     38  C   UNL     1     -73.091 -14.238  91.435  1.00  0.00     0.004 A 
ATOM     39  C   UNL     1     -74.433 -14.641  89.473  1.00  0.00     0.111 A 
ATOM     40  C   UNL     1     -73.352 -13.999  90.084  1.00  0.00     0.020 A 
ENDBRANCH  34  35
ENDBRANCH  33  34
ENDBRANCH  31  33
ENDBRANCH  24  26
ENDBRANCH   5  24
BRANCH   6  41
ATOM     41  C   UNL     1     -81.123 -22.292  90.778  1.00  0.00     0.103 C 
ATOM     42  N   UNL     1     -81.007 -22.812  91.806  1.00  0.00    -0.192 NA
ENDBRANCH   6  41
TORSDOF 12
ENDMDL
MODEL 7
REMARK VINA RESULT:    -8.253      3.555      9.482
REMARK INTER + INTRA:         -15.993
REMARK INTER:                 -14.426
REMARK INTRA:                  -1.566
REMARK UNBOUND:                -1.951
REMARK SMILES CCOc1cc2ncc(C#N)c(Nc3ccc(OCc4ccccn4)c(Cl)c3)c2cc1NC(=O)/C=C/CN(C)C
REMARK SMILES IDX 4 1 31 2 30 3 29 4 12 5 9 6 8 7 7 8 6 9 5 10 3 11 2 12 1 13
REMARK SMILES IDX 32 14 33 15 34 17 35 18 36 19 37 20 38 21 39 22 40 23 13 24
REMARK SMILES IDX 14 26 15 27 28 28 16 29 26 30 17 31 27 32 18 33 19 34 20 35
REMARK SMILES IDX 21 36 25 37 22 38 24 39 23 40 10 41 11 42
REMARK H PARENT 32 16 13 25
REMARK Flexibility Score: inf
ROOT
ATOM      1  C   UNL     1     -73.813 -15.600  88.459  1.00  0.00     0.144 A 
ATOM      2  C   UNL     1     -73.986 -16.609  87.490  1.00  0.00     0.084 A 
ATOM      3  C   UNL     1     -74.715 -17.765  87.802  1.00  0.00     0.042 A 
ATOM      4  C   UNL     1     -75.229 -17.961  89.095  1.00  0.00     0.027 A 
ATOM      5  C   UNL     1     -75.944 -19.125  89.448  1.00  0.00     0.068 A 
ATOM      6  C   UNL     1     -76.405 -19.279  90.768  1.00  0.00     0.094 A 
ATOM      7  C   UNL     1     -76.166 -18.267  91.703  1.00  0.00     0.133 A 
ATOM      8  N   UNL     1     -75.489 -17.147  91.340  1.00  0.00    -0.255 NA
ATOM      9  C   UNL     1     -75.017 -16.968  90.077  1.00  0.00     0.076 A 
ATOM     10  C   UNL     1     -74.327 -15.797  89.756  1.00  0.00     0.077 A 
ENDROOT
BRANCH   1  11
ATOM     11  O   UNL     1     -73.157 -14.413  88.088  1.00  0.00    -0.492 OA
BRANCH  11  12
ATOM     12  C   UNL     1     -71.878 -13.983  88.550  1.00  0.00     0.226 C 
ATOM     13  C   UNL     1     -70.928 -15.167  88.691  1.00  0.00     0.049 C 
ENDBRANCH  11  12
ENDBRANCH   1  11
BRANCH   2  14
ATOM     14  N   UNL     1     -73.451 -16.462  86.165  1.00  0.00    -0.319 N 
ATOM     15  C   UNL     1     -74.278 -16.285  85.005  1.00  0.00     0.248 C 
ATOM     16  H   UNL     1     -72.416 -16.356  86.059  1.00  0.00     0.170 HD
ATOM     17  O   UNL     1     -75.515 -16.068  85.136  1.00  0.00    -0.270 OA
BRANCH  15  18
ATOM     18  C   UNL     1     -73.671 -16.329  83.662  1.00  0.00     0.068 C 
ATOM     19  C   UNL     1     -72.492 -15.760  83.391  1.00  0.00    -0.006 C 
BRANCH  19  20
ATOM     20  C   UNL     1     -71.906 -15.822  82.010  1.00  0.00     0.111 C 
BRANCH  20  21
ATOM     21  N   UNL     1     -71.848 -14.472  81.410  1.00  0.00    -0.306 NA
ATOM     22  C   UNL     1     -71.404 -13.489  82.412  1.00  0.00     0.105 C 
ATOM     23  C   UNL     1     -70.928 -14.451  80.259  1.00  0.00     0.105 C 
ENDBRANCH  20  21
ENDBRANCH  19  20
ENDBRANCH  15  18
ENDBRANCH   2  14
BRANCH   5  24
ATOM     24  N   UNL     1     -76.212 -20.146  88.476  1.00  0.00    -0.354 N 
ATOM     25  H   UNL     1     -75.561 -20.964  88.443  1.00  0.00     0.167 HD
BRANCH  24  26
ATOM     26  C   UNL     1     -77.397 -20.158  87.659  1.00  0.00     0.040 A 
ATOM     27  C   UNL     1     -78.530 -20.855  88.100  1.00  0.00     0.030 A 
ATOM     28  C   UNL     1     -77.453 -19.471  86.432  1.00  0.00     0.050 A 
ATOM     29  C   UNL     1     -79.700 -20.867  87.337  1.00  0.00     0.050 A 
ATOM     30  C   UNL     1     -78.624 -19.478  85.667  1.00  0.00     0.085 A 
ATOM     31  C   UNL     1     -79.761 -20.170  86.114  1.00  0.00     0.138 A 
ATOM     32  Cl  UNL     1     -78.658 -18.599  84.146  1.00  0.00    -0.080 Cl
BRANCH  31  33
ATOM     33  O   UNL     1     -80.920 -20.140  85.321  1.00  0.00    -0.486 OA
BRANCH  33  34
ATOM     34  C   UNL     1     -82.196 -19.650  85.736  1.00  0.00     0.285 C 
BRANCH  34  35
ATOM     35  C   UNL     1     -83.040 -20.758  86.297  1.00  0.00     0.078 A 
ATOM     36  C   UNL     1     -83.889 -20.528  87.390  1.00  0.00     0.027 A 
ATOM     37  N   UNL     1     -83.003 -21.991  85.720  1.00  0.00    -0.258 NA
ATOM     38  C   UNL     1     -84.670 -21.576  87.882  1.00  0.00     0.004 A 
ATOM     39  C   UNL     1     -83.758 -23.023  86.184  1.00  0.00     0.111 A 
ATOM     40  C   UNL     1     -84.606 -22.833  87.278  1.00  0.00     0.020 A 
ENDBRANCH  34  35
ENDBRANCH  33  34
ENDBRANCH  31  33
ENDBRANCH  24  26
ENDBRANCH   5  24
BRANCH   6  41
ATOM     41  C   UNL     1     -77.140 -20.454  91.166  1.00  0.00     0.103 C 
ATOM     42  N   UNL     1     -77.730 -21.398  91.483  1.00  0.00    -0.192 NA
ENDBRANCH   6  41
TORSDOF 12
ENDMDL
MODEL 8
REMARK VINA RESULT:    -8.201      2.738      9.098
REMARK INTER + INTRA:         -15.905
REMARK INTER:                 -14.255
REMARK INTRA:                  -1.651
REMARK UNBOUND:                -1.951
REMARK SMILES CCOc1cc2ncc(C#N)c(Nc3ccc(OCc4ccccn4)c(Cl)c3)c2cc1NC(=O)/C=C/CN(C)C
REMARK SMILES IDX 4 1 31 2 30 3 29 4 12 5 9 6 8 7 7 8 6 9 5 10 3 11 2 12 1 13
REMARK SMILES IDX 32 14 33 15 34 17 35 18 36 19 37 20 38 21 39 22 40 23 13 24
REMARK SMILES IDX 14 26 15 27 28 28 16 29 26 30 17 31 27 32 18 33 19 34 20 35
REMARK SMILES IDX 21 36 25 37 22 38 24 39 23 40 10 41 11 42
REMARK H PARENT 32 16 13 25
REMARK Flexibility Score: inf
ROOT
ATOM      1  C   UNL     1     -74.482 -15.475  89.053  1.00  0.00     0.144 A 
ATOM      2  C   UNL     1     -74.578 -16.652  88.283  1.00  0.00     0.084 A 
ATOM      3  C   UNL     1     -75.100 -17.822  88.852  1.00  0.00     0.042 A 
ATOM      4  C   UNL     1     -75.475 -17.855  90.205  1.00  0.00     0.027 A 
ATOM      5  C   UNL     1     -75.978 -19.024  90.814  1.00  0.00     0.068 A 
ATOM      6  C   UNL     1     -76.307 -19.004  92.182  1.00  0.00     0.094 A 
ATOM      7  C   UNL     1     -76.148 -17.822  92.910  1.00  0.00     0.133 A 
ATOM      8  N   UNL     1     -75.677 -16.703  92.303  1.00  0.00    -0.255 NA
ATOM      9  C   UNL     1     -75.338 -16.686  90.986  1.00  0.00     0.076 A 
ATOM     10  C   UNL     1     -74.857 -15.508  90.410  1.00  0.00     0.077 A 
ENDROOT
BRANCH   1  11
ATOM     11  O   UNL     1     -74.041 -14.295  88.428  1.00  0.00    -0.492 OA
BRANCH  11  12
ATOM     12  C   UNL     1     -72.697 -13.996  88.056  1.00  0.00     0.226 C 
ATOM     13  C   UNL     1     -71.785 -13.995  89.278  1.00  0.00     0.049 C 
ENDBRANCH  11  12
ENDBRANCH   1  11
BRANCH   2  14
ATOM     14  N   UNL     1     -74.176 -16.670  86.904  1.00  0.00    -0.319 N 
ATOM     15  C   UNL     1     -75.107 -16.536  85.819  1.00  0.00     0.248 C 
ATOM     16  H   UNL     1     -73.153 -16.654  86.687  1.00  0.00     0.170 HD
ATOM     17  O   UNL     1     -76.305 -16.212  86.049  1.00  0.00    -0.270 OA
BRANCH  15  18
ATOM     18  C   UNL     1     -74.649 -16.750  84.433  1.00  0.00     0.068 C 
ATOM     19  C   UNL     1     -75.252 -17.608  83.606  1.00  0.00    -0.006 C 
BRANCH  19  20
ATOM     20  C   UNL     1     -74.756 -17.803  82.202  1.00  0.00     0.111 C 
BRANCH  20  21
ATOM     21  N   UNL     1     -74.117 -19.128  82.056  1.00  0.00    -0.306 NA
ATOM     22  C   UNL     1     -72.656 -19.006  82.190  1.00  0.00     0.105 C 
ATOM     23  C   UNL     1     -74.627 -20.068  83.070  1.00  0.00     0.105 C 
ENDBRANCH  20  21
ENDBRANCH  19  20
ENDBRANCH  15  18
ENDBRANCH   2  14
BRANCH   5  24
ATOM     24  N   UNL     1     -76.167 -20.227  90.054  1.00  0.00    -0.354 N 
ATOM     25  H   UNL     1     -75.471 -20.996  90.186  1.00  0.00     0.167 HD
BRANCH  24  26
ATOM     26  C   UNL     1     -77.330 -20.464  89.239  1.00  0.00     0.040 A 
ATOM     27  C   UNL     1     -77.262 -20.230  87.859  1.00  0.00     0.030 A 
ATOM     28  C   UNL     1     -78.532 -20.943  89.792  1.00  0.00     0.050 A 
ATOM     29  C   UNL     1     -78.368 -20.470  87.041  1.00  0.00     0.050 A 
ATOM     30  C   UNL     1     -79.641 -21.188  88.974  1.00  0.00     0.085 A 
ATOM     31  C   UNL     1     -79.568 -20.961  87.591  1.00  0.00     0.138 A 
ATOM     32  Cl  UNL     1     -81.120 -21.796  89.700  1.00  0.00    -0.080 Cl
BRANCH  31  33
ATOM     33  O   UNL     1     -80.701 -21.232  86.806  1.00  0.00    -0.486 OA
BRANCH  33  34
ATOM     34  C   UNL     1     -81.761 -20.313  86.534  1.00  0.00     0.285 C 
BRANCH  34  35
ATOM     35  C   UNL     1     -83.049 -20.783  87.147  1.00  0.00     0.078 A 
ATOM     36  C   UNL     1     -83.480 -22.107  86.981  1.00  0.00     0.027 A 
ATOM     37  N   UNL     1     -83.791 -19.922  87.898  1.00  0.00    -0.258 NA
ATOM     38  C   UNL     1     -84.676 -22.518  87.573  1.00  0.00     0.004 A 
ATOM     39  C   UNL     1     -84.957 -20.304  88.484  1.00  0.00     0.111 A 
ATOM     40  C   UNL     1     -85.423 -21.612  88.329  1.00  0.00     0.020 A 
ENDBRANCH  34  35
ENDBRANCH  33  34
ENDBRANCH  31  33
ENDBRANCH  24  26
ENDBRANCH   5  24
BRANCH   6  41
ATOM     41  C   UNL     1     -76.825 -20.179  92.839  1.00  0.00     0.103 C 
ATOM     42  N   UNL     1     -77.239 -21.123  93.365  1.00  0.00    -0.192 NA
ENDBRANCH   6  41
TORSDOF 12
ENDMDL
MODEL 9
REMARK VINA RESULT:    -8.146      2.905      7.309
REMARK INTER + INTRA:         -15.811
REMARK INTER:                 -14.116
REMARK INTRA:                  -1.695
REMARK UNBOUND:                -1.951
REMARK SMILES CCOc1cc2ncc(C#N)c(Nc3ccc(OCc4ccccn4)c(Cl)c3)c2cc1NC(=O)/C=C/CN(C)C
REMARK SMILES IDX 4 1 31 2 30 3 29 4 12 5 9 6 8 7 7 8 6 9 5 10 3 11 2 12 1 13
REMARK SMILES IDX 32 14 33 15 34 17 35 18 36 19 37 20 38 21 39 22 40 23 13 24
REMARK SMILES IDX 14 26 15 27 28 28 16 29 26 30 17 31 27 32 18 33 19 34 20 35
REMARK SMILES IDX 21 36 25 37 22 38 24 39 23 40 10 41 11 42
REMARK H PARENT 32 16 13 25
REMARK Flexibility Score: inf
ROOT
ATOM      1  C   UNL     1     -73.060 -17.233  88.226  1.00  0.00     0.144 A 
ATOM      2  C   UNL     1     -74.422 -16.996  88.506  1.00  0.00     0.084 A 
ATOM      3  C   UNL     1     -75.372 -17.062  87.478  1.00  0.00     0.042 A 
ATOM      4  C   UNL     1     -74.977 -17.303  86.152  1.00  0.00     0.027 A 
ATOM      5  C   UNL     1     -75.904 -17.348  85.090  1.00  0.00     0.068 A 
ATOM      6  C   UNL     1     -75.444 -17.560  83.778  1.00  0.00     0.094 A 
ATOM      7  C   UNL     1     -74.077 -17.742  83.550  1.00  0.00     0.133 A 
ATOM      8  N   UNL     1     -73.201 -17.710  84.586  1.00  0.00    -0.255 NA
ATOM      9  C   UNL     1     -73.606 -17.496  85.866  1.00  0.00     0.076 A 
ATOM     10  C   UNL     1     -72.663 -17.472  86.897  1.00  0.00     0.077 A 
ENDROOT
BRANCH   1  11
ATOM     11  O   UNL     1     -72.145 -17.251  89.294  1.00  0.00    -0.492 OA
BRANCH  11  12
ATOM     12  C   UNL     1     -71.071 -16.332  89.493  1.00  0.00     0.226 C 
ATOM     13  C   UNL     1     -71.356 -15.008  88.793  1.00  0.00     0.049 C 
ENDBRANCH  11  12
ENDBRANCH   1  11
BRANCH   2  14
ATOM     14  N   UNL     1     -74.865 -16.717  89.844  1.00  0.00    -0.319 N 
ATOM     15  C   UNL     1     -74.858 -15.397  90.408  1.00  0.00     0.248 C 
ATOM     16  H   UNL     1     -75.326 -17.485  90.382  1.00  0.00     0.170 HD
ATOM     17  O   UNL     1     -74.628 -14.395  89.674  1.00  0.00    -0.270 OA
BRANCH  15  18
ATOM     18  C   UNL     1     -75.148 -15.214  91.842  1.00  0.00     0.068 C 
ATOM     19  C   UNL     1     -75.801 -16.131  92.562  1.00  0.00    -0.006 C 
BRANCH  19  20
ATOM     20  C   UNL     1     -76.082 -15.910  94.020  1.00  0.00     0.111 C 
BRANCH  20  21
ATOM     21  N   UNL     1     -74.828 -15.949  94.802  1.00  0.00    -0.306 NA
ATOM     22  C   UNL     1     -75.042 -15.364  96.136  1.00  0.00     0.105 C 
ATOM     23  C   UNL     1     -74.344 -17.333  94.944  1.00  0.00     0.105 C 
ENDBRANCH  20  21
ENDBRANCH  19  20
ENDBRANCH  15  18
ENDBRANCH   2  14
BRANCH   5  24
ATOM     24  N   UNL     1     -77.310 -17.190  85.335  1.00  0.00    -0.354 N 
ATOM     25  H   UNL     1     -77.722 -16.240  85.188  1.00  0.00     0.167 HD
BRANCH  24  26
ATOM     26  C   UNL     1     -78.182 -18.296  85.632  1.00  0.00     0.040 A 
ATOM     27  C   UNL     1     -79.249 -18.582  84.769  1.00  0.00     0.030 A 
ATOM     28  C   UNL     1     -77.982 -19.110  86.762  1.00  0.00     0.050 A 
ATOM     29  C   UNL     1     -80.100 -19.661  85.022  1.00  0.00     0.050 A 
ATOM     30  C   UNL     1     -78.830 -20.193  87.017  1.00  0.00     0.085 A 
ATOM     31  C   UNL     1     -79.893 -20.483  86.146  1.00  0.00     0.138 A 
ATOM     32  Cl  UNL     1     -78.540 -21.193  88.432  1.00  0.00    -0.080 Cl
BRANCH  31  33
ATOM     33  O   UNL     1     -80.712 -21.588  86.432  1.00  0.00    -0.486 OA
BRANCH  33  34
ATOM     34  C   UNL     1     -82.066 -21.749  86.004  1.00  0.00     0.285 C 
BRANCH  34  35
ATOM     35  C   UNL     1     -83.019 -21.169  87.009  1.00  0.00     0.078 A 
ATOM     36  C   UNL     1     -83.510 -19.864  86.860  1.00  0.00     0.027 A 
ATOM     37  N   UNL     1     -83.435 -21.929  88.060  1.00  0.00    -0.258 NA
ATOM     38  C   UNL     1     -84.405 -19.357  87.805  1.00  0.00     0.004 A 
ATOM     39  C   UNL     1     -84.307 -21.454  88.989  1.00  0.00     0.111 A 
ATOM     40  C   UNL     1     -84.807 -20.154  88.879  1.00  0.00     0.020 A 
ENDBRANCH  34  35
ENDBRANCH  33  34
ENDBRANCH  31  33
ENDBRANCH  24  26
ENDBRANCH   5  24
BRANCH   6  41
ATOM     41  C   UNL     1     -76.363 -17.614  82.668  1.00  0.00     0.103 C 
ATOM     42  N   UNL     1     -77.099 -17.658  81.776  1.00  0.00    -0.192 NA
ENDBRANCH   6  41
TORSDOF 12
ENDMDL
MODEL 10
REMARK VINA RESULT:    -8.104      2.599      7.368
REMARK INTER + INTRA:         -15.740
REMARK INTER:                 -14.020
REMARK INTRA:                  -1.720
REMARK UNBOUND:                -1.951
REMARK SMILES CCOc1cc2ncc(C#N)c(Nc3ccc(OCc4ccccn4)c(Cl)c3)c2cc1NC(=O)/C=C/CN(C)C
REMARK SMILES IDX 4 1 31 2 30 3 29 4 12 5 9 6 8 7 7 8 6 9 5 10 3 11 2 12 1 13
REMARK SMILES IDX 32 14 33 15 34 17 35 18 36 19 37 20 38 21 39 22 40 23 13 24
REMARK SMILES IDX 14 26 15 27 28 28 16 29 26 30 17 31 27 32 18 33 19 34 20 35
REMARK SMILES IDX 21 36 25 37 22 38 24 39 23 40 10 41 11 42
REMARK H PARENT 32 16 13 25
REMARK Flexibility Score: inf
ROOT
ATOM      1  C   UNL     1     -75.780 -17.802  84.661  1.00  0.00     0.144 A 
ATOM      2  C   UNL     1     -76.743 -17.627  85.675  1.00  0.00     0.084 A 
ATOM      3  C   UNL     1     -76.418 -16.912  86.836  1.00  0.00     0.042 A 
ATOM      4  C   UNL     1     -75.118 -16.415  87.031  1.00  0.00     0.027 A 
ATOM      5  C   UNL     1     -74.751 -15.715  88.199  1.00  0.00     0.068 A 
ATOM      6  C   UNL     1     -73.425 -15.270  88.351  1.00  0.00     0.094 A 
ATOM      7  C   UNL     1     -72.498 -15.511  87.333  1.00  0.00     0.133 A 
ATOM      8  N   UNL     1     -72.874 -16.174  86.209  1.00  0.00    -0.255 NA
ATOM      9  C   UNL     1     -74.142 -16.629  86.032  1.00  0.00     0.076 A 
ATOM     10  C   UNL     1     -74.477 -17.306  84.856  1.00  0.00     0.077 A 
ENDROOT
BRANCH   1  11
ATOM     11  O   UNL     1     -76.164 -18.444  83.470  1.00  0.00    -0.492 OA
BRANCH  11  12
ATOM     12  C   UNL     1     -76.494 -17.800  82.240  1.00  0.00     0.226 C 
ATOM     13  C   UNL     1     -78.002 -17.790  82.022  1.00  0.00     0.049 C 
ENDBRANCH  11  12
ENDBRANCH   1  11
BRANCH   2  14
ATOM     14  N   UNL     1     -78.075 -18.145  85.530  1.00  0.00    -0.319 N 
ATOM     15  C   UNL     1     -78.449 -19.465  85.953  1.00  0.00     0.248 C 
ATOM     16  H   UNL     1     -78.829 -17.491  85.218  1.00  0.00     0.170 HD
ATOM     17  O   UNL     1     -77.650 -20.159  86.642  1.00  0.00    -0.270 OA
BRANCH  15  18
ATOM     18  C   UNL     1     -79.780 -19.995  85.603  1.00  0.00     0.068 C 
ATOM     19  C   UNL     1     -80.598 -20.531  86.514  1.00  0.00    -0.006 C 
BRANCH  19  20
ATOM     20  C   UNL     1     -81.946 -21.064  86.121  1.00  0.00     0.111 C 
BRANCH  20  21
ATOM     21  N   UNL     1     -82.266 -22.284  86.890  1.00  0.00    -0.306 NA
ATOM     22  C   UNL     1     -82.888 -21.927  88.176  1.00  0.00     0.105 C 
ATOM     23  C   UNL     1     -83.177 -23.157  86.129  1.00  0.00     0.105 C 
ENDBRANCH  20  21
ENDBRANCH  19  20
ENDBRANCH  15  18
ENDBRANCH   2  14
BRANCH   5  24
ATOM     24  N   UNL     1     -75.716 -15.443  89.227  1.00  0.00    -0.354 N 
ATOM     25  H   UNL     1     -76.390 -14.661  89.063  1.00  0.00     0.167 HD
BRANCH  24  26
ATOM     26  C   UNL     1     -75.878 -16.278  90.389  1.00  0.00     0.040 A 
ATOM     27  C   UNL     1     -75.946 -17.669  90.231  1.00  0.00     0.030 A 
ATOM     28  C   UNL     1     -75.953 -15.733  91.684  1.00  0.00     0.050 A 
ATOM     29  C   UNL     1     -76.083 -18.505  91.343  1.00  0.00     0.050 A 
ATOM     30  C   UNL     1     -76.088 -16.568  92.798  1.00  0.00     0.085 A 
ATOM     31  C   UNL     1     -76.147 -17.961  92.640  1.00  0.00     0.138 A 
ATOM     32  Cl  UNL     1     -76.167 -15.849  94.400  1.00  0.00    -0.080 Cl
BRANCH  31  33
ATOM     33  O   UNL     1     -76.269 -18.763  93.787  1.00  0.00    -0.486 OA
BRANCH  33  34
ATOM     34  C   UNL     1     -76.707 -20.122  93.806  1.00  0.00     0.285 C 
BRANCH  34  35
ATOM     35  C   UNL     1     -75.550 -21.056  94.014  1.00  0.00     0.078 A 
ATOM     36  C   UNL     1     -74.988 -21.753  92.934  1.00  0.00     0.027 A 
ATOM     37  N   UNL     1     -75.021 -21.206  95.261  1.00  0.00    -0.258 NA
ATOM     38  C   UNL     1     -73.905 -22.605  93.158  1.00  0.00     0.004 A 
ATOM     39  C   UNL     1     -73.965 -22.029  95.497  1.00  0.00     0.111 A 
ATOM     40  C   UNL     1     -73.389 -22.748  94.448  1.00  0.00     0.020 A 
ENDBRANCH  34  35
ENDBRANCH  33  34
ENDBRANCH  31  33
ENDBRANCH  24  26
ENDBRANCH   5  24
BRANCH   6  41
ATOM     41  C   UNL     1     -73.014 -14.550  89.531  1.00  0.00     0.103 C 
ATOM     42  N   UNL     1     -72.686 -13.971  90.478  1.00  0.00    -0.192 NA
ENDBRANCH   6  41
TORSDOF 12
ENDMDL
MODEL 11
REMARK VINA RESULT:    -8.061      2.929      7.045
REMARK INTER + INTRA:         -15.667
REMARK INTER:                 -14.032
REMARK INTRA:                  -1.635
REMARK UNBOUND:                -1.951
REMARK SMILES CCOc1cc2ncc(C#N)c(Nc3ccc(OCc4ccccn4)c(Cl)c3)c2cc1NC(=O)/C=C/CN(C)C
REMARK SMILES IDX 4 1 31 2 30 3 29 4 12 5 9 6 8 7 7 8 6 9 5 10 3 11 2 12 1 13
REMARK SMILES IDX 32 14 33 15 34 17 35 18 36 19 37 20 38 21 39 22 40 23 13 24
REMARK SMILES IDX 14 26 15 27 28 28 16 29 26 30 17 31 27 32 18 33 19 34 20 35
REMARK SMILES IDX 21 36 25 37 22 38 24 39 23 40 10 41 11 42
REMARK H PARENT 32 16 13 25
REMARK Flexibility Score: inf
ROOT
ATOM      1  C   UNL     1     -76.054 -17.860  84.672  1.00  0.00     0.144 A 
ATOM      2  C   UNL     1     -76.984 -17.794  85.729  1.00  0.00     0.084 A 
ATOM      3  C   UNL     1     -76.672 -17.082  86.895  1.00  0.00     0.042 A 
ATOM      4  C   UNL     1     -75.413 -16.479  87.051  1.00  0.00     0.027 A 
ATOM      5  C   UNL     1     -75.058 -15.778  88.222  1.00  0.00     0.068 A 
ATOM      6  C   UNL     1     -73.769 -15.224  88.333  1.00  0.00     0.094 A 
ATOM      7  C   UNL     1     -72.869 -15.359  87.272  1.00  0.00     0.133 A 
ATOM      8  N   UNL     1     -73.234 -16.024  86.146  1.00  0.00    -0.255 NA
ATOM      9  C   UNL     1     -74.466 -16.583  86.007  1.00  0.00     0.076 A 
ATOM     10  C   UNL     1     -74.791 -17.258  84.828  1.00  0.00     0.077 A 
ENDROOT
BRANCH   1  11
ATOM     11  O   UNL     1     -76.433 -18.504  83.480  1.00  0.00    -0.492 OA
BRANCH  11  12
ATOM     12  C   UNL     1     -76.740 -17.862  82.243  1.00  0.00     0.226 C 
ATOM     13  C   UNL     1     -78.248 -17.808  82.023  1.00  0.00     0.049 C 
ENDBRANCH  11  12
ENDBRANCH   1  11
BRANCH   2  14
ATOM     14  N   UNL     1     -78.272 -18.423  85.623  1.00  0.00    -0.319 N 
ATOM     15  C   UNL     1     -78.544 -19.734  86.140  1.00  0.00     0.248 C 
ATOM     16  H   UNL     1     -79.072 -17.852  85.268  1.00  0.00     0.170 HD
ATOM     17  O   UNL     1     -77.697 -20.314  86.875  1.00  0.00    -0.270 OA
BRANCH  15  18
ATOM     18  C   UNL     1     -79.830 -20.388  85.831  1.00  0.00     0.068 C 
ATOM     19  C   UNL     1     -80.665 -20.808  86.785  1.00  0.00    -0.006 C 
BRANCH  19  20
ATOM     20  C   UNL     1     -81.965 -21.473  86.434  1.00  0.00     0.111 C 
BRANCH  20  21
ATOM     21  N   UNL     1     -83.008 -21.129  87.423  1.00  0.00    -0.306 NA
ATOM     22  C   UNL     1     -82.456 -21.191  88.787  1.00  0.00     0.105 C 
ATOM     23  C   UNL     1     -83.544 -19.780  87.171  1.00  0.00     0.105 C 
ENDBRANCH  20  21
ENDBRANCH  19  20
ENDBRANCH  15  18
ENDBRANCH   2  14
BRANCH   5  24
ATOM     24  N   UNL     1     -75.997 -15.617  89.296  1.00  0.00    -0.354 N 
ATOM     25  H   UNL     1     -76.906 -15.150  89.076  1.00  0.00     0.167 HD
BRANCH  24  26
ATOM     26  C   UNL     1     -75.797 -16.185  90.603  1.00  0.00     0.040 A 
ATOM     27  C   UNL     1     -76.140 -15.437  91.738  1.00  0.00     0.030 A 
ATOM     28  C   UNL     1     -75.281 -17.484  90.772  1.00  0.00     0.050 A 
ATOM     29  C   UNL     1     -75.976 -15.971  93.019  1.00  0.00     0.050 A 
ATOM     30  C   UNL     1     -75.118 -18.022  92.053  1.00  0.00     0.085 A 
ATOM     31  C   UNL     1     -75.470 -17.275  93.187  1.00  0.00     0.138 A 
ATOM     32  Cl  UNL     1     -74.481 -19.651  92.221  1.00  0.00    -0.080 Cl
BRANCH  31  33
ATOM     33  O   UNL     1     -75.303 -17.859  94.454  1.00  0.00    -0.486 OA
BRANCH  33  34
ATOM     34  C   UNL     1     -74.111 -17.805  95.241  1.00  0.00     0.285 C 
BRANCH  34  35
ATOM     35  C   UNL     1     -73.706 -16.384  95.504  1.00  0.00     0.078 A 
ATOM     36  C   UNL     1     -74.397 -15.604  96.442  1.00  0.00     0.027 A 
ATOM     37  N   UNL     1     -72.636 -15.856  94.847  1.00  0.00    -0.258 NA
ATOM     38  C   UNL     1     -73.989 -14.288  96.673  1.00  0.00     0.004 A 
ATOM     39  C   UNL     1     -72.222 -14.578  95.060  1.00  0.00     0.111 A 
ATOM     40  C   UNL     1     -72.896 -13.768  95.978  1.00  0.00     0.020 A 
ENDBRANCH  34  35
ENDBRANCH  33  34
ENDBRANCH  31  33
ENDBRANCH  24  26
ENDBRANCH   5  24
BRANCH   6  41
ATOM     41  C   UNL     1     -73.371 -14.500  89.515  1.00  0.00     0.103 C 
ATOM     42  N   UNL     1     -73.052 -13.917  90.462  1.00  0.00    -0.192 NA
ENDBRANCH   6  41
TORSDOF 12
ENDMDL
MODEL 12
REMARK VINA RESULT:    -7.962      2.732      6.857
REMARK INTER + INTRA:         -15.499
REMARK INTER:                 -13.480
REMARK INTRA:                  -2.018
REMARK UNBOUND:                -1.951
REMARK SMILES CCOc1cc2ncc(C#N)c(Nc3ccc(OCc4ccccn4)c(Cl)c3)c2cc1NC(=O)/C=C/CN(C)C
REMARK SMILES IDX 4 1 31 2 30 3 29 4 12 5 9 6 8 7 7 8 6 9 5 10 3 11 2 12 1 13
REMARK SMILES IDX 32 14 33 15 34 17 35 18 36 19 37 20 38 21 39 22 40 23 13 24
REMARK SMILES IDX 14 26 15 27 28 28 16 29 26 30 17 31 27 32 18 33 19 34 20 35
REMARK SMILES IDX 21 36 25 37 22 38 24 39 23 40 10 41 11 42
REMARK H PARENT 32 16 13 25
REMARK Flexibility Score: inf
ROOT
ATOM      1  C   UNL     1     -73.001 -15.719  88.519  1.00  0.00     0.144 A 
ATOM      2  C   UNL     1     -73.664 -16.963  88.548  1.00  0.00     0.084 A 
ATOM      3  C   UNL     1     -74.000 -17.608  87.351  1.00  0.00     0.042 A 
ATOM      4  C   UNL     1     -73.739 -17.001  86.112  1.00  0.00     0.027 A 
ATOM      5  C   UNL     1     -74.089 -17.611  84.889  1.00  0.00     0.068 A 
ATOM      6  C   UNL     1     -73.832 -16.938  83.681  1.00  0.00     0.094 A 
ATOM      7  C   UNL     1     -73.214 -15.685  83.711  1.00  0.00     0.133 A 
ATOM      8  N   UNL     1     -72.871 -15.119  84.896  1.00  0.00    -0.255 NA
ATOM      9  C   UNL     1     -73.114 -15.734  86.085  1.00  0.00     0.076 A 
ATOM     10  C   UNL     1     -72.741 -15.108  87.277  1.00  0.00     0.077 A 
ENDROOT
BRANCH   1  11
ATOM     11  O   UNL     1     -72.595 -15.141  89.735  1.00  0.00    -0.492 OA
BRANCH  11  12
ATOM     12  C   UNL     1     -73.307 -14.147  90.469  1.00  0.00     0.226 C 
ATOM     13  C   UNL     1     -73.238 -14.427  91.966  1.00  0.00     0.049 C 
ENDBRANCH  11  12
ENDBRANCH   1  11
BRANCH   2  14
ATOM     14  N   UNL     1     -73.977 -17.605  89.795  1.00  0.00    -0.319 N 
ATOM     15  C   UNL     1     -75.175 -17.328  90.536  1.00  0.00     0.248 C 
ATOM     16  H   UNL     1     -73.369 -18.396  90.110  1.00  0.00     0.170 HD
ATOM     17  O   UNL     1     -76.093 -16.632  90.019  1.00  0.00    -0.270 OA
BRANCH  15  18
ATOM     18  C   UNL     1     -75.339 -17.882  91.893  1.00  0.00     0.068 C 
ATOM     19  C   UNL     1     -76.400 -18.617  92.240  1.00  0.00    -0.006 C 
BRANCH  19  20
ATOM     20  C   UNL     1     -76.536 -19.164  93.633  1.00  0.00     0.111 C 
BRANCH  20  21
ATOM     21  N   UNL     1     -76.484 -20.641  93.618  1.00  0.00    -0.306 NA
ATOM     22  C   UNL     1     -76.737 -21.145  92.258  1.00  0.00     0.105 C 
ATOM     23  C   UNL     1     -75.172 -21.122  94.085  1.00  0.00     0.105 C 
ENDBRANCH  20  21
ENDBRANCH  19  20
ENDBRANCH  15  18
ENDBRANCH   2  14
BRANCH   5  24
ATOM     24  N   UNL     1     -74.696 -18.912  84.864  1.00  0.00    -0.354 N 
ATOM     25  H   UNL     1     -74.061 -19.739  84.781  1.00  0.00     0.167 HD
BRANCH  24  26
ATOM     26  C   UNL     1     -76.102 -19.125  85.086  1.00  0.00     0.040 A 
ATOM     27  C   UNL     1     -76.534 -19.639  86.316  1.00  0.00     0.030 A 
ATOM     28  C   UNL     1     -77.059 -18.815  84.102  1.00  0.00     0.050 A 
ATOM     29  C   UNL     1     -77.894 -19.837  86.566  1.00  0.00     0.050 A 
ATOM     30  C   UNL     1     -78.421 -19.010  84.350  1.00  0.00     0.085 A 
ATOM     31  C   UNL     1     -78.853 -19.516  85.586  1.00  0.00     0.138 A 
ATOM     32  Cl  UNL     1     -79.586 -18.600  83.100  1.00  0.00    -0.080 Cl
BRANCH  31  33
ATOM     33  O   UNL     1     -80.232 -19.684  85.798  1.00  0.00    -0.486 OA
BRANCH  33  34
ATOM     34  C   UNL     1     -80.886 -20.928  86.053  1.00  0.00     0.285 C 
BRANCH  34  35
ATOM     35  C   UNL     1     -81.443 -20.965  87.447  1.00  0.00     0.078 A 
ATOM     36  C   UNL     1     -80.636 -21.340  88.531  1.00  0.00     0.027 A 
ATOM     37  N   UNL     1     -82.738 -20.603  87.665  1.00  0.00    -0.258 NA
ATOM     38  C   UNL     1     -81.179 -21.355  89.817  1.00  0.00     0.004 A 
ATOM     39  C   UNL     1     -83.284 -20.608  88.911  1.00  0.00     0.111 A 
ATOM     40  C   UNL     1     -82.513 -20.988  90.012  1.00  0.00     0.020 A 
ENDBRANCH  34  35
ENDBRANCH  33  34
ENDBRANCH  31  33
ENDBRANCH  24  26
ENDBRANCH   5  24
BRANCH   6  41
ATOM     41  C   UNL     1     -74.175 -17.532  82.413  1.00  0.00     0.103 C 
ATOM     42  N   UNL     1     -74.448 -18.009  81.394  1.00  0.00    -0.192 NA
ENDBRANCH   6  41
TORSDOF 12
ENDMDL
MODEL 13
REMARK VINA RESULT:    -7.947      3.437      7.176
REMARK INTER + INTRA:         -15.473
REMARK INTER:                 -14.238
REMARK INTRA:                  -1.235
REMARK UNBOUND:                -1.951
REMARK SMILES CCOc1cc2ncc(C#N)c(Nc3ccc(OCc4ccccn4)c(Cl)c3)c2cc1NC(=O)/C=C/CN(C)C
REMARK SMILES IDX 4 1 31 2 30 3 29 4 12 5 9 6 8 7 7 8 6 9 5 10 3 11 2 12 1 13
REMARK SMILES IDX 32 14 33 15 34 17 35 18 36 19 37 20 38 21 39 22 40 23 13 24
REMARK SMILES IDX 14 26 15 27 28 28 16 29 26 30 17 31 27 32 18 33 19 34 20 35
REMARK SMILES IDX 21 36 25 37 22 38 24 39 23 40 10 41 11 42
REMARK H PARENT 32 16 13 25
REMARK Flexibility Score: inf
ROOT
ATOM      1  C   UNL     1     -77.731 -19.133  84.270  1.00  0.00     0.144 A 
ATOM      2  C   UNL     1     -76.631 -19.082  85.150  1.00  0.00     0.084 A 
ATOM      3  C   UNL     1     -76.752 -19.578  86.455  1.00  0.00     0.042 A 
ATOM      4  C   UNL     1     -77.981 -20.074  86.922  1.00  0.00     0.027 A 
ATOM      5  C   UNL     1     -78.143 -20.555  88.238  1.00  0.00     0.068 A 
ATOM      6  C   UNL     1     -79.407 -21.008  88.658  1.00  0.00     0.094 A 
ATOM      7  C   UNL     1     -80.477 -20.993  87.758  1.00  0.00     0.133 A 
ATOM      8  N   UNL     1     -80.298 -20.540  86.491  1.00  0.00    -0.255 NA
ATOM      9  C   UNL     1     -79.095 -20.083  86.052  1.00  0.00     0.076 A 
ATOM     10  C   UNL     1     -78.964 -19.628  84.738  1.00  0.00     0.077 A 
ENDROOT
BRANCH   1  11
ATOM     11  O   UNL     1     -77.552 -18.713  82.940  1.00  0.00    -0.492 OA
BRANCH  11  12
ATOM     12  C   UNL     1     -78.311 -17.709  82.268  1.00  0.00     0.226 C 
ATOM     13  C   UNL     1     -79.748 -18.171  82.054  1.00  0.00     0.049 C 
ENDBRANCH  11  12
ENDBRANCH   1  11
BRANCH   2  14
ATOM     14  N   UNL     1     -75.365 -18.555  84.722  1.00  0.00    -0.319 N 
ATOM     15  C   UNL     1     -75.100 -17.148  84.621  1.00  0.00     0.248 C 
ATOM     16  H   UNL     1     -74.568 -19.221  84.600  1.00  0.00     0.170 HD
ATOM     17  O   UNL     1     -75.926 -16.313  85.085  1.00  0.00    -0.270 OA
BRANCH  15  18
ATOM     18  C   UNL     1     -73.845 -16.684  83.999  1.00  0.00     0.068 C 
ATOM     19  C   UNL     1     -73.212 -17.388  83.057  1.00  0.00    -0.006 C 
BRANCH  19  20
ATOM     20  C   UNL     1     -71.934 -16.886  82.448  1.00  0.00     0.111 C 
BRANCH  20  21
ATOM     21  N   UNL     1     -72.129 -16.577  81.016  1.00  0.00    -0.306 NA
ATOM     22  C   UNL     1     -73.441 -17.068  80.563  1.00  0.00     0.105 C 
ATOM     23  C   UNL     1     -72.038 -15.125  80.777  1.00  0.00     0.105 C 
ENDBRANCH  20  21
ENDBRANCH  19  20
ENDBRANCH  15  18
ENDBRANCH   2  14
BRANCH   5  24
ATOM     24  N   UNL     1     -77.034 -20.596  89.148  1.00  0.00    -0.354 N 
ATOM     25  H   UNL     1     -76.383 -21.411  89.080  1.00  0.00     0.167 HD
BRANCH  24  26
ATOM     26  C   UNL     1     -76.710 -19.511  90.038  1.00  0.00     0.040 A 
ATOM     27  C   UNL     1     -76.764 -19.719  91.423  1.00  0.00     0.030 A 
ATOM     28  C   UNL     1     -76.323 -18.249  89.551  1.00  0.00     0.050 A 
ATOM     29  C   UNL     1     -76.436 -18.691  92.310  1.00  0.00     0.050 A 
ATOM     30  C   UNL     1     -75.992 -17.218  90.437  1.00  0.00     0.085 A 
ATOM     31  C   UNL     1     -76.038 -17.431  91.824  1.00  0.00     0.138 A 
ATOM     32  Cl  UNL     1     -75.502 -15.660  89.791  1.00  0.00    -0.080 Cl
BRANCH  31  33
ATOM     33  O   UNL     1     -75.684 -16.372  92.677  1.00  0.00    -0.486 OA
BRANCH  33  34
ATOM     34  C   UNL     1     -74.748 -16.453  93.754  1.00  0.00     0.285 C 
BRANCH  34  35
ATOM     35  C   UNL     1     -73.784 -15.302  93.714  1.00  0.00     0.078 A 
ATOM     36  C   UNL     1     -73.496 -14.650  92.506  1.00  0.00     0.027 A 
ATOM     37  N   UNL     1     -73.206 -14.867  94.868  1.00  0.00    -0.258 NA
ATOM     38  C   UNL     1     -72.605 -13.576  92.502  1.00  0.00     0.004 A 
ATOM     39  C   UNL     1     -72.337 -13.821  94.885  1.00  0.00     0.111 A 
ATOM     40  C   UNL     1     -72.018 -13.156  93.698  1.00  0.00     0.020 A 
ENDBRANCH  34  35
ENDBRANCH  33  34
ENDBRANCH  31  33
ENDBRANCH  24  26
ENDBRANCH   5  24
BRANCH   6  41
ATOM     41  C   UNL     1     -79.610 -21.508  89.995  1.00  0.00     0.103 C 
ATOM     42  N   UNL     1     -79.775 -21.911  91.067  1.00  0.00    -0.192 NA
ENDBRANCH   6  41
TORSDOF 12
ENDMDL
MODEL 14
REMARK VINA RESULT:    -7.900      2.251      7.661
REMARK INTER + INTRA:         -15.392
REMARK INTER:                 -13.490
REMARK INTRA:                  -1.902
REMARK UNBOUND:                -1.951
REMARK SMILES CCOc1cc2ncc(C#N)c(Nc3ccc(OCc4ccccn4)c(Cl)c3)c2cc1NC(=O)/C=C/CN(C)C
REMARK SMILES IDX 4 1 31 2 30 3 29 4 12 5 9 6 8 7 7 8 6 9 5 10 3 11 2 12 1 13
REMARK SMILES IDX 32 14 33 15 34 17 35 18 36 19 37 20 38 21 39 22 40 23 13 24
REMARK SMILES IDX 14 26 15 27 28 28 16 29 26 30 17 31 27 32 18 33 19 34 20 35
REMARK SMILES IDX 21 36 25 37 22 38 24 39 23 40 10 41 11 42
REMARK H PARENT 32 16 13 25
REMARK Flexibility Score: inf
ROOT
ATOM      1  C   UNL     1     -75.327 -20.608  92.197  1.00  0.00     0.144 A 
ATOM      2  C   UNL     1     -76.254 -19.858  91.446  1.00  0.00     0.084 A 
ATOM      3  C   UNL     1     -75.867 -18.643  90.865  1.00  0.00     0.042 A 
ATOM      4  C   UNL     1     -74.576 -18.129  91.072  1.00  0.00     0.027 A 
ATOM      5  C   UNL     1     -74.164 -16.896  90.524  1.00  0.00     0.068 A 
ATOM      6  C   UNL     1     -72.869 -16.417  90.794  1.00  0.00     0.094 A 
ATOM      7  C   UNL     1     -72.005 -17.180  91.584  1.00  0.00     0.133 A 
ATOM      8  N   UNL     1     -72.415 -18.371  92.091  1.00  0.00    -0.255 NA
ATOM      9  C   UNL     1     -73.662 -18.861  91.862  1.00  0.00     0.076 A 
ATOM     10  C   UNL     1     -74.033 -20.092  92.407  1.00  0.00     0.077 A 
ENDROOT
BRANCH   1  11
ATOM     11  O   UNL     1     -75.718 -21.866  92.689  1.00  0.00    -0.492 OA
BRANCH  11  12
ATOM     12  C   UNL     1     -75.662 -22.288  94.051  1.00  0.00     0.226 C 
ATOM     13  C   UNL     1     -76.824 -21.704  94.846  1.00  0.00     0.049 C 
ENDBRANCH  11  12
ENDBRANCH   1  11
BRANCH   2  14
ATOM     14  N   UNL     1     -77.593 -20.333  91.235  1.00  0.00    -0.319 N 
ATOM     15  C   UNL     1     -77.983 -21.076  90.070  1.00  0.00     0.248 C 
ATOM     16  H   UNL     1     -78.279 -20.241  92.019  1.00  0.00     0.170 HD
ATOM     17  O   UNL     1     -77.106 -21.499  89.266  1.00  0.00    -0.270 OA
BRANCH  15  18
ATOM     18  C   UNL     1     -79.409 -21.368  89.834  1.00  0.00     0.068 C 
ATOM     19  C   UNL     1     -80.000 -21.138  88.657  1.00  0.00    -0.006 C 
BRANCH  19  20
ATOM     20  C   UNL     1     -81.456 -21.445  88.453  1.00  0.00     0.111 C 
BRANCH  20  21
ATOM     21  N   UNL     1     -81.752 -21.620  87.015  1.00  0.00    -0.306 NA
ATOM     22  C   UNL     1     -82.725 -22.708  86.826  1.00  0.00     0.105 C 
ATOM     23  C   UNL     1     -82.288 -20.375  86.437  1.00  0.00     0.105 C 
ENDBRANCH  20  21
ENDBRANCH  19  20
ENDBRANCH  15  18
ENDBRANCH   2  14
BRANCH   5  24
ATOM     24  N   UNL     1     -75.046 -16.131  89.688  1.00  0.00    -0.354 N 
ATOM     25  H   UNL     1     -75.516 -15.300  90.114  1.00  0.00     0.167 HD
BRANCH  24  26
ATOM     26  C   UNL     1     -75.197 -16.377  88.277  1.00  0.00     0.040 A 
ATOM     27  C   UNL     1     -76.368 -16.986  87.807  1.00  0.00     0.030 A 
ATOM     28  C   UNL     1     -74.204 -16.004  87.353  1.00  0.00     0.050 A 
ATOM     29  C   UNL     1     -76.551 -17.219  86.442  1.00  0.00     0.050 A 
ATOM     30  C   UNL     1     -74.385 -16.233  85.985  1.00  0.00     0.085 A 
ATOM     31  C   UNL     1     -75.562 -16.836  85.515  1.00  0.00     0.138 A 
ATOM     32  Cl  UNL     1     -73.126 -15.742  84.862  1.00  0.00    -0.080 Cl
BRANCH  31  33
ATOM     33  O   UNL     1     -75.709 -17.035  84.132  1.00  0.00    -0.486 OA
BRANCH  33  34
ATOM     34  C   UNL     1     -75.989 -18.285  83.500  1.00  0.00     0.285 C 
BRANCH  34  35
ATOM     35  C   UNL     1     -77.466 -18.461  83.292  1.00  0.00     0.078 A 
ATOM     36  C   UNL     1     -78.242 -19.165  84.224  1.00  0.00     0.027 A 
ATOM     37  N   UNL     1     -78.064 -17.905  82.201  1.00  0.00    -0.258 NA
ATOM     38  C   UNL     1     -79.614 -19.302  84.010  1.00  0.00     0.004 A 
ATOM     39  C   UNL     1     -79.399 -18.026  81.976  1.00  0.00     0.111 A 
ATOM     40  C   UNL     1     -80.200 -18.731  82.878  1.00  0.00     0.020 A 
ENDBRANCH  34  35
ENDBRANCH  33  34
ENDBRANCH  31  33
ENDBRANCH  24  26
ENDBRANCH   5  24
BRANCH   6  41
ATOM     41  C   UNL     1     -72.413 -15.162  90.250  1.00  0.00     0.103 C 
ATOM     42  N   UNL     1     -72.047 -14.154  89.814  1.00  0.00    -0.192 NA
ENDBRANCH   6  41
TORSDOF 12
ENDMDL
MODEL 15
REMARK VINA RESULT:    -7.846      3.331      7.033
REMARK INTER + INTRA:         -15.301
REMARK INTER:                 -13.407
REMARK INTRA:                  -1.895
REMARK UNBOUND:                -1.951
REMARK SMILES CCOc1cc2ncc(C#N)c(Nc3ccc(OCc4ccccn4)c(Cl)c3)c2cc1NC(=O)/C=C/CN(C)C
REMARK SMILES IDX 4 1 31 2 30 3 29 4 12 5 9 6 8 7 7 8 6 9 5 10 3 11 2 12 1 13
REMARK SMILES IDX 32 14 33 15 34 17 35 18 36 19 37 20 38 21 39 22 40 23 13 24
REMARK SMILES IDX 14 26 15 27 28 28 16 29 26 30 17 31 27 32 18 33 19 34 20 35
REMARK SMILES IDX 21 36 25 37 22 38 24 39 23 40 10 41 11 42
REMARK H PARENT 32 16 13 25
REMARK Flexibility Score: inf
ROOT
ATOM      1  C   UNL     1     -78.820 -19.991  85.664  1.00  0.00     0.144 A 
ATOM      2  C   UNL     1     -77.496 -19.557  85.880  1.00  0.00     0.084 A 
ATOM      3  C   UNL     1     -76.906 -19.700  87.143  1.00  0.00     0.042 A 
ATOM      4  C   UNL     1     -77.641 -20.219  88.222  1.00  0.00     0.027 A 
ATOM      5  C   UNL     1     -77.086 -20.351  89.512  1.00  0.00     0.068 A 
ATOM      6  C   UNL     1     -77.883 -20.846  90.560  1.00  0.00     0.094 A 
ATOM      7  C   UNL     1     -79.205 -21.219  90.302  1.00  0.00     0.133 A 
ATOM      8  N   UNL     1     -79.717 -21.099  89.051  1.00  0.00    -0.255 NA
ATOM      9  C   UNL     1     -78.982 -20.613  88.015  1.00  0.00     0.076 A 
ATOM     10  C   UNL     1     -79.557 -20.510  86.746  1.00  0.00     0.077 A 
ENDROOT
BRANCH   1  11
ATOM     11  O   UNL     1     -79.350 -19.919  84.364  1.00  0.00    -0.492 OA
BRANCH  11  12
ATOM     12  C   UNL     1     -80.204 -18.891  83.863  1.00  0.00     0.226 C 
ATOM     13  C   UNL     1     -79.750 -18.439  82.480  1.00  0.00     0.049 C 
ENDBRANCH  11  12
ENDBRANCH   1  11
BRANCH   2  14
ATOM     14  N   UNL     1     -76.719 -18.993  84.811  1.00  0.00    -0.319 N 
ATOM     15  C   UNL     1     -76.596 -17.578  84.598  1.00  0.00     0.248 C 
ATOM     16  H   UNL     1     -76.120 -19.635  84.243  1.00  0.00     0.170 HD
ATOM     17  O   UNL     1     -77.027 -16.768  85.465  1.00  0.00    -0.270 OA
BRANCH  15  18
ATOM     18  C   UNL     1     -75.939 -17.078  83.376  1.00  0.00     0.068 C 
ATOM     19  C   UNL     1     -74.954 -17.746  82.770  1.00  0.00    -0.006 C 
BRANCH  19  20
ATOM     20  C   UNL     1     -74.305 -17.204  81.528  1.00  0.00     0.111 C 
BRANCH  20  21
ATOM     21  N   UNL     1     -72.846 -17.436  81.562  1.00  0.00    -0.306 NA
ATOM     22  C   UNL     1     -72.535 -18.604  82.402  1.00  0.00     0.105 C 
ATOM     23  C   UNL     1     -72.320 -17.654  80.203  1.00  0.00     0.105 C 
ENDBRANCH  20  21
ENDBRANCH  19  20
ENDBRANCH  15  18
ENDBRANCH   2  14
BRANCH   5  24
ATOM     24  N   UNL     1     -75.718 -19.994  89.764  1.00  0.00    -0.354 N 
ATOM     25  H   UNL     1     -74.996 -20.742  89.653  1.00  0.00     0.167 HD
BRANCH  24  26
ATOM     26  C   UNL     1     -75.296 -18.643  90.022  1.00  0.00     0.040 A 
ATOM     27  C   UNL     1     -74.110 -18.171  89.443  1.00  0.00     0.030 A 
ATOM     28  C   UNL     1     -76.054 -17.775  90.829  1.00  0.00     0.050 A 
ATOM     29  C   UNL     1     -73.685 -16.858  89.661  1.00  0.00     0.050 A 
ATOM     30  C   UNL     1     -75.633 -16.458  91.046  1.00  0.00     0.085 A 
ATOM     31  C   UNL     1     -74.450 -15.985  90.459  1.00  0.00     0.138 A 
ATOM     32  Cl  UNL     1     -76.613 -15.402  92.051  1.00  0.00    -0.080 Cl
BRANCH  31  33
ATOM     33  O   UNL     1     -74.071 -14.652  90.692  1.00  0.00    -0.486 OA
BRANCH  33  34
ATOM     34  C   UNL     1     -72.753 -14.210  91.023  1.00  0.00     0.285 C 
BRANCH  34  35
ATOM     35  C   UNL     1     -72.629 -13.947  92.496  1.00  0.00     0.078 A 
ATOM     36  C   UNL     1     -72.170 -12.708  92.966  1.00  0.00     0.027 A 
ATOM     37  N   UNL     1     -72.996 -14.911  93.386  1.00  0.00    -0.258 NA
ATOM     38  C   UNL     1     -72.076 -12.489  94.341  1.00  0.00     0.004 A 
ATOM     39  C   UNL     1     -72.914 -14.715  94.729  1.00  0.00     0.111 A 
ATOM     40  C   UNL     1     -72.449 -13.498  95.232  1.00  0.00     0.020 A 
ENDBRANCH  34  35
ENDBRANCH  33  34
ENDBRANCH  31  33
ENDBRANCH  24  26
ENDBRANCH   5  24
BRANCH   6  41
ATOM     41  C   UNL     1     -77.349 -20.996  91.892  1.00  0.00     0.103 C 
ATOM     42  N   UNL     1     -76.919 -21.116  92.959  1.00  0.00    -0.192 NA
ENDBRANCH   6  41
TORSDOF 12
ENDMDL
