MODEL 1
REMARK VINA RESULT:    -8.387      0.000      0.000
REMARK INTER + INTRA:         -11.722
REMARK INTER:                 -10.839
REMARK INTRA:                  -0.883
REMARK UNBOUND:                -0.883
REMARK SMILES CN(C)C(=O)c1cc2cnc(Nc3ccc(N4CCNCC4)cn3)nc2n1C1CCCC1
REMARK SMILES IDX 12 1 11 3 6 4 7 5 27 6 8 7 26 8 9 9 25 10 10 11 4 12 1 13
REMARK SMILES IDX 2 14 3 15 5 16 28 17 29 18 32 19 30 20 31 21 13 22 14 23
REMARK SMILES IDX 24 24 15 25 23 26 16 27 17 28 18 29 22 30 19 31 21 32 20 33
REMARK H PARENT 12 2 20 34
REMARK Flexibility Score: inf
ROOT
ATOM      1  N   UNL     1      22.957  35.409 -11.593  1.00  0.00    -0.309 N 
ATOM      2  H   UNL     1      23.155  34.524 -12.116  1.00  0.00     0.171 HD
ENDROOT
BRANCH   1   3
ATOM      3  C   UNL     1      22.164  36.400 -12.266  1.00  0.00     0.230 A 
ATOM      4  C   UNL     1      21.220  39.529 -15.290  1.00  0.00     0.109 A 
ATOM      5  C   UNL     1      20.161  39.207 -14.442  1.00  0.00     0.045 A 
ATOM      6  N   UNL     1      22.357  38.851 -14.950  1.00  0.00    -0.318 N 
ATOM      7  C   UNL     1      20.675  38.274 -13.578  1.00  0.00     0.038 A 
ATOM      8  C   UNL     1      21.979  38.068 -13.911  1.00  0.00     0.146 A 
ATOM      9  C   UNL     1      20.084  37.535 -12.565  1.00  0.00     0.127 A 
ATOM     10  N   UNL     1      22.726  37.129 -13.277  1.00  0.00    -0.194 NA
ATOM     11  N   UNL     1      20.852  36.609 -11.923  1.00  0.00    -0.221 NA
BRANCH   4  12
ATOM     12  C   UNL     1      21.065  40.369 -16.493  1.00  0.00     0.270 C 
ATOM     13  C   UNL     1      22.019  42.401 -15.330  1.00  0.00     0.146 C 
ATOM     14  N   UNL     1      21.307  41.791 -16.459  1.00  0.00    -0.343 N 
ATOM     15  C   UNL     1      20.921  42.609 -17.613  1.00  0.00     0.146 C 
ATOM     16  O   UNL     1      20.703  39.820 -17.569  1.00  0.00    -0.267 OA
ENDBRANCH   4  12
BRANCH   6  17
ATOM     17  C   UNL     1      23.653  38.891 -15.668  1.00  0.00     0.089 C 
ATOM     18  C   UNL     1      24.174  37.523 -16.104  1.00  0.00     0.025 C 
ATOM     19  C   UNL     1      24.784  39.444 -14.792  1.00  0.00     0.025 C 
ATOM     20  C   UNL     1      25.667  37.715 -16.283  1.00  0.00     0.002 C 
ATOM     21  C   UNL     1      26.072  38.761 -15.253  1.00  0.00     0.002 C 
ENDBRANCH   6  17
ENDBRANCH   1   3
BRANCH   1  22
ATOM     22  C   UNL     1      23.497  35.546 -10.266  1.00  0.00     0.132 A 
ATOM     23  C   UNL     1      24.629  34.809  -9.896  1.00  0.00     0.049 A 
ATOM     24  N   UNL     1      22.927  36.389  -9.361  1.00  0.00    -0.237 NA
ATOM     25  C   UNL     1      25.153  34.947  -8.610  1.00  0.00     0.031 A 
ATOM     26  C   UNL     1      23.418  36.541  -8.103  1.00  0.00     0.139 A 
ATOM     27  C   UNL     1      24.552  35.823  -7.694  1.00  0.00     0.055 A 
BRANCH  27  28
ATOM     28  N   UNL     1      25.084  35.968  -6.363  1.00  0.00    -0.368 N 
ATOM     29  C   UNL     1      26.268  35.200  -5.963  1.00  0.00     0.132 C 
ATOM     30  C   UNL     1      24.707  37.120  -5.538  1.00  0.00     0.132 C 
ATOM     31  C   UNL     1      26.195  34.869  -4.468  1.00  0.00     0.102 C 
ATOM     32  C   UNL     1      24.695  36.723  -4.057  1.00  0.00     0.102 C 
ATOM     33  N   UNL     1      25.956  36.077  -3.667  1.00  0.00    -0.313 NA
ATOM     34  H   UNL     1      26.745  36.749  -3.819  1.00  0.00     0.122 HD
ENDBRANCH  27  28
ENDBRANCH   1  22
TORSDOF 5
ENDMDL
MODEL 2
REMARK VINA RESULT:    -8.321      5.646      7.697
REMARK INTER + INTRA:         -11.637
REMARK INTER:                 -11.362
REMARK INTRA:                  -0.275
REMARK UNBOUND:                -0.883
REMARK SMILES CN(C)C(=O)c1cc2cnc(Nc3ccc(N4CCNCC4)cn3)nc2n1C1CCCC1
REMARK SMILES IDX 12 1 11 3 6 4 7 5 27 6 8 7 26 8 9 9 25 10 10 11 4 12 1 13
REMARK SMILES IDX 2 14 3 15 5 16 28 17 29 18 32 19 30 20 31 21 13 22 14 23
REMARK SMILES IDX 24 24 15 25 23 26 16 27 17 28 18 29 22 30 19 31 21 32 20 33
REMARK H PARENT 12 2 20 34
REMARK Flexibility Score: inf
ROOT
ATOM      1  N   UNL     1      20.557  37.942  -9.971  1.00  0.00    -0.309 N 
ATOM      2  H   UNL     1      20.085  37.417 -10.744  1.00  0.00     0.171 HD
ENDROOT
BRANCH   1   3
ATOM      3  C   UNL     1      20.058  39.258  -9.679  1.00  0.00     0.230 A 
ATOM      4  C   UNL     1      19.181  42.847  -7.194  1.00  0.00     0.109 A 
ATOM      5  C   UNL     1      18.829  42.974  -8.537  1.00  0.00     0.045 A 
ATOM      6  N   UNL     1      19.659  41.597  -6.918  1.00  0.00    -0.318 N 
ATOM      7  C   UNL     1      19.138  41.761  -9.097  1.00  0.00     0.038 A 
ATOM      8  C   UNL     1      19.645  40.965  -8.116  1.00  0.00     0.146 A 
ATOM      9  C   UNL     1      19.079  41.311 -10.407  1.00  0.00     0.127 A 
ATOM     10  N   UNL     1      20.120  39.724  -8.395  1.00  0.00    -0.194 NA
ATOM     11  N   UNL     1      19.541  40.055 -10.669  1.00  0.00    -0.221 NA
BRANCH   4  12
ATOM     12  C   UNL     1      19.183  43.981  -6.249  1.00  0.00     0.270 C 
ATOM     13  C   UNL     1      16.797  43.537  -5.543  1.00  0.00     0.146 C 
ATOM     14  N   UNL     1      17.982  44.402  -5.570  1.00  0.00    -0.343 N 
ATOM     15  C   UNL     1      17.989  45.664  -4.825  1.00  0.00     0.146 C 
ATOM     16  O   UNL     1      20.267  44.592  -6.045  1.00  0.00    -0.267 OA
ENDBRANCH   4  12
BRANCH   6  17
ATOM     17  C   UNL     1      20.191  41.125  -5.617  1.00  0.00     0.089 C 
ATOM     18  C   UNL     1      21.050  39.866  -5.708  1.00  0.00     0.025 C 
ATOM     19  C   UNL     1      19.073  40.728  -4.645  1.00  0.00     0.025 C 
ATOM     20  C   UNL     1      21.009  39.267  -4.316  1.00  0.00     0.002 C 
ATOM     21  C   UNL     1      19.634  39.614  -3.762  1.00  0.00     0.002 C 
ENDBRANCH   6  17
ENDBRANCH   1   3
BRANCH   1  22
ATOM     22  C   UNL     1      21.649  37.303  -9.287  1.00  0.00     0.132 A 
ATOM     23  C   UNL     1      22.607  36.590 -10.019  1.00  0.00     0.049 A 
ATOM     24  N   UNL     1      21.774  37.387  -7.933  1.00  0.00    -0.237 NA
ATOM     25  C   UNL     1      23.668  35.975  -9.353  1.00  0.00     0.031 A 
ATOM     26  C   UNL     1      22.797  36.797  -7.261  1.00  0.00     0.139 A 
ATOM     27  C   UNL     1      23.777  36.075  -7.959  1.00  0.00     0.055 A 
BRANCH  27  28
ATOM     28  N   UNL     1      24.868  35.439  -7.263  1.00  0.00    -0.368 N 
ATOM     29  C   UNL     1      25.704  34.457  -7.960  1.00  0.00     0.132 C 
ATOM     30  C   UNL     1      25.385  36.014  -6.018  1.00  0.00     0.132 C 
ATOM     31  C   UNL     1      26.200  33.396  -6.970  1.00  0.00     0.102 C 
ATOM     32  C   UNL     1      25.898  34.900  -5.098  1.00  0.00     0.102 C 
ATOM     33  N   UNL     1      26.839  34.017  -5.803  1.00  0.00    -0.313 NA
ATOM     34  H   UNL     1      27.662  34.581  -6.123  1.00  0.00     0.122 HD
ENDBRANCH  27  28
ENDBRANCH   1  22
TORSDOF 5
ENDMDL
MODEL 3
REMARK VINA RESULT:    -8.275      4.498      9.848
REMARK INTER + INTRA:         -11.577
REMARK INTER:                 -11.546
REMARK INTRA:                  -0.031
REMARK UNBOUND:                -0.883
REMARK SMILES CN(C)C(=O)c1cc2cnc(Nc3ccc(N4CCNCC4)cn3)nc2n1C1CCCC1
REMARK SMILES IDX 12 1 11 3 6 4 7 5 27 6 8 7 26 8 9 9 25 10 10 11 4 12 1 13
REMARK SMILES IDX 2 14 3 15 5 16 28 17 29 18 32 19 30 20 31 21 13 22 14 23
REMARK SMILES IDX 24 24 15 25 23 26 16 27 17 28 18 29 22 30 19 31 21 32 20 33
REMARK H PARENT 12 2 20 34
REMARK Flexibility Score: inf
ROOT
ATOM      1  N   UNL     1      21.841  36.775 -10.785  1.00  0.00    -0.309 N 
ATOM      2  H   UNL     1      21.609  36.155 -11.595  1.00  0.00     0.171 HD
ENDROOT
BRANCH   1   3
ATOM      3  C   UNL     1      22.931  36.365  -9.943  1.00  0.00     0.230 A 
ATOM      4  C   UNL     1      25.313  36.034  -6.195  1.00  0.00     0.109 A 
ATOM      5  C   UNL     1      25.825  35.310  -7.271  1.00  0.00     0.045 A 
ATOM      6  N   UNL     1      24.211  36.757  -6.558  1.00  0.00    -0.318 N 
ATOM      7  C   UNL     1      24.978  35.585  -8.314  1.00  0.00     0.038 A 
ATOM      8  C   UNL     1      24.017  36.436  -7.860  1.00  0.00     0.146 A 
ATOM      9  C   UNL     1      24.932  35.104  -9.613  1.00  0.00     0.127 A 
ATOM     10  N   UNL     1      22.986  36.819  -8.654  1.00  0.00    -0.194 NA
ATOM     11  N   UNL     1      23.901  35.512 -10.407  1.00  0.00    -0.221 NA
BRANCH   4  12
ATOM     12  C   UNL     1      25.813  35.891  -4.814  1.00  0.00     0.270 C 
ATOM     13  C   UNL     1      25.926  33.372  -5.001  1.00  0.00     0.146 C 
ATOM     14  N   UNL     1      25.959  34.597  -4.193  1.00  0.00    -0.343 N 
ATOM     15  C   UNL     1      26.239  34.523  -2.756  1.00  0.00     0.146 C 
ATOM     16  O   UNL     1      26.108  36.933  -4.170  1.00  0.00    -0.267 OA
ENDBRANCH   4  12
BRANCH   6  17
ATOM     17  C   UNL     1      23.368  37.585  -5.663  1.00  0.00     0.089 C 
ATOM     18  C   UNL     1      21.901  37.164  -5.612  1.00  0.00     0.025 C 
ATOM     19  C   UNL     1      23.307  39.049  -6.116  1.00  0.00     0.025 C 
ATOM     20  C   UNL     1      21.159  38.398  -5.138  1.00  0.00     0.002 C 
ATOM     21  C   UNL     1      21.938  39.583  -5.696  1.00  0.00     0.002 C 
ENDBRANCH   6  17
ENDBRANCH   1   3
BRANCH   1  22
ATOM     22  C   UNL     1      21.051  37.962 -10.592  1.00  0.00     0.132 A 
ATOM     23  C   UNL     1      20.795  38.424  -9.295  1.00  0.00     0.049 A 
ATOM     24  N   UNL     1      20.553  38.653 -11.655  1.00  0.00    -0.237 NA
ATOM     25  C   UNL     1      20.033  39.579  -9.111  1.00  0.00     0.031 A 
ATOM     26  C   UNL     1      19.808  39.779 -11.503  1.00  0.00     0.139 A 
ATOM     27  C   UNL     1      19.530  40.275 -10.220  1.00  0.00     0.055 A 
BRANCH  27  28
ATOM     28  N   UNL     1      18.739  41.466 -10.039  1.00  0.00    -0.368 N 
ATOM     29  C   UNL     1      19.314  42.626  -9.350  1.00  0.00     0.132 C 
ATOM     30  C   UNL     1      17.529  41.678 -10.839  1.00  0.00     0.132 C 
ATOM     31  C   UNL     1      18.216  43.379  -8.590  1.00  0.00     0.102 C 
ATOM     32  C   UNL     1      16.497  42.470 -10.029  1.00  0.00     0.102 C 
ATOM     33  N   UNL     1      17.083  43.696  -9.468  1.00  0.00    -0.313 NA
ATOM     34  H   UNL     1      17.419  44.303 -10.253  1.00  0.00     0.122 HD
ENDBRANCH  27  28
ENDBRANCH   1  22
TORSDOF 5
ENDMDL
MODEL 4
REMARK VINA RESULT:    -8.272      4.981      6.705
REMARK INTER + INTRA:         -11.573
REMARK INTER:                 -10.668
REMARK INTRA:                  -0.906
REMARK UNBOUND:                -0.883
REMARK SMILES CN(C)C(=O)c1cc2cnc(Nc3ccc(N4CCNCC4)cn3)nc2n1C1CCCC1
REMARK SMILES IDX 12 1 11 3 6 4 7 5 27 6 8 7 26 8 9 9 25 10 10 11 4 12 1 13
REMARK SMILES IDX 2 14 3 15 5 16 28 17 29 18 32 19 30 20 31 21 13 22 14 23
REMARK SMILES IDX 24 24 15 25 23 26 16 27 17 28 18 29 22 30 19 31 21 32 20 33
REMARK H PARENT 12 2 20 34
REMARK Flexibility Score: inf
ROOT
ATOM      1  N   UNL     1      20.867  39.240  -3.891  1.00  0.00    -0.309 N 
ATOM      2  H   UNL     1      20.556  39.153  -2.896  1.00  0.00     0.171 HD
ENDROOT
BRANCH   1   3
ATOM      3  C   UNL     1      20.222  40.245  -4.690  1.00  0.00     0.230 A 
ATOM      4  C   UNL     1      19.014  42.365  -8.414  1.00  0.00     0.109 A 
ATOM      5  C   UNL     1      18.461  42.889  -7.247  1.00  0.00     0.045 A 
ATOM      6  N   UNL     1      19.879  41.342  -8.144  1.00  0.00    -0.318 N 
ATOM      7  C   UNL     1      18.991  42.128  -6.236  1.00  0.00     0.038 A 
ATOM      8  C   UNL     1      19.820  41.205  -6.797  1.00  0.00     0.146 A 
ATOM      9  C   UNL     1      18.763  42.126  -4.869  1.00  0.00     0.127 A 
ATOM     10  N   UNL     1      20.425  40.253  -6.042  1.00  0.00    -0.194 NA
ATOM     11  N   UNL     1      19.393  41.177  -4.120  1.00  0.00    -0.221 NA
BRANCH   4  12
ATOM     12  C   UNL     1      18.579  42.769  -9.766  1.00  0.00     0.270 C 
ATOM     13  C   UNL     1      20.612  44.235 -10.099  1.00  0.00     0.146 C 
ATOM     14  N   UNL     1      19.275  43.790 -10.510  1.00  0.00    -0.343 N 
ATOM     15  C   UNL     1      18.673  44.312 -11.741  1.00  0.00     0.146 C 
ATOM     16  O   UNL     1      17.569  42.206 -10.267  1.00  0.00    -0.267 OA
ENDBRANCH   4  12
BRANCH   6  17
ATOM     17  C   UNL     1      20.595  40.508  -9.139  1.00  0.00     0.089 C 
ATOM     18  C   UNL     1      19.843  39.248  -9.561  1.00  0.00     0.025 C 
ATOM     19  C   UNL     1      21.923  39.969  -8.594  1.00  0.00     0.025 C 
ATOM     20  C   UNL     1      20.914  38.316 -10.092  1.00  0.00     0.002 C 
ATOM     21  C   UNL     1      22.163  38.622  -9.275  1.00  0.00     0.002 C 
ENDBRANCH   6  17
ENDBRANCH   1   3
BRANCH   1  22
ATOM     22  C   UNL     1      21.897  38.350  -4.359  1.00  0.00     0.132 A 
ATOM     23  C   UNL     1      23.241  38.641  -4.092  1.00  0.00     0.049 A 
ATOM     24  N   UNL     1      21.586  37.220  -5.052  1.00  0.00    -0.237 NA
ATOM     25  C   UNL     1      24.238  37.774  -4.543  1.00  0.00     0.031 A 
ATOM     26  C   UNL     1      22.538  36.360  -5.502  1.00  0.00     0.139 A 
ATOM     27  C   UNL     1      23.895  36.616  -5.254  1.00  0.00     0.055 A 
BRANCH  27  28
ATOM     28  N   UNL     1      24.918  35.717  -5.726  1.00  0.00    -0.368 N 
ATOM     29  C   UNL     1      25.317  35.743  -7.138  1.00  0.00     0.132 C 
ATOM     30  C   UNL     1      25.817  35.055  -4.776  1.00  0.00     0.132 C 
ATOM     31  C   UNL     1      25.736  34.338  -7.587  1.00  0.00     0.102 C 
ATOM     32  C   UNL     1      26.224  33.677  -5.311  1.00  0.00     0.102 C 
ATOM     33  N   UNL     1      26.744  33.769  -6.683  1.00  0.00    -0.313 NA
ATOM     34  H   UNL     1      27.592  34.385  -6.686  1.00  0.00     0.122 HD
ENDBRANCH  27  28
ENDBRANCH   1  22
TORSDOF 5
ENDMDL
MODEL 5
REMARK VINA RESULT:    -8.258      3.327      9.240
REMARK INTER + INTRA:         -11.556
REMARK INTER:                 -11.704
REMARK INTRA:                   0.149
REMARK UNBOUND:                -0.883
REMARK SMILES CN(C)C(=O)c1cc2cnc(Nc3ccc(N4CCNCC4)cn3)nc2n1C1CCCC1
REMARK SMILES IDX 12 1 11 3 6 4 7 5 27 6 8 7 26 8 9 9 25 10 10 11 4 12 1 13
REMARK SMILES IDX 2 14 3 15 5 16 28 17 29 18 32 19 30 20 31 21 13 22 14 23
REMARK SMILES IDX 24 24 15 25 23 26 16 27 17 28 18 29 22 30 19 31 21 32 20 33
REMARK H PARENT 12 2 20 34
REMARK Flexibility Score: inf
ROOT
ATOM      1  N   UNL     1      23.354  35.864 -12.979  1.00  0.00    -0.309 N 
ATOM      2  H   UNL     1      23.366  34.838 -13.184  1.00  0.00     0.171 HD
ENDROOT
BRANCH   1   3
ATOM      3  C   UNL     1      22.702  36.279 -11.767  1.00  0.00     0.230 A 
ATOM      4  C   UNL     1      22.281  37.061  -7.404  1.00  0.00     0.109 A 
ATOM      5  C   UNL     1      21.180  37.443  -8.168  1.00  0.00     0.045 A 
ATOM      6  N   UNL     1      23.235  36.452  -8.171  1.00  0.00    -0.318 N 
ATOM      7  C   UNL     1      21.499  37.077  -9.451  1.00  0.00     0.038 A 
ATOM      8  C   UNL     1      22.733  36.504  -9.428  1.00  0.00     0.146 A 
ATOM      9  C   UNL     1      20.833  37.262 -10.653  1.00  0.00     0.127 A 
ATOM     10  N   UNL     1      23.349  36.117 -10.574  1.00  0.00    -0.194 NA
ATOM     11  N   UNL     1      21.455  36.850 -11.794  1.00  0.00    -0.221 NA
BRANCH   4  12
ATOM     12  C   UNL     1      22.445  37.427  -5.984  1.00  0.00     0.270 C 
ATOM     13  C   UNL     1      23.599  39.600  -6.565  1.00  0.00     0.146 C 
ATOM     14  N   UNL     1      23.218  38.577  -5.584  1.00  0.00    -0.343 N 
ATOM     15  C   UNL     1      23.538  38.764  -4.165  1.00  0.00     0.146 C 
ATOM     16  O   UNL     1      21.897  36.704  -5.108  1.00  0.00    -0.267 OA
ENDBRANCH   4  12
BRANCH   6  17
ATOM     17  C   UNL     1      24.563  35.979  -7.712  1.00  0.00     0.089 C 
ATOM     18  C   UNL     1      25.203  34.927  -8.616  1.00  0.00     0.025 C 
ATOM     19  C   UNL     1      24.491  35.285  -6.347  1.00  0.00     0.025 C 
ATOM     20  C   UNL     1      26.202  34.209  -7.729  1.00  0.00     0.002 C 
ATOM     21  C   UNL     1      25.594  34.227  -6.332  1.00  0.00     0.002 C 
ENDBRANCH   6  17
ENDBRANCH   1   3
BRANCH   1  22
ATOM     22  C   UNL     1      23.981  36.751 -13.923  1.00  0.00     0.132 A 
ATOM     23  C   UNL     1      23.206  37.688 -14.618  1.00  0.00     0.049 A 
ATOM     24  N   UNL     1      25.323  36.699 -14.149  1.00  0.00    -0.237 NA
ATOM     25  C   UNL     1      23.818  38.550 -15.529  1.00  0.00     0.031 A 
ATOM     26  C   UNL     1      25.942  37.526 -15.031  1.00  0.00     0.139 A 
ATOM     27  C   UNL     1      25.202  38.480 -15.746  1.00  0.00     0.055 A 
BRANCH  27  28
ATOM     28  N   UNL     1      25.840  39.363 -16.688  1.00  0.00    -0.368 N 
ATOM     29  C   UNL     1      25.999  40.785 -16.363  1.00  0.00     0.132 C 
ATOM     30  C   UNL     1      26.655  38.817 -17.778  1.00  0.00     0.132 C 
ATOM     31  C   UNL     1      25.927  41.624 -17.645  1.00  0.00     0.102 C 
ATOM     32  C   UNL     1      26.566  39.729 -19.007  1.00  0.00     0.102 C 
ATOM     33  N   UNL     1      26.865  41.126 -18.660  1.00  0.00    -0.313 NA
ATOM     34  H   UNL     1      27.840  41.182 -18.281  1.00  0.00     0.122 HD
ENDBRANCH  27  28
ENDBRANCH   1  22
TORSDOF 5
ENDMDL
MODEL 6
REMARK VINA RESULT:    -8.123      3.177      4.661
REMARK INTER + INTRA:         -11.380
REMARK INTER:                 -11.020
REMARK INTRA:                  -0.360
REMARK UNBOUND:                -0.883
REMARK SMILES CN(C)C(=O)c1cc2cnc(Nc3ccc(N4CCNCC4)cn3)nc2n1C1CCCC1
REMARK SMILES IDX 12 1 11 3 6 4 7 5 27 6 8 7 26 8 9 9 25 10 10 11 4 12 1 13
REMARK SMILES IDX 2 14 3 15 5 16 28 17 29 18 32 19 30 20 31 21 13 22 14 23
REMARK SMILES IDX 24 24 15 25 23 26 16 27 17 28 18 29 22 30 19 31 21 32 20 33
REMARK H PARENT 12 2 20 34
REMARK Flexibility Score: inf
ROOT
ATOM      1  N   UNL     1      22.048  40.224  -6.641  1.00  0.00    -0.309 N 
ATOM      2  H   UNL     1      21.920  40.757  -5.750  1.00  0.00     0.171 HD
ENDROOT
BRANCH   1   3
ATOM      3  C   UNL     1      21.374  40.729  -7.805  1.00  0.00     0.230 A 
ATOM      4  C   UNL     1      19.472  40.571 -11.829  1.00  0.00     0.109 A 
ATOM      5  C   UNL     1      19.401  41.816 -11.205  1.00  0.00     0.045 A 
ATOM      6  N   UNL     1      20.188  39.677 -11.082  1.00  0.00    -0.318 N 
ATOM      7  C   UNL     1      20.075  41.654 -10.021  1.00  0.00     0.038 A 
ATOM      8  C   UNL     1      20.520  40.368  -9.965  1.00  0.00     0.146 A 
ATOM      9  C   UNL     1      20.278  42.514  -8.953  1.00  0.00     0.127 A 
ATOM     10  N   UNL     1      21.153  39.892  -8.864  1.00  0.00    -0.194 NA
ATOM     11  N   UNL     1      20.933  42.027  -7.861  1.00  0.00    -0.221 NA
BRANCH   4  12
ATOM     12  C   UNL     1      18.722  40.239 -13.056  1.00  0.00     0.270 C 
ATOM     13  C   UNL     1      20.677  40.838 -14.542  1.00  0.00     0.146 C 
ATOM     14  N   UNL     1      19.256  40.516 -14.366  1.00  0.00    -0.343 N 
ATOM     15  C   UNL     1      18.383  40.379 -15.536  1.00  0.00     0.146 C 
ATOM     16  O   UNL     1      17.585  39.707 -12.941  1.00  0.00    -0.267 OA
ENDBRANCH   4  12
BRANCH   6  17
ATOM     17  C   UNL     1      20.410  38.246 -11.398  1.00  0.00     0.089 C 
ATOM     18  C   UNL     1      20.885  37.407 -10.213  1.00  0.00     0.025 C 
ATOM     19  C   UNL     1      21.514  38.048 -12.444  1.00  0.00     0.025 C 
ATOM     20  C   UNL     1      21.561  36.202 -10.837  1.00  0.00     0.002 C 
ATOM     21  C   UNL     1      22.176  36.706 -12.137  1.00  0.00     0.002 C 
ENDBRANCH   6  17
ENDBRANCH   1   3
BRANCH   1  22
ATOM     22  C   UNL     1      22.877  39.048  -6.613  1.00  0.00     0.132 A 
ATOM     23  C   UNL     1      22.980  38.298  -5.434  1.00  0.00     0.049 A 
ATOM     24  N   UNL     1      23.559  38.644  -7.720  1.00  0.00    -0.237 NA
ATOM     25  C   UNL     1      23.780  37.155  -5.411  1.00  0.00     0.031 A 
ATOM     26  C   UNL     1      24.345  37.536  -7.723  1.00  0.00     0.139 A 
ATOM     27  C   UNL     1      24.474  36.757  -6.563  1.00  0.00     0.055 A 
BRANCH  27  28
ATOM     28  N   UNL     1      25.306  35.581  -6.546  1.00  0.00    -0.368 N 
ATOM     29  C   UNL     1      25.829  35.039  -7.805  1.00  0.00     0.132 C 
ATOM     30  C   UNL     1      25.938  35.140  -5.299  1.00  0.00     0.132 C 
ATOM     31  C   UNL     1      25.958  33.515  -7.705  1.00  0.00     0.102 C 
ATOM     32  C   UNL     1      26.069  33.612  -5.289  1.00  0.00     0.102 C 
ATOM     33  N   UNL     1      26.722  33.124  -6.513  1.00  0.00    -0.313 NA
ATOM     34  H   UNL     1      27.684  33.535  -6.573  1.00  0.00     0.122 HD
ENDBRANCH  27  28
ENDBRANCH   1  22
TORSDOF 5
ENDMDL
MODEL 7
REMARK VINA RESULT:    -8.113      1.391      3.089
REMARK INTER + INTRA:         -11.368
REMARK INTER:                 -10.376
REMARK INTRA:                  -0.992
REMARK UNBOUND:                -0.883
REMARK SMILES CN(C)C(=O)c1cc2cnc(Nc3ccc(N4CCNCC4)cn3)nc2n1C1CCCC1
REMARK SMILES IDX 12 1 11 3 6 4 7 5 27 6 8 7 26 8 9 9 25 10 10 11 4 12 1 13
REMARK SMILES IDX 2 14 3 15 5 16 28 17 29 18 32 19 30 20 31 21 13 22 14 23
REMARK SMILES IDX 24 24 15 25 23 26 16 27 17 28 18 29 22 30 19 31 21 32 20 33
REMARK H PARENT 12 2 20 34
REMARK Flexibility Score: inf
ROOT
ATOM      1  N   UNL     1      23.171  35.463 -11.686  1.00  0.00    -0.309 N 
ATOM      2  H   UNL     1      22.494  34.700 -11.922  1.00  0.00     0.171 HD
ENDROOT
BRANCH   1   3
ATOM      3  C   UNL     1      23.541  36.356 -12.749  1.00  0.00     0.230 A 
ATOM      4  C   UNL     1      23.212  39.900 -15.425  1.00  0.00     0.109 A 
ATOM      5  C   UNL     1      24.352  39.125 -15.631  1.00  0.00     0.045 A 
ATOM      6  N   UNL     1      22.396  39.347 -14.477  1.00  0.00    -0.318 N 
ATOM      7  C   UNL     1      24.231  38.082 -14.749  1.00  0.00     0.038 A 
ATOM      8  C   UNL     1      23.066  38.246 -14.064  1.00  0.00     0.146 A 
ATOM      9  C   UNL     1      25.084  37.032 -14.442  1.00  0.00     0.127 A 
ATOM     10  N   UNL     1      22.719  37.404 -13.057  1.00  0.00    -0.194 NA
ATOM     11  N   UNL     1      24.713  36.183 -13.442  1.00  0.00    -0.221 NA
BRANCH   4  12
ATOM     12  C   UNL     1      23.015  41.226 -16.041  1.00  0.00     0.270 C 
ATOM     13  C   UNL     1      21.475  40.293 -17.815  1.00  0.00     0.146 C 
ATOM     14  N   UNL     1      22.300  41.384 -17.284  1.00  0.00    -0.343 N 
ATOM     15  C   UNL     1      22.330  42.682 -17.965  1.00  0.00     0.146 C 
ATOM     16  O   UNL     1      23.494  42.237 -15.460  1.00  0.00    -0.267 OA
ENDBRANCH   4  12
BRANCH   6  17
ATOM     17  C   UNL     1      21.136  39.928 -13.954  1.00  0.00     0.089 C 
ATOM     18  C   UNL     1      21.168  40.260 -12.463  1.00  0.00     0.025 C 
ATOM     19  C   UNL     1      19.954  38.960 -14.082  1.00  0.00     0.025 C 
ATOM     20  C   UNL     1      19.712  40.290 -12.041  1.00  0.00     0.002 C 
ATOM     21  C   UNL     1      19.011  39.260 -12.917  1.00  0.00     0.002 C 
ENDBRANCH   6  17
ENDBRANCH   1   3
BRANCH   1  22
ATOM     22  C   UNL     1      23.661  35.540 -10.336  1.00  0.00     0.132 A 
ATOM     23  C   UNL     1      24.766  34.769  -9.952  1.00  0.00     0.049 A 
ATOM     24  N   UNL     1      23.071  36.359  -9.421  1.00  0.00    -0.237 NA
ATOM     25  C   UNL     1      25.242  34.849  -8.643  1.00  0.00     0.031 A 
ATOM     26  C   UNL     1      23.515  36.454  -8.140  1.00  0.00     0.139 A 
ATOM     27  C   UNL     1      24.620  35.700  -7.717  1.00  0.00     0.055 A 
BRANCH  27  28
ATOM     28  N   UNL     1      25.103  35.785  -6.362  1.00  0.00    -0.368 N 
ATOM     29  C   UNL     1      26.250  34.972  -5.944  1.00  0.00     0.132 C 
ATOM     30  C   UNL     1      24.724  36.918  -5.512  1.00  0.00     0.132 C 
ATOM     31  C   UNL     1      26.109  34.592  -4.466  1.00  0.00     0.102 C 
ATOM     32  C   UNL     1      24.643  36.471  -4.048  1.00  0.00     0.102 C 
ATOM     33  N   UNL     1      25.871  35.778  -3.632  1.00  0.00    -0.313 NA
ATOM     34  H   UNL     1      26.683  36.433  -3.730  1.00  0.00     0.122 HD
ENDBRANCH  27  28
ENDBRANCH   1  22
TORSDOF 5
ENDMDL
MODEL 8
REMARK VINA RESULT:    -8.068      3.291      4.751
REMARK INTER + INTRA:         -11.310
REMARK INTER:                 -10.823
REMARK INTRA:                  -0.487
REMARK UNBOUND:                -0.883
REMARK SMILES CN(C)C(=O)c1cc2cnc(Nc3ccc(N4CCNCC4)cn3)nc2n1C1CCCC1
REMARK SMILES IDX 12 1 11 3 6 4 7 5 27 6 8 7 26 8 9 9 25 10 10 11 4 12 1 13
REMARK SMILES IDX 2 14 3 15 5 16 28 17 29 18 32 19 30 20 31 21 13 22 14 23
REMARK SMILES IDX 24 24 15 25 23 26 16 27 17 28 18 29 22 30 19 31 21 32 20 33
REMARK H PARENT 12 2 20 34
REMARK Flexibility Score: inf
ROOT
ATOM      1  N   UNL     1      22.291  36.165 -11.436  1.00  0.00    -0.309 N 
ATOM      2  H   UNL     1      22.626  35.431 -12.102  1.00  0.00     0.171 HD
ENDROOT
BRANCH   1   3
ATOM      3  C   UNL     1      21.306  37.089 -11.927  1.00  0.00     0.230 A 
ATOM      4  C   UNL     1      18.786  40.760 -11.950  1.00  0.00     0.109 A 
ATOM      5  C   UNL     1      18.639  39.952 -13.076  1.00  0.00     0.045 A 
ATOM      6  N   UNL     1      19.634  40.197 -11.037  1.00  0.00    -0.318 N 
ATOM      7  C   UNL     1      19.457  38.876 -12.844  1.00  0.00     0.038 A 
ATOM      8  C   UNL     1      20.049  39.053 -11.631  1.00  0.00     0.146 A 
ATOM      9  C   UNL     1      19.784  37.782 -13.631  1.00  0.00     0.127 A 
ATOM     10  N   UNL     1      20.982  38.181 -11.170  1.00  0.00    -0.194 NA
ATOM     11  N   UNL     1      20.707  36.903 -13.147  1.00  0.00    -0.221 NA
BRANCH   4  12
ATOM     12  C   UNL     1      18.219  42.119 -11.852  1.00  0.00     0.270 C 
ATOM     13  C   UNL     1      16.248  41.316 -10.489  1.00  0.00     0.146 C 
ATOM     14  N   UNL     1      16.917  42.356 -11.279  1.00  0.00    -0.343 N 
ATOM     15  C   UNL     1      16.309  43.684 -11.412  1.00  0.00     0.146 C 
ATOM     16  O   UNL     1      18.898  43.087 -12.290  1.00  0.00    -0.267 OA
ENDBRANCH   4  12
BRANCH   6  17
ATOM     17  C   UNL     1      20.076  40.801  -9.758  1.00  0.00     0.089 C 
ATOM     18  C   UNL     1      21.530  40.506  -9.392  1.00  0.00     0.025 C 
ATOM     19  C   UNL     1      19.288  40.263  -8.558  1.00  0.00     0.025 C 
ATOM     20  C   UNL     1      21.601  40.706  -7.891  1.00  0.00     0.002 C 
ATOM     21  C   UNL     1      20.234  40.294  -7.359  1.00  0.00     0.002 C 
ENDBRANCH   6  17
ENDBRANCH   1   3
BRANCH   1  22
ATOM     22  C   UNL     1      22.845  36.178 -10.109  1.00  0.00     0.132 A 
ATOM     23  C   UNL     1      24.007  35.445  -9.833  1.00  0.00     0.049 A 
ATOM     24  N   UNL     1      22.263  36.901  -9.112  1.00  0.00    -0.237 NA
ATOM     25  C   UNL     1      24.545  35.464  -8.545  1.00  0.00     0.031 A 
ATOM     26  C   UNL     1      22.767  36.935  -7.851  1.00  0.00     0.139 A 
ATOM     27  C   UNL     1      23.929  36.216  -7.534  1.00  0.00     0.055 A 
BRANCH  27  28
ATOM     28  N   UNL     1      24.477  36.237  -6.202  1.00  0.00    -0.368 N 
ATOM     29  C   UNL     1      23.652  36.703  -5.082  1.00  0.00     0.132 C 
ATOM     30  C   UNL     1      25.684  35.468  -5.886  1.00  0.00     0.132 C 
ATOM     31  C   UNL     1      24.536  37.380  -4.028  1.00  0.00     0.102 C 
ATOM     32  C   UNL     1      26.494  36.185  -4.799  1.00  0.00     0.102 C 
ATOM     33  N   UNL     1      25.655  36.513  -3.637  1.00  0.00    -0.313 NA
ATOM     34  H   UNL     1      25.274  35.626  -3.230  1.00  0.00     0.122 HD
ENDBRANCH  27  28
ENDBRANCH   1  22
TORSDOF 5
ENDMDL
MODEL 9
REMARK VINA RESULT:    -8.005      4.288      5.743
REMARK INTER + INTRA:         -11.228
REMARK INTER:                 -10.468
REMARK INTRA:                  -0.760
REMARK UNBOUND:                -0.883
REMARK SMILES CN(C)C(=O)c1cc2cnc(Nc3ccc(N4CCNCC4)cn3)nc2n1C1CCCC1
REMARK SMILES IDX 12 1 11 3 6 4 7 5 27 6 8 7 26 8 9 9 25 10 10 11 4 12 1 13
REMARK SMILES IDX 2 14 3 15 5 16 28 17 29 18 32 19 30 20 31 21 13 22 14 23
REMARK SMILES IDX 24 24 15 25 23 26 16 27 17 28 18 29 22 30 19 31 21 32 20 33
REMARK H PARENT 12 2 20 34
REMARK Flexibility Score: inf
ROOT
ATOM      1  N   UNL     1      21.707  39.913  -5.853  1.00  0.00    -0.309 N 
ATOM      2  H   UNL     1      21.850  40.202  -4.858  1.00  0.00     0.171 HD
ENDROOT
BRANCH   1   3
ATOM      3  C   UNL     1      20.714  40.631  -6.603  1.00  0.00     0.230 A 
ATOM      4  C   UNL     1      18.143  41.617 -10.102  1.00  0.00     0.109 A 
ATOM      5  C   UNL     1      17.904  42.397  -8.973  1.00  0.00     0.045 A 
ATOM      6  N   UNL     1      19.184  40.754  -9.904  1.00  0.00    -0.318 N 
ATOM      7  C   UNL     1      18.819  41.964  -8.047  1.00  0.00     0.038 A 
ATOM      8  C   UNL     1      19.558  40.975  -8.621  1.00  0.00     0.146 A 
ATOM      9  C   UNL     1      19.020  42.310  -6.720  1.00  0.00     0.127 A 
ATOM     10  N   UNL     1      20.492  40.294  -7.910  1.00  0.00    -0.194 NA
ATOM     11  N   UNL     1      19.976  41.632  -6.023  1.00  0.00    -0.221 NA
BRANCH   4  12
ATOM     12  C   UNL     1      17.264  41.623 -11.289  1.00  0.00     0.270 C 
ATOM     13  C   UNL     1      18.671  43.370 -12.454  1.00  0.00     0.146 C 
ATOM     14  N   UNL     1      17.438  42.582 -12.352  1.00  0.00    -0.343 N 
ATOM     15  C   UNL     1      16.407  42.691 -13.389  1.00  0.00     0.146 C 
ATOM     16  O   UNL     1      16.340  40.769 -11.358  1.00  0.00    -0.267 OA
ENDBRANCH   4  12
BRANCH   6  17
ATOM     17  C   UNL     1      19.672  39.729 -10.858  1.00  0.00     0.089 C 
ATOM     18  C   UNL     1      20.483  38.606 -10.214  1.00  0.00     0.025 C 
ATOM     19  C   UNL     1      20.635  40.317 -11.897  1.00  0.00     0.025 C 
ATOM     20  C   UNL     1      21.315  38.031 -11.344  1.00  0.00     0.002 C 
ATOM     21  C   UNL     1      21.615  39.205 -12.268  1.00  0.00     0.002 C 
ENDBRANCH   6  17
ENDBRANCH   1   3
BRANCH   1  22
ATOM     22  C   UNL     1      22.506  38.832  -6.366  1.00  0.00     0.132 A 
ATOM     23  C   UNL     1      23.653  39.112  -7.120  1.00  0.00     0.049 A 
ATOM     24  N   UNL     1      22.170  37.534  -6.123  1.00  0.00    -0.237 NA
ATOM     25  C   UNL     1      24.429  38.062  -7.613  1.00  0.00     0.031 A 
ATOM     26  C   UNL     1      22.909  36.494  -6.591  1.00  0.00     0.139 A 
ATOM     27  C   UNL     1      24.065  36.733  -7.350  1.00  0.00     0.055 A 
BRANCH  27  28
ATOM     28  N   UNL     1      24.859  35.643  -7.858  1.00  0.00    -0.368 N 
ATOM     29  C   UNL     1      24.956  35.424  -9.305  1.00  0.00     0.132 C 
ATOM     30  C   UNL     1      25.853  34.991  -7.001  1.00  0.00     0.132 C 
ATOM     31  C   UNL     1      25.110  33.927  -9.597  1.00  0.00     0.102 C 
ATOM     32  C   UNL     1      25.981  33.510  -7.378  1.00  0.00     0.102 C 
ATOM     33  N   UNL     1      26.212  33.344  -8.821  1.00  0.00    -0.313 NA
ATOM     34  H   UNL     1      27.105  33.826  -9.081  1.00  0.00     0.122 HD
ENDBRANCH  27  28
ENDBRANCH   1  22
TORSDOF 5
ENDMDL
MODEL 10
REMARK VINA RESULT:    -7.964      3.304     10.334
REMARK INTER + INTRA:         -11.175
REMARK INTER:                 -11.179
REMARK INTRA:                   0.004
REMARK UNBOUND:                -0.883
REMARK SMILES CN(C)C(=O)c1cc2cnc(Nc3ccc(N4CCNCC4)cn3)nc2n1C1CCCC1
REMARK SMILES IDX 12 1 11 3 6 4 7 5 27 6 8 7 26 8 9 9 25 10 10 11 4 12 1 13
REMARK SMILES IDX 2 14 3 15 5 16 28 17 29 18 32 19 30 20 31 21 13 22 14 23
REMARK SMILES IDX 24 24 15 25 23 26 16 27 17 28 18 29 22 30 19 31 21 32 20 33
REMARK H PARENT 12 2 20 34
REMARK Flexibility Score: inf
ROOT
ATOM      1  N   UNL     1      21.310  36.852 -10.831  1.00  0.00    -0.309 N 
ATOM      2  H   UNL     1      20.423  36.969 -10.288  1.00  0.00     0.171 HD
ENDROOT
BRANCH   1   3
ATOM      3  C   UNL     1      22.474  36.442 -10.096  1.00  0.00     0.230 A 
ATOM      4  C   UNL     1      25.188  36.092  -6.583  1.00  0.00     0.109 A 
ATOM      5  C   UNL     1      25.605  35.383  -7.708  1.00  0.00     0.045 A 
ATOM      6  N   UNL     1      24.053  36.811  -6.837  1.00  0.00    -0.318 N 
ATOM      7  C   UNL     1      24.665  35.662  -8.667  1.00  0.00     0.038 A 
ATOM      8  C   UNL     1      23.744  36.501  -8.119  1.00  0.00     0.146 A 
ATOM      9  C   UNL     1      24.505  35.192  -9.962  1.00  0.00     0.127 A 
ATOM     10  N   UNL     1      22.642  36.884  -8.813  1.00  0.00    -0.194 NA
ATOM     11  N   UNL     1      23.404  35.601 -10.655  1.00  0.00    -0.221 NA
BRANCH   4  12
ATOM     12  C   UNL     1      25.812  35.940  -5.255  1.00  0.00     0.270 C 
ATOM     13  C   UNL     1      25.670  33.418  -5.358  1.00  0.00     0.146 C 
ATOM     14  N   UNL     1      25.900  34.655  -4.604  1.00  0.00    -0.343 N 
ATOM     15  C   UNL     1      26.319  34.594  -3.200  1.00  0.00     0.146 C 
ATOM     16  O   UNL     1      26.268  36.966  -4.682  1.00  0.00    -0.267 OA
ENDBRANCH   4  12
BRANCH   6  17
ATOM     17  C   UNL     1      23.290  37.624  -5.861  1.00  0.00     0.089 C 
ATOM     18  C   UNL     1      21.827  37.214  -5.708  1.00  0.00     0.025 C 
ATOM     19  C   UNL     1      23.208  39.099  -6.274  1.00  0.00     0.025 C 
ATOM     20  C   UNL     1      21.135  38.442  -5.149  1.00  0.00     0.002 C 
ATOM     21  C   UNL     1      21.881  39.633  -5.738  1.00  0.00     0.002 C 
ENDBRANCH   6  17
ENDBRANCH   1   3
BRANCH   1  22
ATOM     22  C   UNL     1      21.276  37.113 -12.246  1.00  0.00     0.132 A 
ATOM     23  C   UNL     1      22.450  37.490 -12.911  1.00  0.00     0.049 A 
ATOM     24  N   UNL     1      20.120  36.991 -12.955  1.00  0.00    -0.237 NA
ATOM     25  C   UNL     1      22.416  37.738 -14.284  1.00  0.00     0.031 A 
ATOM     26  C   UNL     1      20.060  37.228 -14.292  1.00  0.00     0.139 A 
ATOM     27  C   UNL     1      21.214  37.607 -14.995  1.00  0.00     0.055 A 
BRANCH  27  28
ATOM     28  N   UNL     1      21.170  37.865 -16.411  1.00  0.00    -0.368 N 
ATOM     29  C   UNL     1      22.411  38.148 -17.141  1.00  0.00     0.132 C 
ATOM     30  C   UNL     1      19.989  37.488 -17.195  1.00  0.00     0.132 C 
ATOM     31  C   UNL     1      22.127  39.112 -18.299  1.00  0.00     0.102 C 
ATOM     32  C   UNL     1      19.794  38.471 -18.355  1.00  0.00     0.102 C 
ATOM     33  N   UNL     1      21.028  38.622 -19.141  1.00  0.00    -0.313 NA
ATOM     34  H   UNL     1      21.293  37.691 -19.541  1.00  0.00     0.122 HD
ENDBRANCH  27  28
ENDBRANCH   1  22
TORSDOF 5
ENDMDL
MODEL 11
REMARK VINA RESULT:    -7.773      2.379      3.861
REMARK INTER + INTRA:         -10.928
REMARK INTER:                 -10.214
REMARK INTRA:                  -0.715
REMARK UNBOUND:                -0.883
REMARK SMILES CN(C)C(=O)c1cc2cnc(Nc3ccc(N4CCNCC4)cn3)nc2n1C1CCCC1
REMARK SMILES IDX 12 1 11 3 6 4 7 5 27 6 8 7 26 8 9 9 25 10 10 11 4 12 1 13
REMARK SMILES IDX 2 14 3 15 5 16 28 17 29 18 32 19 30 20 31 21 13 22 14 23
REMARK SMILES IDX 24 24 15 25 23 26 16 27 17 28 18 29 22 30 19 31 21 32 20 33
REMARK H PARENT 12 2 20 34
REMARK Flexibility Score: inf
ROOT
ATOM      1  N   UNL     1      20.529  39.563  -7.885  1.00  0.00    -0.309 N 
ATOM      2  H   UNL     1      19.925  40.094  -7.215  1.00  0.00     0.171 HD
ENDROOT
BRANCH   1   3
ATOM      3  C   UNL     1      20.216  39.686  -9.282  1.00  0.00     0.230 A 
ATOM      4  C   UNL     1      20.109  38.509 -13.575  1.00  0.00     0.109 A 
ATOM      5  C   UNL     1      19.420  39.684 -13.281  1.00  0.00     0.045 A 
ATOM      6  N   UNL     1      20.739  38.008 -12.469  1.00  0.00    -0.318 N 
ATOM      7  C   UNL     1      19.617  39.880 -11.938  1.00  0.00     0.038 A 
ATOM      8  C   UNL     1      20.392  38.861 -11.476  1.00  0.00     0.146 A 
ATOM      9  C   UNL     1      19.122  40.837 -11.065  1.00  0.00     0.127 A 
ATOM     10  N   UNL     1      20.684  38.744 -10.155  1.00  0.00    -0.194 NA
ATOM     11  N   UNL     1      19.440  40.719  -9.745  1.00  0.00    -0.221 NA
BRANCH   4  12
ATOM     12  C   UNL     1      20.019  37.824 -14.879  1.00  0.00     0.270 C 
ATOM     13  C   UNL     1      21.982  39.114 -15.814  1.00  0.00     0.146 C 
ATOM     14  N   UNL     1      20.826  38.231 -16.004  1.00  0.00    -0.343 N 
ATOM     15  C   UNL     1      20.536  37.673 -17.329  1.00  0.00     0.146 C 
ATOM     16  O   UNL     1      19.208  36.867 -15.002  1.00  0.00    -0.267 OA
ENDBRANCH   4  12
BRANCH   6  17
ATOM     17  C   UNL     1      21.505  36.742 -12.391  1.00  0.00     0.089 C 
ATOM     18  C   UNL     1      21.614  36.158 -10.984  1.00  0.00     0.025 C 
ATOM     19  C   UNL     1      22.966  36.921 -12.820  1.00  0.00     0.025 C 
ATOM     20  C   UNL     1      22.831  35.256 -11.031  1.00  0.00     0.002 C 
ATOM     21  C   UNL     1      23.787  35.910 -12.020  1.00  0.00     0.002 C 
ENDBRANCH   6  17
ENDBRANCH   1   3
BRANCH   1  22
ATOM     22  C   UNL     1      21.601  38.768  -7.347  1.00  0.00     0.132 A 
ATOM     23  C   UNL     1      22.793  39.387  -6.948  1.00  0.00     0.049 A 
ATOM     24  N   UNL     1      21.474  37.419  -7.211  1.00  0.00    -0.237 NA
ATOM     25  C   UNL     1      23.829  38.614  -6.422  1.00  0.00     0.031 A 
ATOM     26  C   UNL     1      22.468  36.645  -6.702  1.00  0.00     0.139 A 
ATOM     27  C   UNL     1      23.677  37.226  -6.290  1.00  0.00     0.055 A 
BRANCH  27  28
ATOM     28  N   UNL     1      24.743  36.421  -5.751  1.00  0.00    -0.368 N 
ATOM     29  C   UNL     1      25.400  36.820  -4.502  1.00  0.00     0.132 C 
ATOM     30  C   UNL     1      24.931  35.041  -6.210  1.00  0.00     0.132 C 
ATOM     31  C   UNL     1      26.872  36.391  -4.526  1.00  0.00     0.102 C 
ATOM     32  C   UNL     1      26.419  34.672  -6.167  1.00  0.00     0.102 C 
ATOM     33  N   UNL     1      27.005  34.965  -4.851  1.00  0.00    -0.313 NA
ATOM     34  H   UNL     1      26.506  34.401  -4.122  1.00  0.00     0.122 HD
ENDBRANCH  27  28
ENDBRANCH   1  22
TORSDOF 5
ENDMDL
MODEL 12
REMARK VINA RESULT:    -7.755      1.726      2.351
REMARK INTER + INTRA:         -10.905
REMARK INTER:                 -10.478
REMARK INTRA:                  -0.427
REMARK UNBOUND:                -0.883
REMARK SMILES CN(C)C(=O)c1cc2cnc(Nc3ccc(N4CCNCC4)cn3)nc2n1C1CCCC1
REMARK SMILES IDX 12 1 11 3 6 4 7 5 27 6 8 7 26 8 9 9 25 10 10 11 4 12 1 13
REMARK SMILES IDX 2 14 3 15 5 16 28 17 29 18 32 19 30 20 31 21 13 22 14 23
REMARK SMILES IDX 24 24 15 25 23 26 16 27 17 28 18 29 22 30 19 31 21 32 20 33
REMARK H PARENT 12 2 20 34
REMARK Flexibility Score: inf
ROOT
ATOM      1  N   UNL     1      21.890  35.828 -11.316  1.00  0.00    -0.309 N 
ATOM      2  H   UNL     1      21.776  34.801 -11.480  1.00  0.00     0.171 HD
ENDROOT
BRANCH   1   3
ATOM      3  C   UNL     1      21.567  36.701 -12.410  1.00  0.00     0.230 A 
ATOM      4  C   UNL     1      22.347  39.405 -15.861  1.00  0.00     0.109 A 
ATOM      5  C   UNL     1      20.997  39.152 -15.620  1.00  0.00     0.045 A 
ATOM      6  N   UNL     1      23.143  38.813 -14.921  1.00  0.00    -0.318 N 
ATOM      7  C   UNL     1      20.985  38.349 -14.507  1.00  0.00     0.038 A 
ATOM      8  C   UNL     1      22.275  38.150 -14.120  1.00  0.00     0.146 A 
ATOM      9  C   UNL     1      19.947  37.719 -13.839  1.00  0.00     0.127 A 
ATOM     10  N   UNL     1      22.579  37.321 -13.089  1.00  0.00    -0.194 NA
ATOM     11  N   UNL     1      20.265  36.905 -12.793  1.00  0.00    -0.221 NA
BRANCH   4  12
ATOM     12  C   UNL     1      22.836  40.087 -17.075  1.00  0.00     0.270 C 
ATOM     13  C   UNL     1      22.445  38.043 -18.511  1.00  0.00     0.146 C 
ATOM     14  N   UNL     1      23.025  39.377 -18.317  1.00  0.00    -0.343 N 
ATOM     15  C   UNL     1      23.724  40.042 -19.420  1.00  0.00     0.146 C 
ATOM     16  O   UNL     1      23.098  41.318 -17.011  1.00  0.00    -0.267 OA
ENDBRANCH   4  12
BRANCH   6  17
ATOM     17  C   UNL     1      24.625  38.811 -14.898  1.00  0.00     0.089 C 
ATOM     18  C   UNL     1      25.256  40.201 -14.856  1.00  0.00     0.025 C 
ATOM     19  C   UNL     1      25.223  38.183 -16.163  1.00  0.00     0.025 C 
ATOM     20  C   UNL     1      26.662  40.006 -15.390  1.00  0.00     0.002 C 
ATOM     21  C   UNL     1      26.558  38.883 -16.413  1.00  0.00     0.002 C 
ENDBRANCH   6  17
ENDBRANCH   1   3
BRANCH   1  22
ATOM     22  C   UNL     1      22.358  36.260 -10.026  1.00  0.00     0.132 A 
ATOM     23  C   UNL     1      21.592  37.160  -9.274  1.00  0.00     0.049 A 
ATOM     24  N   UNL     1      23.534  35.800  -9.516  1.00  0.00    -0.237 NA
ATOM     25  C   UNL     1      22.046  37.574  -8.021  1.00  0.00     0.031 A 
ATOM     26  C   UNL     1      23.998  36.188  -8.299  1.00  0.00     0.139 A 
ATOM     27  C   UNL     1      23.260  37.087  -7.515  1.00  0.00     0.055 A 
BRANCH  27  28
ATOM     28  N   UNL     1      23.738  37.512  -6.224  1.00  0.00    -0.368 N 
ATOM     29  C   UNL     1      24.807  36.761  -5.558  1.00  0.00     0.132 C 
ATOM     30  C   UNL     1      23.451  38.865  -5.738  1.00  0.00     0.132 C 
ATOM     31  C   UNL     1      24.622  36.826  -4.038  1.00  0.00     0.102 C 
ATOM     32  C   UNL     1      23.320  38.858  -4.211  1.00  0.00     0.102 C 
ATOM     33  N   UNL     1      24.480  38.213  -3.578  1.00  0.00    -0.313 NA
ATOM     34  H   UNL     1      25.346  38.747  -3.830  1.00  0.00     0.122 HD
ENDBRANCH  27  28
ENDBRANCH   1  22
TORSDOF 5
ENDMDL
MODEL 13
REMARK VINA RESULT:    -7.743      1.905      3.043
REMARK INTER + INTRA:         -10.890
REMARK INTER:                 -10.440
REMARK INTRA:                  -0.450
REMARK UNBOUND:                -0.883
REMARK SMILES CN(C)C(=O)c1cc2cnc(Nc3ccc(N4CCNCC4)cn3)nc2n1C1CCCC1
REMARK SMILES IDX 12 1 11 3 6 4 7 5 27 6 8 7 26 8 9 9 25 10 10 11 4 12 1 13
REMARK SMILES IDX 2 14 3 15 5 16 28 17 29 18 32 19 30 20 31 21 13 22 14 23
REMARK SMILES IDX 24 24 15 25 23 26 16 27 17 28 18 29 22 30 19 31 21 32 20 33
REMARK H PARENT 12 2 20 34
REMARK Flexibility Score: inf
ROOT
ATOM      1  N   UNL     1      20.494  37.351 -11.459  1.00  0.00    -0.309 N 
ATOM      2  H   UNL     1      19.553  37.579 -11.063  1.00  0.00     0.171 HD
ENDROOT
BRANCH   1   3
ATOM      3  C   UNL     1      20.644  37.457 -12.884  1.00  0.00     0.230 A 
ATOM      4  C   UNL     1      22.706  38.339 -16.731  1.00  0.00     0.109 A 
ATOM      5  C   UNL     1      21.428  37.800 -16.871  1.00  0.00     0.045 A 
ATOM      6  N   UNL     1      23.019  38.549 -15.417  1.00  0.00    -0.318 N 
ATOM      7  C   UNL     1      20.968  37.651 -15.587  1.00  0.00     0.038 A 
ATOM      8  C   UNL     1      21.940  38.089 -14.740  1.00  0.00     0.146 A 
ATOM      9  C   UNL     1      19.797  37.101 -15.088  1.00  0.00     0.127 A 
ATOM     10  N   UNL     1      21.798  37.984 -13.395  1.00  0.00    -0.194 NA
ATOM     11  N   UNL     1      19.660  37.020 -13.734  1.00  0.00    -0.221 NA
BRANCH   4  12
ATOM     12  C   UNL     1      23.644  38.498 -17.859  1.00  0.00     0.270 C 
ATOM     13  C   UNL     1      24.241  36.041 -17.848  1.00  0.00     0.146 C 
ATOM     14  N   UNL     1      24.496  37.417 -18.292  1.00  0.00    -0.343 N 
ATOM     15  C   UNL     1      25.562  37.692 -19.259  1.00  0.00     0.146 C 
ATOM     16  O   UNL     1      23.697  39.612 -18.445  1.00  0.00    -0.267 OA
ENDBRANCH   4  12
BRANCH   6  17
ATOM     17  C   UNL     1      24.313  39.043 -14.889  1.00  0.00     0.089 C 
ATOM     18  C   UNL     1      24.830  40.307 -15.573  1.00  0.00     0.025 C 
ATOM     19  C   UNL     1      25.448  38.032 -15.096  1.00  0.00     0.025 C 
ATOM     20  C   UNL     1      26.323  40.309 -15.308  1.00  0.00     0.002 C 
ATOM     21  C   UNL     1      26.733  38.842 -15.267  1.00  0.00     0.002 C 
ENDBRANCH   6  17
ENDBRANCH   1   3
BRANCH   1  22
ATOM     22  C   UNL     1      21.533  36.953 -10.547  1.00  0.00     0.132 A 
ATOM     23  C   UNL     1      21.656  37.597  -9.308  1.00  0.00     0.049 A 
ATOM     24  N   UNL     1      22.400  35.952 -10.865  1.00  0.00    -0.237 NA
ATOM     25  C   UNL     1      22.662  37.206  -8.424  1.00  0.00     0.031 A 
ATOM     26  C   UNL     1      23.388  35.553 -10.021  1.00  0.00     0.139 A 
ATOM     27  C   UNL     1      23.543  36.172  -8.771  1.00  0.00     0.055 A 
BRANCH  27  28
ATOM     28  N   UNL     1      24.587  35.765  -7.866  1.00  0.00    -0.368 N 
ATOM     29  C   UNL     1      25.611  34.813  -8.312  1.00  0.00     0.132 C 
ATOM     30  C   UNL     1      24.865  36.547  -6.658  1.00  0.00     0.132 C 
ATOM     31  C   UNL     1      26.072  33.951  -7.131  1.00  0.00     0.102 C 
ATOM     32  C   UNL     1      25.359  35.625  -5.537  1.00  0.00     0.102 C 
ATOM     33  N   UNL     1      26.476  34.783  -5.991  1.00  0.00    -0.313 NA
ATOM     34  H   UNL     1      27.271  35.400  -6.283  1.00  0.00     0.122 HD
ENDBRANCH  27  28
ENDBRANCH   1  22
TORSDOF 5
ENDMDL
MODEL 14
REMARK VINA RESULT:    -7.733      6.854      8.697
REMARK INTER + INTRA:         -10.877
REMARK INTER:                 -10.091
REMARK INTRA:                  -0.786
REMARK UNBOUND:                -0.883
REMARK SMILES CN(C)C(=O)c1cc2cnc(Nc3ccc(N4CCNCC4)cn3)nc2n1C1CCCC1
REMARK SMILES IDX 12 1 11 3 6 4 7 5 27 6 8 7 26 8 9 9 25 10 10 11 4 12 1 13
REMARK SMILES IDX 2 14 3 15 5 16 28 17 29 18 32 19 30 20 31 21 13 22 14 23
REMARK SMILES IDX 24 24 15 25 23 26 16 27 17 28 18 29 22 30 19 31 21 32 20 33
REMARK H PARENT 12 2 20 34
REMARK Flexibility Score: inf
ROOT
ATOM      1  N   UNL     1      21.482  39.763  -8.239  1.00  0.00    -0.309 N 
ATOM      2  H   UNL     1      21.299  40.105  -9.211  1.00  0.00     0.171 HD
ENDROOT
BRANCH   1   3
ATOM      3  C   UNL     1      20.790  40.432  -7.173  1.00  0.00     0.230 A 
ATOM      4  C   UNL     1      18.699  43.780  -5.111  1.00  0.00     0.109 A 
ATOM      5  C   UNL     1      18.740  42.590  -4.385  1.00  0.00     0.045 A 
ATOM      6  N   UNL     1      19.388  43.673  -6.287  1.00  0.00    -0.318 N 
ATOM      7  C   UNL     1      19.455  41.724  -5.172  1.00  0.00     0.038 A 
ATOM      8  C   UNL     1      19.816  42.387  -6.305  1.00  0.00     0.146 A 
ATOM      9  C   UNL     1      19.762  40.381  -5.017  1.00  0.00     0.127 A 
ATOM     10  N   UNL     1      20.466  41.753  -7.314  1.00  0.00    -0.194 NA
ATOM     11  N   UNL     1      20.433  39.761  -6.030  1.00  0.00    -0.221 NA
BRANCH   4  12
ATOM     12  C   UNL     1      17.874  44.938  -4.717  1.00  0.00     0.270 C 
ATOM     13  C   UNL     1      19.850  46.136  -3.693  1.00  0.00     0.146 C 
ATOM     14  N   UNL     1      18.404  46.001  -3.898  1.00  0.00    -0.343 N 
ATOM     15  C   UNL     1      17.486  47.004  -3.350  1.00  0.00     0.146 C 
ATOM     16  O   UNL     1      16.676  44.984  -5.107  1.00  0.00    -0.267 OA
ENDBRANCH   4  12
BRANCH   6  17
ATOM     17  C   UNL     1      19.501  44.711  -7.339  1.00  0.00     0.089 C 
ATOM     18  C   UNL     1      18.717  44.404  -8.613  1.00  0.00     0.025 C 
ATOM     19  C   UNL     1      20.942  44.879  -7.835  1.00  0.00     0.025 C 
ATOM     20  C   UNL     1      19.385  45.236  -9.690  1.00  0.00     0.002 C 
ATOM     21  C   UNL     1      20.856  45.303  -9.301  1.00  0.00     0.002 C 
ENDBRANCH   6  17
ENDBRANCH   1   3
BRANCH   1  22
ATOM     22  C   UNL     1      22.401  38.670  -8.068  1.00  0.00     0.132 A 
ATOM     23  C   UNL     1      23.419  38.760  -7.109  1.00  0.00     0.049 A 
ATOM     24  N   UNL     1      22.295  37.539  -8.820  1.00  0.00    -0.237 NA
ATOM     25  C   UNL     1      24.306  37.696  -6.942  1.00  0.00     0.031 A 
ATOM     26  C   UNL     1      23.147  36.490  -8.677  1.00  0.00     0.139 A 
ATOM     27  C   UNL     1      24.178  36.541  -7.727  1.00  0.00     0.055 A 
BRANCH  27  28
ATOM     28  N   UNL     1      25.092  35.440  -7.563  1.00  0.00    -0.368 N 
ATOM     29  C   UNL     1      25.664  34.785  -8.745  1.00  0.00     0.132 C 
ATOM     30  C   UNL     1      25.744  35.206  -6.271  1.00  0.00     0.132 C 
ATOM     31  C   UNL     1      25.903  33.299  -8.454  1.00  0.00     0.102 C 
ATOM     32  C   UNL     1      25.986  33.705  -6.070  1.00  0.00     0.102 C 
ATOM     33  N   UNL     1      26.683  33.117  -7.223  1.00  0.00    -0.313 NA
ATOM     34  H   UNL     1      27.613  33.586  -7.335  1.00  0.00     0.122 HD
ENDBRANCH  27  28
ENDBRANCH   1  22
TORSDOF 5
ENDMDL
MODEL 15
REMARK VINA RESULT:    -7.616      6.340      8.121
REMARK INTER + INTRA:         -10.725
REMARK INTER:                  -9.866
REMARK INTRA:                  -0.860
REMARK UNBOUND:                -0.883
REMARK SMILES CN(C)C(=O)c1cc2cnc(Nc3ccc(N4CCNCC4)cn3)nc2n1C1CCCC1
REMARK SMILES IDX 12 1 11 3 6 4 7 5 27 6 8 7 26 8 9 9 25 10 10 11 4 12 1 13
REMARK SMILES IDX 2 14 3 15 5 16 28 17 29 18 32 19 30 20 31 21 13 22 14 23
REMARK SMILES IDX 24 24 15 25 23 26 16 27 17 28 18 29 22 30 19 31 21 32 20 33
REMARK H PARENT 12 2 20 34
REMARK Flexibility Score: inf
ROOT
ATOM      1  N   UNL     1      21.274  39.537  -5.765  1.00  0.00    -0.309 N 
ATOM      2  H   UNL     1      21.186  39.830  -4.764  1.00  0.00     0.171 HD
ENDROOT
BRANCH   1   3
ATOM      3  C   UNL     1      20.429  40.208  -6.715  1.00  0.00     0.230 A 
ATOM      4  C   UNL     1      17.857  43.466  -8.327  1.00  0.00     0.109 A 
ATOM      5  C   UNL     1      18.074  42.410  -9.211  1.00  0.00     0.045 A 
ATOM      6  N   UNL     1      18.435  43.227  -7.111  1.00  0.00    -0.318 N 
ATOM      7  C   UNL     1      18.839  41.515  -8.508  1.00  0.00     0.038 A 
ATOM      8  C   UNL     1      19.053  42.031  -7.266  1.00  0.00     0.146 A 
ATOM      9  C   UNL     1      19.425  40.314  -8.879  1.00  0.00     0.127 A 
ATOM     10  N   UNL     1      19.854  41.400  -6.371  1.00  0.00    -0.194 NA
ATOM     11  N   UNL     1      20.211  39.680  -7.963  1.00  0.00    -0.221 NA
BRANCH   4  12
ATOM     12  C   UNL     1      17.227  44.738  -8.727  1.00  0.00     0.270 C 
ATOM     13  C   UNL     1      19.442  45.747  -9.408  1.00  0.00     0.146 C 
ATOM     14  N   UNL     1      18.014  45.888  -9.102  1.00  0.00    -0.343 N 
ATOM     15  C   UNL     1      17.350  47.184  -9.269  1.00  0.00     0.146 C 
ATOM     16  O   UNL     1      15.968  44.812  -8.731  1.00  0.00    -0.267 OA
ENDBRANCH   4  12
BRANCH   6  17
ATOM     17  C   UNL     1      18.469  44.154  -5.955  1.00  0.00     0.089 C 
ATOM     18  C   UNL     1      19.826  44.812  -5.715  1.00  0.00     0.025 C 
ATOM     19  C   UNL     1      18.175  43.440  -4.630  1.00  0.00     0.025 C 
ATOM     20  C   UNL     1      19.802  45.231  -4.258  1.00  0.00     0.002 C 
ATOM     21  C   UNL     1      18.951  44.187  -3.546  1.00  0.00     0.002 C 
ENDBRANCH   6  17
ENDBRANCH   1   3
BRANCH   1  22
ATOM     22  C   UNL     1      22.218  38.501  -6.087  1.00  0.00     0.132 A 
ATOM     23  C   UNL     1      23.402  38.824  -6.763  1.00  0.00     0.049 A 
ATOM     24  N   UNL     1      21.983  37.205  -5.738  1.00  0.00    -0.237 NA
ATOM     25  C   UNL     1      24.318  37.817  -7.071  1.00  0.00     0.031 A 
ATOM     26  C   UNL     1      22.859  36.207  -6.027  1.00  0.00     0.139 A 
ATOM     27  C   UNL     1      24.057  36.489  -6.701  1.00  0.00     0.055 A 
BRANCH  27  28
ATOM     28  N   UNL     1      24.995  35.443  -7.018  1.00  0.00    -0.368 N 
ATOM     29  C   UNL     1      25.412  35.234  -8.409  1.00  0.00     0.132 C 
ATOM     30  C   UNL     1      25.815  34.841  -5.963  1.00  0.00     0.132 C 
ATOM     31  C   UNL     1      25.701  33.747  -8.649  1.00  0.00     0.102 C 
ATOM     32  C   UNL     1      26.096  33.370  -6.292  1.00  0.00     0.102 C 
ATOM     33  N   UNL     1      26.639  33.220  -7.650  1.00  0.00    -0.313 NA
ATOM     34  H   UNL     1      27.542  33.749  -7.716  1.00  0.00     0.122 HD
ENDBRANCH  27  28
ENDBRANCH   1  22
TORSDOF 5
ENDMDL
