MODEL 1
REMARK VINA RESULT:    -7.848      0.000      0.000
REMARK INTER + INTRA:         -14.274
REMARK INTER:                 -12.436
REMARK INTRA:                  -1.837
REMARK UNBOUND:                -1.837
REMARK SMILES COC(=O)N[C@@H](C)CNc1nccc(-c2cn(C(C)C)nc2-c2cc(Cl)cc(NS(C)(=O)=O)c2F)n1
REMARK SMILES IDX 10 1 11 2 12 3 13 4 14 5 36 6 9 7 8 9 6 10 7 11 5 12 3 13
REMARK SMILES IDX 4 14 2 16 1 17 15 18 16 19 22 20 17 21 21 22 23 23 24 24
REMARK SMILES IDX 34 25 25 26 28 27 35 28 26 29 27 30 29 31 30 33 31 34 32 35
REMARK SMILES IDX 33 36 18 37 19 38 20 39
REMARK H PARENT 9 8 5 15 29 32
REMARK Flexibility Score: inf
ROOT
ATOM      1  C   UNL     1      28.982  22.175   8.148  1.00  0.00     0.223 A 
ATOM      2  N   UNL     1      27.807  22.761   7.783  1.00  0.00    -0.222 NA
ATOM      3  C   UNL     1      27.779  23.754   6.854  1.00  0.00     0.117 A 
ATOM      4  C   UNL     1      28.966  24.189   6.259  1.00  0.00     0.049 A 
ATOM      5  C   UNL     1      30.172  23.566   6.631  1.00  0.00     0.080 A 
ATOM      6  N   UNL     1      30.139  22.574   7.563  1.00  0.00    -0.213 NA
ENDROOT
BRANCH   1   7
ATOM      7  N   UNL     1      29.012  21.147   9.144  1.00  0.00    -0.352 N 
ATOM      8  H   UNL     1      29.934  20.720   9.396  1.00  0.00     0.163 HD
BRANCH   7   9
ATOM      9  C   UNL     1      27.808  20.652   9.810  1.00  0.00     0.140 C 
BRANCH   9  10
ATOM     10  C   UNL     1      27.792  19.113   9.835  1.00  0.00     0.101 C 
ATOM     11  C   UNL     1      29.149  18.560  10.297  1.00  0.00     0.033 C 
BRANCH  10  12
ATOM     12  N   UNL     1      27.463  18.599   8.501  1.00  0.00    -0.317 N 
ATOM     13  C   UNL     1      26.115  18.543   8.005  1.00  0.00     0.407 C 
ATOM     14  O   UNL     1      25.146  18.924   8.723  1.00  0.00    -0.225 OA
ATOM     15  H   UNL     1      28.222  18.223   7.890  1.00  0.00     0.167 HD
BRANCH  13  16
ATOM     16  O   UNL     1      25.889  18.065   6.716  1.00  0.00    -0.453 OA
ATOM     17  C   UNL     1      25.562  16.712   6.443  1.00  0.00     0.284 C 
ENDBRANCH  13  16
ENDBRANCH  10  12
ENDBRANCH   9  10
ENDBRANCH   7   9
ENDBRANCH   1   7
BRANCH   5  18
ATOM     18  C   UNL     1      31.470  23.950   6.022  1.00  0.00     0.047 A 
ATOM     19  C   UNL     1      32.298  23.171   5.226  1.00  0.00     0.120 A 
ATOM     20  C   UNL     1      32.181  25.138   6.204  1.00  0.00     0.105 A 
ATOM     21  N   UNL     1      33.418  23.876   4.963  1.00  0.00    -0.269 N 
ATOM     22  N   UNL     1      33.363  25.059   5.565  1.00  0.00    -0.172 NA
BRANCH  20  23
ATOM     23  C   UNL     1      31.790  26.297   7.024  1.00  0.00     0.042 A 
ATOM     24  C   UNL     1      31.496  27.526   6.416  1.00  0.00     0.034 A 
ATOM     25  C   UNL     1      31.673  26.163   8.418  1.00  0.00     0.156 A 
ATOM     26  C   UNL     1      31.056  28.600   7.189  1.00  0.00     0.044 A 
ATOM     27  C   UNL     1      31.228  27.242   9.205  1.00  0.00     0.086 A 
ATOM     28  F   UNL     1      31.966  24.972   9.001  1.00  0.00    -0.204 F 
ATOM     29  Cl  UNL     1      30.633  30.115   6.412  1.00  0.00    -0.084 Cl
ATOM     30  C   UNL     1      30.917  28.461   8.573  1.00  0.00     0.050 A 
BRANCH  27  31
ATOM     31  N   UNL     1      31.074  27.064  10.628  1.00  0.00    -0.281 N 
ATOM     32  H   UNL     1      31.853  27.351  11.265  1.00  0.00     0.180 HD
BRANCH  31  33
ATOM     33  S   UNL     1      29.636  26.464  11.397  1.00  0.00     0.229 S 
ATOM     34  C   UNL     1      28.978  25.083  10.490  1.00  0.00     0.183 C 
ATOM     35  O   UNL     1      29.932  26.073  12.817  1.00  0.00    -0.207 OA
ATOM     36  O   UNL     1      28.607  27.557  11.407  1.00  0.00    -0.207 OA
ENDBRANCH  31  33
ENDBRANCH  27  31
ENDBRANCH  20  23
BRANCH  21  37
ATOM     37  C   UNL     1      34.563  23.401   4.180  1.00  0.00     0.101 C 
ATOM     38  C   UNL     1      35.262  24.581   3.500  1.00  0.00     0.033 C 
ATOM     39  C   UNL     1      34.108  22.362   3.149  1.00  0.00     0.033 C 
ENDBRANCH  21  37
ENDBRANCH   5  18
TORSDOF 10
ENDMDL
MODEL 2
REMARK VINA RESULT:    -7.815      2.453      3.263
REMARK INTER + INTRA:         -14.221
REMARK INTER:                 -12.771
REMARK INTRA:                  -1.450
REMARK UNBOUND:                -1.837
REMARK SMILES COC(=O)N[C@@H](C)CNc1nccc(-c2cn(C(C)C)nc2-c2cc(Cl)cc(NS(C)(=O)=O)c2F)n1
REMARK SMILES IDX 10 1 11 2 12 3 13 4 14 5 36 6 9 7 8 9 6 10 7 11 5 12 3 13
REMARK SMILES IDX 4 14 2 16 1 17 15 18 16 19 22 20 17 21 21 22 23 23 24 24
REMARK SMILES IDX 34 25 25 26 28 27 35 28 26 29 27 30 29 31 30 33 31 34 32 35
REMARK SMILES IDX 33 36 18 37 19 38 20 39
REMARK H PARENT 9 8 5 15 29 32
REMARK Flexibility Score: inf
ROOT
ATOM      1  C   UNL     1      28.286  20.962   8.405  1.00  0.00     0.223 A 
ATOM      2  N   UNL     1      28.327  21.222   9.742  1.00  0.00    -0.222 NA
ATOM      3  C   UNL     1      29.214  22.116  10.255  1.00  0.00     0.117 A 
ATOM      4  C   UNL     1      30.103  22.783   9.409  1.00  0.00     0.049 A 
ATOM      5  C   UNL     1      30.041  22.520   8.027  1.00  0.00     0.080 A 
ATOM      6  N   UNL     1      29.129  21.619   7.570  1.00  0.00    -0.213 NA
ENDROOT
BRANCH   1   7
ATOM      7  N   UNL     1      27.367  20.002   7.870  1.00  0.00    -0.352 N 
ATOM      8  H   UNL     1      26.403  20.320   7.616  1.00  0.00     0.163 HD
BRANCH   7   9
ATOM      9  C   UNL     1      27.712  18.593   7.684  1.00  0.00     0.140 C 
BRANCH   9  10
ATOM     10  C   UNL     1      26.485  17.696   7.927  1.00  0.00     0.101 C 
ATOM     11  C   UNL     1      25.747  17.409   6.611  1.00  0.00     0.033 C 
BRANCH  10  12
ATOM     12  N   UNL     1      25.581  18.342   8.885  1.00  0.00    -0.317 N 
ATOM     13  C   UNL     1      25.935  18.552  10.263  1.00  0.00     0.407 C 
ATOM     14  O   UNL     1      27.052  18.161  10.709  1.00  0.00    -0.225 OA
ATOM     15  H   UNL     1      24.627  18.635   8.579  1.00  0.00     0.167 HD
BRANCH  13  16
ATOM     16  O   UNL     1      25.029  19.197  11.102  1.00  0.00    -0.453 OA
ATOM     17  C   UNL     1      25.171  20.553  11.490  1.00  0.00     0.284 C 
ENDBRANCH  13  16
ENDBRANCH  10  12
ENDBRANCH   9  10
ENDBRANCH   7   9
ENDBRANCH   1   7
BRANCH   5  18
ATOM     18  C   UNL     1      30.930  23.211   7.060  1.00  0.00     0.047 A 
ATOM     19  C   UNL     1      31.856  22.639   6.199  1.00  0.00     0.120 A 
ATOM     20  C   UNL     1      31.097  24.587   6.884  1.00  0.00     0.105 A 
ATOM     21  N   UNL     1      32.512  23.632   5.563  1.00  0.00    -0.269 N 
ATOM     22  N   UNL     1      32.071  24.812   5.984  1.00  0.00    -0.172 NA
BRANCH  20  23
ATOM     23  C   UNL     1      30.405  25.670   7.604  1.00  0.00     0.042 A 
ATOM     24  C   UNL     1      31.134  26.578   8.383  1.00  0.00     0.034 A 
ATOM     25  C   UNL     1      29.014  25.819   7.478  1.00  0.00     0.156 A 
ATOM     26  C   UNL     1      30.485  27.645   9.004  1.00  0.00     0.044 A 
ATOM     27  C   UNL     1      28.351  26.894   8.100  1.00  0.00     0.086 A 
ATOM     28  F   UNL     1      28.312  24.931   6.727  1.00  0.00    -0.204 F 
ATOM     29  Cl  UNL     1      31.415  28.810   9.928  1.00  0.00    -0.084 Cl
ATOM     30  C   UNL     1      29.104  27.808   8.861  1.00  0.00     0.050 A 
BRANCH  27  31
ATOM     31  N   UNL     1      26.929  27.048   7.918  1.00  0.00    -0.281 N 
ATOM     32  H   UNL     1      26.572  27.513   7.051  1.00  0.00     0.180 HD
BRANCH  31  33
ATOM     33  S   UNL     1      25.723  26.444   9.014  1.00  0.00     0.229 S 
ATOM     34  C   UNL     1      24.172  27.273   8.749  1.00  0.00     0.183 C 
ATOM     35  O   UNL     1      25.566  24.959   8.846  1.00  0.00    -0.207 OA
ATOM     36  O   UNL     1      26.172  26.720  10.420  1.00  0.00    -0.207 OA
ENDBRANCH  31  33
ENDBRANCH  27  31
ENDBRANCH  20  23
BRANCH  21  37
ATOM     37  C   UNL     1      33.595  23.454   4.590  1.00  0.00     0.101 C 
ATOM     38  C   UNL     1      34.114  22.015   4.637  1.00  0.00     0.033 C 
ATOM     39  C   UNL     1      34.723  24.456   4.860  1.00  0.00     0.033 C 
ENDBRANCH  21  37
ENDBRANCH   5  18
TORSDOF 10
ENDMDL
MODEL 3
REMARK VINA RESULT:    -7.745      1.450      1.774
REMARK INTER + INTRA:         -14.109
REMARK INTER:                 -12.095
REMARK INTRA:                  -2.014
REMARK UNBOUND:                -1.837
REMARK SMILES COC(=O)N[C@@H](C)CNc1nccc(-c2cn(C(C)C)nc2-c2cc(Cl)cc(NS(C)(=O)=O)c2F)n1
REMARK SMILES IDX 10 1 11 2 12 3 13 4 14 5 36 6 9 7 8 9 6 10 7 11 5 12 3 13
REMARK SMILES IDX 4 14 2 16 1 17 15 18 16 19 22 20 17 21 21 22 23 23 24 24
REMARK SMILES IDX 34 25 25 26 28 27 35 28 26 29 27 30 29 31 30 33 31 34 32 35
REMARK SMILES IDX 33 36 18 37 19 38 20 39
REMARK H PARENT 9 8 5 15 29 32
REMARK Flexibility Score: inf
ROOT
ATOM      1  C   UNL     1      27.349  23.319   8.213  1.00  0.00     0.223 A 
ATOM      2  N   UNL     1      26.581  24.422   7.998  1.00  0.00    -0.222 NA
ATOM      3  C   UNL     1      27.013  25.431   7.195  1.00  0.00     0.117 A 
ATOM      4  C   UNL     1      28.263  25.346   6.577  1.00  0.00     0.049 A 
ATOM      5  C   UNL     1      29.042  24.194   6.793  1.00  0.00     0.080 A 
ATOM      6  N   UNL     1      28.557  23.214   7.603  1.00  0.00    -0.213 NA
ENDROOT
BRANCH   1   7
ATOM      7  N   UNL     1      26.903  22.269   9.079  1.00  0.00    -0.352 N 
ATOM      8  H   UNL     1      26.046  21.730   8.812  1.00  0.00     0.163 HD
BRANCH   7   9
ATOM      9  C   UNL     1      27.580  21.932  10.331  1.00  0.00     0.140 C 
BRANCH   9  10
ATOM     10  C   UNL     1      28.529  20.736  10.131  1.00  0.00     0.101 C 
ATOM     11  C   UNL     1      29.980  21.211   9.961  1.00  0.00     0.033 C 
BRANCH  10  12
ATOM     12  N   UNL     1      28.109  19.960   8.960  1.00  0.00    -0.317 N 
ATOM     13  C   UNL     1      27.752  18.569   9.041  1.00  0.00     0.407 C 
ATOM     14  O   UNL     1      27.808  17.951  10.142  1.00  0.00    -0.225 OA
ATOM     15  H   UNL     1      28.097  20.410   8.018  1.00  0.00     0.167 HD
BRANCH  13  16
ATOM     16  O   UNL     1      27.338  17.909   7.885  1.00  0.00    -0.453 OA
ATOM     17  C   UNL     1      26.102  18.179   7.246  1.00  0.00     0.284 C 
ENDBRANCH  13  16
ENDBRANCH  10  12
ENDBRANCH   9  10
ENDBRANCH   7   9
ENDBRANCH   1   7
BRANCH   5  18
ATOM     18  C   UNL     1      30.367  24.015   6.148  1.00  0.00     0.047 A 
ATOM     19  C   UNL     1      30.815  22.924   5.416  1.00  0.00     0.120 A 
ATOM     20  C   UNL     1      31.477  24.860   6.225  1.00  0.00     0.105 A 
ATOM     21  N   UNL     1      32.107  23.135   5.090  1.00  0.00    -0.269 N 
ATOM     22  N   UNL     1      32.520  24.295   5.590  1.00  0.00    -0.172 NA
BRANCH  20  23
ATOM     23  C   UNL     1      31.577  26.141   6.946  1.00  0.00     0.042 A 
ATOM     24  C   UNL     1      31.761  27.337   6.238  1.00  0.00     0.034 A 
ATOM     25  C   UNL     1      31.448  26.171   8.344  1.00  0.00     0.156 A 
ATOM     26  C   UNL     1      31.782  28.555   6.918  1.00  0.00     0.044 A 
ATOM     27  C   UNL     1      31.467  27.395   9.038  1.00  0.00     0.086 A 
ATOM     28  F   UNL     1      31.277  25.007   9.024  1.00  0.00    -0.204 F 
ATOM     29  Cl  UNL     1      31.953  30.050   6.018  1.00  0.00    -0.084 Cl
ATOM     30  C   UNL     1      31.631  28.588   8.307  1.00  0.00     0.050 A 
BRANCH  27  31
ATOM     31  N   UNL     1      31.288  27.401  10.469  1.00  0.00    -0.281 N 
ATOM     32  H   UNL     1      32.091  27.672  11.083  1.00  0.00     0.180 HD
BRANCH  31  33
ATOM     33  S   UNL     1      29.788  27.056  11.277  1.00  0.00     0.229 S 
ATOM     34  C   UNL     1      29.513  28.218  12.595  1.00  0.00     0.183 C 
ATOM     35  O   UNL     1      28.651  27.087  10.295  1.00  0.00    -0.207 OA
ATOM     36  O   UNL     1      29.870  25.679  11.870  1.00  0.00    -0.207 OA
ENDBRANCH  31  33
ENDBRANCH  27  31
ENDBRANCH  20  23
BRANCH  21  37
ATOM     37  C   UNL     1      32.963  22.206   4.344  1.00  0.00     0.101 C 
ATOM     38  C   UNL     1      34.244  22.915   3.897  1.00  0.00     0.033 C 
ATOM     39  C   UNL     1      32.204  21.629   3.144  1.00  0.00     0.033 C 
ENDBRANCH  21  37
ENDBRANCH   5  18
TORSDOF 10
ENDMDL
MODEL 4
REMARK VINA RESULT:    -7.694      3.341      3.891
REMARK INTER + INTRA:         -14.029
REMARK INTER:                 -12.481
REMARK INTRA:                  -1.548
REMARK UNBOUND:                -1.837
REMARK SMILES COC(=O)N[C@@H](C)CNc1nccc(-c2cn(C(C)C)nc2-c2cc(Cl)cc(NS(C)(=O)=O)c2F)n1
REMARK SMILES IDX 10 1 11 2 12 3 13 4 14 5 36 6 9 7 8 9 6 10 7 11 5 12 3 13
REMARK SMILES IDX 4 14 2 16 1 17 15 18 16 19 22 20 17 21 21 22 23 23 24 24
REMARK SMILES IDX 34 25 25 26 28 27 35 28 26 29 27 30 29 31 30 33 31 34 32 35
REMARK SMILES IDX 33 36 18 37 19 38 20 39
REMARK H PARENT 9 8 5 15 29 32
REMARK Flexibility Score: inf
ROOT
ATOM      1  C   UNL     1      27.666  23.598   8.046  1.00  0.00     0.223 A 
ATOM      2  N   UNL     1      26.882  24.667   7.732  1.00  0.00    -0.222 NA
ATOM      3  C   UNL     1      27.359  25.682   6.961  1.00  0.00     0.117 A 
ATOM      4  C   UNL     1      28.669  25.638   6.479  1.00  0.00     0.049 A 
ATOM      5  C   UNL     1      29.464  24.520   6.795  1.00  0.00     0.080 A 
ATOM      6  N   UNL     1      28.933  23.533   7.567  1.00  0.00    -0.213 NA
ENDROOT
BRANCH   1   7
ATOM      7  N   UNL     1      27.170  22.543   8.878  1.00  0.00    -0.352 N 
ATOM      8  H   UNL     1      26.372  21.962   8.529  1.00  0.00     0.163 HD
BRANCH   7   9
ATOM      9  C   UNL     1      27.718  22.255  10.204  1.00  0.00     0.140 C 
BRANCH   9  10
ATOM     10  C   UNL     1      28.567  20.971  10.175  1.00  0.00     0.101 C 
ATOM     11  C   UNL     1      30.062  21.306  10.057  1.00  0.00     0.033 C 
BRANCH  10  12
ATOM     12  N   UNL     1      28.148  20.125   9.053  1.00  0.00    -0.317 N 
ATOM     13  C   UNL     1      27.771  18.747   9.222  1.00  0.00     0.407 C 
ATOM     14  O   UNL     1      27.807  18.203  10.363  1.00  0.00    -0.225 OA
ATOM     15  H   UNL     1      28.152  20.512   8.084  1.00  0.00     0.167 HD
BRANCH  13  16
ATOM     16  O   UNL     1      27.359  18.018   8.108  1.00  0.00    -0.453 OA
ATOM     17  C   UNL     1      26.080  18.172   7.517  1.00  0.00     0.284 C 
ENDBRANCH  13  16
ENDBRANCH  10  12
ENDBRANCH   9  10
ENDBRANCH   7   9
ENDBRANCH   1   7
BRANCH   5  18
ATOM     18  C   UNL     1      30.856  24.386   6.296  1.00  0.00     0.047 A 
ATOM     19  C   UNL     1      31.449  23.267   5.728  1.00  0.00     0.120 A 
ATOM     20  C   UNL     1      31.890  25.320   6.383  1.00  0.00     0.105 A 
ATOM     21  N   UNL     1      32.749  23.548   5.500  1.00  0.00    -0.269 N 
ATOM     22  N   UNL     1      33.027  24.781   5.909  1.00  0.00    -0.172 NA
BRANCH  20  23
ATOM     23  C   UNL     1      31.827  26.670   6.970  1.00  0.00     0.042 A 
ATOM     24  C   UNL     1      31.459  26.840   8.312  1.00  0.00     0.034 A 
ATOM     25  C   UNL     1      32.175  27.789   6.196  1.00  0.00     0.156 A 
ATOM     26  C   UNL     1      31.471  28.112   8.884  1.00  0.00     0.044 A 
ATOM     27  C   UNL     1      32.192  29.076   6.765  1.00  0.00     0.086 A 
ATOM     28  F   UNL     1      32.525  27.618   4.894  1.00  0.00    -0.204 F 
ATOM     29  Cl  UNL     1      31.066  28.307  10.579  1.00  0.00    -0.084 Cl
ATOM     30  C   UNL     1      31.839  29.224   8.120  1.00  0.00     0.050 A 
BRANCH  27  31
ATOM     31  N   UNL     1      32.596  30.202   5.959  1.00  0.00    -0.281 N 
ATOM     32  H   UNL     1      31.881  30.913   5.680  1.00  0.00     0.180 HD
BRANCH  31  33
ATOM     33  S   UNL     1      34.230  30.523   5.462  1.00  0.00     0.229 S 
ATOM     34  C   UNL     1      34.729  32.148   5.983  1.00  0.00     0.183 C 
ATOM     35  O   UNL     1      35.156  29.479   6.019  1.00  0.00    -0.207 OA
ATOM     36  O   UNL     1      34.294  30.466   3.963  1.00  0.00    -0.207 OA
ENDBRANCH  31  33
ENDBRANCH  27  31
ENDBRANCH  20  23
BRANCH  21  37
ATOM     37  C   UNL     1      33.738  22.622   4.938  1.00  0.00     0.101 C 
ATOM     38  C   UNL     1      33.775  22.752   3.414  1.00  0.00     0.033 C 
ATOM     39  C   UNL     1      33.420  21.183   5.360  1.00  0.00     0.033 C 
ENDBRANCH  21  37
ENDBRANCH   5  18
TORSDOF 10
ENDMDL
MODEL 5
REMARK VINA RESULT:    -7.687      1.515      1.915
REMARK INTER + INTRA:         -14.018
REMARK INTER:                 -12.250
REMARK INTRA:                  -1.768
REMARK UNBOUND:                -1.837
REMARK SMILES COC(=O)N[C@@H](C)CNc1nccc(-c2cn(C(C)C)nc2-c2cc(Cl)cc(NS(C)(=O)=O)c2F)n1
REMARK SMILES IDX 10 1 11 2 12 3 13 4 14 5 36 6 9 7 8 9 6 10 7 11 5 12 3 13
REMARK SMILES IDX 4 14 2 16 1 17 15 18 16 19 22 20 17 21 21 22 23 23 24 24
REMARK SMILES IDX 34 25 25 26 28 27 35 28 26 29 27 30 29 31 30 33 31 34 32 35
REMARK SMILES IDX 33 36 18 37 19 38 20 39
REMARK H PARENT 9 8 5 15 29 32
REMARK Flexibility Score: inf
ROOT
ATOM      1  C   UNL     1      28.876  22.000   7.989  1.00  0.00     0.223 A 
ATOM      2  N   UNL     1      27.719  22.650   7.680  1.00  0.00    -0.222 NA
ATOM      3  C   UNL     1      27.713  23.695   6.810  1.00  0.00     0.117 A 
ATOM      4  C   UNL     1      28.905  24.120   6.219  1.00  0.00     0.049 A 
ATOM      5  C   UNL     1      30.092  23.431   6.532  1.00  0.00     0.080 A 
ATOM      6  N   UNL     1      30.037  22.389   7.405  1.00  0.00    -0.213 NA
ENDROOT
BRANCH   1   7
ATOM      7  N   UNL     1      28.884  20.915   8.924  1.00  0.00    -0.352 N 
ATOM      8  H   UNL     1      29.554  20.127   8.770  1.00  0.00     0.163 HD
BRANCH   7   9
ATOM      9  C   UNL     1      27.980  20.852  10.072  1.00  0.00     0.140 C 
BRANCH   9  10
ATOM     10  C   UNL     1      27.241  19.502  10.110  1.00  0.00     0.101 C 
ATOM     11  C   UNL     1      27.796  18.544   9.045  1.00  0.00     0.033 C 
BRANCH  10  12
ATOM     12  N   UNL     1      25.806  19.717   9.899  1.00  0.00    -0.317 N 
ATOM     13  C   UNL     1      24.910  20.062  10.970  1.00  0.00     0.407 C 
ATOM     14  O   UNL     1      25.335  20.176  12.156  1.00  0.00    -0.225 OA
ATOM     15  H   UNL     1      25.397  19.583   8.948  1.00  0.00     0.167 HD
BRANCH  13  16
ATOM     16  O   UNL     1      23.563  20.275  10.682  1.00  0.00    -0.453 OA
ATOM     17  C   UNL     1      22.579  20.442  11.689  1.00  0.00     0.284 C 
ENDBRANCH  13  16
ENDBRANCH  10  12
ENDBRANCH   9  10
ENDBRANCH   7   9
ENDBRANCH   1   7
BRANCH   5  18
ATOM     18  C   UNL     1      31.393  23.802   5.921  1.00  0.00     0.047 A 
ATOM     19  C   UNL     1      32.206  23.018   5.113  1.00  0.00     0.120 A 
ATOM     20  C   UNL     1      32.124  24.977   6.112  1.00  0.00     0.105 A 
ATOM     21  N   UNL     1      33.335  23.709   4.852  1.00  0.00    -0.269 N 
ATOM     22  N   UNL     1      33.301  24.886   5.467  1.00  0.00    -0.172 NA
BRANCH  20  23
ATOM     23  C   UNL     1      31.755  26.133   6.946  1.00  0.00     0.042 A 
ATOM     24  C   UNL     1      31.482  27.373   6.353  1.00  0.00     0.034 A 
ATOM     25  C   UNL     1      31.637  25.985   8.338  1.00  0.00     0.156 A 
ATOM     26  C   UNL     1      31.061  28.446   7.138  1.00  0.00     0.044 A 
ATOM     27  C   UNL     1      31.212  27.063   9.138  1.00  0.00     0.086 A 
ATOM     28  F   UNL     1      31.910  24.782   8.908  1.00  0.00    -0.204 F 
ATOM     29  Cl  UNL     1      30.665  29.977   6.380  1.00  0.00    -0.084 Cl
ATOM     30  C   UNL     1      30.922  28.294   8.521  1.00  0.00     0.050 A 
BRANCH  27  31
ATOM     31  N   UNL     1      31.057  26.871  10.559  1.00  0.00    -0.281 N 
ATOM     32  H   UNL     1      31.826  27.172  11.202  1.00  0.00     0.180 HD
BRANCH  31  33
ATOM     33  S   UNL     1      29.631  26.230  11.319  1.00  0.00     0.229 S 
ATOM     34  C   UNL     1      28.290  27.393  11.200  1.00  0.00     0.183 C 
ATOM     35  O   UNL     1      29.253  24.919  10.690  1.00  0.00    -0.207 OA
ATOM     36  O   UNL     1      29.927  25.996  12.771  1.00  0.00    -0.207 OA
ENDBRANCH  31  33
ENDBRANCH  27  31
ENDBRANCH  20  23
BRANCH  21  37
ATOM     37  C   UNL     1      34.470  23.224   4.059  1.00  0.00     0.101 C 
ATOM     38  C   UNL     1      35.224  24.405   3.444  1.00  0.00     0.033 C 
ATOM     39  C   UNL     1      33.985  22.255   2.975  1.00  0.00     0.033 C 
ENDBRANCH  21  37
ENDBRANCH   5  18
TORSDOF 10
ENDMDL
MODEL 6
REMARK VINA RESULT:    -7.651      2.948      3.569
REMARK INTER + INTRA:         -13.960
REMARK INTER:                 -12.446
REMARK INTRA:                  -1.514
REMARK UNBOUND:                -1.837
REMARK SMILES COC(=O)N[C@@H](C)CNc1nccc(-c2cn(C(C)C)nc2-c2cc(Cl)cc(NS(C)(=O)=O)c2F)n1
REMARK SMILES IDX 10 1 11 2 12 3 13 4 14 5 36 6 9 7 8 9 6 10 7 11 5 12 3 13
REMARK SMILES IDX 4 14 2 16 1 17 15 18 16 19 22 20 17 21 21 22 23 23 24 24
REMARK SMILES IDX 34 25 25 26 28 27 35 28 26 29 27 30 29 31 30 33 31 34 32 35
REMARK SMILES IDX 33 36 18 37 19 38 20 39
REMARK H PARENT 9 8 5 15 29 32
REMARK Flexibility Score: inf
ROOT
ATOM      1  C   UNL     1      28.649  21.592   8.124  1.00  0.00     0.223 A 
ATOM      2  N   UNL     1      27.466  22.119   7.702  1.00  0.00    -0.222 NA
ATOM      3  C   UNL     1      27.435  23.149   6.814  1.00  0.00     0.117 A 
ATOM      4  C   UNL     1      28.628  23.683   6.322  1.00  0.00     0.049 A 
ATOM      5  C   UNL     1      29.844  23.121   6.751  1.00  0.00     0.080 A 
ATOM      6  N   UNL     1      29.815  22.088   7.638  1.00  0.00    -0.213 NA
ENDROOT
BRANCH   1   7
ATOM      7  N   UNL     1      28.681  20.525   9.078  1.00  0.00    -0.352 N 
ATOM      8  H   UNL     1      29.367  19.747   8.938  1.00  0.00     0.163 HD
BRANCH   7   9
ATOM      9  C   UNL     1      27.779  20.462  10.228  1.00  0.00     0.140 C 
BRANCH   9  10
ATOM     10  C   UNL     1      26.957  19.160  10.206  1.00  0.00     0.101 C 
ATOM     11  C   UNL     1      27.456  18.217   9.101  1.00  0.00     0.033 C 
BRANCH  10  12
ATOM     12  N   UNL     1      25.539  19.474  10.003  1.00  0.00    -0.317 N 
ATOM     13  C   UNL     1      24.679  19.899  11.074  1.00  0.00     0.407 C 
ATOM     14  O   UNL     1      25.121  20.000  12.255  1.00  0.00    -0.225 OA
ATOM     15  H   UNL     1      25.113  19.354   9.057  1.00  0.00     0.167 HD
BRANCH  13  16
ATOM     16  O   UNL     1      23.348  20.202  10.793  1.00  0.00    -0.453 OA
ATOM     17  C   UNL     1      22.380  20.425  11.805  1.00  0.00     0.284 C 
ENDBRANCH  13  16
ENDBRANCH  10  12
ENDBRANCH   9  10
ENDBRANCH   7   9
ENDBRANCH   1   7
BRANCH   5  18
ATOM     18  C   UNL     1      31.152  23.613   6.250  1.00  0.00     0.047 A 
ATOM     19  C   UNL     1      32.093  22.915   5.506  1.00  0.00     0.120 A 
ATOM     20  C   UNL     1      31.757  24.845   6.506  1.00  0.00     0.105 A 
ATOM     21  N   UNL     1      33.174  23.706   5.342  1.00  0.00    -0.269 N 
ATOM     22  N   UNL     1      32.986  24.868   5.958  1.00  0.00    -0.172 NA
BRANCH  20  23
ATOM     23  C   UNL     1      31.220  25.954   7.314  1.00  0.00     0.042 A 
ATOM     24  C   UNL     1      30.994  25.782   8.687  1.00  0.00     0.034 A 
ATOM     25  C   UNL     1      30.970  27.201   6.717  1.00  0.00     0.156 A 
ATOM     26  C   UNL     1      30.554  26.854   9.462  1.00  0.00     0.044 A 
ATOM     27  C   UNL     1      30.528  28.289   7.493  1.00  0.00     0.086 A 
ATOM     28  F   UNL     1      31.186  27.359   5.385  1.00  0.00    -0.204 F 
ATOM     29  Cl  UNL     1      30.330  26.645  11.189  1.00  0.00    -0.084 Cl
ATOM     30  C   UNL     1      30.327  28.102   8.874  1.00  0.00     0.050 A 
BRANCH  27  31
ATOM     31  N   UNL     1      30.322  29.570   6.862  1.00  0.00    -0.281 N 
ATOM     32  H   UNL     1      29.355  29.847   6.575  1.00  0.00     0.180 HD
BRANCH  31  33
ATOM     33  S   UNL     1      31.569  30.752   6.600  1.00  0.00     0.229 S 
ATOM     34  C   UNL     1      30.904  32.182   5.778  1.00  0.00     0.183 C 
ATOM     35  O   UNL     1      32.201  31.138   7.908  1.00  0.00    -0.207 OA
ATOM     36  O   UNL     1      32.624  30.148   5.720  1.00  0.00    -0.207 OA
ENDBRANCH  31  33
ENDBRANCH  27  31
ENDBRANCH  20  23
BRANCH  21  37
ATOM     37  C   UNL     1      34.407  23.334   4.640  1.00  0.00     0.101 C 
ATOM     38  C   UNL     1      35.175  24.590   4.224  1.00  0.00     0.033 C 
ATOM     39  C   UNL     1      34.084  22.457   3.425  1.00  0.00     0.033 C 
ENDBRANCH  21  37
ENDBRANCH   5  18
TORSDOF 10
ENDMDL
MODEL 7
REMARK VINA RESULT:    -7.557      3.520      7.918
REMARK INTER + INTRA:         -13.811
REMARK INTER:                 -12.429
REMARK INTRA:                  -1.383
REMARK UNBOUND:                -1.837
REMARK SMILES COC(=O)N[C@@H](C)CNc1nccc(-c2cn(C(C)C)nc2-c2cc(Cl)cc(NS(C)(=O)=O)c2F)n1
REMARK SMILES IDX 10 1 11 2 12 3 13 4 14 5 36 6 9 7 8 9 6 10 7 11 5 12 3 13
REMARK SMILES IDX 4 14 2 16 1 17 15 18 16 19 22 20 17 21 21 22 23 23 24 24
REMARK SMILES IDX 34 25 25 26 28 27 35 28 26 29 27 30 29 31 30 33 31 34 32 35
REMARK SMILES IDX 33 36 18 37 19 38 20 39
REMARK H PARENT 9 8 5 15 29 32
REMARK Flexibility Score: inf
ROOT
ATOM      1  C   UNL     1      30.980  27.768   7.430  1.00  0.00     0.223 A 
ATOM      2  N   UNL     1      30.993  27.965   8.777  1.00  0.00    -0.222 NA
ATOM      3  C   UNL     1      31.121  26.918   9.637  1.00  0.00     0.117 A 
ATOM      4  C   UNL     1      31.239  25.617   9.142  1.00  0.00     0.049 A 
ATOM      5  C   UNL     1      31.241  25.427   7.747  1.00  0.00     0.080 A 
ATOM      6  N   UNL     1      31.115  26.511   6.935  1.00  0.00    -0.213 NA
ENDROOT
BRANCH   1   7
ATOM      7  N   UNL     1      30.820  28.868   6.527  1.00  0.00    -0.352 N 
ATOM      8  H   UNL     1      30.321  28.705   5.621  1.00  0.00     0.163 HD
BRANCH   7   9
ATOM      9  C   UNL     1      31.344  30.205   6.806  1.00  0.00     0.140 C 
BRANCH   9  10
ATOM     10  C   UNL     1      32.749  30.377   6.201  1.00  0.00     0.101 C 
ATOM     11  C   UNL     1      32.860  31.709   5.445  1.00  0.00     0.033 C 
BRANCH  10  12
ATOM     12  N   UNL     1      33.040  29.257   5.299  1.00  0.00    -0.317 N 
ATOM     13  C   UNL     1      34.358  28.700   5.158  1.00  0.00     0.407 C 
ATOM     14  O   UNL     1      35.334  29.178   5.804  1.00  0.00    -0.225 OA
ATOM     15  H   UNL     1      32.279  28.861   4.704  1.00  0.00     0.167 HD
BRANCH  13  16
ATOM     16  O   UNL     1      34.546  27.619   4.298  1.00  0.00    -0.453 OA
ATOM     17  C   UNL     1      34.545  26.273   4.744  1.00  0.00     0.284 C 
ENDBRANCH  13  16
ENDBRANCH  10  12
ENDBRANCH   9  10
ENDBRANCH   7   9
ENDBRANCH   1   7
BRANCH   5  18
ATOM     18  C   UNL     1      31.394  24.079   7.144  1.00  0.00     0.047 A 
ATOM     19  C   UNL     1      32.393  23.642   6.285  1.00  0.00     0.120 A 
ATOM     20  C   UNL     1      30.514  22.998   7.230  1.00  0.00     0.105 A 
ATOM     21  N   UNL     1      32.102  22.380   5.905  1.00  0.00    -0.269 N 
ATOM     22  N   UNL     1      30.958  21.990   6.458  1.00  0.00    -0.172 NA
BRANCH  20  23
ATOM     23  C   UNL     1      29.239  22.941   7.966  1.00  0.00     0.042 A 
ATOM     24  C   UNL     1      28.294  23.966   7.822  1.00  0.00     0.034 A 
ATOM     25  C   UNL     1      28.950  21.837   8.785  1.00  0.00     0.156 A 
ATOM     26  C   UNL     1      27.058  23.873   8.463  1.00  0.00     0.044 A 
ATOM     27  C   UNL     1      27.706  21.734   9.435  1.00  0.00     0.086 A 
ATOM     28  F   UNL     1      29.874  20.850   8.926  1.00  0.00    -0.204 F 
ATOM     29  Cl  UNL     1      25.860  25.132   8.229  1.00  0.00    -0.084 Cl
ATOM     30  C   UNL     1      26.761  22.764   9.260  1.00  0.00     0.050 A 
BRANCH  27  31
ATOM     31  N   UNL     1      27.419  20.569  10.235  1.00  0.00    -0.281 N 
ATOM     32  H   UNL     1      27.662  20.576  11.252  1.00  0.00     0.180 HD
BRANCH  31  33
ATOM     33  S   UNL     1      26.615  19.144   9.649  1.00  0.00     0.229 S 
ATOM     34  C   UNL     1      27.274  18.666   8.067  1.00  0.00     0.183 C 
ATOM     35  O   UNL     1      26.754  18.025  10.642  1.00  0.00    -0.207 OA
ATOM     36  O   UNL     1      25.156  19.453   9.479  1.00  0.00    -0.207 OA
ENDBRANCH  31  33
ENDBRANCH  27  31
ENDBRANCH  20  23
BRANCH  21  37
ATOM     37  C   UNL     1      32.888  21.565   4.973  1.00  0.00     0.101 C 
ATOM     38  C   UNL     1      34.159  22.312   4.564  1.00  0.00     0.033 C 
ATOM     39  C   UNL     1      32.046  21.196   3.747  1.00  0.00     0.033 C 
ENDBRANCH  21  37
ENDBRANCH   5  18
TORSDOF 10
ENDMDL
MODEL 8
REMARK VINA RESULT:    -7.476      2.672      3.188
REMARK INTER + INTRA:         -13.683
REMARK INTER:                 -12.193
REMARK INTRA:                  -1.490
REMARK UNBOUND:                -1.837
REMARK SMILES COC(=O)N[C@@H](C)CNc1nccc(-c2cn(C(C)C)nc2-c2cc(Cl)cc(NS(C)(=O)=O)c2F)n1
REMARK SMILES IDX 10 1 11 2 12 3 13 4 14 5 36 6 9 7 8 9 6 10 7 11 5 12 3 13
REMARK SMILES IDX 4 14 2 16 1 17 15 18 16 19 22 20 17 21 21 22 23 23 24 24
REMARK SMILES IDX 34 25 25 26 28 27 35 28 26 29 27 30 29 31 30 33 31 34 32 35
REMARK SMILES IDX 33 36 18 37 19 38 20 39
REMARK H PARENT 9 8 5 15 29 32
REMARK Flexibility Score: inf
ROOT
ATOM      1  C   UNL     1      28.990  22.141   7.965  1.00  0.00     0.223 A 
ATOM      2  N   UNL     1      27.807  22.754   7.685  1.00  0.00    -0.222 NA
ATOM      3  C   UNL     1      27.764  23.873   6.913  1.00  0.00     0.117 A 
ATOM      4  C   UNL     1      28.944  24.411   6.395  1.00  0.00     0.049 A 
ATOM      5  C   UNL     1      30.159  23.760   6.676  1.00  0.00     0.080 A 
ATOM      6  N   UNL     1      30.142  22.640   7.450  1.00  0.00    -0.213 NA
ENDROOT
BRANCH   1   7
ATOM      7  N   UNL     1      29.036  20.976   8.798  1.00  0.00    -0.352 N 
ATOM      8  H   UNL     1      29.869  20.346   8.733  1.00  0.00     0.163 HD
BRANCH   7   9
ATOM      9  C   UNL     1      27.959  20.619   9.721  1.00  0.00     0.140 C 
BRANCH   9  10
ATOM     10  C   UNL     1      27.771  19.092   9.773  1.00  0.00     0.101 C 
ATOM     11  C   UNL     1      29.034  18.402  10.308  1.00  0.00     0.033 C 
BRANCH  10  12
ATOM     12  N   UNL     1      27.446  18.588   8.434  1.00  0.00    -0.317 N 
ATOM     13  C   UNL     1      26.095  18.488   7.952  1.00  0.00     0.407 C 
ATOM     14  O   UNL     1      25.121  18.821   8.687  1.00  0.00    -0.225 OA
ATOM     15  H   UNL     1      28.211  18.250   7.809  1.00  0.00     0.167 HD
BRANCH  13  16
ATOM     16  O   UNL     1      25.872  18.022   6.658  1.00  0.00    -0.453 OA
ATOM     17  C   UNL     1      25.504  16.682   6.375  1.00  0.00     0.284 C 
ENDBRANCH  13  16
ENDBRANCH  10  12
ENDBRANCH   9  10
ENDBRANCH   7   9
ENDBRANCH   1   7
BRANCH   5  18
ATOM     18  C   UNL     1      31.452  24.251   6.137  1.00  0.00     0.047 A 
ATOM     19  C   UNL     1      32.389  23.542   5.398  1.00  0.00     0.120 A 
ATOM     20  C   UNL     1      32.046  25.499   6.343  1.00  0.00     0.105 A 
ATOM     21  N   UNL     1      33.456  24.340   5.190  1.00  0.00    -0.269 N 
ATOM     22  N   UNL     1      33.264  25.519   5.773  1.00  0.00    -0.172 NA
BRANCH  20  23
ATOM     23  C   UNL     1      31.509  26.626   7.125  1.00  0.00     0.042 A 
ATOM     24  C   UNL     1      31.378  26.520   8.517  1.00  0.00     0.034 A 
ATOM     25  C   UNL     1      31.162  27.825   6.481  1.00  0.00     0.156 A 
ATOM     26  C   UNL     1      30.938  27.614   9.262  1.00  0.00     0.044 A 
ATOM     27  C   UNL     1      30.718  28.934   7.226  1.00  0.00     0.086 A 
ATOM     28  F   UNL     1      31.284  27.918   5.131  1.00  0.00    -0.204 F 
ATOM     29  Cl  UNL     1      30.835  27.492  11.009  1.00  0.00    -0.084 Cl
ATOM     30  C   UNL     1      30.614  28.815   8.625  1.00  0.00     0.050 A 
BRANCH  27  31
ATOM     31  N   UNL     1      30.411  30.167   6.544  1.00  0.00    -0.281 N 
ATOM     32  H   UNL     1      29.540  30.228   5.967  1.00  0.00     0.180 HD
BRANCH  31  33
ATOM     33  S   UNL     1      31.354  31.622   6.663  1.00  0.00     0.229 S 
ATOM     34  C   UNL     1      31.371  32.480   5.105  1.00  0.00     0.183 C 
ATOM     35  O   UNL     1      30.810  32.505   7.750  1.00  0.00    -0.207 OA
ATOM     36  O   UNL     1      32.766  31.249   7.013  1.00  0.00    -0.207 OA
ENDBRANCH  31  33
ENDBRANCH  27  31
ENDBRANCH  20  23
BRANCH  21  37
ATOM     37  C   UNL     1      34.682  23.961   4.479  1.00  0.00     0.101 C 
ATOM     38  C   UNL     1      35.241  25.164   3.716  1.00  0.00     0.033 C 
ATOM     39  C   UNL     1      34.406  22.788   3.532  1.00  0.00     0.033 C 
ENDBRANCH  21  37
ENDBRANCH   5  18
TORSDOF 10
ENDMDL
MODEL 9
REMARK VINA RESULT:    -7.250      3.280      4.425
REMARK INTER + INTRA:         -13.325
REMARK INTER:                 -11.623
REMARK INTRA:                  -1.702
REMARK UNBOUND:                -1.837
REMARK SMILES COC(=O)N[C@@H](C)CNc1nccc(-c2cn(C(C)C)nc2-c2cc(Cl)cc(NS(C)(=O)=O)c2F)n1
REMARK SMILES IDX 10 1 11 2 12 3 13 4 14 5 36 6 9 7 8 9 6 10 7 11 5 12 3 13
REMARK SMILES IDX 4 14 2 16 1 17 15 18 16 19 22 20 17 21 21 22 23 23 24 24
REMARK SMILES IDX 34 25 25 26 28 27 35 28 26 29 27 30 29 31 30 33 31 34 32 35
REMARK SMILES IDX 33 36 18 37 19 38 20 39
REMARK H PARENT 9 8 5 15 29 32
REMARK Flexibility Score: inf
ROOT
ATOM      1  C   UNL     1      27.198  23.306   7.566  1.00  0.00     0.223 A 
ATOM      2  N   UNL     1      26.437  24.434   7.630  1.00  0.00    -0.222 NA
ATOM      3  C   UNL     1      26.955  25.647   7.297  1.00  0.00     0.117 A 
ATOM      4  C   UNL     1      28.285  25.750   6.884  1.00  0.00     0.049 A 
ATOM      5  C   UNL     1      29.057  24.576   6.806  1.00  0.00     0.080 A 
ATOM      6  N   UNL     1      28.486  23.389   7.147  1.00  0.00    -0.213 NA
ENDROOT
BRANCH   1   7
ATOM      7  N   UNL     1      26.659  22.033   7.941  1.00  0.00    -0.352 N 
ATOM      8  H   UNL     1      25.647  21.974   8.201  1.00  0.00     0.163 HD
BRANCH   7   9
ATOM      9  C   UNL     1      27.467  20.815   7.997  1.00  0.00     0.140 C 
BRANCH   9  10
ATOM     10  C   UNL     1      27.785  20.440   9.456  1.00  0.00     0.101 C 
ATOM     11  C   UNL     1      26.502  20.097  10.226  1.00  0.00     0.033 C 
BRANCH  10  12
ATOM     12  N   UNL     1      28.488  21.549  10.110  1.00  0.00    -0.317 N 
ATOM     13  C   UNL     1      29.869  21.853   9.847  1.00  0.00     0.407 C 
ATOM     14  O   UNL     1      30.542  21.149   9.040  1.00  0.00    -0.225 OA
ATOM     15  H   UNL     1      27.992  22.126  10.824  1.00  0.00     0.167 HD
BRANCH  13  16
ATOM     16  O   UNL     1      30.457  22.940  10.491  1.00  0.00    -0.453 OA
ATOM     17  C   UNL     1      30.013  24.274  10.308  1.00  0.00     0.284 C 
ENDBRANCH  13  16
ENDBRANCH  10  12
ENDBRANCH   9  10
ENDBRANCH   7   9
ENDBRANCH   1   7
BRANCH   5  18
ATOM     18  C   UNL     1      30.469  24.599   6.346  1.00  0.00     0.047 A 
ATOM     19  C   UNL     1      31.183  23.572   5.745  1.00  0.00     0.120 A 
ATOM     20  C   UNL     1      31.406  25.621   6.513  1.00  0.00     0.105 A 
ATOM     21  N   UNL     1      32.456  23.986   5.574  1.00  0.00    -0.269 N 
ATOM     22  N   UNL     1      32.603  25.217   6.051  1.00  0.00    -0.172 NA
BRANCH  20  23
ATOM     23  C   UNL     1      31.198  26.927   7.163  1.00  0.00     0.042 A 
ATOM     24  C   UNL     1      31.200  27.028   8.561  1.00  0.00     0.034 A 
ATOM     25  C   UNL     1      31.035  28.082   6.381  1.00  0.00     0.156 A 
ATOM     26  C   UNL     1      31.076  28.276   9.172  1.00  0.00     0.044 A 
ATOM     27  C   UNL     1      30.910  29.346   6.988  1.00  0.00     0.086 A 
ATOM     28  F   UNL     1      31.027  27.976   5.026  1.00  0.00    -0.204 F 
ATOM     29  Cl  UNL     1      31.139  28.399  10.920  1.00  0.00    -0.084 Cl
ATOM     30  C   UNL     1      30.937  29.429   8.394  1.00  0.00     0.050 A 
BRANCH  27  31
ATOM     31  N   UNL     1      30.789  30.520   6.161  1.00  0.00    -0.281 N 
ATOM     32  H   UNL     1      29.860  30.756   5.742  1.00  0.00     0.180 HD
BRANCH  31  33
ATOM     33  S   UNL     1      32.076  31.647   5.853  1.00  0.00     0.229 S 
ATOM     34  C   UNL     1      31.565  32.860   4.657  1.00  0.00     0.183 C 
ATOM     35  O   UNL     1      32.502  32.310   7.132  1.00  0.00    -0.207 OA
ATOM     36  O   UNL     1      33.247  30.895   5.292  1.00  0.00    -0.207 OA
ENDBRANCH  31  33
ENDBRANCH  27  31
ENDBRANCH  20  23
BRANCH  21  37
ATOM     37  C   UNL     1      33.544  23.187   5.000  1.00  0.00     0.101 C 
ATOM     38  C   UNL     1      34.722  24.091   4.631  1.00  0.00     0.033 C 
ATOM     39  C   UNL     1      33.045  22.406   3.779  1.00  0.00     0.033 C 
ENDBRANCH  21  37
ENDBRANCH   5  18
TORSDOF 10
ENDMDL
MODEL 10
REMARK VINA RESULT:    -7.190      3.856      8.532
REMARK INTER + INTRA:         -13.230
REMARK INTER:                 -11.982
REMARK INTRA:                  -1.248
REMARK UNBOUND:                -1.837
REMARK SMILES COC(=O)N[C@@H](C)CNc1nccc(-c2cn(C(C)C)nc2-c2cc(Cl)cc(NS(C)(=O)=O)c2F)n1
REMARK SMILES IDX 10 1 11 2 12 3 13 4 14 5 36 6 9 7 8 9 6 10 7 11 5 12 3 13
REMARK SMILES IDX 4 14 2 16 1 17 15 18 16 19 22 20 17 21 21 22 23 23 24 24
REMARK SMILES IDX 34 25 25 26 28 27 35 28 26 29 27 30 29 31 30 33 31 34 32 35
REMARK SMILES IDX 33 36 18 37 19 38 20 39
REMARK H PARENT 9 8 5 15 29 32
REMARK Flexibility Score: inf
ROOT
ATOM      1  C   UNL     1      31.072  27.776   7.123  1.00  0.00     0.223 A 
ATOM      2  N   UNL     1      31.302  27.929   8.457  1.00  0.00    -0.222 NA
ATOM      3  C   UNL     1      31.535  26.853   9.256  1.00  0.00     0.117 A 
ATOM      4  C   UNL     1      31.539  25.566   8.712  1.00  0.00     0.049 A 
ATOM      5  C   UNL     1      31.317  25.420   7.330  1.00  0.00     0.080 A 
ATOM      6  N   UNL     1      31.094  26.533   6.578  1.00  0.00    -0.213 NA
ENDROOT
BRANCH   1   7
ATOM      7  N   UNL     1      30.802  28.908   6.288  1.00  0.00    -0.352 N 
ATOM      8  H   UNL     1      30.553  28.742   5.285  1.00  0.00     0.163 HD
BRANCH   7   9
ATOM      9  C   UNL     1      30.882  30.286   6.771  1.00  0.00     0.140 C 
BRANCH   9  10
ATOM     10  C   UNL     1      31.623  31.177   5.757  1.00  0.00     0.101 C 
ATOM     11  C   UNL     1      33.118  31.265   6.095  1.00  0.00     0.033 C 
BRANCH  10  12
ATOM     12  N   UNL     1      31.026  32.517   5.746  1.00  0.00    -0.317 N 
ATOM     13  C   UNL     1      29.927  32.867   4.888  1.00  0.00     0.407 C 
ATOM     14  O   UNL     1      29.440  32.021   4.084  1.00  0.00    -0.225 OA
ATOM     15  H   UNL     1      31.426  33.266   6.353  1.00  0.00     0.167 HD
BRANCH  13  16
ATOM     16  O   UNL     1      29.400  34.155   4.957  1.00  0.00    -0.453 OA
ATOM     17  C   UNL     1      29.759  35.183   4.049  1.00  0.00     0.284 C 
ENDBRANCH  13  16
ENDBRANCH  10  12
ENDBRANCH   9  10
ENDBRANCH   7   9
ENDBRANCH   1   7
BRANCH   5  18
ATOM     18  C   UNL     1      31.337  24.090   6.672  1.00  0.00     0.047 A 
ATOM     19  C   UNL     1      32.221  23.634   5.704  1.00  0.00     0.120 A 
ATOM     20  C   UNL     1      30.411  23.053   6.811  1.00  0.00     0.105 A 
ATOM     21  N   UNL     1      31.826  22.404   5.316  1.00  0.00    -0.269 N 
ATOM     22  N   UNL     1      30.723  22.053   5.967  1.00  0.00    -0.172 NA
BRANCH  20  23
ATOM     23  C   UNL     1      29.213  23.034   7.668  1.00  0.00     0.042 A 
ATOM     24  C   UNL     1      28.277  24.075   7.597  1.00  0.00     0.034 A 
ATOM     25  C   UNL     1      28.986  21.950   8.533  1.00  0.00     0.156 A 
ATOM     26  C   UNL     1      27.109  24.018   8.356  1.00  0.00     0.044 A 
ATOM     27  C   UNL     1      27.809  21.883   9.302  1.00  0.00     0.086 A 
ATOM     28  F   UNL     1      29.900  20.948   8.602  1.00  0.00    -0.204 F 
ATOM     29  Cl  UNL     1      25.916  25.296   8.215  1.00  0.00    -0.084 Cl
ATOM     30  C   UNL     1      26.871  22.929   9.200  1.00  0.00     0.050 A 
BRANCH  27  31
ATOM     31  N   UNL     1      27.580  20.738  10.148  1.00  0.00    -0.281 N 
ATOM     32  H   UNL     1      27.980  20.730  11.114  1.00  0.00     0.180 HD
BRANCH  31  33
ATOM     33  S   UNL     1      26.607  19.366   9.709  1.00  0.00     0.229 S 
ATOM     34  C   UNL     1      26.861  18.947   7.999  1.00  0.00     0.183 C 
ATOM     35  O   UNL     1      26.930  18.197  10.595  1.00  0.00    -0.207 OA
ATOM     36  O   UNL     1      25.162  19.724   9.899  1.00  0.00    -0.207 OA
ENDBRANCH  31  33
ENDBRANCH  27  31
ENDBRANCH  20  23
BRANCH  21  37
ATOM     37  C   UNL     1      32.472  21.584   4.285  1.00  0.00     0.101 C 
ATOM     38  C   UNL     1      33.700  22.309   3.729  1.00  0.00     0.033 C 
ATOM     39  C   UNL     1      31.477  21.250   3.169  1.00  0.00     0.033 C 
ENDBRANCH  21  37
ENDBRANCH   5  18
TORSDOF 10
ENDMDL
MODEL 11
REMARK VINA RESULT:    -7.135      2.260      3.593
REMARK INTER + INTRA:         -13.143
REMARK INTER:                 -11.222
REMARK INTRA:                  -1.921
REMARK UNBOUND:                -1.837
REMARK SMILES COC(=O)N[C@@H](C)CNc1nccc(-c2cn(C(C)C)nc2-c2cc(Cl)cc(NS(C)(=O)=O)c2F)n1
REMARK SMILES IDX 10 1 11 2 12 3 13 4 14 5 36 6 9 7 8 9 6 10 7 11 5 12 3 13
REMARK SMILES IDX 4 14 2 16 1 17 15 18 16 19 22 20 17 21 21 22 23 23 24 24
REMARK SMILES IDX 34 25 25 26 28 27 35 28 26 29 27 30 29 31 30 33 31 34 32 35
REMARK SMILES IDX 33 36 18 37 19 38 20 39
REMARK H PARENT 9 8 5 15 29 32
REMARK Flexibility Score: inf
ROOT
ATOM      1  C   UNL     1      29.742  23.045   6.102  1.00  0.00     0.223 A 
ATOM      2  N   UNL     1      30.740  22.128   5.969  1.00  0.00    -0.222 NA
ATOM      3  C   UNL     1      32.045  22.510   5.965  1.00  0.00     0.117 A 
ATOM      4  C   UNL     1      32.380  23.859   6.096  1.00  0.00     0.049 A 
ATOM      5  C   UNL     1      31.341  24.797   6.250  1.00  0.00     0.080 A 
ATOM      6  N   UNL     1      30.053  24.357   6.252  1.00  0.00    -0.213 NA
ENDROOT
BRANCH   1   7
ATOM      7  N   UNL     1      28.367  22.644   6.081  1.00  0.00    -0.352 N 
ATOM      8  H   UNL     1      28.039  22.019   5.309  1.00  0.00     0.163 HD
BRANCH   7   9
ATOM      9  C   UNL     1      27.397  23.088   7.082  1.00  0.00     0.140 C 
BRANCH   9  10
ATOM     10  C   UNL     1      27.394  22.141   8.296  1.00  0.00     0.101 C 
ATOM     11  C   UNL     1      28.488  22.534   9.299  1.00  0.00     0.033 C 
BRANCH  10  12
ATOM     12  N   UNL     1      27.592  20.759   7.846  1.00  0.00    -0.317 N 
ATOM     13  C   UNL     1      26.776  19.670   8.309  1.00  0.00     0.407 C 
ATOM     14  O   UNL     1      25.853  19.867   9.152  1.00  0.00    -0.225 OA
ATOM     15  H   UNL     1      28.374  20.535   7.192  1.00  0.00     0.167 HD
BRANCH  13  16
ATOM     16  O   UNL     1      27.012  18.389   7.813  1.00  0.00    -0.453 OA
ATOM     17  C   UNL     1      26.037  17.648   7.099  1.00  0.00     0.284 C 
ENDBRANCH  13  16
ENDBRANCH  10  12
ENDBRANCH   9  10
ENDBRANCH   7   9
ENDBRANCH   1   7
BRANCH   5  18
ATOM     18  C   UNL     1      31.616  26.245   6.426  1.00  0.00     0.047 A 
ATOM     19  C   UNL     1      32.605  27.003   5.813  1.00  0.00     0.120 A 
ATOM     20  C   UNL     1      31.007  27.128   7.321  1.00  0.00     0.105 A 
ATOM     21  N   UNL     1      32.559  28.250   6.325  1.00  0.00    -0.269 N 
ATOM     22  N   UNL     1      31.608  28.330   7.249  1.00  0.00    -0.172 NA
BRANCH  20  23
ATOM     23  C   UNL     1      29.929  26.828   8.278  1.00  0.00     0.042 A 
ATOM     24  C   UNL     1      28.588  26.893   7.875  1.00  0.00     0.034 A 
ATOM     25  C   UNL     1      30.244  26.437   9.590  1.00  0.00     0.156 A 
ATOM     26  C   UNL     1      27.573  26.538   8.763  1.00  0.00     0.044 A 
ATOM     27  C   UNL     1      29.226  26.076  10.493  1.00  0.00     0.086 A 
ATOM     28  F   UNL     1      31.545  26.383   9.977  1.00  0.00    -0.204 F 
ATOM     29  Cl  UNL     1      25.902  26.565   8.230  1.00  0.00    -0.084 Cl
ATOM     30  C   UNL     1      27.886  26.127  10.062  1.00  0.00     0.050 A 
BRANCH  27  31
ATOM     31  N   UNL     1      29.580  25.636  11.820  1.00  0.00    -0.281 N 
ATOM     32  H   UNL     1      29.737  24.616  11.994  1.00  0.00     0.180 HD
BRANCH  31  33
ATOM     33  S   UNL     1      29.847  26.695  13.172  1.00  0.00     0.229 S 
ATOM     34  C   UNL     1      28.329  27.493  13.643  1.00  0.00     0.183 C 
ATOM     35  O   UNL     1      30.423  25.926  14.327  1.00  0.00    -0.207 OA
ATOM     36  O   UNL     1      30.831  27.753  12.764  1.00  0.00    -0.207 OA
ENDBRANCH  31  33
ENDBRANCH  27  31
ENDBRANCH  20  23
BRANCH  21  37
ATOM     37  C   UNL     1      33.458  29.353   5.968  1.00  0.00     0.101 C 
ATOM     38  C   UNL     1      32.663  30.653   5.820  1.00  0.00     0.033 C 
ATOM     39  C   UNL     1      34.220  29.024   4.680  1.00  0.00     0.033 C 
ENDBRANCH  21  37
ENDBRANCH   5  18
TORSDOF 10
ENDMDL
MODEL 12
REMARK VINA RESULT:    -7.055      3.500      8.170
REMARK INTER + INTRA:         -13.016
REMARK INTER:                 -12.023
REMARK INTRA:                  -0.993
REMARK UNBOUND:                -1.837
REMARK SMILES COC(=O)N[C@@H](C)CNc1nccc(-c2cn(C(C)C)nc2-c2cc(Cl)cc(NS(C)(=O)=O)c2F)n1
REMARK SMILES IDX 10 1 11 2 12 3 13 4 14 5 36 6 9 7 8 9 6 10 7 11 5 12 3 13
REMARK SMILES IDX 4 14 2 16 1 17 15 18 16 19 22 20 17 21 21 22 23 23 24 24
REMARK SMILES IDX 34 25 25 26 28 27 35 28 26 29 27 30 29 31 30 33 31 34 32 35
REMARK SMILES IDX 33 36 18 37 19 38 20 39
REMARK H PARENT 9 8 5 15 29 32
REMARK Flexibility Score: inf
ROOT
ATOM      1  C   UNL     1      30.966  28.902   7.206  1.00  0.00     0.223 A 
ATOM      2  N   UNL     1      30.958  28.961   8.567  1.00  0.00    -0.222 NA
ATOM      3  C   UNL     1      31.225  27.859   9.317  1.00  0.00     0.117 A 
ATOM      4  C   UNL     1      31.511  26.642   8.694  1.00  0.00     0.049 A 
ATOM      5  C   UNL     1      31.533  26.595   7.288  1.00  0.00     0.080 A 
ATOM      6  N   UNL     1      31.263  27.731   6.588  1.00  0.00    -0.213 NA
ENDROOT
BRANCH   1   7
ATOM      7  N   UNL     1      30.660  30.058   6.418  1.00  0.00    -0.352 N 
ATOM      8  H   UNL     1      30.246  29.921   5.467  1.00  0.00     0.163 HD
BRANCH   7   9
ATOM      9  C   UNL     1      30.922  31.422   6.877  1.00  0.00     0.140 C 
BRANCH   9  10
ATOM     10  C   UNL     1      32.431  31.729   6.839  1.00  0.00     0.101 C 
ATOM     11  C   UNL     1      32.679  33.225   6.599  1.00  0.00     0.033 C 
BRANCH  10  12
ATOM     12  N   UNL     1      33.071  30.934   5.786  1.00  0.00    -0.317 N 
ATOM     13  C   UNL     1      34.346  30.292   5.968  1.00  0.00     0.407 C 
ATOM     14  O   UNL     1      34.978  30.410   7.056  1.00  0.00    -0.225 OA
ATOM     15  H   UNL     1      32.615  30.850   4.851  1.00  0.00     0.167 HD
BRANCH  13  16
ATOM     16  O   UNL     1      34.875  29.533   4.926  1.00  0.00    -0.453 OA
ATOM     17  C   UNL     1      34.533  28.173   4.714  1.00  0.00     0.284 C 
ENDBRANCH  13  16
ENDBRANCH  10  12
ENDBRANCH   9  10
ENDBRANCH   7   9
ENDBRANCH   1   7
BRANCH   5  18
ATOM     18  C   UNL     1      31.859  25.348   6.552  1.00  0.00     0.047 A 
ATOM     19  C   UNL     1      33.032  25.044   5.874  1.00  0.00     0.120 A 
ATOM     20  C   UNL     1      31.021  24.259   6.301  1.00  0.00     0.105 A 
ATOM     21  N   UNL     1      32.873  23.846   5.273  1.00  0.00    -0.269 N 
ATOM     22  N   UNL     1      31.655  23.374   5.511  1.00  0.00    -0.172 NA
BRANCH  20  23
ATOM     23  C   UNL     1      29.623  24.090   6.734  1.00  0.00     0.042 A 
ATOM     24  C   UNL     1      28.818  25.211   6.978  1.00  0.00     0.034 A 
ATOM     25  C   UNL     1      29.080  22.801   6.865  1.00  0.00     0.156 A 
ATOM     26  C   UNL     1      27.475  25.047   7.316  1.00  0.00     0.044 A 
ATOM     27  C   UNL     1      27.726  22.626   7.205  1.00  0.00     0.086 A 
ATOM     28  F   UNL     1      29.867  21.718   6.633  1.00  0.00    -0.204 F 
ATOM     29  Cl  UNL     1      26.461  26.457   7.562  1.00  0.00    -0.084 Cl
ATOM     30  C   UNL     1      26.928  23.765   7.425  1.00  0.00     0.050 A 
BRANCH  27  31
ATOM     31  N   UNL     1      27.183  21.292   7.289  1.00  0.00    -0.281 N 
ATOM     32  H   UNL     1      26.727  20.873   6.447  1.00  0.00     0.180 HD
BRANCH  31  33
ATOM     33  S   UNL     1      27.295  20.269   8.690  1.00  0.00     0.229 S 
ATOM     34  C   UNL     1      28.085  21.134  10.028  1.00  0.00     0.183 C 
ATOM     35  O   UNL     1      25.927  19.797   9.097  1.00  0.00    -0.207 OA
ATOM     36  O   UNL     1      28.129  19.071   8.342  1.00  0.00    -0.207 OA
ENDBRANCH  31  33
ENDBRANCH  27  31
ENDBRANCH  20  23
BRANCH  21  37
ATOM     37  C   UNL     1      33.868  23.176   4.428  1.00  0.00     0.101 C 
ATOM     38  C   UNL     1      34.851  24.201   3.859  1.00  0.00     0.033 C 
ATOM     39  C   UNL     1      33.173  22.397   3.305  1.00  0.00     0.033 C 
ENDBRANCH  21  37
ENDBRANCH   5  18
TORSDOF 10
ENDMDL
MODEL 13
REMARK VINA RESULT:    -7.052      3.721      7.664
REMARK INTER + INTRA:         -13.012
REMARK INTER:                 -11.208
REMARK INTRA:                  -1.804
REMARK UNBOUND:                -1.837
REMARK SMILES COC(=O)N[C@@H](C)CNc1nccc(-c2cn(C(C)C)nc2-c2cc(Cl)cc(NS(C)(=O)=O)c2F)n1
REMARK SMILES IDX 10 1 11 2 12 3 13 4 14 5 36 6 9 7 8 9 6 10 7 11 5 12 3 13
REMARK SMILES IDX 4 14 2 16 1 17 15 18 16 19 22 20 17 21 21 22 23 23 24 24
REMARK SMILES IDX 34 25 25 26 28 27 35 28 26 29 27 30 29 31 30 33 31 34 32 35
REMARK SMILES IDX 33 36 18 37 19 38 20 39
REMARK H PARENT 9 8 5 15 29 32
REMARK Flexibility Score: inf
ROOT
ATOM      1  C   UNL     1      31.096  27.506   7.116  1.00  0.00     0.223 A 
ATOM      2  N   UNL     1      31.270  27.553   8.466  1.00  0.00    -0.222 NA
ATOM      3  C   UNL     1      31.468  26.416   9.186  1.00  0.00     0.117 A 
ATOM      4  C   UNL     1      31.494  25.177   8.544  1.00  0.00     0.049 A 
ATOM      5  C   UNL     1      31.330  25.141   7.146  1.00  0.00     0.080 A 
ATOM      6  N   UNL     1      31.140  26.310   6.476  1.00  0.00    -0.213 NA
ENDROOT
BRANCH   1   7
ATOM      7  N   UNL     1      30.862  28.701   6.362  1.00  0.00    -0.352 N 
ATOM      8  H   UNL     1      30.328  28.631   5.465  1.00  0.00     0.163 HD
BRANCH   7   9
ATOM      9  C   UNL     1      31.358  30.012   6.781  1.00  0.00     0.140 C 
BRANCH   9  10
ATOM     10  C   UNL     1      32.761  30.274   6.202  1.00  0.00     0.101 C 
ATOM     11  C   UNL     1      32.812  31.630   5.483  1.00  0.00     0.033 C 
BRANCH  10  12
ATOM     12  N   UNL     1      33.124  29.195   5.277  1.00  0.00    -0.317 N 
ATOM     13  C   UNL     1      34.460  28.671   5.186  1.00  0.00     0.407 C 
ATOM     14  O   UNL     1      35.389  29.144   5.901  1.00  0.00    -0.225 OA
ATOM     15  H   UNL     1      32.405  28.807   4.627  1.00  0.00     0.167 HD
BRANCH  13  16
ATOM     16  O   UNL     1      34.718  27.628   4.299  1.00  0.00    -0.453 OA
ATOM     17  C   UNL     1      34.622  26.262   4.668  1.00  0.00     0.284 C 
ENDBRANCH  13  16
ENDBRANCH  10  12
ENDBRANCH   9  10
ENDBRANCH   7   9
ENDBRANCH   1   7
BRANCH   5  18
ATOM     18  C   UNL     1      31.377  23.866   6.387  1.00  0.00     0.047 A 
ATOM     19  C   UNL     1      32.284  23.496   5.404  1.00  0.00     0.120 A 
ATOM     20  C   UNL     1      30.461  22.812   6.428  1.00  0.00     0.105 A 
ATOM     21  N   UNL     1      31.910  22.296   4.914  1.00  0.00    -0.269 N 
ATOM     22  N   UNL     1      30.799  21.884   5.515  1.00  0.00    -0.172 NA
BRANCH  20  23
ATOM     23  C   UNL     1      29.248  22.714   7.258  1.00  0.00     0.042 A 
ATOM     24  C   UNL     1      29.097  21.658   8.166  1.00  0.00     0.034 A 
ATOM     25  C   UNL     1      28.254  23.703   7.167  1.00  0.00     0.156 A 
ATOM     26  C   UNL     1      27.981  21.609   9.002  1.00  0.00     0.044 A 
ATOM     27  C   UNL     1      27.126  23.662   8.008  1.00  0.00     0.086 A 
ATOM     28  F   UNL     1      28.403  24.721   6.279  1.00  0.00    -0.204 F 
ATOM     29  Cl  UNL     1      27.831  20.315  10.177  1.00  0.00    -0.084 Cl
ATOM     30  C   UNL     1      27.003  22.605   8.929  1.00  0.00     0.050 A 
BRANCH  27  31
ATOM     31  N   UNL     1      26.143  24.714   7.925  1.00  0.00    -0.281 N 
ATOM     32  H   UNL     1      25.329  24.603   7.277  1.00  0.00     0.180 HD
BRANCH  31  33
ATOM     33  S   UNL     1      26.160  26.158   8.892  1.00  0.00     0.229 S 
ATOM     34  C   UNL     1      27.567  27.164   8.480  1.00  0.00     0.183 C 
ATOM     35  O   UNL     1      24.883  26.927   8.699  1.00  0.00    -0.207 OA
ATOM     36  O   UNL     1      26.266  25.765  10.337  1.00  0.00    -0.207 OA
ENDBRANCH  31  33
ENDBRANCH  27  31
ENDBRANCH  20  23
BRANCH  21  37
ATOM     37  C   UNL     1      32.585  21.565   3.835  1.00  0.00     0.101 C 
ATOM     38  C   UNL     1      33.635  22.458   3.172  1.00  0.00     0.033 C 
ATOM     39  C   UNL     1      31.561  21.064   2.810  1.00  0.00     0.033 C 
ENDBRANCH  21  37
ENDBRANCH   5  18
TORSDOF 10
ENDMDL
MODEL 14
REMARK VINA RESULT:    -7.037      4.513      7.835
REMARK INTER + INTRA:         -12.989
REMARK INTER:                 -10.033
REMARK INTRA:                  -2.956
REMARK UNBOUND:                -1.837
REMARK SMILES COC(=O)N[C@@H](C)CNc1nccc(-c2cn(C(C)C)nc2-c2cc(Cl)cc(NS(C)(=O)=O)c2F)n1
REMARK SMILES IDX 10 1 11 2 12 3 13 4 14 5 36 6 9 7 8 9 6 10 7 11 5 12 3 13
REMARK SMILES IDX 4 14 2 16 1 17 15 18 16 19 22 20 17 21 21 22 23 23 24 24
REMARK SMILES IDX 34 25 25 26 28 27 35 28 26 29 27 30 29 31 30 33 31 34 32 35
REMARK SMILES IDX 33 36 18 37 19 38 20 39
REMARK H PARENT 9 8 5 15 29 32
REMARK Flexibility Score: inf
ROOT
ATOM      1  C   UNL     1      24.706  19.998  11.143  1.00  0.00     0.223 A 
ATOM      2  N   UNL     1      23.356  20.098  10.991  1.00  0.00    -0.222 NA
ATOM      3  C   UNL     1      22.656  21.095  11.595  1.00  0.00     0.117 A 
ATOM      4  C   UNL     1      23.320  22.036  12.386  1.00  0.00     0.049 A 
ATOM      5  C   UNL     1      24.717  21.934  12.522  1.00  0.00     0.080 A 
ATOM      6  N   UNL     1      25.366  20.918  11.891  1.00  0.00    -0.213 NA
ENDROOT
BRANCH   1   7
ATOM      7  N   UNL     1      25.439  18.932  10.527  1.00  0.00    -0.352 N 
ATOM      8  H   UNL     1      25.012  17.977  10.507  1.00  0.00     0.163 HD
BRANCH   7   9
ATOM      9  C   UNL     1      26.767  19.118   9.943  1.00  0.00     0.140 C 
BRANCH   9  10
ATOM     10  C   UNL     1      26.666  19.363   8.426  1.00  0.00     0.101 C 
ATOM     11  C   UNL     1      26.897  18.062   7.644  1.00  0.00     0.033 C 
BRANCH  10  12
ATOM     12  N   UNL     1      27.645  20.378   8.022  1.00  0.00    -0.317 N 
ATOM     13  C   UNL     1      27.335  21.782   7.989  1.00  0.00     0.407 C 
ATOM     14  O   UNL     1      26.180  22.196   8.295  1.00  0.00    -0.225 OA
ATOM     15  H   UNL     1      28.596  20.083   7.710  1.00  0.00     0.167 HD
BRANCH  13  16
ATOM     16  O   UNL     1      28.330  22.684   7.618  1.00  0.00    -0.453 OA
ATOM     17  C   UNL     1      28.672  22.940   6.266  1.00  0.00     0.284 C 
ENDBRANCH  13  16
ENDBRANCH  10  12
ENDBRANCH   9  10
ENDBRANCH   7   9
ENDBRANCH   1   7
BRANCH   5  18
ATOM     18  C   UNL     1      25.497  22.913  13.319  1.00  0.00     0.047 A 
ATOM     19  C   UNL     1      25.950  22.778  14.624  1.00  0.00     0.120 A 
ATOM     20  C   UNL     1      25.855  24.216  12.962  1.00  0.00     0.105 A 
ATOM     21  N   UNL     1      26.536  23.936  14.991  1.00  0.00    -0.269 N 
ATOM     22  N   UNL     1      26.467  24.816  13.998  1.00  0.00    -0.172 NA
BRANCH  20  23
ATOM     23  C   UNL     1      25.559  24.908  11.695  1.00  0.00     0.042 A 
ATOM     24  C   UNL     1      24.418  25.714  11.581  1.00  0.00     0.034 A 
ATOM     25  C   UNL     1      26.443  24.793  10.610  1.00  0.00     0.156 A 
ATOM     26  C   UNL     1      24.179  26.425  10.405  1.00  0.00     0.044 A 
ATOM     27  C   UNL     1      26.211  25.509   9.420  1.00  0.00     0.086 A 
ATOM     28  F   UNL     1      27.543  24.005  10.725  1.00  0.00    -0.204 F 
ATOM     29  Cl  UNL     1      22.781  27.477  10.293  1.00  0.00    -0.084 Cl
ATOM     30  C   UNL     1      25.070  26.330   9.332  1.00  0.00     0.050 A 
BRANCH  27  31
ATOM     31  N   UNL     1      27.158  25.407   8.337  1.00  0.00    -0.281 N 
ATOM     32  H   UNL     1      26.916  24.826   7.501  1.00  0.00     0.180 HD
BRANCH  31  33
ATOM     33  S   UNL     1      28.675  26.251   8.271  1.00  0.00     0.229 S 
ATOM     34  C   UNL     1      28.484  27.918   8.859  1.00  0.00     0.183 C 
ATOM     35  O   UNL     1      29.711  25.520   9.077  1.00  0.00    -0.207 OA
ATOM     36  O   UNL     1      29.132  26.303   6.842  1.00  0.00    -0.207 OA
ENDBRANCH  31  33
ENDBRANCH  27  31
ENDBRANCH  20  23
BRANCH  21  37
ATOM     37  C   UNL     1      27.117  24.221  16.307  1.00  0.00     0.101 C 
ATOM     38  C   UNL     1      26.042  24.763  17.251  1.00  0.00     0.033 C 
ATOM     39  C   UNL     1      28.282  25.208  16.173  1.00  0.00     0.033 C 
ENDBRANCH  21  37
ENDBRANCH   5  18
TORSDOF 10
ENDMDL
MODEL 15
REMARK VINA RESULT:    -7.033      4.292      6.737
REMARK INTER + INTRA:         -12.981
REMARK INTER:                 -11.612
REMARK INTRA:                  -1.369
REMARK UNBOUND:                -1.837
REMARK SMILES COC(=O)N[C@@H](C)CNc1nccc(-c2cn(C(C)C)nc2-c2cc(Cl)cc(NS(C)(=O)=O)c2F)n1
REMARK SMILES IDX 10 1 11 2 12 3 13 4 14 5 36 6 9 7 8 9 6 10 7 11 5 12 3 13
REMARK SMILES IDX 4 14 2 16 1 17 15 18 16 19 22 20 17 21 21 22 23 23 24 24
REMARK SMILES IDX 34 25 25 26 28 27 35 28 26 29 27 30 29 31 30 33 31 34 32 35
REMARK SMILES IDX 33 36 18 37 19 38 20 39
REMARK H PARENT 9 8 5 15 29 32
REMARK Flexibility Score: inf
ROOT
ATOM      1  C   UNL     1      25.290  25.537   9.621  1.00  0.00     0.223 A 
ATOM      2  N   UNL     1      25.559  26.450   8.647  1.00  0.00    -0.222 NA
ATOM      3  C   UNL     1      26.410  26.157   7.627  1.00  0.00     0.117 A 
ATOM      4  C   UNL     1      27.024  24.903   7.568  1.00  0.00     0.049 A 
ATOM      5  C   UNL     1      26.726  23.961   8.571  1.00  0.00     0.080 A 
ATOM      6  N   UNL     1      25.864  24.309   9.564  1.00  0.00    -0.213 NA
ENDROOT
BRANCH   1   7
ATOM      7  N   UNL     1      24.413  25.857  10.707  1.00  0.00    -0.352 N 
ATOM      8  H   UNL     1      24.833  26.119  11.630  1.00  0.00     0.163 HD
BRANCH   7   9
ATOM      9  C   UNL     1      22.956  25.812  10.590  1.00  0.00     0.140 C 
BRANCH   9  10
ATOM     10  C   UNL     1      22.366  24.753  11.538  1.00  0.00     0.101 C 
ATOM     11  C   UNL     1      22.086  25.354  12.924  1.00  0.00     0.033 C 
BRANCH  10  12
ATOM     12  N   UNL     1      23.292  23.621  11.655  1.00  0.00    -0.317 N 
ATOM     13  C   UNL     1      22.907  22.271  11.344  1.00  0.00     0.407 C 
ATOM     14  O   UNL     1      21.728  22.006  10.970  1.00  0.00    -0.225 OA
ATOM     15  H   UNL     1      24.261  23.780  12.010  1.00  0.00     0.167 HD
BRANCH  13  16
ATOM     16  O   UNL     1      23.854  21.255  11.456  1.00  0.00    -0.453 OA
ATOM     17  C   UNL     1      23.597  20.034  12.129  1.00  0.00     0.284 C 
ENDBRANCH  13  16
ENDBRANCH  10  12
ENDBRANCH   9  10
ENDBRANCH   7   9
ENDBRANCH   1   7
BRANCH   5  18
ATOM     18  C   UNL     1      27.314  22.598   8.561  1.00  0.00     0.047 A 
ATOM     19  C   UNL     1      26.716  21.413   8.964  1.00  0.00     0.120 A 
ATOM     20  C   UNL     1      28.624  22.234   8.240  1.00  0.00     0.105 A 
ATOM     21  N   UNL     1      27.631  20.425   8.875  1.00  0.00    -0.269 N 
ATOM     22  N   UNL     1      28.792  20.917   8.454  1.00  0.00    -0.172 NA
BRANCH  20  23
ATOM     23  C   UNL     1      29.719  23.121   7.810  1.00  0.00     0.042 A 
ATOM     24  C   UNL     1      30.150  24.163   8.643  1.00  0.00     0.034 A 
ATOM     25  C   UNL     1      30.359  22.901   6.580  1.00  0.00     0.156 A 
ATOM     26  C   UNL     1      31.235  24.955   8.265  1.00  0.00     0.044 A 
ATOM     27  C   UNL     1      31.455  23.695   6.192  1.00  0.00     0.086 A 
ATOM     28  F   UNL     1      29.931  21.894   5.775  1.00  0.00    -0.204 F 
ATOM     29  Cl  UNL     1      31.806  26.218   9.340  1.00  0.00    -0.084 Cl
ATOM     30  C   UNL     1      31.888  24.722   7.051  1.00  0.00     0.050 A 
BRANCH  27  31
ATOM     31  N   UNL     1      32.122  23.418   4.943  1.00  0.00    -0.281 N 
ATOM     32  H   UNL     1      32.139  24.154   4.200  1.00  0.00     0.180 HD
BRANCH  31  33
ATOM     33  S   UNL     1      32.987  21.952   4.591  1.00  0.00     0.229 S 
ATOM     34  C   UNL     1      32.211  21.083   3.247  1.00  0.00     0.183 C 
ATOM     35  O   UNL     1      34.421  22.261   4.266  1.00  0.00    -0.207 OA
ATOM     36  O   UNL     1      32.951  21.072   5.806  1.00  0.00    -0.207 OA
ENDBRANCH  31  33
ENDBRANCH  27  31
ENDBRANCH  20  23
BRANCH  21  37
ATOM     37  C   UNL     1      27.413  19.021   9.240  1.00  0.00     0.101 C 
ATOM     38  C   UNL     1      28.537  18.535  10.157  1.00  0.00     0.033 C 
ATOM     39  C   UNL     1      27.315  18.153   7.980  1.00  0.00     0.033 C 
ENDBRANCH  21  37
ENDBRANCH   5  18
TORSDOF 10
ENDMDL
