MODEL 1
REMARK VINA RESULT:    -9.269      0.000      0.000
REMARK INTER + INTRA:         -15.354
REMARK INTER:                 -14.687
REMARK INTRA:                  -0.666
REMARK UNBOUND:                -0.666
REMARK SMILES COC(=O)N[C@@H](C)CNc1nccc(-c2cn(C(C)C)nc2-c2cc(Cl)cc(NS(C)(=O)=O)c2F)n1
REMARK SMILES IDX 10 1 11 2 12 3 13 4 14 5 36 6 9 7 8 9 6 10 7 11 5 12 3 13
REMARK SMILES IDX 4 14 2 16 1 17 15 18 16 19 22 20 17 21 21 22 23 23 24 24
REMARK SMILES IDX 34 25 25 26 28 27 35 28 26 29 27 30 29 31 30 33 31 34 32 35
REMARK SMILES IDX 33 36 18 37 19 38 20 39
REMARK H PARENT 9 8 5 15 29 32
REMARK Flexibility Score: inf
ROOT
ATOM      1  C   UNL     1     -75.608 -16.964  88.430  1.00  0.00     0.223 A 
ATOM      2  N   UNL     1     -74.589 -17.791  88.795  1.00  0.00    -0.222 NA
ATOM      3  C   UNL     1     -74.472 -19.036  88.261  1.00  0.00     0.117 A 
ATOM      4  C   UNL     1     -75.406 -19.486  87.325  1.00  0.00     0.049 A 
ATOM      5  C   UNL     1     -76.445 -18.618  86.942  1.00  0.00     0.080 A 
ATOM      6  N   UNL     1     -76.510 -17.381  87.506  1.00  0.00    -0.213 NA
ENDROOT
BRANCH   1   7
ATOM      7  N   UNL     1     -75.744 -15.662  89.012  1.00  0.00    -0.352 N 
ATOM      8  H   UNL     1     -76.680 -15.195  88.982  1.00  0.00     0.163 HD
BRANCH   7   9
ATOM      9  C   UNL     1     -74.625 -14.949  89.627  1.00  0.00     0.140 C 
BRANCH   9  10
ATOM     10  C   UNL     1     -74.776 -14.918  91.159  1.00  0.00     0.101 C 
ATOM     11  C   UNL     1     -73.442 -14.563  91.833  1.00  0.00     0.033 C 
BRANCH  10  12
ATOM     12  N   UNL     1     -75.254 -16.220  91.636  1.00  0.00    -0.317 N 
ATOM     13  C   UNL     1     -76.463 -16.368  92.400  1.00  0.00     0.407 C 
ATOM     14  O   UNL     1     -77.159 -15.359  92.710  1.00  0.00    -0.225 OA
ATOM     15  H   UNL     1     -74.687 -17.078  91.453  1.00  0.00     0.167 HD
BRANCH  13  16
ATOM     16  O   UNL     1     -76.862 -17.644  92.794  1.00  0.00    -0.453 OA
ATOM     17  C   UNL     1     -76.124 -18.431  93.715  1.00  0.00     0.284 C 
ENDBRANCH  13  16
ENDBRANCH  10  12
ENDBRANCH   9  10
ENDBRANCH   7   9
ENDBRANCH   1   7
BRANCH   5  18
ATOM     18  C   UNL     1     -77.458 -19.010  85.930  1.00  0.00     0.047 A 
ATOM     19  C   UNL     1     -77.529 -18.614  84.602  1.00  0.00     0.120 A 
ATOM     20  C   UNL     1     -78.608 -19.778  86.125  1.00  0.00     0.105 A 
ATOM     21  N   UNL     1     -78.655 -19.131  84.066  1.00  0.00    -0.269 N 
ATOM     22  N   UNL     1     -79.321 -19.821  84.985  1.00  0.00    -0.172 NA
BRANCH  20  23
ATOM     23  C   UNL     1     -79.067 -20.399  87.380  1.00  0.00     0.042 A 
ATOM     24  C   UNL     1     -78.253 -20.369  88.521  1.00  0.00     0.034 A 
ATOM     25  C   UNL     1     -80.340 -20.989  87.447  1.00  0.00     0.156 A 
ATOM     26  C   UNL     1     -78.720 -20.892  89.726  1.00  0.00     0.044 A 
ATOM     27  C   UNL     1     -80.819 -21.519  88.660  1.00  0.00     0.086 A 
ATOM     28  F   UNL     1     -81.121 -21.021  86.336  1.00  0.00    -0.204 F 
ATOM     29  Cl  UNL     1     -77.718 -20.796  91.163  1.00  0.00    -0.084 Cl
ATOM     30  C   UNL     1     -79.995 -21.460  89.800  1.00  0.00     0.050 A 
BRANCH  27  31
ATOM     31  N   UNL     1     -82.147 -22.079  88.711  1.00  0.00    -0.281 N 
ATOM     32  H   UNL     1     -82.292 -23.076  88.429  1.00  0.00     0.180 HD
BRANCH  31  33
ATOM     33  S   UNL     1     -83.553 -21.235  89.289  1.00  0.00     0.229 S 
ATOM     34  C   UNL     1     -85.027 -21.924  88.573  1.00  0.00     0.183 C 
ATOM     35  O   UNL     1     -83.613 -21.294  90.789  1.00  0.00    -0.207 OA
ATOM     36  O   UNL     1     -83.452 -19.797  88.871  1.00  0.00    -0.207 OA
ENDBRANCH  31  33
ENDBRANCH  27  31
ENDBRANCH  20  23
BRANCH  21  37
ATOM     37  C   UNL     1     -79.120 -18.923  82.691  1.00  0.00     0.101 C 
ATOM     38  C   UNL     1     -78.335 -17.784  82.036  1.00  0.00     0.033 C 
ATOM     39  C   UNL     1     -80.625 -18.635  82.676  1.00  0.00     0.033 C 
ENDBRANCH  21  37
ENDBRANCH   5  18
TORSDOF 10
ENDMDL
MODEL 2
REMARK VINA RESULT:    -9.042      4.205      7.826
REMARK INTER + INTRA:         -14.994
REMARK INTER:                 -13.106
REMARK INTRA:                  -1.888
REMARK UNBOUND:                -0.666
REMARK SMILES COC(=O)N[C@@H](C)CNc1nccc(-c2cn(C(C)C)nc2-c2cc(Cl)cc(NS(C)(=O)=O)c2F)n1
REMARK SMILES IDX 10 1 11 2 12 3 13 4 14 5 36 6 9 7 8 9 6 10 7 11 5 12 3 13
REMARK SMILES IDX 4 14 2 16 1 17 15 18 16 19 22 20 17 21 21 22 23 23 24 24
REMARK SMILES IDX 34 25 25 26 28 27 35 28 26 29 27 30 29 31 30 33 31 34 32 35
REMARK SMILES IDX 33 36 18 37 19 38 20 39
REMARK H PARENT 9 8 5 15 29 32
REMARK Flexibility Score: inf
ROOT
ATOM      1  C   UNL     1     -79.299 -21.293  89.821  1.00  0.00     0.223 A 
ATOM      2  N   UNL     1     -78.137 -21.918  90.162  1.00  0.00    -0.222 NA
ATOM      3  C   UNL     1     -77.067 -21.914  89.322  1.00  0.00     0.117 A 
ATOM      4  C   UNL     1     -77.149 -21.264  88.089  1.00  0.00     0.049 A 
ATOM      5  C   UNL     1     -78.348 -20.607  87.754  1.00  0.00     0.080 A 
ATOM      6  N   UNL     1     -79.384 -20.640  88.635  1.00  0.00    -0.213 NA
ENDROOT
BRANCH   1   7
ATOM      7  N   UNL     1     -80.432 -21.319  90.696  1.00  0.00    -0.352 N 
ATOM      8  H   UNL     1     -80.384 -20.784  91.595  1.00  0.00     0.163 HD
BRANCH   7   9
ATOM      9  C   UNL     1     -81.646 -22.078  90.398  1.00  0.00     0.140 C 
BRANCH   9  10
ATOM     10  C   UNL     1     -82.617 -21.240  89.546  1.00  0.00     0.101 C 
ATOM     11  C   UNL     1     -83.954 -21.042  90.274  1.00  0.00     0.033 C 
BRANCH  10  12
ATOM     12  N   UNL     1     -82.836 -21.898  88.253  1.00  0.00    -0.317 N 
ATOM     13  C   UNL     1     -82.988 -21.163  87.027  1.00  0.00     0.407 C 
ATOM     14  O   UNL     1     -82.956 -19.899  87.023  1.00  0.00    -0.225 OA
ATOM     15  H   UNL     1     -82.924 -22.937  88.211  1.00  0.00     0.167 HD
BRANCH  13  16
ATOM     16  O   UNL     1     -83.168 -21.865  85.836  1.00  0.00    -0.453 OA
ATOM     17  C   UNL     1     -83.736 -23.163  85.787  1.00  0.00     0.284 C 
ENDBRANCH  13  16
ENDBRANCH  10  12
ENDBRANCH   9  10
ENDBRANCH   7   9
ENDBRANCH   1   7
BRANCH   5  18
ATOM     18  C   UNL     1     -78.502 -19.868  86.475  1.00  0.00     0.047 A 
ATOM     19  C   UNL     1     -79.481 -20.043  85.506  1.00  0.00     0.120 A 
ATOM     20  C   UNL     1     -77.641 -18.913  85.930  1.00  0.00     0.105 A 
ATOM     21  N   UNL     1     -79.197 -19.230  84.467  1.00  0.00    -0.269 N 
ATOM     22  N   UNL     1     -78.077 -18.557  84.708  1.00  0.00    -0.172 NA
BRANCH  20  23
ATOM     23  C   UNL     1     -76.390 -18.400  86.516  1.00  0.00     0.042 A 
ATOM     24  C   UNL     1     -76.420 -17.316  87.404  1.00  0.00     0.034 A 
ATOM     25  C   UNL     1     -75.167 -19.021  86.214  1.00  0.00     0.156 A 
ATOM     26  C   UNL     1     -75.243 -16.880  88.013  1.00  0.00     0.044 A 
ATOM     27  C   UNL     1     -73.975 -18.588  86.824  1.00  0.00     0.086 A 
ATOM     28  F   UNL     1     -75.145 -20.067  85.346  1.00  0.00    -0.204 F 
ATOM     29  Cl  UNL     1     -75.298 -15.562  89.169  1.00  0.00    -0.084 Cl
ATOM     30  C   UNL     1     -74.028 -17.512  87.731  1.00  0.00     0.050 A 
BRANCH  27  31
ATOM     31  N   UNL     1     -72.741 -19.273  86.531  1.00  0.00    -0.281 N 
ATOM     32  H   UNL     1     -72.471 -20.107  87.102  1.00  0.00     0.180 HD
BRANCH  31  33
ATOM     33  S   UNL     1     -71.671 -18.861  85.224  1.00  0.00     0.229 S 
ATOM     34  C   UNL     1     -70.841 -17.325  85.563  1.00  0.00     0.183 C 
ATOM     35  O   UNL     1     -70.676 -19.964  85.001  1.00  0.00    -0.207 OA
ATOM     36  O   UNL     1     -72.485 -18.692  83.974  1.00  0.00    -0.207 OA
ENDBRANCH  31  33
ENDBRANCH  27  31
ENDBRANCH  20  23
BRANCH  21  37
ATOM     37  C   UNL     1     -79.966 -19.134  83.223  1.00  0.00     0.101 C 
ATOM     38  C   UNL     1     -79.335 -18.095  82.293  1.00  0.00     0.033 C 
ATOM     39  C   UNL     1     -81.428 -18.785  83.526  1.00  0.00     0.033 C 
ENDBRANCH  21  37
ENDBRANCH   5  18
TORSDOF 10
ENDMDL
MODEL 3
REMARK VINA RESULT:    -8.981      3.114      7.306
REMARK INTER + INTRA:         -14.898
REMARK INTER:                 -13.267
REMARK INTRA:                  -1.631
REMARK UNBOUND:                -0.666
REMARK SMILES COC(=O)N[C@@H](C)CNc1nccc(-c2cn(C(C)C)nc2-c2cc(Cl)cc(NS(C)(=O)=O)c2F)n1
REMARK SMILES IDX 10 1 11 2 12 3 13 4 14 5 36 6 9 7 8 9 6 10 7 11 5 12 3 13
REMARK SMILES IDX 4 14 2 16 1 17 15 18 16 19 22 20 17 21 21 22 23 23 24 24
REMARK SMILES IDX 34 25 25 26 28 27 35 28 26 29 27 30 29 31 30 33 31 34 32 35
REMARK SMILES IDX 33 36 18 37 19 38 20 39
REMARK H PARENT 9 8 5 15 29 32
REMARK Flexibility Score: inf
ROOT
ATOM      1  C   UNL     1     -79.519 -21.154  89.517  1.00  0.00     0.223 A 
ATOM      2  N   UNL     1     -78.404 -21.786  89.979  1.00  0.00    -0.222 NA
ATOM      3  C   UNL     1     -77.271 -21.846  89.229  1.00  0.00     0.117 A 
ATOM      4  C   UNL     1     -77.239 -21.255  87.964  1.00  0.00     0.049 A 
ATOM      5  C   UNL     1     -78.390 -20.590  87.503  1.00  0.00     0.080 A 
ATOM      6  N   UNL     1     -79.494 -20.557  88.299  1.00  0.00    -0.213 NA
ENDROOT
BRANCH   1   7
ATOM      7  N   UNL     1     -80.719 -21.114  90.299  1.00  0.00    -0.352 N 
ATOM      8  H   UNL     1     -80.881 -20.292  90.926  1.00  0.00     0.163 HD
BRANCH   7   9
ATOM      9  C   UNL     1     -81.717 -22.182  90.273  1.00  0.00     0.140 C 
BRANCH   9  10
ATOM     10  C   UNL     1     -82.777 -21.911  89.190  1.00  0.00     0.101 C 
ATOM     11  C   UNL     1     -82.393 -22.588  87.866  1.00  0.00     0.033 C 
BRANCH  10  12
ATOM     12  N   UNL     1     -82.927 -20.465  88.994  1.00  0.00    -0.317 N 
ATOM     13  C   UNL     1     -84.111 -19.879  88.426  1.00  0.00     0.407 C 
ATOM     14  O   UNL     1     -85.074 -20.607  88.050  1.00  0.00    -0.225 OA
ATOM     15  H   UNL     1     -82.138 -19.826  89.239  1.00  0.00     0.167 HD
BRANCH  13  16
ATOM     16  O   UNL     1     -84.184 -18.494  88.297  1.00  0.00    -0.453 OA
ATOM     17  C   UNL     1     -85.396 -17.771  88.438  1.00  0.00     0.284 C 
ENDBRANCH  13  16
ENDBRANCH  10  12
ENDBRANCH   9  10
ENDBRANCH   7   9
ENDBRANCH   1   7
BRANCH   5  18
ATOM     18  C   UNL     1     -78.424 -19.910  86.184  1.00  0.00     0.047 A 
ATOM     19  C   UNL     1     -79.453 -19.916  85.252  1.00  0.00     0.120 A 
ATOM     20  C   UNL     1     -77.393 -19.207  85.557  1.00  0.00     0.105 A 
ATOM     21  N   UNL     1     -79.034 -19.250  84.156  1.00  0.00    -0.269 N 
ATOM     22  N   UNL     1     -77.784 -18.833  84.325  1.00  0.00    -0.172 NA
BRANCH  20  23
ATOM     23  C   UNL     1     -76.038 -18.956  86.077  1.00  0.00     0.042 A 
ATOM     24  C   UNL     1     -74.986 -19.825  85.756  1.00  0.00     0.034 A 
ATOM     25  C   UNL     1     -75.788 -17.821  86.867  1.00  0.00     0.156 A 
ATOM     26  C   UNL     1     -73.690 -19.544  86.190  1.00  0.00     0.044 A 
ATOM     27  C   UNL     1     -74.484 -17.530  87.308  1.00  0.00     0.086 A 
ATOM     28  F   UNL     1     -76.814 -16.987  87.180  1.00  0.00    -0.204 F 
ATOM     29  Cl  UNL     1     -72.370 -20.605  85.733  1.00  0.00    -0.084 Cl
ATOM     30  C   UNL     1     -73.437 -18.403  86.957  1.00  0.00     0.050 A 
BRANCH  27  31
ATOM     31  N   UNL     1     -74.248 -16.334  88.080  1.00  0.00    -0.281 N 
ATOM     32  H   UNL     1     -73.965 -15.456  87.587  1.00  0.00     0.180 HD
BRANCH  31  33
ATOM     33  S   UNL     1     -74.475 -16.209  89.799  1.00  0.00     0.229 S 
ATOM     34  C   UNL     1     -73.156 -17.036  90.659  1.00  0.00     0.183 C 
ATOM     35  O   UNL     1     -74.552 -14.766  90.208  1.00  0.00    -0.207 OA
ATOM     36  O   UNL     1     -75.769 -16.878  90.161  1.00  0.00    -0.207 OA
ENDBRANCH  31  33
ENDBRANCH  27  31
ENDBRANCH  20  23
BRANCH  21  37
ATOM     37  C   UNL     1     -79.810 -19.054  82.926  1.00  0.00     0.101 C 
ATOM     38  C   UNL     1     -79.188 -17.938  82.084  1.00  0.00     0.033 C 
ATOM     39  C   UNL     1     -81.272 -18.742  83.263  1.00  0.00     0.033 C 
ENDBRANCH  21  37
ENDBRANCH   5  18
TORSDOF 10
ENDMDL
MODEL 4
REMARK VINA RESULT:    -8.980      4.749      6.897
REMARK INTER + INTRA:         -14.896
REMARK INTER:                 -13.176
REMARK INTRA:                  -1.720
REMARK UNBOUND:                -0.666
REMARK SMILES COC(=O)N[C@@H](C)CNc1nccc(-c2cn(C(C)C)nc2-c2cc(Cl)cc(NS(C)(=O)=O)c2F)n1
REMARK SMILES IDX 10 1 11 2 12 3 13 4 14 5 36 6 9 7 8 9 6 10 7 11 5 12 3 13
REMARK SMILES IDX 4 14 2 16 1 17 15 18 16 19 22 20 17 21 21 22 23 23 24 24
REMARK SMILES IDX 34 25 25 26 28 27 35 28 26 29 27 30 29 31 30 33 31 34 32 35
REMARK SMILES IDX 33 36 18 37 19 38 20 39
REMARK H PARENT 9 8 5 15 29 32
REMARK Flexibility Score: inf
ROOT
ATOM      1  C   UNL     1     -76.329 -18.616  89.325  1.00  0.00     0.223 A 
ATOM      2  N   UNL     1     -76.412 -19.852  89.891  1.00  0.00    -0.222 NA
ATOM      3  C   UNL     1     -76.932 -20.904  89.203  1.00  0.00     0.117 A 
ATOM      4  C   UNL     1     -77.393 -20.725  87.896  1.00  0.00     0.049 A 
ATOM      5  C   UNL     1     -77.287 -19.448  87.315  1.00  0.00     0.080 A 
ATOM      6  N   UNL     1     -76.754 -18.433  88.049  1.00  0.00    -0.213 NA
ENDROOT
BRANCH   1   7
ATOM      7  N   UNL     1     -75.804 -17.504  90.060  1.00  0.00    -0.352 N 
ATOM      8  H   UNL     1     -75.270 -16.768  89.541  1.00  0.00     0.163 HD
BRANCH   7   9
ATOM      9  C   UNL     1     -75.965 -17.363  91.506  1.00  0.00     0.140 C 
BRANCH   9  10
ATOM     10  C   UNL     1     -75.836 -15.887  91.927  1.00  0.00     0.101 C 
ATOM     11  C   UNL     1     -77.154 -15.370  92.521  1.00  0.00     0.033 C 
BRANCH  10  12
ATOM     12  N   UNL     1     -75.448 -15.074  90.770  1.00  0.00    -0.317 N 
ATOM     13  C   UNL     1     -74.076 -14.767  90.465  1.00  0.00     0.407 C 
ATOM     14  O   UNL     1     -73.141 -15.179  91.210  1.00  0.00    -0.225 OA
ATOM     15  H   UNL     1     -76.185 -14.666  90.154  1.00  0.00     0.167 HD
BRANCH  13  16
ATOM     16  O   UNL     1     -73.790 -14.009  89.331  1.00  0.00    -0.453 OA
ATOM     17  C   UNL     1     -72.677 -14.270  88.493  1.00  0.00     0.284 C 
ENDBRANCH  13  16
ENDBRANCH  10  12
ENDBRANCH   9  10
ENDBRANCH   7   9
ENDBRANCH   1   7
BRANCH   5  18
ATOM     18  C   UNL     1     -77.726 -19.186  85.921  1.00  0.00     0.047 A 
ATOM     19  C   UNL     1     -79.007 -19.300  85.398  1.00  0.00     0.120 A 
ATOM     20  C   UNL     1     -76.929 -18.867  84.820  1.00  0.00     0.105 A 
ATOM     21  N   UNL     1     -78.945 -19.056  84.073  1.00  0.00    -0.269 N 
ATOM     22  N   UNL     1     -77.690 -18.811  83.712  1.00  0.00    -0.172 NA
BRANCH  20  23
ATOM     23  C   UNL     1     -75.466 -18.692  84.796  1.00  0.00     0.042 A 
ATOM     24  C   UNL     1     -74.620 -19.805  84.902  1.00  0.00     0.034 A 
ATOM     25  C   UNL     1     -74.915 -17.412  84.627  1.00  0.00     0.156 A 
ATOM     26  C   UNL     1     -73.238 -19.644  84.806  1.00  0.00     0.044 A 
ATOM     27  C   UNL     1     -73.521 -17.240  84.527  1.00  0.00     0.086 A 
ATOM     28  F   UNL     1     -75.740 -16.336  84.532  1.00  0.00    -0.204 F 
ATOM     29  Cl  UNL     1     -72.191 -21.049  84.880  1.00  0.00    -0.084 Cl
ATOM     30  C   UNL     1     -72.690 -18.372  84.615  1.00  0.00     0.050 A 
BRANCH  27  31
ATOM     31  N   UNL     1     -72.985 -15.919  84.310  1.00  0.00    -0.281 N 
ATOM     32  H   UNL     1     -73.104 -15.191  85.052  1.00  0.00     0.180 HD
BRANCH  31  33
ATOM     33  S   UNL     1     -72.068 -15.445  82.911  1.00  0.00     0.229 S 
ATOM     34  C   UNL     1     -72.678 -16.273  81.460  1.00  0.00     0.183 C 
ATOM     35  O   UNL     1     -72.126 -13.953  82.735  1.00  0.00    -0.207 OA
ATOM     36  O   UNL     1     -70.637 -15.846  83.119  1.00  0.00    -0.207 OA
ENDBRANCH  31  33
ENDBRANCH  27  31
ENDBRANCH  20  23
BRANCH  21  37
ATOM     37  C   UNL     1     -80.077 -19.108  83.141  1.00  0.00     0.101 C 
ATOM     38  C   UNL     1     -79.877 -18.092  82.014  1.00  0.00     0.033 C 
ATOM     39  C   UNL     1     -81.392 -18.853  83.886  1.00  0.00     0.033 C 
ENDBRANCH  21  37
ENDBRANCH   5  18
TORSDOF 10
ENDMDL
MODEL 5
REMARK VINA RESULT:    -8.932      4.363      6.136
REMARK INTER + INTRA:         -14.820
REMARK INTER:                 -12.259
REMARK INTRA:                  -2.561
REMARK UNBOUND:                -0.666
REMARK SMILES COC(=O)N[C@@H](C)CNc1nccc(-c2cn(C(C)C)nc2-c2cc(Cl)cc(NS(C)(=O)=O)c2F)n1
REMARK SMILES IDX 10 1 11 2 12 3 13 4 14 5 36 6 9 7 8 9 6 10 7 11 5 12 3 13
REMARK SMILES IDX 4 14 2 16 1 17 15 18 16 19 22 20 17 21 21 22 23 23 24 24
REMARK SMILES IDX 34 25 25 26 28 27 35 28 26 29 27 30 29 31 30 33 31 34 32 35
REMARK SMILES IDX 33 36 18 37 19 38 20 39
REMARK H PARENT 9 8 5 15 29 32
REMARK Flexibility Score: inf
ROOT
ATOM      1  C   UNL     1     -76.803 -19.570  90.246  1.00  0.00     0.223 A 
ATOM      2  N   UNL     1     -76.907 -20.875  90.620  1.00  0.00    -0.222 NA
ATOM      3  C   UNL     1     -77.347 -21.821  89.747  1.00  0.00     0.117 A 
ATOM      4  C   UNL     1     -77.701 -21.461  88.445  1.00  0.00     0.049 A 
ATOM      5  C   UNL     1     -77.573 -20.112  88.063  1.00  0.00     0.080 A 
ATOM      6  N   UNL     1     -77.123 -19.209  88.977  1.00  0.00    -0.213 NA
ENDROOT
BRANCH   1   7
ATOM      7  N   UNL     1     -76.364 -18.571  91.174  1.00  0.00    -0.352 N 
ATOM      8  H   UNL     1     -76.273 -18.831  92.183  1.00  0.00     0.163 HD
BRANCH   7   9
ATOM      9  C   UNL     1     -76.058 -17.198  90.774  1.00  0.00     0.140 C 
BRANCH   9  10
ATOM     10  C   UNL     1     -75.762 -16.325  92.008  1.00  0.00     0.101 C 
ATOM     11  C   UNL     1     -76.970 -15.444  92.358  1.00  0.00     0.033 C 
BRANCH  10  12
ATOM     12  N   UNL     1     -74.583 -15.490  91.752  1.00  0.00    -0.317 N 
ATOM     13  C   UNL     1     -73.712 -15.039  92.804  1.00  0.00     0.407 C 
ATOM     14  O   UNL     1     -73.948 -15.336  94.010  1.00  0.00    -0.225 OA
ATOM     15  H   UNL     1     -74.375 -15.173  90.780  1.00  0.00     0.167 HD
BRANCH  13  16
ATOM     16  O   UNL     1     -72.598 -14.269  92.475  1.00  0.00    -0.453 OA
ATOM     17  C   UNL     1     -72.316 -13.022  93.087  1.00  0.00     0.284 C 
ENDBRANCH  13  16
ENDBRANCH  10  12
ENDBRANCH   9  10
ENDBRANCH   7   9
ENDBRANCH   1   7
BRANCH   5  18
ATOM     18  C   UNL     1     -77.899 -19.655  86.689  1.00  0.00     0.047 A 
ATOM     19  C   UNL     1     -79.101 -19.798  86.009  1.00  0.00     0.120 A 
ATOM     20  C   UNL     1     -77.038 -19.078  85.753  1.00  0.00     0.105 A 
ATOM     21  N   UNL     1     -78.937 -19.324  84.757  1.00  0.00    -0.269 N 
ATOM     22  N   UNL     1     -77.688 -18.903  84.588  1.00  0.00    -0.172 NA
BRANCH  20  23
ATOM     23  C   UNL     1     -75.609 -18.765  85.927  1.00  0.00     0.042 A 
ATOM     24  C   UNL     1     -74.635 -19.735  85.654  1.00  0.00     0.034 A 
ATOM     25  C   UNL     1     -75.217 -17.478  86.330  1.00  0.00     0.156 A 
ATOM     26  C   UNL     1     -73.281 -19.413  85.750  1.00  0.00     0.044 A 
ATOM     27  C   UNL     1     -73.853 -17.144  86.428  1.00  0.00     0.086 A 
ATOM     28  F   UNL     1     -76.166 -16.544  86.600  1.00  0.00    -0.204 F 
ATOM     29  Cl  UNL     1     -72.070 -20.617  85.349  1.00  0.00    -0.084 Cl
ATOM     30  C   UNL     1     -72.890 -18.126  86.129  1.00  0.00     0.050 A 
BRANCH  27  31
ATOM     31  N   UNL     1     -73.478 -15.802  86.802  1.00  0.00    -0.281 N 
ATOM     32  H   UNL     1     -73.364 -15.078  86.055  1.00  0.00     0.180 HD
BRANCH  31  33
ATOM     33  S   UNL     1     -73.267 -15.256  88.438  1.00  0.00     0.229 S 
ATOM     34  C   UNL     1     -71.939 -14.077  88.532  1.00  0.00     0.183 C 
ATOM     35  O   UNL     1     -74.545 -14.658  88.954  1.00  0.00    -0.207 OA
ATOM     36  O   UNL     1     -72.913 -16.437  89.295  1.00  0.00    -0.207 OA
ENDBRANCH  31  33
ENDBRANCH  27  31
ENDBRANCH  20  23
BRANCH  21  37
ATOM     37  C   UNL     1     -79.959 -19.320  83.704  1.00  0.00     0.101 C 
ATOM     38  C   UNL     1     -79.540 -18.385  82.568  1.00  0.00     0.033 C 
ATOM     39  C   UNL     1     -81.318 -18.910  84.283  1.00  0.00     0.033 C 
ENDBRANCH  21  37
ENDBRANCH   5  18
TORSDOF 10
ENDMDL
MODEL 6
REMARK VINA RESULT:    -8.911      4.356      8.397
REMARK INTER + INTRA:         -14.786
REMARK INTER:                 -13.196
REMARK INTRA:                  -1.590
REMARK UNBOUND:                -0.666
REMARK SMILES COC(=O)N[C@@H](C)CNc1nccc(-c2cn(C(C)C)nc2-c2cc(Cl)cc(NS(C)(=O)=O)c2F)n1
REMARK SMILES IDX 10 1 11 2 12 3 13 4 14 5 36 6 9 7 8 9 6 10 7 11 5 12 3 13
REMARK SMILES IDX 4 14 2 16 1 17 15 18 16 19 22 20 17 21 21 22 23 23 24 24
REMARK SMILES IDX 34 25 25 26 28 27 35 28 26 29 27 30 29 31 30 33 31 34 32 35
REMARK SMILES IDX 33 36 18 37 19 38 20 39
REMARK H PARENT 9 8 5 15 29 32
REMARK Flexibility Score: inf
ROOT
ATOM      1  C   UNL     1     -78.557 -20.910  89.225  1.00  0.00     0.223 A 
ATOM      2  N   UNL     1     -77.857 -21.890  89.861  1.00  0.00    -0.222 NA
ATOM      3  C   UNL     1     -76.567 -21.692  90.246  1.00  0.00     0.117 A 
ATOM      4  C   UNL     1     -75.941 -20.469  89.989  1.00  0.00     0.049 A 
ATOM      5  C   UNL     1     -76.680 -19.458  89.347  1.00  0.00     0.080 A 
ATOM      6  N   UNL     1     -77.968 -19.711  88.989  1.00  0.00    -0.213 NA
ENDROOT
BRANCH   1   7
ATOM      7  N   UNL     1     -79.907 -21.129  88.798  1.00  0.00    -0.352 N 
ATOM      8  H   UNL     1     -80.161 -20.910  87.807  1.00  0.00     0.163 HD
BRANCH   7   9
ATOM      9  C   UNL     1     -80.951 -21.625  89.694  1.00  0.00     0.140 C 
BRANCH   9  10
ATOM     10  C   UNL     1     -82.320 -21.032  89.316  1.00  0.00     0.101 C 
ATOM     11  C   UNL     1     -83.304 -21.132  90.491  1.00  0.00     0.033 C 
BRANCH  10  12
ATOM     12  N   UNL     1     -82.857 -21.733  88.144  1.00  0.00    -0.317 N 
ATOM     13  C   UNL     1     -82.922 -21.126  86.842  1.00  0.00     0.407 C 
ATOM     14  O   UNL     1     -82.530 -19.937  86.663  1.00  0.00    -0.225 OA
ATOM     15  H   UNL     1     -83.243 -22.697  88.250  1.00  0.00     0.167 HD
BRANCH  13  16
ATOM     16  O   UNL     1     -83.423 -21.869  85.775  1.00  0.00    -0.453 OA
ATOM     17  C   UNL     1     -83.681 -23.260  85.860  1.00  0.00     0.284 C 
ENDBRANCH  13  16
ENDBRANCH  10  12
ENDBRANCH   9  10
ENDBRANCH   7   9
ENDBRANCH   1   7
BRANCH   5  18
ATOM     18  C   UNL     1     -76.095 -18.122  89.068  1.00  0.00     0.047 A 
ATOM     19  C   UNL     1     -75.659 -17.178  89.987  1.00  0.00     0.120 A 
ATOM     20  C   UNL     1     -75.955 -17.492  87.830  1.00  0.00     0.105 A 
ATOM     21  N   UNL     1     -75.285 -16.071  89.311  1.00  0.00    -0.269 N 
ATOM     22  N   UNL     1     -75.478 -16.247  88.008  1.00  0.00    -0.172 NA
BRANCH  20  23
ATOM     23  C   UNL     1     -76.333 -18.023  86.509  1.00  0.00     0.042 A 
ATOM     24  C   UNL     1     -77.681 -18.079  86.130  1.00  0.00     0.034 A 
ATOM     25  C   UNL     1     -75.338 -18.440  85.609  1.00  0.00     0.156 A 
ATOM     26  C   UNL     1     -78.030 -18.514  84.851  1.00  0.00     0.044 A 
ATOM     27  C   UNL     1     -75.681 -18.880  84.317  1.00  0.00     0.086 A 
ATOM     28  F   UNL     1     -74.034 -18.390  85.986  1.00  0.00    -0.204 F 
ATOM     29  Cl  UNL     1     -79.716 -18.524  84.365  1.00  0.00    -0.084 Cl
ATOM     30  C   UNL     1     -77.039 -18.908  83.947  1.00  0.00     0.050 A 
BRANCH  27  31
ATOM     31  N   UNL     1     -74.637 -19.260  83.398  1.00  0.00    -0.281 N 
ATOM     32  H   UNL     1     -74.359 -20.267  83.329  1.00  0.00     0.180 HD
BRANCH  31  33
ATOM     33  S   UNL     1     -73.829 -18.167  82.314  1.00  0.00     0.229 S 
ATOM     34  C   UNL     1     -72.345 -18.910  81.676  1.00  0.00     0.183 C 
ATOM     35  O   UNL     1     -74.750 -17.773  81.194  1.00  0.00    -0.207 OA
ATOM     36  O   UNL     1     -73.450 -16.931  83.077  1.00  0.00    -0.207 OA
ENDBRANCH  31  33
ENDBRANCH  27  31
ENDBRANCH  20  23
BRANCH  21  37
ATOM     37  C   UNL     1     -74.793 -14.827  89.912  1.00  0.00     0.101 C 
ATOM     38  C   UNL     1     -73.568 -14.322  89.147  1.00  0.00     0.033 C 
ATOM     39  C   UNL     1     -74.465 -15.046  91.394  1.00  0.00     0.033 C 
ENDBRANCH  21  37
ENDBRANCH   5  18
TORSDOF 10
ENDMDL
MODEL 7
REMARK VINA RESULT:    -8.854      3.683      7.853
REMARK INTER + INTRA:         -14.696
REMARK INTER:                 -14.577
REMARK INTRA:                  -0.120
REMARK UNBOUND:                -0.666
REMARK SMILES COC(=O)N[C@@H](C)CNc1nccc(-c2cn(C(C)C)nc2-c2cc(Cl)cc(NS(C)(=O)=O)c2F)n1
REMARK SMILES IDX 10 1 11 2 12 3 13 4 14 5 36 6 9 7 8 9 6 10 7 11 5 12 3 13
REMARK SMILES IDX 4 14 2 16 1 17 15 18 16 19 22 20 17 21 21 22 23 23 24 24
REMARK SMILES IDX 34 25 25 26 28 27 35 28 26 29 27 30 29 31 30 33 31 34 32 35
REMARK SMILES IDX 33 36 18 37 19 38 20 39
REMARK H PARENT 9 8 5 15 29 32
REMARK Flexibility Score: inf
ROOT
ATOM      1  C   UNL     1     -84.448 -20.533  88.265  1.00  0.00     0.223 A 
ATOM      2  N   UNL     1     -84.958 -21.763  87.982  1.00  0.00    -0.222 NA
ATOM      3  C   UNL     1     -84.340 -22.592  87.098  1.00  0.00     0.117 A 
ATOM      4  C   UNL     1     -83.164 -22.184  86.463  1.00  0.00     0.049 A 
ATOM      5  C   UNL     1     -82.636 -20.918  86.776  1.00  0.00     0.080 A 
ATOM      6  N   UNL     1     -83.295 -20.133  87.672  1.00  0.00    -0.213 NA
ENDROOT
BRANCH   1   7
ATOM      7  N   UNL     1     -85.114 -19.652  89.178  1.00  0.00    -0.352 N 
ATOM      8  H   UNL     1     -85.291 -19.984  90.155  1.00  0.00     0.163 HD
BRANCH   7   9
ATOM      9  C   UNL     1     -85.576 -18.318  88.798  1.00  0.00     0.140 C 
BRANCH   9  10
ATOM     10  C   UNL     1     -86.857 -17.946  89.567  1.00  0.00     0.101 C 
ATOM     11  C   UNL     1     -87.291 -16.508  89.244  1.00  0.00     0.033 C 
BRANCH  10  12
ATOM     12  N   UNL     1     -86.630 -18.095  91.008  1.00  0.00    -0.317 N 
ATOM     13  C   UNL     1     -87.706 -18.122  91.962  1.00  0.00     0.407 C 
ATOM     14  O   UNL     1     -88.906 -17.995  91.585  1.00  0.00    -0.225 OA
ATOM     15  H   UNL     1     -85.654 -18.150  91.376  1.00  0.00     0.167 HD
BRANCH  13  16
ATOM     16  O   UNL     1     -87.408 -18.293  93.313  1.00  0.00    -0.453 OA
ATOM     17  C   UNL     1     -88.396 -18.582  94.288  1.00  0.00     0.284 C 
ENDBRANCH  13  16
ENDBRANCH  10  12
ENDBRANCH   9  10
ENDBRANCH   7   9
ENDBRANCH   1   7
BRANCH   5  18
ATOM     18  C   UNL     1     -81.374 -20.426  86.168  1.00  0.00     0.047 A 
ATOM     19  C   UNL     1     -81.174 -19.988  84.866  1.00  0.00     0.120 A 
ATOM     20  C   UNL     1     -80.102 -20.395  86.744  1.00  0.00     0.105 A 
ATOM     21  N   UNL     1     -79.861 -19.718  84.709  1.00  0.00    -0.269 N 
ATOM     22  N   UNL     1     -79.204 -19.978  85.834  1.00  0.00    -0.172 NA
BRANCH  20  23
ATOM     23  C   UNL     1     -79.727 -20.820  88.103  1.00  0.00     0.042 A 
ATOM     24  C   UNL     1     -80.714 -21.205  89.021  1.00  0.00     0.034 A 
ATOM     25  C   UNL     1     -78.372 -20.879  88.471  1.00  0.00     0.156 A 
ATOM     26  C   UNL     1     -80.350 -21.677  90.282  1.00  0.00     0.044 A 
ATOM     27  C   UNL     1     -77.996 -21.355  89.741  1.00  0.00     0.086 A 
ATOM     28  F   UNL     1     -77.421 -20.498  87.580  1.00  0.00    -0.204 F 
ATOM     29  Cl  UNL     1     -81.590 -22.212  91.402  1.00  0.00    -0.084 Cl
ATOM     30  C   UNL     1     -79.002 -21.757  90.641  1.00  0.00     0.050 A 
BRANCH  27  31
ATOM     31  N   UNL     1     -76.597 -21.447  90.077  1.00  0.00    -0.281 N 
ATOM     32  H   UNL     1     -76.081 -22.335  89.877  1.00  0.00     0.180 HD
BRANCH  31  33
ATOM     33  S   UNL     1     -75.653 -20.144  90.735  1.00  0.00     0.229 S 
ATOM     34  C   UNL     1     -74.136 -19.957  89.826  1.00  0.00     0.183 C 
ATOM     35  O   UNL     1     -76.445 -18.867  90.713  1.00  0.00    -0.207 OA
ATOM     36  O   UNL     1     -75.313 -20.471  92.160  1.00  0.00    -0.207 OA
ENDBRANCH  31  33
ENDBRANCH  27  31
ENDBRANCH  20  23
BRANCH  21  37
ATOM     37  C   UNL     1     -79.225 -19.260  83.468  1.00  0.00     0.101 C 
ATOM     38  C   UNL     1     -78.072 -18.307  83.789  1.00  0.00     0.033 C 
ATOM     39  C   UNL     1     -80.259 -18.587  82.557  1.00  0.00     0.033 C 
ENDBRANCH  21  37
ENDBRANCH   5  18
TORSDOF 10
ENDMDL
MODEL 8
REMARK VINA RESULT:    -8.760      3.565      7.504
REMARK INTER + INTRA:         -14.547
REMARK INTER:                 -12.950
REMARK INTRA:                  -1.597
REMARK UNBOUND:                -0.666
REMARK SMILES COC(=O)N[C@@H](C)CNc1nccc(-c2cn(C(C)C)nc2-c2cc(Cl)cc(NS(C)(=O)=O)c2F)n1
REMARK SMILES IDX 10 1 11 2 12 3 13 4 14 5 36 6 9 7 8 9 6 10 7 11 5 12 3 13
REMARK SMILES IDX 4 14 2 16 1 17 15 18 16 19 22 20 17 21 21 22 23 23 24 24
REMARK SMILES IDX 34 25 25 26 28 27 35 28 26 29 27 30 29 31 30 33 31 34 32 35
REMARK SMILES IDX 33 36 18 37 19 38 20 39
REMARK H PARENT 9 8 5 15 29 32
REMARK Flexibility Score: inf
ROOT
ATOM      1  C   UNL     1     -79.144 -18.995  83.884  1.00  0.00     0.223 A 
ATOM      2  N   UNL     1     -79.410 -18.190  82.818  1.00  0.00    -0.222 NA
ATOM      3  C   UNL     1     -78.406 -17.707  82.037  1.00  0.00     0.117 A 
ATOM      4  C   UNL     1     -77.079 -18.034  82.324  1.00  0.00     0.049 A 
ATOM      5  C   UNL     1     -76.816 -18.880  83.418  1.00  0.00     0.080 A 
ATOM      6  N   UNL     1     -77.861 -19.338  84.161  1.00  0.00    -0.213 NA
ENDROOT
BRANCH   1   7
ATOM      7  N   UNL     1     -80.201 -19.483  84.719  1.00  0.00    -0.352 N 
ATOM      8  H   UNL     1     -81.178 -19.158  84.532  1.00  0.00     0.163 HD
BRANCH   7   9
ATOM      9  C   UNL     1     -79.970 -20.399  85.836  1.00  0.00     0.140 C 
BRANCH   9  10
ATOM     10  C   UNL     1     -81.305 -20.930  86.389  1.00  0.00     0.101 C 
ATOM     11  C   UNL     1     -82.470 -20.017  85.979  1.00  0.00     0.033 C 
BRANCH  10  12
ATOM     12  N   UNL     1     -81.230 -21.032  87.850  1.00  0.00    -0.317 N 
ATOM     13  C   UNL     1     -81.833 -22.112  88.583  1.00  0.00     0.407 C 
ATOM     14  O   UNL     1     -82.477 -23.020  87.982  1.00  0.00    -0.225 OA
ATOM     15  H   UNL     1     -80.756 -20.279  88.397  1.00  0.00     0.167 HD
BRANCH  13  16
ATOM     16  O   UNL     1     -81.695 -22.149  89.969  1.00  0.00    -0.453 OA
ATOM     17  C   UNL     1     -82.473 -21.347  90.841  1.00  0.00     0.284 C 
ENDBRANCH  13  16
ENDBRANCH  10  12
ENDBRANCH   9  10
ENDBRANCH   7   9
ENDBRANCH   1   7
BRANCH   5  18
ATOM     18  C   UNL     1     -75.436 -19.298  83.768  1.00  0.00     0.047 A 
ATOM     19  C   UNL     1     -74.471 -19.833  82.925  1.00  0.00     0.120 A 
ATOM     20  C   UNL     1     -74.849 -19.337  85.035  1.00  0.00     0.105 A 
ATOM     21  N   UNL     1     -73.392 -20.155  83.669  1.00  0.00    -0.269 N 
ATOM     22  N   UNL     1     -73.620 -19.875  84.948  1.00  0.00    -0.172 NA
BRANCH  20  23
ATOM     23  C   UNL     1     -75.463 -18.945  86.316  1.00  0.00     0.042 A 
ATOM     24  C   UNL     1     -76.119 -19.899  87.106  1.00  0.00     0.034 A 
ATOM     25  C   UNL     1     -75.358 -17.619  86.768  1.00  0.00     0.156 A 
ATOM     26  C   UNL     1     -76.635 -19.540  88.351  1.00  0.00     0.044 A 
ATOM     27  C   UNL     1     -75.874 -17.248  88.024  1.00  0.00     0.086 A 
ATOM     28  F   UNL     1     -74.727 -16.698  85.994  1.00  0.00    -0.204 F 
ATOM     29  Cl  UNL     1     -77.401 -20.755  89.358  1.00  0.00    -0.084 Cl
ATOM     30  C   UNL     1     -76.511 -18.226  88.812  1.00  0.00     0.050 A 
BRANCH  27  31
ATOM     31  N   UNL     1     -75.714 -15.891  88.482  1.00  0.00    -0.281 N 
ATOM     32  H   UNL     1     -76.290 -15.133  88.047  1.00  0.00     0.180 HD
BRANCH  31  33
ATOM     33  S   UNL     1     -74.668 -15.406  89.783  1.00  0.00     0.229 S 
ATOM     34  C   UNL     1     -75.540 -15.458  91.332  1.00  0.00     0.183 C 
ATOM     35  O   UNL     1     -73.453 -16.288  89.828  1.00  0.00    -0.207 OA
ATOM     36  O   UNL     1     -74.223 -13.993  89.538  1.00  0.00    -0.207 OA
ENDBRANCH  31  33
ENDBRANCH  27  31
ENDBRANCH  20  23
BRANCH  21  37
ATOM     37  C   UNL     1     -72.163 -20.778  83.167  1.00  0.00     0.101 C 
ATOM     38  C   UNL     1     -70.989 -20.446  84.090  1.00  0.00     0.033 C 
ATOM     39  C   UNL     1     -71.882 -20.319  81.731  1.00  0.00     0.033 C 
ENDBRANCH  21  37
ENDBRANCH   5  18
TORSDOF 10
ENDMDL
MODEL 9
REMARK VINA RESULT:    -8.755      3.844      8.066
REMARK INTER + INTRA:         -14.539
REMARK INTER:                 -12.611
REMARK INTRA:                  -1.928
REMARK UNBOUND:                -0.666
REMARK SMILES COC(=O)N[C@@H](C)CNc1nccc(-c2cn(C(C)C)nc2-c2cc(Cl)cc(NS(C)(=O)=O)c2F)n1
REMARK SMILES IDX 10 1 11 2 12 3 13 4 14 5 36 6 9 7 8 9 6 10 7 11 5 12 3 13
REMARK SMILES IDX 4 14 2 16 1 17 15 18 16 19 22 20 17 21 21 22 23 23 24 24
REMARK SMILES IDX 34 25 25 26 28 27 35 28 26 29 27 30 29 31 30 33 31 34 32 35
REMARK SMILES IDX 33 36 18 37 19 38 20 39
REMARK H PARENT 9 8 5 15 29 32
REMARK Flexibility Score: inf
ROOT
ATOM      1  C   UNL     1     -78.703 -20.782  88.609  1.00  0.00     0.223 A 
ATOM      2  N   UNL     1     -78.426 -21.842  89.418  1.00  0.00    -0.222 NA
ATOM      3  C   UNL     1     -77.357 -21.822  90.258  1.00  0.00     0.117 A 
ATOM      4  C   UNL     1     -76.522 -20.704  90.300  1.00  0.00     0.049 A 
ATOM      5  C   UNL     1     -76.826 -19.607  89.472  1.00  0.00     0.080 A 
ATOM      6  N   UNL     1     -77.912 -19.681  88.655  1.00  0.00    -0.213 NA
ENDROOT
BRANCH   1   7
ATOM      7  N   UNL     1     -79.815 -20.815  87.707  1.00  0.00    -0.352 N 
ATOM      8  H   UNL     1     -80.738 -21.157  88.062  1.00  0.00     0.163 HD
BRANCH   7   9
ATOM      9  C   UNL     1     -79.710 -20.413  86.305  1.00  0.00     0.140 C 
BRANCH   9  10
ATOM     10  C   UNL     1     -81.100 -20.383  85.642  1.00  0.00     0.101 C 
ATOM     11  C   UNL     1     -81.232 -19.176  84.702  1.00  0.00     0.033 C 
BRANCH  10  12
ATOM     12  N   UNL     1     -82.140 -20.337  86.675  1.00  0.00    -0.317 N 
ATOM     13  C   UNL     1     -83.268 -21.229  86.677  1.00  0.00     0.407 C 
ATOM     14  O   UNL     1     -83.415 -22.087  85.759  1.00  0.00    -0.225 OA
ATOM     15  H   UNL     1     -82.094 -19.612  87.424  1.00  0.00     0.167 HD
BRANCH  13  16
ATOM     16  O   UNL     1     -84.200 -21.138  87.709  1.00  0.00    -0.453 OA
ATOM     17  C   UNL     1     -85.080 -22.197  88.047  1.00  0.00     0.284 C 
ENDBRANCH  13  16
ENDBRANCH  10  12
ENDBRANCH   9  10
ENDBRANCH   7   9
ENDBRANCH   1   7
BRANCH   5  18
ATOM     18  C   UNL     1     -76.005 -18.370  89.482  1.00  0.00     0.047 A 
ATOM     19  C   UNL     1     -76.004 -17.359  90.433  1.00  0.00     0.120 A 
ATOM     20  C   UNL     1     -75.136 -17.912  88.488  1.00  0.00     0.105 A 
ATOM     21  N   UNL     1     -75.177 -16.380  90.009  1.00  0.00    -0.269 N 
ATOM     22  N   UNL     1     -74.663 -16.699  88.826  1.00  0.00    -0.172 NA
BRANCH  20  23
ATOM     23  C   UNL     1     -74.815 -18.570  87.210  1.00  0.00     0.042 A 
ATOM     24  C   UNL     1     -73.637 -19.317  87.077  1.00  0.00     0.034 A 
ATOM     25  C   UNL     1     -75.710 -18.481  86.131  1.00  0.00     0.156 A 
ATOM     26  C   UNL     1     -73.372 -19.998  85.889  1.00  0.00     0.044 A 
ATOM     27  C   UNL     1     -75.452 -19.166  84.929  1.00  0.00     0.086 A 
ATOM     28  F   UNL     1     -76.847 -17.749  86.264  1.00  0.00    -0.204 F 
ATOM     29  Cl  UNL     1     -71.925 -20.979  85.752  1.00  0.00    -0.084 Cl
ATOM     30  C   UNL     1     -74.273 -19.929  84.822  1.00  0.00     0.050 A 
BRANCH  27  31
ATOM     31  N   UNL     1     -76.409 -19.094  83.853  1.00  0.00    -0.281 N 
ATOM     32  H   UNL     1     -77.108 -19.864  83.739  1.00  0.00     0.180 HD
BRANCH  31  33
ATOM     33  S   UNL     1     -76.549 -17.762  82.745  1.00  0.00     0.229 S 
ATOM     34  C   UNL     1     -78.177 -17.719  82.029  1.00  0.00     0.183 C 
ATOM     35  O   UNL     1     -76.245 -16.469  83.447  1.00  0.00    -0.207 OA
ATOM     36  O   UNL     1     -75.551 -17.951  81.640  1.00  0.00    -0.207 OA
ENDBRANCH  31  33
ENDBRANCH  27  31
ENDBRANCH  20  23
BRANCH  21  37
ATOM     37  C   UNL     1     -74.918 -15.117  90.708  1.00  0.00     0.101 C 
ATOM     38  C   UNL     1     -73.762 -14.372  90.038  1.00  0.00     0.033 C 
ATOM     39  C   UNL     1     -74.620 -15.380  92.189  1.00  0.00     0.033 C 
ENDBRANCH  21  37
ENDBRANCH   5  18
TORSDOF 10
ENDMDL
MODEL 10
REMARK VINA RESULT:    -8.738      3.231      7.561
REMARK INTER + INTRA:         -14.513
REMARK INTER:                 -13.117
REMARK INTRA:                  -1.396
REMARK UNBOUND:                -0.666
REMARK SMILES COC(=O)N[C@@H](C)CNc1nccc(-c2cn(C(C)C)nc2-c2cc(Cl)cc(NS(C)(=O)=O)c2F)n1
REMARK SMILES IDX 10 1 11 2 12 3 13 4 14 5 36 6 9 7 8 9 6 10 7 11 5 12 3 13
REMARK SMILES IDX 4 14 2 16 1 17 15 18 16 19 22 20 17 21 21 22 23 23 24 24
REMARK SMILES IDX 34 25 25 26 28 27 35 28 26 29 27 30 29 31 30 33 31 34 32 35
REMARK SMILES IDX 33 36 18 37 19 38 20 39
REMARK H PARENT 9 8 5 15 29 32
REMARK Flexibility Score: inf
ROOT
ATOM      1  C   UNL     1     -80.153 -20.445  86.210  1.00  0.00     0.223 A 
ATOM      2  N   UNL     1     -81.146 -19.827  85.513  1.00  0.00    -0.222 NA
ATOM      3  C   UNL     1     -80.861 -18.905  84.555  1.00  0.00     0.117 A 
ATOM      4  C   UNL     1     -79.532 -18.577  84.274  1.00  0.00     0.049 A 
ATOM      5  C   UNL     1     -78.513 -19.234  84.988  1.00  0.00     0.080 A 
ATOM      6  N   UNL     1     -78.857 -20.152  85.932  1.00  0.00    -0.213 NA
ENDROOT
BRANCH   1   7
ATOM      7  N   UNL     1     -80.456 -21.398  87.236  1.00  0.00    -0.352 N 
ATOM      8  H   UNL     1     -80.817 -22.339  86.954  1.00  0.00     0.163 HD
BRANCH   7   9
ATOM      9  C   UNL     1     -80.303 -21.105  88.660  1.00  0.00     0.140 C 
BRANCH   9  10
ATOM     10  C   UNL     1     -81.626 -21.346  89.411  1.00  0.00     0.101 C 
ATOM     11  C   UNL     1     -81.371 -22.018  90.768  1.00  0.00     0.033 C 
BRANCH  10  12
ATOM     12  N   UNL     1     -82.515 -22.177  88.592  1.00  0.00    -0.317 N 
ATOM     13  C   UNL     1     -83.713 -21.663  87.984  1.00  0.00     0.407 C 
ATOM     14  O   UNL     1     -84.057 -20.458  88.154  1.00  0.00    -0.225 OA
ATOM     15  H   UNL     1     -82.304 -23.192  88.466  1.00  0.00     0.167 HD
BRANCH  13  16
ATOM     16  O   UNL     1     -84.491 -22.512  87.200  1.00  0.00    -0.453 OA
ATOM     17  C   UNL     1     -83.987 -23.177  86.053  1.00  0.00     0.284 C 
ENDBRANCH  13  16
ENDBRANCH  10  12
ENDBRANCH   9  10
ENDBRANCH   7   9
ENDBRANCH   1   7
BRANCH   5  18
ATOM     18  C   UNL     1     -77.077 -18.963  84.726  1.00  0.00     0.047 A 
ATOM     19  C   UNL     1     -76.406 -19.040  83.513  1.00  0.00     0.120 A 
ATOM     20  C   UNL     1     -76.077 -18.675  85.658  1.00  0.00     0.105 A 
ATOM     21  N   UNL     1     -75.097 -18.803  83.738  1.00  0.00    -0.269 N 
ATOM     22  N   UNL     1     -74.887 -18.599  85.034  1.00  0.00    -0.172 NA
BRANCH  20  23
ATOM     23  C   UNL     1     -76.226 -18.546  87.118  1.00  0.00     0.042 A 
ATOM     24  C   UNL     1     -76.505 -19.675  87.901  1.00  0.00     0.034 A 
ATOM     25  C   UNL     1     -76.050 -17.297  87.734  1.00  0.00     0.156 A 
ATOM     26  C   UNL     1     -76.573 -19.562  89.289  1.00  0.00     0.044 A 
ATOM     27  C   UNL     1     -76.115 -17.174  89.134  1.00  0.00     0.086 A 
ATOM     28  F   UNL     1     -75.787 -16.205  86.968  1.00  0.00    -0.204 F 
ATOM     29  Cl  UNL     1     -76.863 -20.991  90.265  1.00  0.00    -0.084 Cl
ATOM     30  C   UNL     1     -76.375 -18.323  89.905  1.00  0.00     0.050 A 
BRANCH  27  31
ATOM     31  N   UNL     1     -75.887 -15.887  89.744  1.00  0.00    -0.281 N 
ATOM     32  H   UNL     1     -76.708 -15.308  90.037  1.00  0.00     0.180 HD
BRANCH  31  33
ATOM     33  S   UNL     1     -74.318 -15.232  90.108  1.00  0.00     0.229 S 
ATOM     34  C   UNL     1     -74.127 -15.023  91.863  1.00  0.00     0.183 C 
ATOM     35  O   UNL     1     -73.243 -16.127  89.559  1.00  0.00    -0.207 OA
ATOM     36  O   UNL     1     -74.199 -13.886  89.455  1.00  0.00    -0.207 OA
ENDBRANCH  31  33
ENDBRANCH  27  31
ENDBRANCH  20  23
BRANCH  21  37
ATOM     37  C   UNL     1     -74.038 -18.823  82.724  1.00  0.00     0.101 C 
ATOM     38  C   UNL     1     -73.528 -20.252  82.523  1.00  0.00     0.033 C 
ATOM     39  C   UNL     1     -72.897 -17.881  83.126  1.00  0.00     0.033 C 
ENDBRANCH  21  37
ENDBRANCH   5  18
TORSDOF 10
ENDMDL
MODEL 11
REMARK VINA RESULT:    -8.728      3.812      7.515
REMARK INTER + INTRA:         -14.497
REMARK INTER:                 -12.819
REMARK INTRA:                  -1.678
REMARK UNBOUND:                -0.666
REMARK SMILES COC(=O)N[C@@H](C)CNc1nccc(-c2cn(C(C)C)nc2-c2cc(Cl)cc(NS(C)(=O)=O)c2F)n1
REMARK SMILES IDX 10 1 11 2 12 3 13 4 14 5 36 6 9 7 8 9 6 10 7 11 5 12 3 13
REMARK SMILES IDX 4 14 2 16 1 17 15 18 16 19 22 20 17 21 21 22 23 23 24 24
REMARK SMILES IDX 34 25 25 26 28 27 35 28 26 29 27 30 29 31 30 33 31 34 32 35
REMARK SMILES IDX 33 36 18 37 19 38 20 39
REMARK H PARENT 9 8 5 15 29 32
REMARK Flexibility Score: inf
ROOT
ATOM      1  C   UNL     1     -79.719 -21.146  89.662  1.00  0.00     0.223 A 
ATOM      2  N   UNL     1     -78.661 -21.835  90.174  1.00  0.00    -0.222 NA
ATOM      3  C   UNL     1     -77.481 -21.907  89.501  1.00  0.00     0.117 A 
ATOM      4  C   UNL     1     -77.340 -21.271  88.266  1.00  0.00     0.049 A 
ATOM      5  C   UNL     1     -78.434 -20.548  87.754  1.00  0.00     0.080 A 
ATOM      6  N   UNL     1     -79.589 -20.506  88.473  1.00  0.00    -0.213 NA
ENDROOT
BRANCH   1   7
ATOM      7  N   UNL     1     -80.969 -21.092  90.360  1.00  0.00    -0.352 N 
ATOM      8  H   UNL     1     -81.160 -20.272  90.982  1.00  0.00     0.163 HD
BRANCH   7   9
ATOM      9  C   UNL     1     -81.980 -22.144  90.258  1.00  0.00     0.140 C 
BRANCH   9  10
ATOM     10  C   UNL     1     -82.940 -21.863  89.086  1.00  0.00     0.101 C 
ATOM     11  C   UNL     1     -82.435 -22.524  87.795  1.00  0.00     0.033 C 
BRANCH  10  12
ATOM     12  N   UNL     1     -83.077 -20.416  88.895  1.00  0.00    -0.317 N 
ATOM     13  C   UNL     1     -84.236 -19.823  88.283  1.00  0.00     0.407 C 
ATOM     14  O   UNL     1     -85.186 -20.545  87.864  1.00  0.00    -0.225 OA
ATOM     15  H   UNL     1     -82.297 -19.780  89.175  1.00  0.00     0.167 HD
BRANCH  13  16
ATOM     16  O   UNL     1     -84.300 -18.436  88.161  1.00  0.00    -0.453 OA
ATOM     17  C   UNL     1     -85.466 -17.690  88.470  1.00  0.00     0.284 C 
ENDBRANCH  13  16
ENDBRANCH  10  12
ENDBRANCH   9  10
ENDBRANCH   7   9
ENDBRANCH   1   7
BRANCH   5  18
ATOM     18  C   UNL     1     -78.353 -19.819  86.464  1.00  0.00     0.047 A 
ATOM     19  C   UNL     1     -79.183 -19.951  85.360  1.00  0.00     0.120 A 
ATOM     20  C   UNL     1     -77.366 -18.921  86.049  1.00  0.00     0.105 A 
ATOM     21  N   UNL     1     -78.701 -19.170  84.371  1.00  0.00    -0.269 N 
ATOM     22  N   UNL     1     -77.593 -18.557  84.774  1.00  0.00    -0.172 NA
BRANCH  20  23
ATOM     23  C   UNL     1     -76.189 -18.471  86.813  1.00  0.00     0.042 A 
ATOM     24  C   UNL     1     -76.256 -17.306  87.591  1.00  0.00     0.034 A 
ATOM     25  C   UNL     1     -75.008 -19.230  86.795  1.00  0.00     0.156 A 
ATOM     26  C   UNL     1     -75.164 -16.923  88.370  1.00  0.00     0.044 A 
ATOM     27  C   UNL     1     -73.902 -18.852  87.579  1.00  0.00     0.086 A 
ATOM     28  F   UNL     1     -74.948 -20.354  86.033  1.00  0.00    -0.204 F 
ATOM     29  Cl  UNL     1     -75.278 -15.498  89.386  1.00  0.00    -0.084 Cl
ATOM     30  C   UNL     1     -73.996 -17.691  88.370  1.00  0.00     0.050 A 
BRANCH  27  31
ATOM     31  N   UNL     1     -72.717 -19.674  87.575  1.00  0.00    -0.281 N 
ATOM     32  H   UNL     1     -72.244 -19.883  86.666  1.00  0.00     0.180 HD
BRANCH  31  33
ATOM     33  S   UNL     1     -71.947 -20.301  89.002  1.00  0.00     0.229 S 
ATOM     34  C   UNL     1     -73.155 -20.632  90.264  1.00  0.00     0.183 C 
ATOM     35  O   UNL     1     -71.174 -21.545  88.669  1.00  0.00    -0.207 OA
ATOM     36  O   UNL     1     -70.990 -19.268  89.522  1.00  0.00    -0.207 OA
ENDBRANCH  31  33
ENDBRANCH  27  31
ENDBRANCH  20  23
BRANCH  21  37
ATOM     37  C   UNL     1     -79.269 -19.047  83.025  1.00  0.00     0.101 C 
ATOM     38  C   UNL     1     -78.530 -17.962  82.239  1.00  0.00     0.033 C 
ATOM     39  C   UNL     1     -80.769 -18.744  83.105  1.00  0.00     0.033 C 
ENDBRANCH  21  37
ENDBRANCH   5  18
TORSDOF 10
ENDMDL
MODEL 12
REMARK VINA RESULT:    -8.707      4.936      8.233
REMARK INTER + INTRA:         -14.464
REMARK INTER:                 -12.943
REMARK INTRA:                  -1.522
REMARK UNBOUND:                -0.666
REMARK SMILES COC(=O)N[C@@H](C)CNc1nccc(-c2cn(C(C)C)nc2-c2cc(Cl)cc(NS(C)(=O)=O)c2F)n1
REMARK SMILES IDX 10 1 11 2 12 3 13 4 14 5 36 6 9 7 8 9 6 10 7 11 5 12 3 13
REMARK SMILES IDX 4 14 2 16 1 17 15 18 16 19 22 20 17 21 21 22 23 23 24 24
REMARK SMILES IDX 34 25 25 26 28 27 35 28 26 29 27 30 29 31 30 33 31 34 32 35
REMARK SMILES IDX 33 36 18 37 19 38 20 39
REMARK H PARENT 9 8 5 15 29 32
REMARK Flexibility Score: inf
ROOT
ATOM      1  C   UNL     1     -77.355 -17.984  82.423  1.00  0.00     0.223 A 
ATOM      2  N   UNL     1     -78.485 -17.716  81.711  1.00  0.00    -0.222 NA
ATOM      3  C   UNL     1     -79.709 -18.090  82.172  1.00  0.00     0.117 A 
ATOM      4  C   UNL     1     -79.821 -18.760  83.392  1.00  0.00     0.049 A 
ATOM      5  C   UNL     1     -78.649 -19.017  84.128  1.00  0.00     0.080 A 
ATOM      6  N   UNL     1     -77.452 -18.616  83.620  1.00  0.00    -0.213 NA
ENDROOT
BRANCH   1   7
ATOM      7  N   UNL     1     -76.065 -17.612  81.924  1.00  0.00    -0.352 N 
ATOM      8  H   UNL     1     -76.007 -16.866  81.192  1.00  0.00     0.163 HD
BRANCH   7   9
ATOM      9  C   UNL     1     -74.827 -18.244  82.378  1.00  0.00     0.140 C 
BRANCH   9  10
ATOM     10  C   UNL     1     -73.607 -17.616  81.679  1.00  0.00     0.101 C 
ATOM     11  C   UNL     1     -72.575 -18.690  81.308  1.00  0.00     0.033 C 
BRANCH  10  12
ATOM     12  N   UNL     1     -72.998 -16.610  82.557  1.00  0.00    -0.317 N 
ATOM     13  C   UNL     1     -72.286 -15.469  82.048  1.00  0.00     0.407 C 
ATOM     14  O   UNL     1     -72.141 -15.301  80.803  1.00  0.00    -0.225 OA
ATOM     15  H   UNL     1     -73.044 -16.731  83.592  1.00  0.00     0.167 HD
BRANCH  13  16
ATOM     16  O   UNL     1     -71.759 -14.545  82.948  1.00  0.00    -0.453 OA
ATOM     17  C   UNL     1     -72.171 -13.189  82.988  1.00  0.00     0.284 C 
ENDBRANCH  13  16
ENDBRANCH  10  12
ENDBRANCH   9  10
ENDBRANCH   7   9
ENDBRANCH   1   7
BRANCH   5  18
ATOM     18  C   UNL     1     -78.689 -19.696  85.447  1.00  0.00     0.047 A 
ATOM     19  C   UNL     1     -79.778 -20.303  86.058  1.00  0.00     0.120 A 
ATOM     20  C   UNL     1     -77.668 -19.781  86.397  1.00  0.00     0.105 A 
ATOM     21  N   UNL     1     -79.399 -20.715  87.286  1.00  0.00    -0.269 N 
ATOM     22  N   UNL     1     -78.131 -20.387  87.505  1.00  0.00    -0.172 NA
BRANCH  20  23
ATOM     23  C   UNL     1     -76.304 -19.235  86.293  1.00  0.00     0.042 A 
ATOM     24  C   UNL     1     -75.273 -20.010  85.743  1.00  0.00     0.034 A 
ATOM     25  C   UNL     1     -76.040 -17.920  86.710  1.00  0.00     0.156 A 
ATOM     26  C   UNL     1     -74.000 -19.464  85.579  1.00  0.00     0.044 A 
ATOM     27  C   UNL     1     -74.759 -17.361  86.547  1.00  0.00     0.086 A 
ATOM     28  F   UNL     1     -77.042 -17.177  87.249  1.00  0.00    -0.204 F 
ATOM     29  Cl  UNL     1     -72.732 -20.422  84.835  1.00  0.00    -0.084 Cl
ATOM     30  C   UNL     1     -73.742 -18.148  85.973  1.00  0.00     0.050 A 
BRANCH  27  31
ATOM     31  N   UNL     1     -74.527 -15.994  86.944  1.00  0.00    -0.281 N 
ATOM     32  H   UNL     1     -75.006 -15.223  86.422  1.00  0.00     0.180 HD
BRANCH  31  33
ATOM     33  S   UNL     1     -73.551 -15.511  88.298  1.00  0.00     0.229 S 
ATOM     34  C   UNL     1     -74.546 -14.682  89.516  1.00  0.00     0.183 C 
ATOM     35  O   UNL     1     -72.866 -16.707  88.896  1.00  0.00    -0.207 OA
ATOM     36  O   UNL     1     -72.501 -14.553  87.813  1.00  0.00    -0.207 OA
ENDBRANCH  31  33
ENDBRANCH  27  31
ENDBRANCH  20  23
BRANCH  21  37
ATOM     37  C   UNL     1     -80.263 -21.375  88.270  1.00  0.00     0.101 C 
ATOM     38  C   UNL     1     -81.716 -20.935  88.074  1.00  0.00     0.033 C 
ATOM     39  C   UNL     1     -79.781 -21.069  89.692  1.00  0.00     0.033 C 
ENDBRANCH  21  37
ENDBRANCH   5  18
TORSDOF 10
ENDMDL
MODEL 13
REMARK VINA RESULT:    -8.694      3.195      7.617
REMARK INTER + INTRA:         -14.442
REMARK INTER:                 -12.638
REMARK INTRA:                  -1.804
REMARK UNBOUND:                -0.666
REMARK SMILES COC(=O)N[C@@H](C)CNc1nccc(-c2cn(C(C)C)nc2-c2cc(Cl)cc(NS(C)(=O)=O)c2F)n1
REMARK SMILES IDX 10 1 11 2 12 3 13 4 14 5 36 6 9 7 8 9 6 10 7 11 5 12 3 13
REMARK SMILES IDX 4 14 2 16 1 17 15 18 16 19 22 20 17 21 21 22 23 23 24 24
REMARK SMILES IDX 34 25 25 26 28 27 35 28 26 29 27 30 29 31 30 33 31 34 32 35
REMARK SMILES IDX 33 36 18 37 19 38 20 39
REMARK H PARENT 9 8 5 15 29 32
REMARK Flexibility Score: inf
ROOT
ATOM      1  C   UNL     1     -78.846 -20.726  87.691  1.00  0.00     0.223 A 
ATOM      2  N   UNL     1     -79.013 -21.663  88.665  1.00  0.00    -0.222 NA
ATOM      3  C   UNL     1     -78.286 -21.617  89.814  1.00  0.00     0.117 A 
ATOM      4  C   UNL     1     -77.350 -20.599  90.008  1.00  0.00     0.049 A 
ATOM      5  C   UNL     1     -77.198 -19.625  89.003  1.00  0.00     0.080 A 
ATOM      6  N   UNL     1     -77.956 -19.719  87.877  1.00  0.00    -0.213 NA
ENDROOT
BRANCH   1   7
ATOM      7  N   UNL     1     -79.595 -20.790  86.472  1.00  0.00    -0.352 N 
ATOM      8  H   UNL     1     -79.147 -21.223  85.631  1.00  0.00     0.163 HD
BRANCH   7   9
ATOM      9  C   UNL     1     -80.951 -20.258  86.346  1.00  0.00     0.140 C 
BRANCH   9  10
ATOM     10  C   UNL     1     -81.966 -21.182  87.044  1.00  0.00     0.101 C 
ATOM     11  C   UNL     1     -82.285 -22.404  86.169  1.00  0.00     0.033 C 
BRANCH  10  12
ATOM     12  N   UNL     1     -83.194 -20.436  87.339  1.00  0.00    -0.317 N 
ATOM     13  C   UNL     1     -83.591 -20.101  88.680  1.00  0.00     0.407 C 
ATOM     14  O   UNL     1     -82.893 -20.462  89.670  1.00  0.00    -0.225 OA
ATOM     15  H   UNL     1     -83.833 -20.161  86.561  1.00  0.00     0.167 HD
BRANCH  13  16
ATOM     16  O   UNL     1     -84.760 -19.367  88.875  1.00  0.00    -0.453 OA
ATOM     17  C   UNL     1     -84.992 -18.111  88.258  1.00  0.00     0.284 C 
ENDBRANCH  13  16
ENDBRANCH  10  12
ENDBRANCH   9  10
ENDBRANCH   7   9
ENDBRANCH   1   7
BRANCH   5  18
ATOM     18  C   UNL     1     -76.247 -18.494  89.149  1.00  0.00     0.047 A 
ATOM     19  C   UNL     1     -76.054 -17.685  90.260  1.00  0.00     0.120 A 
ATOM     20  C   UNL     1     -75.420 -17.941  88.169  1.00  0.00     0.105 A 
ATOM     21  N   UNL     1     -75.163 -16.726  89.935  1.00  0.00    -0.269 N 
ATOM     22  N   UNL     1     -74.789 -16.863  88.668  1.00  0.00    -0.172 NA
BRANCH  20  23
ATOM     23  C   UNL     1     -75.283 -18.372  86.767  1.00  0.00     0.042 A 
ATOM     24  C   UNL     1     -74.261 -19.259  86.399  1.00  0.00     0.034 A 
ATOM     25  C   UNL     1     -76.200 -17.926  85.802  1.00  0.00     0.156 A 
ATOM     26  C   UNL     1     -74.178 -19.723  85.086  1.00  0.00     0.044 A 
ATOM     27  C   UNL     1     -76.125 -18.390  84.475  1.00  0.00     0.086 A 
ATOM     28  F   UNL     1     -77.184 -17.062  86.165  1.00  0.00    -0.204 F 
ATOM     29  Cl  UNL     1     -72.933 -20.877  84.648  1.00  0.00    -0.084 Cl
ATOM     30  C   UNL     1     -75.105 -19.297  84.130  1.00  0.00     0.050 A 
BRANCH  27  31
ATOM     31  N   UNL     1     -77.107 -17.950  83.515  1.00  0.00    -0.281 N 
ATOM     32  H   UNL     1     -76.839 -17.231  82.804  1.00  0.00     0.180 HD
BRANCH  31  33
ATOM     33  S   UNL     1     -78.720 -18.587  83.391  1.00  0.00     0.229 S 
ATOM     34  C   UNL     1     -79.515 -17.978  81.922  1.00  0.00     0.183 C 
ATOM     35  O   UNL     1     -78.685 -20.089  83.392  1.00  0.00    -0.207 OA
ATOM     36  O   UNL     1     -79.509 -18.127  84.582  1.00  0.00    -0.207 OA
ENDBRANCH  31  33
ENDBRANCH  27  31
ENDBRANCH  20  23
BRANCH  21  37
ATOM     37  C   UNL     1     -74.708 -15.647  90.819  1.00  0.00     0.101 C 
ATOM     38  C   UNL     1     -75.803 -15.296  91.828  1.00  0.00     0.033 C 
ATOM     39  C   UNL     1     -74.304 -14.419  89.995  1.00  0.00     0.033 C 
ENDBRANCH  21  37
ENDBRANCH   5  18
TORSDOF 10
ENDMDL
MODEL 14
REMARK VINA RESULT:    -8.680      1.543      2.142
REMARK INTER + INTRA:         -14.421
REMARK INTER:                 -13.990
REMARK INTRA:                  -0.431
REMARK UNBOUND:                -0.666
REMARK SMILES COC(=O)N[C@@H](C)CNc1nccc(-c2cn(C(C)C)nc2-c2cc(Cl)cc(NS(C)(=O)=O)c2F)n1
REMARK SMILES IDX 10 1 11 2 12 3 13 4 14 5 36 6 9 7 8 9 6 10 7 11 5 12 3 13
REMARK SMILES IDX 4 14 2 16 1 17 15 18 16 19 22 20 17 21 21 22 23 23 24 24
REMARK SMILES IDX 34 25 25 26 28 27 35 28 26 29 27 30 29 31 30 33 31 34 32 35
REMARK SMILES IDX 33 36 18 37 19 38 20 39
REMARK H PARENT 9 8 5 15 29 32
REMARK Flexibility Score: inf
ROOT
ATOM      1  C   UNL     1     -75.656 -17.184  88.549  1.00  0.00     0.223 A 
ATOM      2  N   UNL     1     -74.566 -17.969  88.772  1.00  0.00    -0.222 NA
ATOM      3  C   UNL     1     -74.392 -19.136  88.095  1.00  0.00     0.117 A 
ATOM      4  C   UNL     1     -75.340 -19.546  87.154  1.00  0.00     0.049 A 
ATOM      5  C   UNL     1     -76.454 -18.719  86.919  1.00  0.00     0.080 A 
ATOM      6  N   UNL     1     -76.574 -17.560  87.623  1.00  0.00    -0.213 NA
ENDROOT
BRANCH   1   7
ATOM      7  N   UNL     1     -75.850 -15.969  89.281  1.00  0.00    -0.352 N 
ATOM      8  H   UNL     1     -76.828 -15.637  89.452  1.00  0.00     0.163 HD
BRANCH   7   9
ATOM      9  C   UNL     1     -74.739 -15.160  89.782  1.00  0.00     0.140 C 
BRANCH   9  10
ATOM     10  C   UNL     1     -74.537 -15.388  91.291  1.00  0.00     0.101 C 
ATOM     11  C   UNL     1     -75.886 -15.434  92.024  1.00  0.00     0.033 C 
BRANCH  10  12
ATOM     12  N   UNL     1     -73.696 -14.321  91.845  1.00  0.00    -0.317 N 
ATOM     13  C   UNL     1     -72.269 -14.448  91.972  1.00  0.00     0.407 C 
ATOM     14  O   UNL     1     -71.682 -15.512  91.622  1.00  0.00    -0.225 OA
ATOM     15  H   UNL     1     -74.138 -13.444  92.198  1.00  0.00     0.167 HD
BRANCH  13  16
ATOM     16  O   UNL     1     -71.538 -13.378  92.485  1.00  0.00    -0.453 OA
ATOM     17  C   UNL     1     -72.051 -12.500  93.473  1.00  0.00     0.284 C 
ENDBRANCH  13  16
ENDBRANCH  10  12
ENDBRANCH   9  10
ENDBRANCH   7   9
ENDBRANCH   1   7
BRANCH   5  18
ATOM     18  C   UNL     1     -77.488 -19.070  85.913  1.00  0.00     0.047 A 
ATOM     19  C   UNL     1     -77.566 -18.649  84.593  1.00  0.00     0.120 A 
ATOM     20  C   UNL     1     -78.654 -19.814  86.110  1.00  0.00     0.105 A 
ATOM     21  N   UNL     1     -78.711 -19.129  84.063  1.00  0.00    -0.269 N 
ATOM     22  N   UNL     1     -79.382 -19.820  84.978  1.00  0.00    -0.172 NA
BRANCH  20  23
ATOM     23  C   UNL     1     -79.111 -20.446  87.360  1.00  0.00     0.042 A 
ATOM     24  C   UNL     1     -78.291 -20.437  88.496  1.00  0.00     0.034 A 
ATOM     25  C   UNL     1     -80.389 -21.025  87.427  1.00  0.00     0.156 A 
ATOM     26  C   UNL     1     -78.756 -20.971  89.697  1.00  0.00     0.044 A 
ATOM     27  C   UNL     1     -80.867 -21.565  88.636  1.00  0.00     0.086 A 
ATOM     28  F   UNL     1     -81.177 -21.035  86.320  1.00  0.00    -0.204 F 
ATOM     29  Cl  UNL     1     -77.745 -20.903  91.129  1.00  0.00    -0.084 Cl
ATOM     30  C   UNL     1     -80.036 -21.527  89.771  1.00  0.00     0.050 A 
BRANCH  27  31
ATOM     31  N   UNL     1     -82.200 -22.113  88.688  1.00  0.00    -0.281 N 
ATOM     32  H   UNL     1     -82.343 -23.128  88.478  1.00  0.00     0.180 HD
BRANCH  31  33
ATOM     33  S   UNL     1     -83.617 -21.220  89.154  1.00  0.00     0.229 S 
ATOM     34  C   UNL     1     -85.025 -21.752  88.208  1.00  0.00     0.183 C 
ATOM     35  O   UNL     1     -83.873 -21.385  90.625  1.00  0.00    -0.207 OA
ATOM     36  O   UNL     1     -83.379 -19.765  88.872  1.00  0.00    -0.207 OA
ENDBRANCH  31  33
ENDBRANCH  27  31
ENDBRANCH  20  23
BRANCH  21  37
ATOM     37  C   UNL     1     -79.188 -18.886  82.698  1.00  0.00     0.101 C 
ATOM     38  C   UNL     1     -78.396 -17.743  82.059  1.00  0.00     0.033 C 
ATOM     39  C   UNL     1     -80.690 -18.579  82.706  1.00  0.00     0.033 C 
ENDBRANCH  21  37
ENDBRANCH   5  18
TORSDOF 10
ENDMDL
MODEL 15
REMARK VINA RESULT:    -8.668      3.823      6.683
REMARK INTER + INTRA:         -14.401
REMARK INTER:                 -12.943
REMARK INTRA:                  -1.458
REMARK UNBOUND:                -0.666
REMARK SMILES COC(=O)N[C@@H](C)CNc1nccc(-c2cn(C(C)C)nc2-c2cc(Cl)cc(NS(C)(=O)=O)c2F)n1
REMARK SMILES IDX 10 1 11 2 12 3 13 4 14 5 36 6 9 7 8 9 6 10 7 11 5 12 3 13
REMARK SMILES IDX 4 14 2 16 1 17 15 18 16 19 22 20 17 21 21 22 23 23 24 24
REMARK SMILES IDX 34 25 25 26 28 27 35 28 26 29 27 30 29 31 30 33 31 34 32 35
REMARK SMILES IDX 33 36 18 37 19 38 20 39
REMARK H PARENT 9 8 5 15 29 32
REMARK Flexibility Score: inf
ROOT
ATOM      1  C   UNL     1     -76.457 -18.868  83.666  1.00  0.00     0.223 A 
ATOM      2  N   UNL     1     -77.120 -18.209  82.675  1.00  0.00    -0.222 NA
ATOM      3  C   UNL     1     -78.478 -18.139  82.669  1.00  0.00     0.117 A 
ATOM      4  C   UNL     1     -79.215 -18.748  83.687  1.00  0.00     0.049 A 
ATOM      5  C   UNL     1     -78.519 -19.411  84.715  1.00  0.00     0.080 A 
ATOM      6  N   UNL     1     -77.159 -19.446  84.673  1.00  0.00    -0.213 NA
ENDROOT
BRANCH   1   7
ATOM      7  N   UNL     1     -75.027 -18.962  83.658  1.00  0.00    -0.352 N 
ATOM      8  H   UNL     1     -74.538 -19.227  84.544  1.00  0.00     0.163 HD
BRANCH   7   9
ATOM      9  C   UNL     1     -74.221 -18.682  82.470  1.00  0.00     0.140 C 
BRANCH   9  10
ATOM     10  C   UNL     1     -73.879 -17.183  82.385  1.00  0.00     0.101 C 
ATOM     11  C   UNL     1     -73.103 -16.871  81.097  1.00  0.00     0.033 C 
BRANCH  10  12
ATOM     12  N   UNL     1     -73.094 -16.787  83.559  1.00  0.00    -0.317 N 
ATOM     13  C   UNL     1     -73.687 -16.169  84.713  1.00  0.00     0.407 C 
ATOM     14  O   UNL     1     -74.927 -15.924  84.750  1.00  0.00    -0.225 OA
ATOM     15  H   UNL     1     -72.058 -16.919  83.556  1.00  0.00     0.167 HD
BRANCH  13  16
ATOM     16  O   UNL     1     -72.875 -15.845  85.799  1.00  0.00    -0.453 OA
ATOM     17  C   UNL     1     -72.449 -16.803  86.754  1.00  0.00     0.284 C 
ENDBRANCH  13  16
ENDBRANCH  10  12
ENDBRANCH   9  10
ENDBRANCH   7   9
ENDBRANCH   1   7
BRANCH   5  18
ATOM     18  C   UNL     1     -79.229 -20.056  85.848  1.00  0.00     0.047 A 
ATOM     19  C   UNL     1     -80.493 -20.629  85.843  1.00  0.00     0.120 A 
ATOM     20  C   UNL     1     -78.819 -20.133  87.181  1.00  0.00     0.105 A 
ATOM     21  N   UNL     1     -80.787 -21.016  87.102  1.00  0.00    -0.269 N 
ATOM     22  N   UNL     1     -79.788 -20.704  87.920  1.00  0.00    -0.172 NA
BRANCH  20  23
ATOM     23  C   UNL     1     -77.569 -19.613  87.764  1.00  0.00     0.042 A 
ATOM     24  C   UNL     1     -77.241 -18.257  87.632  1.00  0.00     0.034 A 
ATOM     25  C   UNL     1     -76.722 -20.469  88.486  1.00  0.00     0.156 A 
ATOM     26  C   UNL     1     -76.095 -17.753  88.247  1.00  0.00     0.044 A 
ATOM     27  C   UNL     1     -75.564 -19.968  89.111  1.00  0.00     0.086 A 
ATOM     28  F   UNL     1     -77.043 -21.784  88.604  1.00  0.00    -0.204 F 
ATOM     29  Cl  UNL     1     -75.723 -16.043  88.127  1.00  0.00    -0.084 Cl
ATOM     30  C   UNL     1     -75.263 -18.599  88.986  1.00  0.00     0.050 A 
BRANCH  27  31
ATOM     31  N   UNL     1     -74.736 -20.860  89.884  1.00  0.00    -0.281 N 
ATOM     32  H   UNL     1     -73.938 -21.350  89.417  1.00  0.00     0.180 HD
BRANCH  31  33
ATOM     33  S   UNL     1     -74.912 -21.140  91.591  1.00  0.00     0.229 S 
ATOM     34  C   UNL     1     -73.536 -22.081  92.210  1.00  0.00     0.183 C 
ATOM     35  O   UNL     1     -75.031 -19.832  92.321  1.00  0.00    -0.207 OA
ATOM     36  O   UNL     1     -76.167 -21.930  91.819  1.00  0.00    -0.207 OA
ENDBRANCH  31  33
ENDBRANCH  27  31
ENDBRANCH  20  23
BRANCH  21  37
ATOM     37  C   UNL     1     -82.044 -21.637  87.533  1.00  0.00     0.101 C 
ATOM     38  C   UNL     1     -81.874 -22.260  88.921  1.00  0.00     0.033 C 
ATOM     39  C   UNL     1     -82.499 -22.684  86.511  1.00  0.00     0.033 C 
ENDBRANCH  21  37
ENDBRANCH   5  18
TORSDOF 10
ENDMDL
