MODEL 1
REMARK VINA RESULT:    -8.839      0.000      0.000
REMARK INTER + INTRA:         -12.301
REMARK INTER:                 -11.682
REMARK INTRA:                  -0.619
REMARK UNBOUND:                -0.619
REMARK SMILES CC(=O)Oc1cccc2c1C(=O)c1c(OC(C)=O)cc(C(=O)O)cc1C2=O
REMARK SMILES IDX 5 1 6 2 7 3 8 4 9 5 10 6 11 7 12 8 13 9 14 10 19 11 20 12
REMARK SMILES IDX 24 13 25 14 26 15 27 16 4 17 2 18 1 19 3 20 15 21 16 22
REMARK SMILES IDX 17 23 18 24 21 25 22 26 23 27
REMARK H PARENT 23 28
REMARK Flexibility Score: inf
ROOT
ATOM      1  C   UNL     1      12.021  79.490  -1.741  1.00  0.00     0.142 A 
ATOM      2  C   UNL     1      12.297  80.799  -1.337  1.00  0.00     0.048 A 
ATOM      3  C   UNL     1      11.375  81.514  -0.575  1.00  0.00     0.005 A 
ATOM      4  C   UNL     1      10.165  80.925  -0.208  1.00  0.00     0.013 A 
ATOM      5  C   UNL     1       9.851  79.621  -0.626  1.00  0.00     0.037 A 
ATOM      6  C   UNL     1      10.767  78.904  -1.428  1.00  0.00     0.077 A 
ATOM      7  C   UNL     1      10.363  77.582  -1.968  1.00  0.00     0.202 C 
ATOM      8  O   UNL     1      10.941  77.117  -2.988  1.00  0.00    -0.288 OA
ATOM      9  C   UNL     1       9.205  76.861  -1.380  1.00  0.00     0.077 A 
ATOM     10  C   UNL     1       8.963  75.493  -1.649  1.00  0.00     0.143 A 
ATOM     11  C   UNL     1       7.785  74.890  -1.196  1.00  0.00     0.063 A 
ATOM     12  C   UNL     1       6.860  75.606  -0.424  1.00  0.00     0.064 A 
ATOM     13  C   UNL     1       7.129  76.946  -0.107  1.00  0.00     0.029 A 
ATOM     14  C   UNL     1       8.293  77.578  -0.576  1.00  0.00     0.038 A 
ATOM     15  C   UNL     1       8.566  78.995  -0.234  1.00  0.00     0.194 C 
ATOM     16  O   UNL     1       7.711  79.666   0.408  1.00  0.00    -0.289 OA
ENDROOT
BRANCH   1  17
ATOM     17  O   UNL     1      13.010  78.793  -2.444  1.00  0.00    -0.426 OA
BRANCH  17  18
ATOM     18  C   UNL     1      13.931  79.427  -3.286  1.00  0.00     0.308 C 
ATOM     19  C   UNL     1      13.484  79.925  -4.618  1.00  0.00     0.139 C 
ATOM     20  O   UNL     1      15.117  79.629  -2.908  1.00  0.00    -0.252 OA
ENDBRANCH  17  18
ENDBRANCH   1  17
BRANCH  10  21
ATOM     21  O   UNL     1       9.875  74.703  -2.360  1.00  0.00    -0.426 OA
BRANCH  21  22
ATOM     22  C   UNL     1       9.759  73.312  -2.460  1.00  0.00     0.308 C 
ATOM     23  C   UNL     1       9.338  72.704  -3.754  1.00  0.00     0.139 C 
ATOM     24  O   UNL     1      10.034  72.570  -1.478  1.00  0.00    -0.252 OA
ENDBRANCH  21  22
ENDBRANCH  10  21
BRANCH  12  25
ATOM     25  C   UNL     1       5.623  74.956   0.065  1.00  0.00     0.335 C 
ATOM     26  O   UNL     1       4.508  75.233  -0.455  1.00  0.00    -0.246 OA
BRANCH  25  27
ATOM     27  O   UNL     1       5.678  74.033   1.106  1.00  0.00    -0.478 OA
ATOM     28  H   UNL     1       4.844  73.781   1.624  1.00  0.00     0.297 HD
ENDBRANCH  25  27
ENDBRANCH  12  25
TORSDOF 6
ENDMDL
MODEL 2
REMARK VINA RESULT:    -8.790      1.988      7.426
REMARK INTER + INTRA:         -12.235
REMARK INTER:                 -11.783
REMARK INTRA:                  -0.452
REMARK UNBOUND:                -0.619
REMARK SMILES CC(=O)Oc1cccc2c1C(=O)c1c(OC(C)=O)cc(C(=O)O)cc1C2=O
REMARK SMILES IDX 5 1 6 2 7 3 8 4 9 5 10 6 11 7 12 8 13 9 14 10 19 11 20 12
REMARK SMILES IDX 24 13 25 14 26 15 27 16 4 17 2 18 1 19 3 20 15 21 16 22
REMARK SMILES IDX 17 23 18 24 21 25 22 26 23 27
REMARK H PARENT 23 28
REMARK Flexibility Score: inf
ROOT
ATOM      1  C   UNL     1       7.331  77.376  -0.015  1.00  0.00     0.142 A 
ATOM      2  C   UNL     1       6.558  76.223   0.143  1.00  0.00     0.048 A 
ATOM      3  C   UNL     1       6.872  75.058  -0.554  1.00  0.00     0.005 A 
ATOM      4  C   UNL     1       7.967  75.034  -1.418  1.00  0.00     0.013 A 
ATOM      5  C   UNL     1       8.744  76.188  -1.616  1.00  0.00     0.037 A 
ATOM      6  C   UNL     1       8.409  77.381  -0.939  1.00  0.00     0.077 A 
ATOM      7  C   UNL     1       9.158  78.621  -1.261  1.00  0.00     0.202 C 
ATOM      8  O   UNL     1       8.644  79.747  -1.018  1.00  0.00    -0.288 OA
ATOM      9  C   UNL     1      10.460  78.539  -1.972  1.00  0.00     0.077 A 
ATOM     10  C   UNL     1      11.344  79.643  -2.040  1.00  0.00     0.143 A 
ATOM     11  C   UNL     1      12.488  79.573  -2.840  1.00  0.00     0.063 A 
ATOM     12  C   UNL     1      12.809  78.399  -3.537  1.00  0.00     0.064 A 
ATOM     13  C   UNL     1      11.963  77.285  -3.422  1.00  0.00     0.029 A 
ATOM     14  C   UNL     1      10.794  77.345  -2.645  1.00  0.00     0.038 A 
ATOM     15  C   UNL     1       9.908  76.161  -2.532  1.00  0.00     0.194 C 
ATOM     16  O   UNL     1      10.156  75.121  -3.204  1.00  0.00    -0.289 OA
ENDROOT
BRANCH   1  17
ATOM     17  O   UNL     1       7.014  78.496   0.762  1.00  0.00    -0.426 OA
BRANCH  17  18
ATOM     18  C   UNL     1       5.777  78.652   1.397  1.00  0.00     0.308 C 
ATOM     19  C   UNL     1       5.497  77.897   2.651  1.00  0.00     0.139 C 
ATOM     20  O   UNL     1       4.921  79.462   0.951  1.00  0.00    -0.252 OA
ENDBRANCH  17  18
ENDBRANCH   1  17
BRANCH  10  21
ATOM     21  O   UNL     1      11.116  80.822  -1.320  1.00  0.00    -0.426 OA
BRANCH  21  22
ATOM     22  C   UNL     1      11.692  81.072  -0.069  1.00  0.00     0.308 C 
ATOM     23  C   UNL     1      10.842  81.605   1.033  1.00  0.00     0.139 C 
ATOM     24  O   UNL     1      12.910  80.824   0.141  1.00  0.00    -0.252 OA
ENDBRANCH  21  22
ENDBRANCH  10  21
BRANCH  12  25
ATOM     25  C   UNL     1      14.032  78.327  -4.370  1.00  0.00     0.335 C 
ATOM     26  O   UNL     1      14.841  79.293  -4.400  1.00  0.00    -0.246 OA
BRANCH  25  27
ATOM     27  O   UNL     1      14.298  77.191  -5.130  1.00  0.00    -0.478 OA
ATOM     28  H   UNL     1      13.791  76.329  -4.974  1.00  0.00     0.297 HD
ENDBRANCH  25  27
ENDBRANCH  12  25
TORSDOF 6
ENDMDL
MODEL 3
REMARK VINA RESULT:    -8.705      1.971      7.532
REMARK INTER + INTRA:         -12.123
REMARK INTER:                 -11.563
REMARK INTRA:                  -0.560
REMARK UNBOUND:                -0.619
REMARK SMILES CC(=O)Oc1cccc2c1C(=O)c1c(OC(C)=O)cc(C(=O)O)cc1C2=O
REMARK SMILES IDX 5 1 6 2 7 3 8 4 9 5 10 6 11 7 12 8 13 9 14 10 19 11 20 12
REMARK SMILES IDX 24 13 25 14 26 15 27 16 4 17 2 18 1 19 3 20 15 21 16 22
REMARK SMILES IDX 17 23 18 24 21 25 22 26 23 27
REMARK H PARENT 23 28
REMARK Flexibility Score: inf
ROOT
ATOM      1  C   UNL     1       7.609  77.474  -0.236  1.00  0.00     0.142 A 
ATOM      2  C   UNL     1       6.886  76.278  -0.229  1.00  0.00     0.048 A 
ATOM      3  C   UNL     1       7.304  75.195  -1.000  1.00  0.00     0.005 A 
ATOM      4  C   UNL     1       8.452  75.296  -1.785  1.00  0.00     0.013 A 
ATOM      5  C   UNL     1       9.180  76.497  -1.831  1.00  0.00     0.037 A 
ATOM      6  C   UNL     1       8.742  77.610  -1.079  1.00  0.00     0.077 A 
ATOM      7  C   UNL     1       9.447  78.906  -1.243  1.00  0.00     0.202 C 
ATOM      8  O   UNL     1       8.861  79.981  -0.941  1.00  0.00    -0.288 OA
ATOM      9  C   UNL     1      10.794  78.946  -1.868  1.00  0.00     0.077 A 
ATOM     10  C   UNL     1      11.624  80.090  -1.780  1.00  0.00     0.143 A 
ATOM     11  C   UNL     1      12.819  80.142  -2.503  1.00  0.00     0.063 A 
ATOM     12  C   UNL     1      13.243  79.050  -3.273  1.00  0.00     0.064 A 
ATOM     13  C   UNL     1      12.449  77.894  -3.312  1.00  0.00     0.029 A 
ATOM     14  C   UNL     1      11.231  77.832  -2.615  1.00  0.00     0.038 A 
ATOM     15  C   UNL     1      10.401  76.604  -2.664  1.00  0.00     0.194 C 
ATOM     16  O   UNL     1      10.744  75.639  -3.403  1.00  0.00    -0.289 OA
ENDROOT
BRANCH   1  17
ATOM     17  O   UNL     1       7.186  78.506   0.610  1.00  0.00    -0.426 OA
BRANCH  17  18
ATOM     18  C   UNL     1       5.875  78.604   1.090  1.00  0.00     0.308 C 
ATOM     19  C   UNL     1       5.519  77.962   2.387  1.00  0.00     0.139 C 
ATOM     20  O   UNL     1       5.009  79.273   0.464  1.00  0.00    -0.252 OA
ENDBRANCH  17  18
ENDBRANCH   1  17
BRANCH  10  21
ATOM     21  O   UNL     1      11.290  81.189  -0.980  1.00  0.00    -0.426 OA
BRANCH  21  22
ATOM     22  C   UNL     1      11.517  81.221   0.401  1.00  0.00     0.308 C 
ATOM     23  C   UNL     1      12.636  80.423   0.977  1.00  0.00     0.139 C 
ATOM     24  O   UNL     1      10.804  81.939   1.154  1.00  0.00    -0.252 OA
ENDBRANCH  21  22
ENDBRANCH  10  21
BRANCH  12  25
ATOM     25  C   UNL     1      14.519  79.107  -4.024  1.00  0.00     0.335 C 
ATOM     26  O   UNL     1      14.539  78.886  -5.265  1.00  0.00    -0.246 OA
BRANCH  25  27
ATOM     27  O   UNL     1      15.709  79.403  -3.365  1.00  0.00    -0.478 OA
ATOM     28  H   UNL     1      16.593  79.036  -3.697  1.00  0.00     0.297 HD
ENDBRANCH  25  27
ENDBRANCH  12  25
TORSDOF 6
ENDMDL
MODEL 4
REMARK VINA RESULT:    -8.681      1.828      5.102
REMARK INTER + INTRA:         -12.092
REMARK INTER:                 -11.406
REMARK INTRA:                  -0.686
REMARK UNBOUND:                -0.619
REMARK SMILES CC(=O)Oc1cccc2c1C(=O)c1c(OC(C)=O)cc(C(=O)O)cc1C2=O
REMARK SMILES IDX 5 1 6 2 7 3 8 4 9 5 10 6 11 7 12 8 13 9 14 10 19 11 20 12
REMARK SMILES IDX 24 13 25 14 26 15 27 16 4 17 2 18 1 19 3 20 15 21 16 22
REMARK SMILES IDX 17 23 18 24 21 25 22 26 23 27
REMARK H PARENT 23 28
REMARK Flexibility Score: inf
ROOT
ATOM      1  C   UNL     1       9.207  79.348  -0.553  1.00  0.00     0.142 A 
ATOM      2  C   UNL     1       9.848  80.561  -0.821  1.00  0.00     0.048 A 
ATOM      3  C   UNL     1      10.871  80.628  -1.765  1.00  0.00     0.005 A 
ATOM      4  C   UNL     1      11.263  79.480  -2.454  1.00  0.00     0.013 A 
ATOM      5  C   UNL     1      10.654  78.243  -2.183  1.00  0.00     0.037 A 
ATOM      6  C   UNL     1       9.641  78.163  -1.202  1.00  0.00     0.077 A 
ATOM      7  C   UNL     1       9.104  76.828  -0.837  1.00  0.00     0.202 C 
ATOM      8  O   UNL     1       8.538  76.663   0.278  1.00  0.00    -0.288 OA
ATOM      9  C   UNL     1       9.332  75.664  -1.731  1.00  0.00     0.077 A 
ATOM     10  C   UNL     1       8.605  74.458  -1.588  1.00  0.00     0.143 A 
ATOM     11  C   UNL     1       8.950  73.339  -2.352  1.00  0.00     0.063 A 
ATOM     12  C   UNL     1       9.975  73.408  -3.307  1.00  0.00     0.064 A 
ATOM     13  C   UNL     1      10.656  74.621  -3.490  1.00  0.00     0.029 A 
ATOM     14  C   UNL     1      10.342  75.749  -2.713  1.00  0.00     0.038 A 
ATOM     15  C   UNL     1      11.070  77.025  -2.917  1.00  0.00     0.194 C 
ATOM     16  O   UNL     1      12.033  77.079  -3.730  1.00  0.00    -0.289 OA
ENDROOT
BRANCH   1  17
ATOM     17  O   UNL     1       8.140  79.350   0.352  1.00  0.00    -0.426 OA
BRANCH  17  18
ATOM     18  C   UNL     1       6.802  79.398  -0.054  1.00  0.00     0.308 C 
ATOM     19  C   UNL     1       5.731  78.981   0.896  1.00  0.00     0.139 C 
ATOM     20  O   UNL     1       6.490  79.841  -1.193  1.00  0.00    -0.252 OA
ENDBRANCH  17  18
ENDBRANCH   1  17
BRANCH  10  21
ATOM     21  O   UNL     1       7.530  74.341  -0.698  1.00  0.00    -0.426 OA
BRANCH  21  22
ATOM     22  C   UNL     1       6.220  74.701  -1.036  1.00  0.00     0.308 C 
ATOM     23  C   UNL     1       5.293  75.172   0.030  1.00  0.00     0.139 C 
ATOM     24  O   UNL     1       5.829  74.656  -2.235  1.00  0.00    -0.252 OA
ENDBRANCH  21  22
ENDBRANCH  10  21
BRANCH  12  25
ATOM     25  C   UNL     1      10.324  72.223  -4.124  1.00  0.00     0.335 C 
ATOM     26  O   UNL     1      11.111  72.332  -5.103  1.00  0.00    -0.246 OA
BRANCH  25  27
ATOM     27  O   UNL     1       9.786  70.976  -3.819  1.00  0.00    -0.478 OA
ATOM     28  H   UNL     1      10.050  70.487  -2.972  1.00  0.00     0.297 HD
ENDBRANCH  25  27
ENDBRANCH  12  25
TORSDOF 6
ENDMDL
MODEL 5
REMARK VINA RESULT:    -8.604      1.652      4.802
REMARK INTER + INTRA:         -11.990
REMARK INTER:                 -11.538
REMARK INTRA:                  -0.452
REMARK UNBOUND:                -0.619
REMARK SMILES CC(=O)Oc1cccc2c1C(=O)c1c(OC(C)=O)cc(C(=O)O)cc1C2=O
REMARK SMILES IDX 5 1 6 2 7 3 8 4 9 5 10 6 11 7 12 8 13 9 14 10 19 11 20 12
REMARK SMILES IDX 24 13 25 14 26 15 27 16 4 17 2 18 1 19 3 20 15 21 16 22
REMARK SMILES IDX 17 23 18 24 21 25 22 26 23 27
REMARK H PARENT 23 28
REMARK Flexibility Score: inf
ROOT
ATOM      1  C   UNL     1       7.317  79.301  -0.001  1.00  0.00     0.142 A 
ATOM      2  C   UNL     1       6.365  79.599   0.978  1.00  0.00     0.048 A 
ATOM      3  C   UNL     1       5.638  78.582   1.592  1.00  0.00     0.005 A 
ATOM      4  C   UNL     1       5.856  77.252   1.233  1.00  0.00     0.013 A 
ATOM      5  C   UNL     1       6.787  76.927   0.231  1.00  0.00     0.037 A 
ATOM      6  C   UNL     1       7.501  77.958  -0.419  1.00  0.00     0.077 A 
ATOM      7  C   UNL     1       8.380  77.607  -1.563  1.00  0.00     0.202 C 
ATOM      8  O   UNL     1       8.690  78.488  -2.410  1.00  0.00    -0.288 OA
ATOM      9  C   UNL     1       8.800  76.198  -1.773  1.00  0.00     0.077 A 
ATOM     10  C   UNL     1       9.856  75.856  -2.651  1.00  0.00     0.143 A 
ATOM     11  C   UNL     1      10.123  74.513  -2.934  1.00  0.00     0.063 A 
ATOM     12  C   UNL     1       9.397  73.488  -2.311  1.00  0.00     0.064 A 
ATOM     13  C   UNL     1       8.389  73.826  -1.395  1.00  0.00     0.029 A 
ATOM     14  C   UNL     1       8.087  75.170  -1.119  1.00  0.00     0.038 A 
ATOM     15  C   UNL     1       7.019  75.514  -0.149  1.00  0.00     0.194 C 
ATOM     16  O   UNL     1       6.319  74.601   0.369  1.00  0.00    -0.289 OA
ENDROOT
BRANCH   1  17
ATOM     17  O   UNL     1       8.069  80.354  -0.535  1.00  0.00    -0.426 OA
BRANCH  17  18
ATOM     18  C   UNL     1       9.356  80.670  -0.084  1.00  0.00     0.308 C 
ATOM     19  C   UNL     1      10.437  80.928  -1.078  1.00  0.00     0.139 C 
ATOM     20  O   UNL     1       9.596  80.791   1.147  1.00  0.00    -0.252 OA
ENDBRANCH  17  18
ENDBRANCH   1  17
BRANCH  10  21
ATOM     21  O   UNL     1      10.661  76.828  -3.257  1.00  0.00    -0.426 OA
BRANCH  21  22
ATOM     22  C   UNL     1      11.718  77.461  -2.593  1.00  0.00     0.308 C 
ATOM     23  C   UNL     1      12.764  78.166  -3.388  1.00  0.00     0.139 C 
ATOM     24  O   UNL     1      11.778  77.465  -1.333  1.00  0.00    -0.252 OA
ENDBRANCH  21  22
ENDBRANCH  10  21
BRANCH  12  25
ATOM     25  C   UNL     1       9.696  72.067  -2.603  1.00  0.00     0.335 C 
ATOM     26  O   UNL     1       9.623  71.628  -3.782  1.00  0.00    -0.246 OA
BRANCH  25  27
ATOM     27  O   UNL     1      10.061  71.201  -1.576  1.00  0.00    -0.478 OA
ATOM     28  H   UNL     1      10.976  71.258  -1.146  1.00  0.00     0.297 HD
ENDBRANCH  25  27
ENDBRANCH  12  25
TORSDOF 6
ENDMDL
MODEL 6
REMARK VINA RESULT:    -8.563      2.852      6.624
REMARK INTER + INTRA:         -11.935
REMARK INTER:                 -11.394
REMARK INTRA:                  -0.541
REMARK UNBOUND:                -0.619
REMARK SMILES CC(=O)Oc1cccc2c1C(=O)c1c(OC(C)=O)cc(C(=O)O)cc1C2=O
REMARK SMILES IDX 5 1 6 2 7 3 8 4 9 5 10 6 11 7 12 8 13 9 14 10 19 11 20 12
REMARK SMILES IDX 24 13 25 14 26 15 27 16 4 17 2 18 1 19 3 20 15 21 16 22
REMARK SMILES IDX 17 23 18 24 21 25 22 26 23 27
REMARK H PARENT 23 28
REMARK Flexibility Score: inf
ROOT
ATOM      1  C   UNL     1       8.797  74.422  -2.106  1.00  0.00     0.142 A 
ATOM      2  C   UNL     1       7.676  74.404  -2.941  1.00  0.00     0.048 A 
ATOM      3  C   UNL     1       7.184  75.586  -3.491  1.00  0.00     0.005 A 
ATOM      4  C   UNL     1       7.809  76.800  -3.212  1.00  0.00     0.013 A 
ATOM      5  C   UNL     1       8.921  76.850  -2.353  1.00  0.00     0.037 A 
ATOM      6  C   UNL     1       9.403  75.659  -1.765  1.00  0.00     0.077 A 
ATOM      7  C   UNL     1      10.491  75.748  -0.759  1.00  0.00     0.202 C 
ATOM      8  O   UNL     1      10.656  74.814   0.071  1.00  0.00    -0.288 OA
ATOM      9  C   UNL     1      11.310  76.983  -0.658  1.00  0.00     0.077 A 
ATOM     10  C   UNL     1      12.529  77.014   0.062  1.00  0.00     0.143 A 
ATOM     11  C   UNL     1      13.194  78.227   0.257  1.00  0.00     0.063 A 
ATOM     12  C   UNL     1      12.703  79.416  -0.302  1.00  0.00     0.064 A 
ATOM     13  C   UNL     1      11.527  79.375  -1.065  1.00  0.00     0.029 A 
ATOM     14  C   UNL     1      10.828  78.170  -1.250  1.00  0.00     0.038 A 
ATOM     15  C   UNL     1       9.586  78.141  -2.059  1.00  0.00     0.194 C 
ATOM     16  O   UNL     1       9.103  79.215  -2.514  1.00  0.00    -0.289 OA
ENDROOT
BRANCH   1  17
ATOM     17  O   UNL     1       9.293  73.200  -1.638  1.00  0.00    -0.426 OA
BRANCH  17  18
ATOM     18  C   UNL     1      10.137  72.383  -2.398  1.00  0.00     0.308 C 
ATOM     19  C   UNL     1      10.068  70.903  -2.236  1.00  0.00     0.139 C 
ATOM     20  O   UNL     1      10.916  72.882  -3.255  1.00  0.00    -0.252 OA
ENDBRANCH  17  18
ENDBRANCH   1  17
BRANCH  10  21
ATOM     21  O   UNL     1      13.107  75.854   0.592  1.00  0.00    -0.426 OA
BRANCH  21  22
ATOM     22  C   UNL     1      13.933  75.865   1.722  1.00  0.00     0.308 C 
ATOM     23  C   UNL     1      15.189  75.062   1.718  1.00  0.00     0.139 C 
ATOM     24  O   UNL     1      13.639  76.567   2.728  1.00  0.00    -0.252 OA
ENDBRANCH  21  22
ENDBRANCH  10  21
BRANCH  12  25
ATOM     25  C   UNL     1      13.422  80.696  -0.104  1.00  0.00     0.335 C 
ATOM     26  O   UNL     1      12.904  81.783  -0.474  1.00  0.00    -0.246 OA
BRANCH  25  27
ATOM     27  O   UNL     1      14.680  80.710   0.493  1.00  0.00    -0.478 OA
ATOM     28  H   UNL     1      14.799  81.016   1.451  1.00  0.00     0.297 HD
ENDBRANCH  25  27
ENDBRANCH  12  25
TORSDOF 6
ENDMDL
MODEL 7
REMARK VINA RESULT:    -7.968      1.891      2.721
REMARK INTER + INTRA:         -11.149
REMARK INTER:                 -10.556
REMARK INTRA:                  -0.593
REMARK UNBOUND:                -0.619
REMARK SMILES CC(=O)Oc1cccc2c1C(=O)c1c(OC(C)=O)cc(C(=O)O)cc1C2=O
REMARK SMILES IDX 5 1 6 2 7 3 8 4 9 5 10 6 11 7 12 8 13 9 14 10 19 11 20 12
REMARK SMILES IDX 24 13 25 14 26 15 27 16 4 17 2 18 1 19 3 20 15 21 16 22
REMARK SMILES IDX 17 23 18 24 21 25 22 26 23 27
REMARK H PARENT 23 28
REMARK Flexibility Score: inf
ROOT
ATOM      1  C   UNL     1      13.432  78.959  -2.280  1.00  0.00     0.142 A 
ATOM      2  C   UNL     1      14.445  79.895  -2.055  1.00  0.00     0.048 A 
ATOM      3  C   UNL     1      14.209  81.016  -1.261  1.00  0.00     0.005 A 
ATOM      4  C   UNL     1      12.955  81.211  -0.682  1.00  0.00     0.013 A 
ATOM      5  C   UNL     1      11.912  80.299  -0.915  1.00  0.00     0.037 A 
ATOM      6  C   UNL     1      12.135  79.180  -1.748  1.00  0.00     0.077 A 
ATOM      7  C   UNL     1      10.988  78.302  -2.090  1.00  0.00     0.202 C 
ATOM      8  O   UNL     1      11.037  77.578  -3.120  1.00  0.00    -0.288 OA
ATOM      9  C   UNL     1       9.741  78.362  -1.285  1.00  0.00     0.077 A 
ATOM     10  C   UNL     1       8.745  77.360  -1.374  1.00  0.00     0.143 A 
ATOM     11  C   UNL     1       7.525  77.526  -0.714  1.00  0.00     0.063 A 
ATOM     12  C   UNL     1       7.289  78.650   0.091  1.00  0.00     0.064 A 
ATOM     13  C   UNL     1       8.299  79.615   0.227  1.00  0.00     0.029 A 
ATOM     14  C   UNL     1       9.522  79.479  -0.451  1.00  0.00     0.038 A 
ATOM     15  C   UNL     1      10.581  80.506  -0.298  1.00  0.00     0.194 C 
ATOM     16  O   UNL     1      10.355  81.551   0.374  1.00  0.00    -0.289 OA
ENDROOT
BRANCH   1  17
ATOM     17  O   UNL     1      13.743  77.816  -3.027  1.00  0.00    -0.426 OA
BRANCH  17  18
ATOM     18  C   UNL     1      13.819  77.821  -4.424  1.00  0.00     0.308 C 
ATOM     19  C   UNL     1      13.892  79.122  -5.149  1.00  0.00     0.139 C 
ATOM     20  O   UNL     1      13.880  76.741  -5.070  1.00  0.00    -0.252 OA
ENDBRANCH  17  18
ENDBRANCH   1  17
BRANCH  10  21
ATOM     21  O   UNL     1       8.940  76.184  -2.109  1.00  0.00    -0.426 OA
BRANCH  21  22
ATOM     22  C   UNL     1       9.151  74.938  -1.508  1.00  0.00     0.308 C 
ATOM     23  C   UNL     1      10.161  74.812  -0.420  1.00  0.00     0.139 C 
ATOM     24  O   UNL     1       8.476  73.931  -1.858  1.00  0.00    -0.252 OA
ENDBRANCH  21  22
ENDBRANCH  10  21
BRANCH  12  25
ATOM     25  C   UNL     1       5.999  78.812   0.801  1.00  0.00     0.335 C 
ATOM     26  O   UNL     1       5.899  78.508   2.020  1.00  0.00    -0.246 OA
BRANCH  25  27
ATOM     27  O   UNL     1       4.883  79.301   0.128  1.00  0.00    -0.478 OA
ATOM     28  H   UNL     1       3.957  78.942   0.326  1.00  0.00     0.297 HD
ENDBRANCH  25  27
ENDBRANCH  12  25
TORSDOF 6
ENDMDL
MODEL 8
REMARK VINA RESULT:    -7.833      2.291      5.243
REMARK INTER + INTRA:         -10.971
REMARK INTER:                 -10.197
REMARK INTRA:                  -0.773
REMARK UNBOUND:                -0.619
REMARK SMILES CC(=O)Oc1cccc2c1C(=O)c1c(OC(C)=O)cc(C(=O)O)cc1C2=O
REMARK SMILES IDX 5 1 6 2 7 3 8 4 9 5 10 6 11 7 12 8 13 9 14 10 19 11 20 12
REMARK SMILES IDX 24 13 25 14 26 15 27 16 4 17 2 18 1 19 3 20 15 21 16 22
REMARK SMILES IDX 17 23 18 24 21 25 22 26 23 27
REMARK H PARENT 23 28
REMARK Flexibility Score: inf
ROOT
ATOM      1  C   UNL     1      13.980  79.141  -3.857  1.00  0.00     0.142 A 
ATOM      2  C   UNL     1      14.539  78.252  -4.779  1.00  0.00     0.048 A 
ATOM      3  C   UNL     1      13.919  77.034  -5.054  1.00  0.00     0.005 A 
ATOM      4  C   UNL     1      12.730  76.694  -4.409  1.00  0.00     0.013 A 
ATOM      5  C   UNL     1      12.162  77.558  -3.458  1.00  0.00     0.037 A 
ATOM      6  C   UNL     1      12.805  78.777  -3.150  1.00  0.00     0.077 A 
ATOM      7  C   UNL     1      12.262  79.614  -2.049  1.00  0.00     0.202 C 
ATOM      8  O   UNL     1      13.006  80.454  -1.474  1.00  0.00    -0.288 OA
ATOM      9  C   UNL     1      10.883  79.381  -1.550  1.00  0.00     0.077 A 
ATOM     10  C   UNL     1      10.219  80.322  -0.727  1.00  0.00     0.143 A 
ATOM     11  C   UNL     1       8.982  80.003  -0.158  1.00  0.00     0.063 A 
ATOM     12  C   UNL     1       8.355  78.780  -0.440  1.00  0.00     0.064 A 
ATOM     13  C   UNL     1       8.986  77.873  -1.304  1.00  0.00     0.029 A 
ATOM     14  C   UNL     1      10.241  78.164  -1.863  1.00  0.00     0.038 A 
ATOM     15  C   UNL     1      10.898  77.196  -2.775  1.00  0.00     0.194 C 
ATOM     16  O   UNL     1      10.370  76.069  -2.985  1.00  0.00    -0.289 OA
ENDROOT
BRANCH   1  17
ATOM     17  O   UNL     1      14.605  80.380  -3.671  1.00  0.00    -0.426 OA
BRANCH  17  18
ATOM     18  C   UNL     1      15.315  81.030  -4.687  1.00  0.00     0.308 C 
ATOM     19  C   UNL     1      14.590  81.926  -5.631  1.00  0.00     0.139 C 
ATOM     20  O   UNL     1      16.567  80.908  -4.777  1.00  0.00    -0.252 OA
ENDBRANCH  17  18
ENDBRANCH   1  17
BRANCH  10  21
ATOM     21  O   UNL     1      10.760  81.585  -0.456  1.00  0.00    -0.426 OA
BRANCH  21  22
ATOM     22  C   UNL     1      11.123  81.996   0.831  1.00  0.00     0.308 C 
ATOM     23  C   UNL     1      11.776  81.024   1.753  1.00  0.00     0.139 C 
ATOM     24  O   UNL     1      10.929  83.185   1.206  1.00  0.00    -0.252 OA
ENDBRANCH  21  22
ENDBRANCH  10  21
BRANCH  12  25
ATOM     25  C   UNL     1       7.037  78.456   0.153  1.00  0.00     0.335 C 
ATOM     26  O   UNL     1       6.067  79.251   0.027  1.00  0.00    -0.246 OA
BRANCH  25  27
ATOM     27  O   UNL     1       6.856  77.269   0.858  1.00  0.00    -0.478 OA
ATOM     28  H   UNL     1       7.280  76.405   0.541  1.00  0.00     0.297 HD
ENDBRANCH  25  27
ENDBRANCH  12  25
TORSDOF 6
ENDMDL
MODEL 9
REMARK VINA RESULT:    -7.728      1.577      6.352
REMARK INTER + INTRA:         -10.832
REMARK INTER:                 -10.137
REMARK INTRA:                  -0.695
REMARK UNBOUND:                -0.619
REMARK SMILES CC(=O)Oc1cccc2c1C(=O)c1c(OC(C)=O)cc(C(=O)O)cc1C2=O
REMARK SMILES IDX 5 1 6 2 7 3 8 4 9 5 10 6 11 7 12 8 13 9 14 10 19 11 20 12
REMARK SMILES IDX 24 13 25 14 26 15 27 16 4 17 2 18 1 19 3 20 15 21 16 22
REMARK SMILES IDX 17 23 18 24 21 25 22 26 23 27
REMARK H PARENT 23 28
REMARK Flexibility Score: inf
ROOT
ATOM      1  C   UNL     1       8.039  74.755  -2.692  1.00  0.00     0.142 A 
ATOM      2  C   UNL     1       6.854  74.124  -2.302  1.00  0.00     0.048 A 
ATOM      3  C   UNL     1       6.062  74.669  -1.293  1.00  0.00     0.005 A 
ATOM      4  C   UNL     1       6.447  75.852  -0.663  1.00  0.00     0.013 A 
ATOM      5  C   UNL     1       7.647  76.490  -1.017  1.00  0.00     0.037 A 
ATOM      6  C   UNL     1       8.472  75.924  -2.015  1.00  0.00     0.077 A 
ATOM      7  C   UNL     1       9.797  76.539  -2.281  1.00  0.00     0.202 C 
ATOM      8  O   UNL     1      10.707  75.857  -2.826  1.00  0.00    -0.288 OA
ATOM      9  C   UNL     1      10.087  77.915  -1.803  1.00  0.00     0.077 A 
ATOM     10  C   UNL     1      11.201  78.650  -2.277  1.00  0.00     0.143 A 
ATOM     11  C   UNL     1      11.524  79.880  -1.696  1.00  0.00     0.063 A 
ATOM     12  C   UNL     1      10.723  80.432  -0.686  1.00  0.00     0.064 A 
ATOM     13  C   UNL     1       9.585  79.730  -0.258  1.00  0.00     0.029 A 
ATOM     14  C   UNL     1       9.260  78.480  -0.810  1.00  0.00     0.038 A 
ATOM     15  C   UNL     1       8.055  77.749  -0.349  1.00  0.00     0.194 C 
ATOM     16  O   UNL     1       7.363  78.207   0.602  1.00  0.00    -0.289 OA
ENDROOT
BRANCH   1  17
ATOM     17  O   UNL     1       8.760  74.204  -3.758  1.00  0.00    -0.426 OA
BRANCH  17  18
ATOM     18  C   UNL     1       9.322  72.923  -3.711  1.00  0.00     0.308 C 
ATOM     19  C   UNL     1       9.337  72.084  -4.943  1.00  0.00     0.139 C 
ATOM     20  O   UNL     1       9.862  72.494  -2.656  1.00  0.00    -0.252 OA
ENDBRANCH  17  18
ENDBRANCH   1  17
BRANCH  10  21
ATOM     21  O   UNL     1      12.005  78.186  -3.325  1.00  0.00    -0.426 OA
BRANCH  21  22
ATOM     22  C   UNL     1      13.289  78.684  -3.576  1.00  0.00     0.308 C 
ATOM     23  C   UNL     1      13.489  79.670  -4.675  1.00  0.00     0.139 C 
ATOM     24  O   UNL     1      14.268  78.328  -2.865  1.00  0.00    -0.252 OA
ENDBRANCH  21  22
ENDBRANCH  10  21
BRANCH  12  25
ATOM     25  C   UNL     1      11.062  81.743  -0.087  1.00  0.00     0.335 C 
ATOM     26  O   UNL     1      11.737  82.586  -0.737  1.00  0.00    -0.246 OA
BRANCH  25  27
ATOM     27  O   UNL     1      10.639  82.058   1.201  1.00  0.00    -0.478 OA
ATOM     28  H   UNL     1      11.037  82.842   1.704  1.00  0.00     0.297 HD
ENDBRANCH  25  27
ENDBRANCH  12  25
TORSDOF 6
ENDMDL
MODEL 10
REMARK VINA RESULT:    -7.378      1.658      6.124
REMARK INTER + INTRA:         -10.370
REMARK INTER:                  -9.435
REMARK INTRA:                  -0.935
REMARK UNBOUND:                -0.619
REMARK SMILES CC(=O)Oc1cccc2c1C(=O)c1c(OC(C)=O)cc(C(=O)O)cc1C2=O
REMARK SMILES IDX 5 1 6 2 7 3 8 4 9 5 10 6 11 7 12 8 13 9 14 10 19 11 20 12
REMARK SMILES IDX 24 13 25 14 26 15 27 16 4 17 2 18 1 19 3 20 15 21 16 22
REMARK SMILES IDX 17 23 18 24 21 25 22 26 23 27
REMARK H PARENT 23 28
REMARK Flexibility Score: inf
ROOT
ATOM      1  C   UNL     1       6.665  77.171   0.411  1.00  0.00     0.142 A 
ATOM      2  C   UNL     1       5.796  78.116   0.965  1.00  0.00     0.048 A 
ATOM      3  C   UNL     1       6.056  79.478   0.833  1.00  0.00     0.005 A 
ATOM      4  C   UNL     1       7.188  79.911   0.143  1.00  0.00     0.013 A 
ATOM      5  C   UNL     1       8.091  78.982  -0.399  1.00  0.00     0.037 A 
ATOM      6  C   UNL     1       7.852  77.599  -0.238  1.00  0.00     0.077 A 
ATOM      7  C   UNL     1       8.884  76.636  -0.700  1.00  0.00     0.202 C 
ATOM      8  O   UNL     1       8.916  75.472  -0.217  1.00  0.00    -0.288 OA
ATOM      9  C   UNL     1       9.943  77.078  -1.642  1.00  0.00     0.077 A 
ATOM     10  C   UNL     1      10.757  76.151  -2.337  1.00  0.00     0.143 A 
ATOM     11  C   UNL     1      11.837  76.605  -3.100  1.00  0.00     0.063 A 
ATOM     12  C   UNL     1      12.095  77.977  -3.239  1.00  0.00     0.064 A 
ATOM     13  C   UNL     1      11.251  78.897  -2.598  1.00  0.00     0.029 A 
ATOM     14  C   UNL     1      10.177  78.460  -1.805  1.00  0.00     0.038 A 
ATOM     15  C   UNL     1       9.293  79.443  -1.133  1.00  0.00     0.194 C 
ATOM     16  O   UNL     1       9.553  80.676  -1.202  1.00  0.00    -0.289 OA
ENDROOT
BRANCH   1  17
ATOM     17  O   UNL     1       6.321  75.818   0.511  1.00  0.00    -0.426 OA
BRANCH  17  18
ATOM     18  C   UNL     1       5.463  75.185  -0.396  1.00  0.00     0.308 C 
ATOM     19  C   UNL     1       6.034  74.517  -1.600  1.00  0.00     0.139 C 
ATOM     20  O   UNL     1       4.223  75.128  -0.178  1.00  0.00    -0.252 OA
ENDBRANCH  17  18
ENDBRANCH   1  17
BRANCH  10  21
ATOM     21  O   UNL     1      10.518  74.772  -2.292  1.00  0.00    -0.426 OA
BRANCH  21  22
ATOM     22  C   UNL     1       9.955  74.064  -3.360  1.00  0.00     0.308 C 
ATOM     23  C   UNL     1      10.823  73.185  -4.193  1.00  0.00     0.139 C 
ATOM     24  O   UNL     1       8.719  74.140  -3.604  1.00  0.00    -0.252 OA
ENDBRANCH  21  22
ENDBRANCH  10  21
BRANCH  12  25
ATOM     25  C   UNL     1      13.231  78.451  -4.062  1.00  0.00     0.335 C 
ATOM     26  O   UNL     1      13.319  79.665  -4.390  1.00  0.00    -0.246 OA
BRANCH  25  27
ATOM     27  O   UNL     1      14.214  77.559  -4.484  1.00  0.00    -0.478 OA
ATOM     28  H   UNL     1      13.966  76.675  -4.912  1.00  0.00     0.297 HD
ENDBRANCH  25  27
ENDBRANCH  12  25
TORSDOF 6
ENDMDL
MODEL 11
REMARK VINA RESULT:    -7.319      3.267      6.622
REMARK INTER + INTRA:         -10.292
REMARK INTER:                  -9.335
REMARK INTRA:                  -0.956
REMARK UNBOUND:                -0.619
REMARK SMILES CC(=O)Oc1cccc2c1C(=O)c1c(OC(C)=O)cc(C(=O)O)cc1C2=O
REMARK SMILES IDX 5 1 6 2 7 3 8 4 9 5 10 6 11 7 12 8 13 9 14 10 19 11 20 12
REMARK SMILES IDX 24 13 25 14 26 15 27 16 4 17 2 18 1 19 3 20 15 21 16 22
REMARK SMILES IDX 17 23 18 24 21 25 22 26 23 27
REMARK H PARENT 23 28
REMARK Flexibility Score: inf
ROOT
ATOM      1  C   UNL     1       8.465  77.837  -2.420  1.00  0.00     0.142 A 
ATOM      2  C   UNL     1       7.420  77.052  -2.913  1.00  0.00     0.048 A 
ATOM      3  C   UNL     1       7.379  75.683  -2.653  1.00  0.00     0.005 A 
ATOM      4  C   UNL     1       8.386  75.086  -1.895  1.00  0.00     0.013 A 
ATOM      5  C   UNL     1       9.463  75.848  -1.412  1.00  0.00     0.037 A 
ATOM      6  C   UNL     1       9.527  77.229  -1.702  1.00  0.00     0.077 A 
ATOM      7  C   UNL     1      10.736  77.989  -1.297  1.00  0.00     0.202 C 
ATOM      8  O   UNL     1      11.022  79.070  -1.880  1.00  0.00    -0.288 OA
ATOM      9  C   UNL     1      11.668  77.422  -0.289  1.00  0.00     0.077 A 
ATOM     10  C   UNL     1      12.655  78.215   0.344  1.00  0.00     0.143 A 
ATOM     11  C   UNL     1      13.606  77.614   1.175  1.00  0.00     0.063 A 
ATOM     12  C   UNL     1      13.562  76.238   1.443  1.00  0.00     0.064 A 
ATOM     13  C   UNL     1      12.547  75.463   0.862  1.00  0.00     0.029 A 
ATOM     14  C   UNL     1      11.599  76.043   0.002  1.00  0.00     0.038 A 
ATOM     15  C   UNL     1      10.531  75.213  -0.605  1.00  0.00     0.194 C 
ATOM     16  O   UNL     1      10.520  73.964  -0.420  1.00  0.00    -0.289 OA
ENDROOT
BRANCH   1  17
ATOM     17  O   UNL     1       8.420  79.218  -2.650  1.00  0.00    -0.426 OA
BRANCH  17  18
ATOM     18  C   UNL     1       7.639  80.088  -1.882  1.00  0.00     0.308 C 
ATOM     19  C   UNL     1       7.871  80.178  -0.412  1.00  0.00     0.139 C 
ATOM     20  O   UNL     1       6.781  80.834  -2.426  1.00  0.00    -0.252 OA
ENDBRANCH  17  18
ENDBRANCH   1  17
BRANCH  10  21
ATOM     21  O   UNL     1      12.717  79.603   0.170  1.00  0.00    -0.426 OA
BRANCH  21  22
ATOM     22  C   UNL     1      12.097  80.506   1.041  1.00  0.00     0.308 C 
ATOM     23  C   UNL     1      11.250  81.597   0.481  1.00  0.00     0.139 C 
ATOM     24  O   UNL     1      12.224  80.388   2.290  1.00  0.00    -0.252 OA
ENDBRANCH  21  22
ENDBRANCH  10  21
BRANCH  12  25
ATOM     25  C   UNL     1      14.562  75.612   2.337  1.00  0.00     0.335 C 
ATOM     26  O   UNL     1      14.289  75.397   3.549  1.00  0.00    -0.246 OA
BRANCH  25  27
ATOM     27  O   UNL     1      15.817  75.256   1.849  1.00  0.00    -0.478 OA
ATOM     28  H   UNL     1      16.637  75.807   2.069  1.00  0.00     0.297 HD
ENDBRANCH  25  27
ENDBRANCH  12  25
TORSDOF 6
ENDMDL
MODEL 12
REMARK VINA RESULT:    -6.903      2.880      6.513
REMARK INTER + INTRA:          -9.742
REMARK INTER:                  -9.499
REMARK INTRA:                  -0.244
REMARK UNBOUND:                -0.619
REMARK SMILES CC(=O)Oc1cccc2c1C(=O)c1c(OC(C)=O)cc(C(=O)O)cc1C2=O
REMARK SMILES IDX 5 1 6 2 7 3 8 4 9 5 10 6 11 7 12 8 13 9 14 10 19 11 20 12
REMARK SMILES IDX 24 13 25 14 26 15 27 16 4 17 2 18 1 19 3 20 15 21 16 22
REMARK SMILES IDX 17 23 18 24 21 25 22 26 23 27
REMARK H PARENT 23 28
REMARK Flexibility Score: inf
ROOT
ATOM      1  C   UNL     1      10.136  72.381  -3.732  1.00  0.00     0.142 A 
ATOM      2  C   UNL     1       9.749  71.652  -4.860  1.00  0.00     0.048 A 
ATOM      3  C   UNL     1       8.739  72.124  -5.695  1.00  0.00     0.005 A 
ATOM      4  C   UNL     1       8.104  73.333  -5.411  1.00  0.00     0.013 A 
ATOM      5  C   UNL     1       8.455  74.071  -4.268  1.00  0.00     0.037 A 
ATOM      6  C   UNL     1       9.454  73.580  -3.399  1.00  0.00     0.077 A 
ATOM      7  C   UNL     1       9.718  74.305  -2.130  1.00  0.00     0.202 C 
ATOM      8  O   UNL     1      10.265  73.704  -1.166  1.00  0.00    -0.288 OA
ATOM      9  C   UNL     1       9.235  75.698  -1.956  1.00  0.00     0.077 A 
ATOM     10  C   UNL     1       9.705  76.526  -0.908  1.00  0.00     0.143 A 
ATOM     11  C   UNL     1       9.120  77.777  -0.689  1.00  0.00     0.063 A 
ATOM     12  C   UNL     1       8.108  78.256  -1.534  1.00  0.00     0.064 A 
ATOM     13  C   UNL     1       7.683  77.460  -2.608  1.00  0.00     0.029 A 
ATOM     14  C   UNL     1       8.239  76.188  -2.828  1.00  0.00     0.038 A 
ATOM     15  C   UNL     1       7.782  75.357  -3.968  1.00  0.00     0.194 C 
ATOM     16  O   UNL     1       6.830  75.753  -4.696  1.00  0.00    -0.289 OA
ENDROOT
BRANCH   1  17
ATOM     17  O   UNL     1      11.204  71.898  -2.967  1.00  0.00    -0.426 OA
BRANCH  17  18
ATOM     18  C   UNL     1      11.049  70.907  -1.991  1.00  0.00     0.308 C 
ATOM     19  C   UNL     1       9.797  70.098  -1.960  1.00  0.00     0.139 C 
ATOM     20  O   UNL     1      11.976  70.656  -1.174  1.00  0.00    -0.252 OA
ENDBRANCH  17  18
ENDBRANCH   1  17
BRANCH  10  21
ATOM     21  O   UNL     1      10.755  76.135  -0.068  1.00  0.00    -0.426 OA
BRANCH  21  22
ATOM     22  C   UNL     1      11.975  76.818  -0.009  1.00  0.00     0.308 C 
ATOM     23  C   UNL     1      12.309  77.812  -1.067  1.00  0.00     0.139 C 
ATOM     24  O   UNL     1      12.778  76.621   0.944  1.00  0.00    -0.252 OA
ENDBRANCH  21  22
ENDBRANCH  10  21
BRANCH  12  25
ATOM     25  C   UNL     1       7.504  79.588  -1.306  1.00  0.00     0.335 C 
ATOM     26  O   UNL     1       7.323  80.016  -0.134  1.00  0.00    -0.246 OA
BRANCH  25  27
ATOM     27  O   UNL     1       7.127  80.383  -2.385  1.00  0.00    -0.478 OA
ATOM     28  H   UNL     1       6.428  81.109  -2.280  1.00  0.00     0.297 HD
ENDBRANCH  25  27
ENDBRANCH  12  25
TORSDOF 6
ENDMDL
MODEL 13
REMARK VINA RESULT:    -6.560      1.768      7.684
REMARK INTER + INTRA:          -9.288
REMARK INTER:                  -8.674
REMARK INTRA:                  -0.614
REMARK UNBOUND:                -0.619
REMARK SMILES CC(=O)Oc1cccc2c1C(=O)c1c(OC(C)=O)cc(C(=O)O)cc1C2=O
REMARK SMILES IDX 5 1 6 2 7 3 8 4 9 5 10 6 11 7 12 8 13 9 14 10 19 11 20 12
REMARK SMILES IDX 24 13 25 14 26 15 27 16 4 17 2 18 1 19 3 20 15 21 16 22
REMARK SMILES IDX 17 23 18 24 21 25 22 26 23 27
REMARK H PARENT 23 28
REMARK Flexibility Score: inf
ROOT
ATOM      1  C   UNL     1       8.858  74.432  -1.797  1.00  0.00     0.142 A 
ATOM      2  C   UNL     1       8.730  73.125  -2.276  1.00  0.00     0.048 A 
ATOM      3  C   UNL     1       9.593  72.643  -3.257  1.00  0.00     0.005 A 
ATOM      4  C   UNL     1      10.597  73.465  -3.770  1.00  0.00     0.013 A 
ATOM      5  C   UNL     1      10.729  74.791  -3.325  1.00  0.00     0.037 A 
ATOM      6  C   UNL     1       9.834  75.296  -2.356  1.00  0.00     0.077 A 
ATOM      7  C   UNL     1       9.905  76.735  -1.997  1.00  0.00     0.202 C 
ATOM      8  O   UNL     1       8.903  77.304  -1.485  1.00  0.00    -0.288 OA
ATOM      9  C   UNL     1      11.112  77.528  -2.344  1.00  0.00     0.077 A 
ATOM     10  C   UNL     1      11.358  78.801  -1.775  1.00  0.00     0.143 A 
ATOM     11  C   UNL     1      12.424  79.578  -2.236  1.00  0.00     0.063 A 
ATOM     12  C   UNL     1      13.298  79.092  -3.218  1.00  0.00     0.064 A 
ATOM     13  C   UNL     1      13.089  77.806  -3.740  1.00  0.00     0.029 A 
ATOM     14  C   UNL     1      12.007  77.020  -3.309  1.00  0.00     0.038 A 
ATOM     15  C   UNL     1      11.798  75.663  -3.869  1.00  0.00     0.194 C 
ATOM     16  O   UNL     1      12.542  75.240  -4.797  1.00  0.00    -0.289 OA
ENDROOT
BRANCH   1  17
ATOM     17  O   UNL     1       8.010  74.842  -0.761  1.00  0.00    -0.426 OA
BRANCH  17  18
ATOM     18  C   UNL     1       6.615  74.840  -0.878  1.00  0.00     0.308 C 
ATOM     19  C   UNL     1       5.777  74.921   0.352  1.00  0.00     0.139 C 
ATOM     20  O   UNL     1       6.063  74.824  -2.011  1.00  0.00    -0.252 OA
ENDBRANCH  17  18
ENDBRANCH   1  17
BRANCH  10  21
ATOM     21  O   UNL     1      10.562  79.320  -0.746  1.00  0.00    -0.426 OA
BRANCH  21  22
ATOM     22  C   UNL     1       9.751  80.450  -0.909  1.00  0.00     0.308 C 
ATOM     23  C   UNL     1       9.164  80.742  -2.247  1.00  0.00     0.139 C 
ATOM     24  O   UNL     1       9.492  81.203   0.069  1.00  0.00    -0.252 OA
ENDBRANCH  21  22
ENDBRANCH  10  21
BRANCH  12  25
ATOM     25  C   UNL     1      14.435  79.914  -3.690  1.00  0.00     0.335 C 
ATOM     26  O   UNL     1      14.252  80.832  -4.535  1.00  0.00    -0.246 OA
BRANCH  25  27
ATOM     27  O   UNL     1      15.720  79.681  -3.206  1.00  0.00    -0.478 OA
ATOM     28  H   UNL     1      16.535  79.904  -3.764  1.00  0.00     0.297 HD
ENDBRANCH  25  27
ENDBRANCH  12  25
TORSDOF 6
ENDMDL
MODEL 14
REMARK VINA RESULT:    -6.437      1.982      4.632
REMARK INTER + INTRA:          -9.126
REMARK INTER:                  -8.386
REMARK INTRA:                  -0.740
REMARK UNBOUND:                -0.619
REMARK SMILES CC(=O)Oc1cccc2c1C(=O)c1c(OC(C)=O)cc(C(=O)O)cc1C2=O
REMARK SMILES IDX 5 1 6 2 7 3 8 4 9 5 10 6 11 7 12 8 13 9 14 10 19 11 20 12
REMARK SMILES IDX 24 13 25 14 26 15 27 16 4 17 2 18 1 19 3 20 15 21 16 22
REMARK SMILES IDX 17 23 18 24 21 25 22 26 23 27
REMARK H PARENT 23 28
REMARK Flexibility Score: inf
ROOT
ATOM      1  C   UNL     1      11.361  79.458  -1.054  1.00  0.00     0.142 A 
ATOM      2  C   UNL     1      12.220  80.410  -1.610  1.00  0.00     0.048 A 
ATOM      3  C   UNL     1      12.950  80.119  -2.761  1.00  0.00     0.005 A 
ATOM      4  C   UNL     1      12.826  78.870  -3.370  1.00  0.00     0.013 A 
ATOM      5  C   UNL     1      11.991  77.886  -2.815  1.00  0.00     0.037 A 
ATOM      6  C   UNL     1      11.276  78.164  -1.629  1.00  0.00     0.077 A 
ATOM      7  C   UNL     1      10.504  77.070  -0.987  1.00  0.00     0.202 C 
ATOM      8  O   UNL     1      10.214  77.142   0.239  1.00  0.00    -0.288 OA
ATOM      9  C   UNL     1      10.172  75.844  -1.756  1.00  0.00     0.077 A 
ATOM     10  C   UNL     1       9.203  74.917  -1.302  1.00  0.00     0.143 A 
ATOM     11  C   UNL     1       9.025  73.705  -1.976  1.00  0.00     0.063 A 
ATOM     12  C   UNL     1       9.754  73.414  -3.138  1.00  0.00     0.064 A 
ATOM     13  C   UNL     1      10.672  74.359  -3.621  1.00  0.00     0.029 A 
ATOM     14  C   UNL     1      10.885  75.570  -2.942  1.00  0.00     0.038 A 
ATOM     15  C   UNL     1      11.858  76.560  -3.464  1.00  0.00     0.194 C 
ATOM     16  O   UNL     1      12.563  76.281  -4.473  1.00  0.00    -0.289 OA
ENDROOT
BRANCH   1  17
ATOM     17  O   UNL     1      10.599  79.827   0.061  1.00  0.00    -0.426 OA
BRANCH  17  18
ATOM     18  C   UNL     1      11.008  80.813   0.965  1.00  0.00     0.308 C 
ATOM     19  C   UNL     1      12.172  80.551   1.858  1.00  0.00     0.139 C 
ATOM     20  O   UNL     1      10.437  81.937   0.995  1.00  0.00    -0.252 OA
ENDBRANCH  17  18
ENDBRANCH   1  17
BRANCH  10  21
ATOM     21  O   UNL     1       8.397  75.173  -0.185  1.00  0.00    -0.426 OA
BRANCH  21  22
ATOM     22  C   UNL     1       7.090  75.661  -0.287  1.00  0.00     0.308 C 
ATOM     23  C   UNL     1       6.790  77.048   0.169  1.00  0.00     0.139 C 
ATOM     24  O   UNL     1       6.174  74.951  -0.785  1.00  0.00    -0.252 OA
ENDBRANCH  21  22
ENDBRANCH  10  21
BRANCH  12  25
ATOM     25  C   UNL     1       9.549  72.135  -3.856  1.00  0.00     0.335 C 
ATOM     26  O   UNL     1       9.810  71.038  -3.293  1.00  0.00    -0.246 OA
BRANCH  25  27
ATOM     27  O   UNL     1       9.066  72.132  -5.162  1.00  0.00    -0.478 OA
ATOM     28  H   UNL     1       8.970  71.267  -5.680  1.00  0.00     0.297 HD
ENDBRANCH  25  27
ENDBRANCH  12  25
TORSDOF 6
ENDMDL
MODEL 15
REMARK VINA RESULT:    -6.418      2.340      4.007
REMARK INTER + INTRA:          -9.100
REMARK INTER:                  -8.714
REMARK INTRA:                  -0.386
REMARK UNBOUND:                -0.619
REMARK SMILES CC(=O)Oc1cccc2c1C(=O)c1c(OC(C)=O)cc(C(=O)O)cc1C2=O
REMARK SMILES IDX 5 1 6 2 7 3 8 4 9 5 10 6 11 7 12 8 13 9 14 10 19 11 20 12
REMARK SMILES IDX 24 13 25 14 26 15 27 16 4 17 2 18 1 19 3 20 15 21 16 22
REMARK SMILES IDX 17 23 18 24 21 25 22 26 23 27
REMARK H PARENT 23 28
REMARK Flexibility Score: inf
ROOT
ATOM      1  C   UNL     1      13.706  79.448  -1.245  1.00  0.00     0.142 A 
ATOM      2  C   UNL     1      14.979  79.194  -0.725  1.00  0.00     0.048 A 
ATOM      3  C   UNL     1      15.198  78.095   0.104  1.00  0.00     0.005 A 
ATOM      4  C   UNL     1      14.146  77.237   0.422  1.00  0.00     0.013 A 
ATOM      5  C   UNL     1      12.851  77.486  -0.065  1.00  0.00     0.037 A 
ATOM      6  C   UNL     1      12.616  78.618  -0.877  1.00  0.00     0.077 A 
ATOM      7  C   UNL     1      11.220  78.937  -1.271  1.00  0.00     0.202 C 
ATOM      8  O   UNL     1      10.919  80.112  -1.616  1.00  0.00    -0.288 OA
ATOM      9  C   UNL     1      10.159  77.904  -1.151  1.00  0.00     0.077 A 
ATOM     10  C   UNL     1       8.899  78.052  -1.779  1.00  0.00     0.143 A 
ATOM     11  C   UNL     1       7.878  77.132  -1.522  1.00  0.00     0.063 A 
ATOM     12  C   UNL     1       8.101  76.023  -0.693  1.00  0.00     0.064 A 
ATOM     13  C   UNL     1       9.368  75.844  -0.119  1.00  0.00     0.029 A 
ATOM     14  C   UNL     1      10.399  76.773  -0.342  1.00  0.00     0.038 A 
ATOM     15  C   UNL     1      11.734  76.573   0.271  1.00  0.00     0.194 C 
ATOM     16  O   UNL     1      11.925  75.612   1.067  1.00  0.00    -0.289 OA
ENDROOT
BRANCH   1  17
ATOM     17  O   UNL     1      13.556  80.523  -2.128  1.00  0.00    -0.426 OA
BRANCH  17  18
ATOM     18  C   UNL     1      13.754  80.402  -3.509  1.00  0.00     0.308 C 
ATOM     19  C   UNL     1      15.135  80.217  -4.038  1.00  0.00     0.139 C 
ATOM     20  O   UNL     1      12.774  80.395  -4.302  1.00  0.00    -0.252 OA
ENDBRANCH  17  18
ENDBRANCH   1  17
BRANCH  10  21
ATOM     21  O   UNL     1       8.631  79.102  -2.666  1.00  0.00    -0.426 OA
BRANCH  21  22
ATOM     22  C   UNL     1       8.024  80.298  -2.267  1.00  0.00     0.308 C 
ATOM     23  C   UNL     1       7.447  80.404  -0.897  1.00  0.00     0.139 C 
ATOM     24  O   UNL     1       7.986  81.291  -3.044  1.00  0.00    -0.252 OA
ENDBRANCH  21  22
ENDBRANCH  10  21
BRANCH  12  25
ATOM     25  C   UNL     1       7.020  75.044  -0.439  1.00  0.00     0.335 C 
ATOM     26  O   UNL     1       6.100  75.306   0.383  1.00  0.00    -0.246 OA
BRANCH  25  27
ATOM     27  O   UNL     1       7.008  73.820  -1.104  1.00  0.00    -0.478 OA
ATOM     28  H   UNL     1       7.121  72.951  -0.597  1.00  0.00     0.297 HD
ENDBRANCH  25  27
ENDBRANCH  12  25
TORSDOF 6
ENDMDL
