MODEL 1
REMARK VINA RESULT:    -8.824      0.000      0.000
REMARK INTER + INTRA:         -12.796
REMARK INTER:                 -11.919
REMARK INTRA:                  -0.877
REMARK UNBOUND:                -0.877
REMARK SMILES COc1cc2c(Nc3ccc(Cl)c(Cl)c3F)ncnc2cc1OC[C@@H]1C[C@@H]2CN(C)C[C@@H]2C1
REMARK SMILES IDX 3 1 22 2 21 3 20 4 19 5 18 6 17 7 6 8 5 9 4 10 2 11 1 12
REMARK SMILES IDX 23 13 24 14 25 15 33 16 26 17 32 18 27 19 31 20 28 21 29 22
REMARK SMILES IDX 30 23 7 24 8 26 9 27 15 28 10 29 13 30 16 31 11 32 14 33
REMARK SMILES IDX 12 34
REMARK H PARENT 7 25
REMARK Flexibility Score: inf
ROOT
ATOM      1  C   UNL     1      27.686  20.730   9.112  1.00  0.00     0.161 A 
ATOM      2  C   UNL     1      26.491  21.452   9.253  1.00  0.00     0.163 A 
ATOM      3  C   UNL     1      26.373  22.724   8.663  1.00  0.00     0.079 A 
ATOM      4  C   UNL     1      27.443  23.282   7.960  1.00  0.00     0.080 A 
ATOM      5  N   UNL     1      27.306  24.504   7.386  1.00  0.00    -0.236 NA
ATOM      6  C   UNL     1      28.324  25.071   6.694  1.00  0.00     0.224 A 
ATOM      7  N   UNL     1      29.510  24.423   6.575  1.00  0.00    -0.219 NA
ATOM      8  C   UNL     1      29.712  23.194   7.125  1.00  0.00     0.141 A 
ATOM      9  C   UNL     1      28.660  22.578   7.840  1.00  0.00     0.047 A 
ATOM     10  C   UNL     1      28.767  21.294   8.404  1.00  0.00     0.064 A 
ENDROOT
BRANCH   1  11
ATOM     11  O   UNL     1      27.761  19.454   9.694  1.00  0.00    -0.493 OA
ATOM     12  C   UNL     1      27.732  18.230   8.968  1.00  0.00     0.278 C 
ENDBRANCH   1  11
BRANCH   2  13
ATOM     13  O   UNL     1      25.443  20.861   9.981  1.00  0.00    -0.489 OA
BRANCH  13  14
ATOM     14  C   UNL     1      25.119  21.135  11.345  1.00  0.00     0.233 C 
BRANCH  14  15
ATOM     15  C   UNL     1      24.076  20.132  11.872  1.00  0.00     0.027 C 
ATOM     16  C   UNL     1      24.021  20.108  13.397  1.00  0.00     0.012 C 
ATOM     17  C   UNL     1      22.650  20.456  11.405  1.00  0.00     0.012 C 
ATOM     18  C   UNL     1      22.588  19.700  13.730  1.00  0.00     0.008 C 
ATOM     19  C   UNL     1      21.742  20.296  12.632  1.00  0.00     0.008 C 
ATOM     20  C   UNL     1      22.062  20.311  15.029  1.00  0.00     0.088 C 
ATOM     21  C   UNL     1      21.258  21.617  13.223  1.00  0.00     0.088 C 
ATOM     22  N   UNL     1      21.162  21.425  14.678  1.00  0.00    -0.306 NA
ATOM     23  C   UNL     1      21.500  22.654  15.412  1.00  0.00     0.105 C 
ENDBRANCH  14  15
ENDBRANCH  13  14
ENDBRANCH   2  13
BRANCH   8  24
ATOM     24  N   UNL     1      31.009  22.583   7.018  1.00  0.00    -0.337 N 
ATOM     25  H   UNL     1      31.452  22.207   7.887  1.00  0.00     0.168 HD
BRANCH  24  26
ATOM     26  C   UNL     1      31.808  22.634   5.822  1.00  0.00     0.078 A 
ATOM     27  C   UNL     1      31.497  21.831   4.711  1.00  0.00     0.031 A 
ATOM     28  C   UNL     1      32.947  23.458   5.775  1.00  0.00     0.166 A 
ATOM     29  C   UNL     1      32.293  21.873   3.564  1.00  0.00     0.024 A 
ATOM     30  C   UNL     1      33.744  23.501   4.623  1.00  0.00     0.097 A 
ATOM     31  F   UNL     1      33.270  24.229   6.844  1.00  0.00    -0.203 F 
ATOM     32  C   UNL     1      33.413  22.707   3.513  1.00  0.00     0.062 A 
ATOM     33  Cl  UNL     1      35.151  24.557   4.590  1.00  0.00    -0.079 Cl
ATOM     34  Cl  UNL     1      34.389  22.729   2.049  1.00  0.00    -0.083 Cl
ENDBRANCH  24  26
ENDBRANCH   8  24
TORSDOF 6
ENDMDL
MODEL 2
REMARK VINA RESULT:    -8.632      1.186      1.671
REMARK INTER + INTRA:         -12.536
REMARK INTER:                 -11.900
REMARK INTRA:                  -0.636
REMARK UNBOUND:                -0.877
REMARK SMILES COc1cc2c(Nc3ccc(Cl)c(Cl)c3F)ncnc2cc1OC[C@@H]1C[C@@H]2CN(C)C[C@@H]2C1
REMARK SMILES IDX 3 1 22 2 21 3 20 4 19 5 18 6 17 7 6 8 5 9 4 10 2 11 1 12
REMARK SMILES IDX 23 13 24 14 25 15 33 16 26 17 32 18 27 19 31 20 28 21 29 22
REMARK SMILES IDX 30 23 7 24 8 26 9 27 15 28 10 29 13 30 16 31 11 32 14 33
REMARK SMILES IDX 12 34
REMARK H PARENT 7 25
REMARK Flexibility Score: inf
ROOT
ATOM      1  C   UNL     1      27.119  20.606   9.056  1.00  0.00     0.161 A 
ATOM      2  C   UNL     1      26.232  21.451   9.739  1.00  0.00     0.163 A 
ATOM      3  C   UNL     1      26.156  22.811   9.385  1.00  0.00     0.079 A 
ATOM      4  C   UNL     1      26.972  23.328   8.377  1.00  0.00     0.080 A 
ATOM      5  N   UNL     1      26.874  24.640   8.039  1.00  0.00    -0.236 NA
ATOM      6  C   UNL     1      27.649  25.171   7.062  1.00  0.00     0.224 A 
ATOM      7  N   UNL     1      28.550  24.394   6.411  1.00  0.00    -0.219 NA
ATOM      8  C   UNL     1      28.696  23.071   6.700  1.00  0.00     0.141 A 
ATOM      9  C   UNL     1      27.890  22.493   7.706  1.00  0.00     0.047 A 
ATOM     10  C   UNL     1      27.943  21.128   8.040  1.00  0.00     0.064 A 
ENDROOT
BRANCH   1  11
ATOM     11  O   UNL     1      27.152  19.249   9.420  1.00  0.00    -0.493 OA
ATOM     12  C   UNL     1      28.290  18.582   9.957  1.00  0.00     0.278 C 
ENDBRANCH   1  11
BRANCH   2  13
ATOM     13  O   UNL     1      25.439  20.894  10.758  1.00  0.00    -0.489 OA
BRANCH  13  14
ATOM     14  C   UNL     1      24.159  21.374  11.174  1.00  0.00     0.233 C 
BRANCH  14  15
ATOM     15  C   UNL     1      23.312  20.233  11.767  1.00  0.00     0.027 C 
ATOM     16  C   UNL     1      23.675  19.943  13.220  1.00  0.00     0.012 C 
ATOM     17  C   UNL     1      21.809  20.544  11.762  1.00  0.00     0.012 C 
ATOM     18  C   UNL     1      22.392  19.395  13.842  1.00  0.00     0.008 C 
ATOM     19  C   UNL     1      21.271  20.118  13.136  1.00  0.00     0.008 C 
ATOM     20  C   UNL     1      22.232  19.739  15.322  1.00  0.00     0.088 C 
ATOM     21  C   UNL     1      20.950  21.285  14.066  1.00  0.00     0.088 C 
ATOM     22  N   UNL     1      21.257  20.839  15.433  1.00  0.00    -0.306 NA
ATOM     23  C   UNL     1      21.766  21.942  16.262  1.00  0.00     0.105 C 
ENDBRANCH  14  15
ENDBRANCH  13  14
ENDBRANCH   2  13
BRANCH   8  24
ATOM     24  N   UNL     1      29.710  22.313   6.018  1.00  0.00    -0.337 N 
ATOM     25  H   UNL     1      29.532  21.301   5.835  1.00  0.00     0.168 HD
BRANCH  24  26
ATOM     26  C   UNL     1      31.029  22.825   5.749  1.00  0.00     0.078 A 
ATOM     27  C   UNL     1      31.665  23.693   6.654  1.00  0.00     0.031 A 
ATOM     28  C   UNL     1      31.674  22.498   4.544  1.00  0.00     0.166 A 
ATOM     29  C   UNL     1      32.934  24.201   6.370  1.00  0.00     0.024 A 
ATOM     30  C   UNL     1      32.949  23.007   4.261  1.00  0.00     0.097 A 
ATOM     31  F   UNL     1      31.068  21.672   3.653  1.00  0.00    -0.203 F 
ATOM     32  C   UNL     1      33.582  23.859   5.180  1.00  0.00     0.062 A 
ATOM     33  Cl  UNL     1      33.737  22.562   2.751  1.00  0.00    -0.079 Cl
ATOM     34  Cl  UNL     1      35.180  24.523   4.862  1.00  0.00    -0.083 Cl
ENDBRANCH  24  26
ENDBRANCH   8  24
TORSDOF 6
ENDMDL
MODEL 3
REMARK VINA RESULT:    -8.564      5.051     10.636
REMARK INTER + INTRA:         -12.444
REMARK INTER:                 -11.224
REMARK INTRA:                  -1.220
REMARK UNBOUND:                -0.877
REMARK SMILES COc1cc2c(Nc3ccc(Cl)c(Cl)c3F)ncnc2cc1OC[C@@H]1C[C@@H]2CN(C)C[C@@H]2C1
REMARK SMILES IDX 3 1 22 2 21 3 20 4 19 5 18 6 17 7 6 8 5 9 4 10 2 11 1 12
REMARK SMILES IDX 23 13 24 14 25 15 33 16 26 17 32 18 27 19 31 20 28 21 29 22
REMARK SMILES IDX 30 23 7 24 8 26 9 27 15 28 10 29 13 30 16 31 11 32 14 33
REMARK SMILES IDX 12 34
REMARK H PARENT 7 25
REMARK Flexibility Score: inf
ROOT
ATOM      1  C   UNL     1      29.645  24.417   6.568  1.00  0.00     0.161 A 
ATOM      2  C   UNL     1      30.120  23.190   6.083  1.00  0.00     0.163 A 
ATOM      3  C   UNL     1      29.915  22.018   6.834  1.00  0.00     0.079 A 
ATOM      4  C   UNL     1      29.263  22.072   8.068  1.00  0.00     0.080 A 
ATOM      5  N   UNL     1      29.061  20.929   8.773  1.00  0.00    -0.236 NA
ATOM      6  C   UNL     1      28.429  20.947   9.971  1.00  0.00     0.224 A 
ATOM      7  N   UNL     1      27.995  22.122  10.493  1.00  0.00    -0.219 NA
ATOM      8  C   UNL     1      28.164  23.303   9.837  1.00  0.00     0.141 A 
ATOM      9  C   UNL     1      28.809  23.306   8.580  1.00  0.00     0.047 A 
ATOM     10  C   UNL     1      28.988  24.472   7.814  1.00  0.00     0.064 A 
ENDROOT
BRANCH   1  11
ATOM     11  O   UNL     1      29.847  25.563   5.781  1.00  0.00    -0.493 OA
ATOM     12  C   UNL     1      30.661  26.670   6.156  1.00  0.00     0.278 C 
ENDBRANCH   1  11
BRANCH   2  13
ATOM     13  O   UNL     1      30.785  23.181   4.844  1.00  0.00    -0.489 OA
BRANCH  13  14
ATOM     14  C   UNL     1      30.880  22.065   3.958  1.00  0.00     0.233 C 
BRANCH  14  15
ATOM     15  C   UNL     1      32.352  21.690   3.706  1.00  0.00     0.027 C 
ATOM     16  C   UNL     1      32.993  22.565   2.632  1.00  0.00     0.012 C 
ATOM     17  C   UNL     1      33.229  21.849   4.956  1.00  0.00     0.012 C 
ATOM     18  C   UNL     1      34.477  22.602   2.991  1.00  0.00     0.008 C 
ATOM     19  C   UNL     1      34.520  22.543   4.498  1.00  0.00     0.008 C 
ATOM     20  C   UNL     1      35.168  23.911   2.613  1.00  0.00     0.088 C 
ATOM     21  C   UNL     1      34.619  24.008   4.916  1.00  0.00     0.088 C 
ATOM     22  N   UNL     1      35.334  24.711   3.840  1.00  0.00    -0.306 NA
ATOM     23  C   UNL     1      34.841  26.086   3.670  1.00  0.00     0.105 C 
ENDBRANCH  14  15
ENDBRANCH  13  14
ENDBRANCH   2  13
BRANCH   8  24
ATOM     24  N   UNL     1      27.738  24.523  10.469  1.00  0.00    -0.337 N 
ATOM     25  H   UNL     1      28.379  24.972  11.159  1.00  0.00     0.168 HD
BRANCH  24  26
ATOM     26  C   UNL     1      26.404  25.050  10.344  1.00  0.00     0.078 A 
ATOM     27  C   UNL     1      25.314  24.410  10.960  1.00  0.00     0.031 A 
ATOM     28  C   UNL     1      26.173  26.190   9.555  1.00  0.00     0.166 A 
ATOM     29  C   UNL     1      24.022  24.918  10.813  1.00  0.00     0.024 A 
ATOM     30  C   UNL     1      24.876  26.701   9.409  1.00  0.00     0.097 A 
ATOM     31  F   UNL     1      27.212  26.812   8.942  1.00  0.00    -0.203 F 
ATOM     32  C   UNL     1      23.797  26.064  10.044  1.00  0.00     0.062 A 
ATOM     33  Cl  UNL     1      24.624  28.142   8.430  1.00  0.00    -0.079 Cl
ATOM     34  Cl  UNL     1      22.153  26.670   9.884  1.00  0.00    -0.083 Cl
ENDBRANCH  24  26
ENDBRANCH   8  24
TORSDOF 6
ENDMDL
MODEL 4
REMARK VINA RESULT:    -8.362      1.399      1.942
REMARK INTER + INTRA:         -12.171
REMARK INTER:                 -11.031
REMARK INTRA:                  -1.141
REMARK UNBOUND:                -0.877
REMARK SMILES COc1cc2c(Nc3ccc(Cl)c(Cl)c3F)ncnc2cc1OC[C@@H]1C[C@@H]2CN(C)C[C@@H]2C1
REMARK SMILES IDX 3 1 22 2 21 3 20 4 19 5 18 6 17 7 6 8 5 9 4 10 2 11 1 12
REMARK SMILES IDX 23 13 24 14 25 15 33 16 26 17 32 18 27 19 31 20 28 21 29 22
REMARK SMILES IDX 30 23 7 24 8 26 9 27 15 28 10 29 13 30 16 31 11 32 14 33
REMARK SMILES IDX 12 34
REMARK H PARENT 7 25
REMARK Flexibility Score: inf
ROOT
ATOM      1  C   UNL     1      27.779  22.018   8.816  1.00  0.00     0.161 A 
ATOM      2  C   UNL     1      26.651  22.852   8.869  1.00  0.00     0.163 A 
ATOM      3  C   UNL     1      26.731  24.163   8.366  1.00  0.00     0.079 A 
ATOM      4  C   UNL     1      27.928  24.648   7.835  1.00  0.00     0.080 A 
ATOM      5  N   UNL     1      27.983  25.911   7.341  1.00  0.00    -0.236 NA
ATOM      6  C   UNL     1      29.128  26.409   6.816  1.00  0.00     0.224 A 
ATOM      7  N   UNL     1      30.251  25.648   6.788  1.00  0.00    -0.219 NA
ATOM      8  C   UNL     1      30.263  24.373   7.265  1.00  0.00     0.141 A 
ATOM      9  C   UNL     1      29.076  23.829   7.806  1.00  0.00     0.047 A 
ATOM     10  C   UNL     1      28.988  22.508   8.282  1.00  0.00     0.064 A 
ENDROOT
BRANCH   1  11
ATOM     11  O   UNL     1      27.657  20.708   9.306  1.00  0.00    -0.493 OA
ATOM     12  C   UNL     1      27.627  19.538   8.495  1.00  0.00     0.278 C 
ENDBRANCH   1  11
BRANCH   2  13
ATOM     13  O   UNL     1      25.470  22.330   9.425  1.00  0.00    -0.489 OA
BRANCH  13  14
ATOM     14  C   UNL     1      24.947  22.645  10.717  1.00  0.00     0.233 C 
BRANCH  14  15
ATOM     15  C   UNL     1      25.128  21.461  11.685  1.00  0.00     0.027 C 
ATOM     16  C   UNL     1      24.807  21.842  13.127  1.00  0.00     0.012 C 
ATOM     17  C   UNL     1      24.213  20.274  11.349  1.00  0.00     0.012 C 
ATOM     18  C   UNL     1      24.331  20.545  13.778  1.00  0.00     0.008 C 
ATOM     19  C   UNL     1      23.621  19.790  12.681  1.00  0.00     0.008 C 
ATOM     20  C   UNL     1      23.284  20.755  14.872  1.00  0.00     0.088 C 
ATOM     21  C   UNL     1      22.153  20.157  12.878  1.00  0.00     0.088 C 
ATOM     22  N   UNL     1      21.965  20.407  14.315  1.00  0.00    -0.306 NA
ATOM     23  C   UNL     1      20.971  21.464  14.556  1.00  0.00     0.105 C 
ENDBRANCH  14  15
ENDBRANCH  13  14
ENDBRANCH   2  13
BRANCH   8  24
ATOM     24  N   UNL     1      31.498  23.637   7.265  1.00  0.00    -0.337 N 
ATOM     25  H   UNL     1      31.946  23.421   8.183  1.00  0.00     0.168 HD
BRANCH  24  26
ATOM     26  C   UNL     1      32.244  23.351   6.067  1.00  0.00     0.078 A 
ATOM     27  C   UNL     1      33.429  24.047   5.771  1.00  0.00     0.031 A 
ATOM     28  C   UNL     1      31.760  22.400   5.151  1.00  0.00     0.166 A 
ATOM     29  C   UNL     1      34.131  23.777   4.594  1.00  0.00     0.024 A 
ATOM     30  C   UNL     1      32.467  22.127   3.972  1.00  0.00     0.097 A 
ATOM     31  F   UNL     1      30.611  21.728   5.415  1.00  0.00    -0.203 F 
ATOM     32  C   UNL     1      33.658  22.817   3.695  1.00  0.00     0.062 A 
ATOM     33  Cl  UNL     1      31.843  20.917   2.856  1.00  0.00    -0.079 Cl
ATOM     34  Cl  UNL     1      34.574  22.508   2.224  1.00  0.00    -0.083 Cl
ENDBRANCH  24  26
ENDBRANCH   8  24
TORSDOF 6
ENDMDL
MODEL 5
REMARK VINA RESULT:    -8.317      5.337     11.284
REMARK INTER + INTRA:         -12.111
REMARK INTER:                 -11.212
REMARK INTRA:                  -0.899
REMARK UNBOUND:                -0.877
REMARK SMILES COc1cc2c(Nc3ccc(Cl)c(Cl)c3F)ncnc2cc1OC[C@@H]1C[C@@H]2CN(C)C[C@@H]2C1
REMARK SMILES IDX 3 1 22 2 21 3 20 4 19 5 18 6 17 7 6 8 5 9 4 10 2 11 1 12
REMARK SMILES IDX 23 13 24 14 25 15 33 16 26 17 32 18 27 19 31 20 28 21 29 22
REMARK SMILES IDX 30 23 7 24 8 26 9 27 15 28 10 29 13 30 16 31 11 32 14 33
REMARK SMILES IDX 12 34
REMARK H PARENT 7 25
REMARK Flexibility Score: inf
ROOT
ATOM      1  C   UNL     1      27.858  23.771   8.636  1.00  0.00     0.161 A 
ATOM      2  C   UNL     1      28.832  23.058   7.920  1.00  0.00     0.163 A 
ATOM      3  C   UNL     1      28.915  21.661   8.062  1.00  0.00     0.079 A 
ATOM      4  C   UNL     1      28.053  20.983   8.926  1.00  0.00     0.080 A 
ATOM      5  N   UNL     1      28.138  19.632   9.039  1.00  0.00    -0.236 NA
ATOM      6  C   UNL     1      27.314  18.945   9.865  1.00  0.00     0.224 A 
ATOM      7  N   UNL     1      26.389  19.605  10.607  1.00  0.00    -0.219 NA
ATOM      8  C   UNL     1      26.250  20.957  10.539  1.00  0.00     0.141 A 
ATOM      9  C   UNL     1      27.091  21.693   9.674  1.00  0.00     0.047 A 
ATOM     10  C   UNL     1      26.989  23.087   9.509  1.00  0.00     0.064 A 
ENDROOT
BRANCH   1  11
ATOM     11  O   UNL     1      27.789  25.162   8.453  1.00  0.00    -0.493 OA
ATOM     12  C   UNL     1      26.834  25.824   7.631  1.00  0.00     0.278 C 
ENDBRANCH   1  11
BRANCH   2  13
ATOM     13  O   UNL     1      29.691  23.780   7.073  1.00  0.00    -0.489 OA
BRANCH  13  14
ATOM     14  C   UNL     1      30.299  23.280   5.882  1.00  0.00     0.233 C 
BRANCH  14  15
ATOM     15  C   UNL     1      31.759  22.865   6.144  1.00  0.00     0.027 C 
ATOM     16  C   UNL     1      32.304  21.954   5.048  1.00  0.00     0.012 C 
ATOM     17  C   UNL     1      32.716  24.064   6.209  1.00  0.00     0.012 C 
ATOM     18  C   UNL     1      33.808  22.219   5.031  1.00  0.00     0.008 C 
ATOM     19  C   UNL     1      33.956  23.677   5.389  1.00  0.00     0.008 C 
ATOM     20  C   UNL     1      34.440  22.073   3.647  1.00  0.00     0.088 C 
ATOM     21  C   UNL     1      34.050  24.376   4.037  1.00  0.00     0.088 C 
ATOM     22  N   UNL     1      34.673  23.424   3.106  1.00  0.00    -0.306 NA
ATOM     23  C   UNL     1      34.138  23.568   1.743  1.00  0.00     0.105 C 
ENDBRANCH  14  15
ENDBRANCH  13  14
ENDBRANCH   2  13
BRANCH   8  24
ATOM     24  N   UNL     1      25.295  21.608  11.395  1.00  0.00    -0.337 N 
ATOM     25  H   UNL     1      25.479  22.595  11.681  1.00  0.00     0.168 HD
BRANCH  24  26
ATOM     26  C   UNL     1      24.205  20.913  12.029  1.00  0.00     0.078 A 
ATOM     27  C   UNL     1      23.010  20.658  11.335  1.00  0.00     0.031 A 
ATOM     28  C   UNL     1      24.311  20.528  13.377  1.00  0.00     0.166 A 
ATOM     29  C   UNL     1      21.951  20.004  11.969  1.00  0.00     0.024 A 
ATOM     30  C   UNL     1      23.249  19.869  14.013  1.00  0.00     0.097 A 
ATOM     31  F   UNL     1      25.453  20.779  14.066  1.00  0.00    -0.203 F 
ATOM     32  C   UNL     1      22.066  19.604  13.304  1.00  0.00     0.062 A 
ATOM     33  Cl  UNL     1      23.422  19.383  15.695  1.00  0.00    -0.079 Cl
ATOM     34  Cl  UNL     1      20.708  18.783  14.064  1.00  0.00    -0.083 Cl
ENDBRANCH  24  26
ENDBRANCH   8  24
TORSDOF 6
ENDMDL
MODEL 6
REMARK VINA RESULT:    -8.168      2.223      2.815
REMARK INTER + INTRA:         -11.910
REMARK INTER:                 -10.588
REMARK INTRA:                  -1.321
REMARK UNBOUND:                -0.877
REMARK SMILES COc1cc2c(Nc3ccc(Cl)c(Cl)c3F)ncnc2cc1OC[C@@H]1C[C@@H]2CN(C)C[C@@H]2C1
REMARK SMILES IDX 3 1 22 2 21 3 20 4 19 5 18 6 17 7 6 8 5 9 4 10 2 11 1 12
REMARK SMILES IDX 23 13 24 14 25 15 33 16 26 17 32 18 27 19 31 20 28 21 29 22
REMARK SMILES IDX 30 23 7 24 8 26 9 27 15 28 10 29 13 30 16 31 11 32 14 33
REMARK SMILES IDX 12 34
REMARK H PARENT 7 25
REMARK Flexibility Score: inf
ROOT
ATOM      1  C   UNL     1      27.019  20.660   9.584  1.00  0.00     0.161 A 
ATOM      2  C   UNL     1      26.138  21.522  10.254  1.00  0.00     0.163 A 
ATOM      3  C   UNL     1      25.977  22.843   9.799  1.00  0.00     0.079 A 
ATOM      4  C   UNL     1      26.704  23.308   8.700  1.00  0.00     0.080 A 
ATOM      5  N   UNL     1      26.525  24.582   8.266  1.00  0.00    -0.236 NA
ATOM      6  C   UNL     1      27.211  25.062   7.201  1.00  0.00     0.224 A 
ATOM      7  N   UNL     1      28.105  24.271   6.555  1.00  0.00    -0.219 NA
ATOM      8  C   UNL     1      28.330  22.984   6.939  1.00  0.00     0.141 A 
ATOM      9  C   UNL     1      27.616  22.459   8.039  1.00  0.00     0.047 A 
ATOM     10  C   UNL     1      27.753  21.129   8.477  1.00  0.00     0.064 A 
ENDROOT
BRANCH   1  11
ATOM     11  O   UNL     1      27.138  19.341  10.053  1.00  0.00    -0.493 OA
ATOM     12  C   UNL     1      28.091  18.396   9.579  1.00  0.00     0.278 C 
ENDBRANCH   1  11
BRANCH   2  13
ATOM     13  O   UNL     1      25.437  21.019  11.365  1.00  0.00    -0.489 OA
BRANCH  13  14
ATOM     14  C   UNL     1      24.079  20.576  11.362  1.00  0.00     0.233 C 
BRANCH  14  15
ATOM     15  C   UNL     1      23.199  21.501  12.223  1.00  0.00     0.027 C 
ATOM     16  C   UNL     1      24.028  22.494  13.032  1.00  0.00     0.012 C 
ATOM     17  C   UNL     1      22.227  22.346  11.387  1.00  0.00     0.012 C 
ATOM     18  C   UNL     1      23.117  23.706  13.215  1.00  0.00     0.008 C 
ATOM     19  C   UNL     1      22.287  23.771  11.957  1.00  0.00     0.008 C 
ATOM     20  C   UNL     1      23.868  25.035  13.278  1.00  0.00     0.088 C 
ATOM     21  C   UNL     1      23.042  24.761  11.075  1.00  0.00     0.088 C 
ATOM     22  N   UNL     1      23.714  25.709  11.976  1.00  0.00    -0.306 NA
ATOM     23  C   UNL     1      25.007  26.151  11.431  1.00  0.00     0.105 C 
ENDBRANCH  14  15
ENDBRANCH  13  14
ENDBRANCH   2  13
BRANCH   8  24
ATOM     24  N   UNL     1      29.334  22.214   6.255  1.00  0.00    -0.337 N 
ATOM     25  H   UNL     1      29.147  21.202   6.080  1.00  0.00     0.168 HD
BRANCH  24  26
ATOM     26  C   UNL     1      30.654  22.715   5.973  1.00  0.00     0.078 A 
ATOM     27  C   UNL     1      31.322  23.547   6.889  1.00  0.00     0.031 A 
ATOM     28  C   UNL     1      31.268  22.415   4.745  1.00  0.00     0.166 A 
ATOM     29  C   UNL     1      32.592  24.045   6.593  1.00  0.00     0.024 A 
ATOM     30  C   UNL     1      32.545  22.914   4.450  1.00  0.00     0.097 A 
ATOM     31  F   UNL     1      30.632  21.625   3.844  1.00  0.00    -0.203 F 
ATOM     32  C   UNL     1      33.210  23.730   5.379  1.00  0.00     0.062 A 
ATOM     33  Cl  UNL     1      33.294  22.503   2.911  1.00  0.00    -0.079 Cl
ATOM     34  Cl  UNL     1      34.811  24.379   5.047  1.00  0.00    -0.083 Cl
ENDBRANCH  24  26
ENDBRANCH   8  24
TORSDOF 6
ENDMDL
MODEL 7
REMARK VINA RESULT:    -8.160      3.238      4.587
REMARK INTER + INTRA:         -11.898
REMARK INTER:                 -10.817
REMARK INTRA:                  -1.082
REMARK UNBOUND:                -0.877
REMARK SMILES COc1cc2c(Nc3ccc(Cl)c(Cl)c3F)ncnc2cc1OC[C@@H]1C[C@@H]2CN(C)C[C@@H]2C1
REMARK SMILES IDX 3 1 22 2 21 3 20 4 19 5 18 6 17 7 6 8 5 9 4 10 2 11 1 12
REMARK SMILES IDX 23 13 24 14 25 15 33 16 26 17 32 18 27 19 31 20 28 21 29 22
REMARK SMILES IDX 30 23 7 24 8 26 9 27 15 28 10 29 13 30 16 31 11 32 14 33
REMARK SMILES IDX 12 34
REMARK H PARENT 7 25
REMARK Flexibility Score: inf
ROOT
ATOM      1  C   UNL     1      25.098  22.495  10.288  1.00  0.00     0.161 A 
ATOM      2  C   UNL     1      24.507  21.558  11.150  1.00  0.00     0.163 A 
ATOM      3  C   UNL     1      25.016  20.248  11.208  1.00  0.00     0.079 A 
ATOM      4  C   UNL     1      26.088  19.867  10.397  1.00  0.00     0.080 A 
ATOM      5  N   UNL     1      26.575  18.602  10.477  1.00  0.00    -0.236 NA
ATOM      6  C   UNL     1      27.616  18.203   9.707  1.00  0.00     0.224 A 
ATOM      7  N   UNL     1      28.184  19.067   8.828  1.00  0.00    -0.219 NA
ATOM      8  C   UNL     1      27.744  20.350   8.702  1.00  0.00     0.141 A 
ATOM      9  C   UNL     1      26.668  20.792   9.504  1.00  0.00     0.047 A 
ATOM     10  C   UNL     1      26.178  22.110   9.469  1.00  0.00     0.064 A 
ENDROOT
BRANCH   1  11
ATOM     11  O   UNL     1      24.578  23.800  10.273  1.00  0.00    -0.493 OA
ATOM     12  C   UNL     1      25.345  24.974  10.026  1.00  0.00     0.278 C 
ENDBRANCH   1  11
BRANCH   2  13
ATOM     13  O   UNL     1      23.421  21.978  11.938  1.00  0.00    -0.489 OA
BRANCH  13  14
ATOM     14  C   UNL     1      22.050  21.973  11.537  1.00  0.00     0.233 C 
BRANCH  14  15
ATOM     15  C   UNL     1      21.195  21.152  12.519  1.00  0.00     0.027 C 
ATOM     16  C   UNL     1      21.795  19.776  12.793  1.00  0.00     0.012 C 
ATOM     17  C   UNL     1      21.048  21.828  13.890  1.00  0.00     0.012 C 
ATOM     18  C   UNL     1      21.324  19.418  14.202  1.00  0.00     0.008 C 
ATOM     19  C   UNL     1      21.259  20.731  14.942  1.00  0.00     0.008 C 
ATOM     20  C   UNL     1      22.318  18.557  14.981  1.00  0.00     0.088 C 
ATOM     21  C   UNL     1      22.603  20.808  15.661  1.00  0.00     0.088 C 
ATOM     22  N   UNL     1      23.016  19.426  15.945  1.00  0.00    -0.306 NA
ATOM     23  C   UNL     1      24.477  19.270  15.867  1.00  0.00     0.105 C 
ENDBRANCH  14  15
ENDBRANCH  13  14
ENDBRANCH   2  13
BRANCH   8  24
ATOM     24  N   UNL     1      28.345  21.201   7.710  1.00  0.00    -0.337 N 
ATOM     25  H   UNL     1      28.327  20.890   6.714  1.00  0.00     0.168 HD
BRANCH  24  26
ATOM     26  C   UNL     1      29.133  22.360   8.041  1.00  0.00     0.078 A 
ATOM     27  C   UNL     1      29.920  22.390   9.206  1.00  0.00     0.031 A 
ATOM     28  C   UNL     1      29.081  23.500   7.219  1.00  0.00     0.166 A 
ATOM     29  C   UNL     1      30.662  23.528   9.527  1.00  0.00     0.024 A 
ATOM     30  C   UNL     1      29.828  24.641   7.541  1.00  0.00     0.097 A 
ATOM     31  F   UNL     1      28.316  23.492   6.098  1.00  0.00    -0.203 F 
ATOM     32  C   UNL     1      30.624  24.653   8.698  1.00  0.00     0.062 A 
ATOM     33  Cl  UNL     1      29.755  26.044   6.481  1.00  0.00    -0.079 Cl
ATOM     34  Cl  UNL     1      31.574  26.066   9.141  1.00  0.00    -0.083 Cl
ENDBRANCH  24  26
ENDBRANCH   8  24
TORSDOF 6
ENDMDL
MODEL 8
REMARK VINA RESULT:    -8.126      4.694     10.652
REMARK INTER + INTRA:         -11.852
REMARK INTER:                 -10.872
REMARK INTRA:                  -0.980
REMARK UNBOUND:                -0.877
REMARK SMILES COc1cc2c(Nc3ccc(Cl)c(Cl)c3F)ncnc2cc1OC[C@@H]1C[C@@H]2CN(C)C[C@@H]2C1
REMARK SMILES IDX 3 1 22 2 21 3 20 4 19 5 18 6 17 7 6 8 5 9 4 10 2 11 1 12
REMARK SMILES IDX 23 13 24 14 25 15 33 16 26 17 32 18 27 19 31 20 28 21 29 22
REMARK SMILES IDX 30 23 7 24 8 26 9 27 15 28 10 29 13 30 16 31 11 32 14 33
REMARK SMILES IDX 12 34
REMARK H PARENT 7 25
REMARK Flexibility Score: inf
ROOT
ATOM      1  C   UNL     1      28.464  22.517   8.560  1.00  0.00     0.161 A 
ATOM      2  C   UNL     1      28.747  23.063   7.299  1.00  0.00     0.163 A 
ATOM      3  C   UNL     1      28.154  24.281   6.919  1.00  0.00     0.079 A 
ATOM      4  C   UNL     1      27.270  24.938   7.779  1.00  0.00     0.080 A 
ATOM      5  N   UNL     1      26.719  26.120   7.402  1.00  0.00    -0.236 NA
ATOM      6  C   UNL     1      25.861  26.783   8.214  1.00  0.00     0.224 A 
ATOM      7  N   UNL     1      25.529  26.264   9.422  1.00  0.00    -0.219 NA
ATOM      8  C   UNL     1      26.048  25.084   9.861  1.00  0.00     0.141 A 
ATOM      9  C   UNL     1      26.954  24.381   9.036  1.00  0.00     0.047 A 
ATOM     10  C   UNL     1      27.571  23.178   9.426  1.00  0.00     0.064 A 
ENDROOT
BRANCH   1  11
ATOM     11  O   UNL     1      29.091  21.311   8.914  1.00  0.00    -0.493 OA
ATOM     12  C   UNL     1      30.098  21.185   9.913  1.00  0.00     0.278 C 
ENDBRANCH   1  11
BRANCH   2  13
ATOM     13  O   UNL     1      29.629  22.363   6.458  1.00  0.00    -0.489 OA
BRANCH  13  14
ATOM     14  C   UNL     1      30.315  22.909   5.330  1.00  0.00     0.233 C 
BRANCH  14  15
ATOM     15  C   UNL     1      31.439  21.966   4.863  1.00  0.00     0.027 C 
ATOM     16  C   UNL     1      31.901  22.281   3.443  1.00  0.00     0.012 C 
ATOM     17  C   UNL     1      32.695  22.056   5.743  1.00  0.00     0.012 C 
ATOM     18  C   UNL     1      33.362  21.840   3.399  1.00  0.00     0.008 C 
ATOM     19  C   UNL     1      33.895  22.101   4.786  1.00  0.00     0.008 C 
ATOM     20  C   UNL     1      34.230  22.680   2.463  1.00  0.00     0.088 C 
ATOM     21  C   UNL     1      34.548  23.475   4.672  1.00  0.00     0.088 C 
ATOM     22  N   UNL     1      35.026  23.607   3.288  1.00  0.00    -0.306 NA
ATOM     23  C   UNL     1      34.923  24.994   2.808  1.00  0.00     0.105 C 
ENDBRANCH  14  15
ENDBRANCH  13  14
ENDBRANCH   2  13
BRANCH   8  24
ATOM     24  N   UNL     1      25.611  24.553  11.124  1.00  0.00    -0.337 N 
ATOM     25  H   UNL     1      26.218  24.706  11.961  1.00  0.00     0.168 HD
BRANCH  24  26
ATOM     26  C   UNL     1      24.487  23.665  11.259  1.00  0.00     0.078 A 
ATOM     27  C   UNL     1      23.171  24.139  11.119  1.00  0.00     0.031 A 
ATOM     28  C   UNL     1      24.698  22.313  11.585  1.00  0.00     0.166 A 
ATOM     29  C   UNL     1      22.088  23.271  11.275  1.00  0.00     0.024 A 
ATOM     30  C   UNL     1      23.611  21.442  11.738  1.00  0.00     0.097 A 
ATOM     31  F   UNL     1      25.962  21.842  11.737  1.00  0.00    -0.203 F 
ATOM     32  C   UNL     1      22.301  21.924  11.580  1.00  0.00     0.062 A 
ATOM     33  Cl  UNL     1      23.910  19.752  12.128  1.00  0.00    -0.079 Cl
ATOM     34  Cl  UNL     1      20.908  20.865  11.768  1.00  0.00    -0.083 Cl
ENDBRANCH  24  26
ENDBRANCH   8  24
TORSDOF 6
ENDMDL
MODEL 9
REMARK VINA RESULT:    -8.071      2.721      3.883
REMARK INTER + INTRA:         -11.779
REMARK INTER:                 -10.376
REMARK INTRA:                  -1.403
REMARK UNBOUND:                -0.877
REMARK SMILES COc1cc2c(Nc3ccc(Cl)c(Cl)c3F)ncnc2cc1OC[C@@H]1C[C@@H]2CN(C)C[C@@H]2C1
REMARK SMILES IDX 3 1 22 2 21 3 20 4 19 5 18 6 17 7 6 8 5 9 4 10 2 11 1 12
REMARK SMILES IDX 23 13 24 14 25 15 33 16 26 17 32 18 27 19 31 20 28 21 29 22
REMARK SMILES IDX 30 23 7 24 8 26 9 27 15 28 10 29 13 30 16 31 11 32 14 33
REMARK SMILES IDX 12 34
REMARK H PARENT 7 25
REMARK Flexibility Score: inf
ROOT
ATOM      1  C   UNL     1      25.198  20.340  10.924  1.00  0.00     0.161 A 
ATOM      2  C   UNL     1      23.968  20.964  11.178  1.00  0.00     0.163 A 
ATOM      3  C   UNL     1      23.889  22.369  11.185  1.00  0.00     0.079 A 
ATOM      4  C   UNL     1      25.030  23.144  10.963  1.00  0.00     0.080 A 
ATOM      5  N   UNL     1      24.932  24.499  10.959  1.00  0.00    -0.236 NA
ATOM      6  C   UNL     1      26.018  25.279  10.744  1.00  0.00     0.224 A 
ATOM      7  N   UNL     1      27.233  24.711  10.538  1.00  0.00    -0.219 NA
ATOM      8  C   UNL     1      27.399  23.360  10.528  1.00  0.00     0.141 A 
ATOM      9  C   UNL     1      26.277  22.526  10.738  1.00  0.00     0.047 A 
ATOM     10  C   UNL     1      26.349  21.122  10.702  1.00  0.00     0.064 A 
ENDROOT
BRANCH   1  11
ATOM     11  O   UNL     1      25.235  18.936  10.902  1.00  0.00    -0.493 OA
ATOM     12  C   UNL     1      26.160  18.161  10.146  1.00  0.00     0.278 C 
ENDBRANCH   1  11
BRANCH   2  13
ATOM     13  O   UNL     1      22.847  20.148  11.411  1.00  0.00    -0.489 OA
BRANCH  13  14
ATOM     14  C   UNL     1      21.495  20.598  11.511  1.00  0.00     0.233 C 
BRANCH  14  15
ATOM     15  C   UNL     1      20.952  20.390  12.937  1.00  0.00     0.027 C 
ATOM     16  C   UNL     1      21.717  19.307  13.692  1.00  0.00     0.012 C 
ATOM     17  C   UNL     1      21.052  21.656  13.801  1.00  0.00     0.012 C 
ATOM     18  C   UNL     1      21.601  19.700  15.164  1.00  0.00     0.008 C 
ATOM     19  C   UNL     1      21.585  21.208  15.170  1.00  0.00     0.008 C 
ATOM     20  C   UNL     1      22.814  19.300  16.003  1.00  0.00     0.088 C 
ATOM     21  C   UNL     1      23.042  21.585  15.423  1.00  0.00     0.088 C 
ATOM     22  N   UNL     1      23.628  20.507  16.233  1.00  0.00    -0.306 NA
ATOM     23  C   UNL     1      25.044  20.286  15.899  1.00  0.00     0.105 C 
ENDBRANCH  14  15
ENDBRANCH  13  14
ENDBRANCH   2  13
BRANCH   8  24
ATOM     24  N   UNL     1      28.721  22.817  10.367  1.00  0.00    -0.337 N 
ATOM     25  H   UNL     1      29.079  22.161  11.097  1.00  0.00     0.168 HD
BRANCH  24  26
ATOM     26  C   UNL     1      29.644  23.276   9.362  1.00  0.00     0.078 A 
ATOM     27  C   UNL     1      30.642  24.216   9.673  1.00  0.00     0.031 A 
ATOM     28  C   UNL     1      29.518  22.822   8.037  1.00  0.00     0.166 A 
ATOM     29  C   UNL     1      31.516  24.671   8.683  1.00  0.00     0.024 A 
ATOM     30  C   UNL     1      30.398  23.277   7.045  1.00  0.00     0.097 A 
ATOM     31  F   UNL     1      28.552  21.925   7.716  1.00  0.00    -0.203 F 
ATOM     32  C   UNL     1      31.402  24.203   7.371  1.00  0.00     0.062 A 
ATOM     33  Cl  UNL     1      30.226  22.674   5.400  1.00  0.00    -0.079 Cl
ATOM     34  Cl  UNL     1      32.524  24.803   6.156  1.00  0.00    -0.083 Cl
ENDBRANCH  24  26
ENDBRANCH   8  24
TORSDOF 6
ENDMDL
MODEL 10
REMARK VINA RESULT:    -7.971      5.567     10.814
REMARK INTER + INTRA:         -11.643
REMARK INTER:                 -10.505
REMARK INTRA:                  -1.138
REMARK UNBOUND:                -0.877
REMARK SMILES COc1cc2c(Nc3ccc(Cl)c(Cl)c3F)ncnc2cc1OC[C@@H]1C[C@@H]2CN(C)C[C@@H]2C1
REMARK SMILES IDX 3 1 22 2 21 3 20 4 19 5 18 6 17 7 6 8 5 9 4 10 2 11 1 12
REMARK SMILES IDX 23 13 24 14 25 15 33 16 26 17 32 18 27 19 31 20 28 21 29 22
REMARK SMILES IDX 30 23 7 24 8 26 9 27 15 28 10 29 13 30 16 31 11 32 14 33
REMARK SMILES IDX 12 34
REMARK H PARENT 7 25
REMARK Flexibility Score: inf
ROOT
ATOM      1  C   UNL     1      26.494  23.365  10.450  1.00  0.00     0.161 A 
ATOM      2  C   UNL     1      27.843  23.060  10.213  1.00  0.00     0.163 A 
ATOM      3  C   UNL     1      28.241  21.716  10.089  1.00  0.00     0.079 A 
ATOM      4  C   UNL     1      27.308  20.685  10.220  1.00  0.00     0.080 A 
ATOM      5  N   UNL     1      27.707  19.395  10.082  1.00  0.00    -0.236 NA
ATOM      6  C   UNL     1      26.826  18.373  10.201  1.00  0.00     0.224 A 
ATOM      7  N   UNL     1      25.522  18.627  10.473  1.00  0.00    -0.219 NA
ATOM      8  C   UNL     1      25.056  19.898  10.621  1.00  0.00     0.141 A 
ATOM      9  C   UNL     1      25.955  20.980  10.489  1.00  0.00     0.047 A 
ATOM     10  C   UNL     1      25.553  22.325  10.584  1.00  0.00     0.064 A 
ENDROOT
BRANCH   1  11
ATOM     11  O   UNL     1      26.129  24.718  10.546  1.00  0.00    -0.493 OA
ATOM     12  C   UNL     1      25.232  25.380   9.661  1.00  0.00     0.278 C 
ENDBRANCH   1  11
BRANCH   2  13
ATOM     13  O   UNL     1      28.753  24.127  10.102  1.00  0.00    -0.489 OA
BRANCH  13  14
ATOM     14  C   UNL     1      30.147  24.005   9.819  1.00  0.00     0.233 C 
BRANCH  14  15
ATOM     15  C   UNL     1      30.534  24.856   8.595  1.00  0.00     0.027 C 
ATOM     16  C   UNL     1      31.986  24.640   8.180  1.00  0.00     0.012 C 
ATOM     17  C   UNL     1      29.689  24.532   7.355  1.00  0.00     0.012 C 
ATOM     18  C   UNL     1      32.009  24.913   6.678  1.00  0.00     0.008 C 
ATOM     19  C   UNL     1      30.665  24.449   6.172  1.00  0.00     0.008 C 
ATOM     20  C   UNL     1      33.041  24.081   5.918  1.00  0.00     0.088 C 
ATOM     21  C   UNL     1      30.931  23.029   5.684  1.00  0.00     0.088 C 
ATOM     22  N   UNL     1      32.330  22.987   5.231  1.00  0.00    -0.306 NA
ATOM     23  C   UNL     1      32.948  21.679   5.496  1.00  0.00     0.105 C 
ENDBRANCH  14  15
ENDBRANCH  13  14
ENDBRANCH   2  13
BRANCH   8  24
ATOM     24  N   UNL     1      23.676  20.102  10.970  1.00  0.00    -0.337 N 
ATOM     25  H   UNL     1      22.980  20.201  10.198  1.00  0.00     0.168 HD
BRANCH  24  26
ATOM     26  C   UNL     1      23.235  20.368  12.315  1.00  0.00     0.078 A 
ATOM     27  C   UNL     1      23.864  19.760  13.415  1.00  0.00     0.031 A 
ATOM     28  C   UNL     1      22.128  21.206  12.535  1.00  0.00     0.166 A 
ATOM     29  C   UNL     1      23.412  20.009  14.712  1.00  0.00     0.024 A 
ATOM     30  C   UNL     1      21.676  21.457  13.838  1.00  0.00     0.097 A 
ATOM     31  F   UNL     1      21.500  21.791  11.483  1.00  0.00    -0.203 F 
ATOM     32  C   UNL     1      22.324  20.858  14.931  1.00  0.00     0.062 A 
ATOM     33  Cl  UNL     1      20.300  22.527  14.081  1.00  0.00    -0.079 Cl
ATOM     34  Cl  UNL     1      21.787  21.143  16.582  1.00  0.00    -0.083 Cl
ENDBRANCH  24  26
ENDBRANCH   8  24
TORSDOF 6
ENDMDL
MODEL 11
REMARK VINA RESULT:    -7.909      2.768      4.117
REMARK INTER + INTRA:         -11.560
REMARK INTER:                 -10.306
REMARK INTRA:                  -1.254
REMARK UNBOUND:                -0.877
REMARK SMILES COc1cc2c(Nc3ccc(Cl)c(Cl)c3F)ncnc2cc1OC[C@@H]1C[C@@H]2CN(C)C[C@@H]2C1
REMARK SMILES IDX 3 1 22 2 21 3 20 4 19 5 18 6 17 7 6 8 5 9 4 10 2 11 1 12
REMARK SMILES IDX 23 13 24 14 25 15 33 16 26 17 32 18 27 19 31 20 28 21 29 22
REMARK SMILES IDX 30 23 7 24 8 26 9 27 15 28 10 29 13 30 16 31 11 32 14 33
REMARK SMILES IDX 12 34
REMARK H PARENT 7 25
REMARK Flexibility Score: inf
ROOT
ATOM      1  C   UNL     1      26.607  25.350   8.500  1.00  0.00     0.161 A 
ATOM      2  C   UNL     1      26.097  24.914   9.732  1.00  0.00     0.163 A 
ATOM      3  C   UNL     1      26.480  23.659  10.239  1.00  0.00     0.079 A 
ATOM      4  C   UNL     1      27.345  22.835   9.514  1.00  0.00     0.080 A 
ATOM      5  N   UNL     1      27.715  21.633  10.025  1.00  0.00    -0.236 NA
ATOM      6  C   UNL     1      28.555  20.813   9.348  1.00  0.00     0.224 A 
ATOM      7  N   UNL     1      29.033  21.181   8.133  1.00  0.00    -0.219 NA
ATOM      8  C   UNL     1      28.702  22.374   7.566  1.00  0.00     0.141 A 
ATOM      9  C   UNL     1      27.838  23.250   8.259  1.00  0.00     0.047 A 
ATOM     10  C   UNL     1      27.478  24.518   7.768  1.00  0.00     0.064 A 
ENDROOT
BRANCH   1  11
ATOM     11  O   UNL     1      26.221  26.618   8.036  1.00  0.00    -0.493 OA
ATOM     12  C   UNL     1      26.845  27.842   8.409  1.00  0.00     0.278 C 
ENDBRANCH   1  11
BRANCH   2  13
ATOM     13  O   UNL     1      25.218  25.766  10.423  1.00  0.00    -0.489 OA
BRANCH  13  14
ATOM     14  C   UNL     1      23.823  25.918  10.155  1.00  0.00     0.233 C 
BRANCH  14  15
ATOM     15  C   UNL     1      22.981  25.485  11.370  1.00  0.00     0.027 C 
ATOM     16  C   UNL     1      22.088  24.290  11.054  1.00  0.00     0.012 C 
ATOM     17  C   UNL     1      23.842  25.062  12.569  1.00  0.00     0.012 C 
ATOM     18  C   UNL     1      21.914  23.568  12.389  1.00  0.00     0.008 C 
ATOM     19  C   UNL     1      23.216  23.773  13.121  1.00  0.00     0.008 C 
ATOM     20  C   UNL     1      21.756  22.054  12.252  1.00  0.00     0.088 C 
ATOM     21  C   UNL     1      24.013  22.511  12.806  1.00  0.00     0.088 C 
ATOM     22  N   UNL     1      23.039  21.426  12.617  1.00  0.00    -0.306 NA
ATOM     23  C   UNL     1      23.488  20.464  11.599  1.00  0.00     0.105 C 
ENDBRANCH  14  15
ENDBRANCH  13  14
ENDBRANCH   2  13
BRANCH   8  24
ATOM     24  N   UNL     1      29.190  22.682   6.248  1.00  0.00    -0.337 N 
ATOM     25  H   UNL     1      28.564  22.499   5.433  1.00  0.00     0.168 HD
BRANCH  24  26
ATOM     26  C   UNL     1      30.557  23.047   5.981  1.00  0.00     0.078 A 
ATOM     27  C   UNL     1      31.272  23.871   6.867  1.00  0.00     0.031 A 
ATOM     28  C   UNL     1      31.175  22.620   4.792  1.00  0.00     0.166 A 
ATOM     29  C   UNL     1      32.589  24.236   6.585  1.00  0.00     0.024 A 
ATOM     30  C   UNL     1      32.499  22.985   4.510  1.00  0.00     0.097 A 
ATOM     31  F   UNL     1      30.495  21.835   3.918  1.00  0.00    -0.203 F 
ATOM     32  C   UNL     1      33.209  23.794   5.412  1.00  0.00     0.062 A 
ATOM     33  Cl  UNL     1      33.250  22.417   3.023  1.00  0.00    -0.079 Cl
ATOM     34  Cl  UNL     1      34.870  24.279   5.095  1.00  0.00    -0.083 Cl
ENDBRANCH  24  26
ENDBRANCH   8  24
TORSDOF 6
ENDMDL
MODEL 12
REMARK VINA RESULT:    -7.903      2.337      3.105
REMARK INTER + INTRA:         -11.551
REMARK INTER:                 -10.157
REMARK INTRA:                  -1.394
REMARK UNBOUND:                -0.877
REMARK SMILES COc1cc2c(Nc3ccc(Cl)c(Cl)c3F)ncnc2cc1OC[C@@H]1C[C@@H]2CN(C)C[C@@H]2C1
REMARK SMILES IDX 3 1 22 2 21 3 20 4 19 5 18 6 17 7 6 8 5 9 4 10 2 11 1 12
REMARK SMILES IDX 23 13 24 14 25 15 33 16 26 17 32 18 27 19 31 20 28 21 29 22
REMARK SMILES IDX 30 23 7 24 8 26 9 27 15 28 10 29 13 30 16 31 11 32 14 33
REMARK SMILES IDX 12 34
REMARK H PARENT 7 25
REMARK Flexibility Score: inf
ROOT
ATOM      1  C   UNL     1      28.383  21.108   9.433  1.00  0.00     0.161 A 
ATOM      2  C   UNL     1      27.512  22.082   9.945  1.00  0.00     0.163 A 
ATOM      3  C   UNL     1      27.352  23.300   9.260  1.00  0.00     0.079 A 
ATOM      4  C   UNL     1      28.070  23.556   8.090  1.00  0.00     0.080 A 
ATOM      5  N   UNL     1      27.892  24.732   7.435  1.00  0.00    -0.236 NA
ATOM      6  C   UNL     1      28.570  25.009   6.295  1.00  0.00     0.224 A 
ATOM      7  N   UNL     1      29.454  24.110   5.795  1.00  0.00    -0.219 NA
ATOM      8  C   UNL     1      29.678  22.912   6.401  1.00  0.00     0.141 A 
ATOM      9  C   UNL     1      28.972  22.597   7.584  1.00  0.00     0.047 A 
ATOM     10  C   UNL     1      29.109  21.367   8.253  1.00  0.00     0.064 A 
ENDROOT
BRANCH   1  11
ATOM     11  O   UNL     1      28.501  19.894  10.130  1.00  0.00    -0.493 OA
ATOM     12  C   UNL     1      27.800  18.700   9.801  1.00  0.00     0.278 C 
ENDBRANCH   1  11
BRANCH   2  13
ATOM     13  O   UNL     1      26.820  21.791  11.134  1.00  0.00    -0.489 OA
BRANCH  13  14
ATOM     14  C   UNL     1      25.450  21.399  11.225  1.00  0.00     0.233 C 
BRANCH  14  15
ATOM     15  C   UNL     1      24.619  22.474  11.949  1.00  0.00     0.027 C 
ATOM     16  C   UNL     1      25.495  23.566  12.556  1.00  0.00     0.012 C 
ATOM     17  C   UNL     1      23.635  23.195  11.015  1.00  0.00     0.012 C 
ATOM     18  C   UNL     1      24.615  24.814  12.565  1.00  0.00     0.008 C 
ATOM     19  C   UNL     1      23.744  24.692  11.340  1.00  0.00     0.008 C 
ATOM     20  C   UNL     1      25.395  26.116  12.384  1.00  0.00     0.088 C 
ATOM     21  C   UNL     1      24.486  25.505  10.283  1.00  0.00     0.088 C 
ATOM     22  N   UNL     1      25.209  26.570  10.994  1.00  0.00    -0.306 NA
ATOM     23  C   UNL     1      26.490  26.884  10.343  1.00  0.00     0.105 C 
ENDBRANCH  14  15
ENDBRANCH  13  14
ENDBRANCH   2  13
BRANCH   8  24
ATOM     24  N   UNL     1      30.672  22.026   5.858  1.00  0.00    -0.337 N 
ATOM     25  H   UNL     1      30.741  21.061   6.250  1.00  0.00     0.168 HD
BRANCH  24  26
ATOM     26  C   UNL     1      31.697  22.458   4.945  1.00  0.00     0.078 A 
ATOM     27  C   UNL     1      31.718  22.003   3.615  1.00  0.00     0.031 A 
ATOM     28  C   UNL     1      32.724  23.306   5.395  1.00  0.00     0.166 A 
ATOM     29  C   UNL     1      32.730  22.411   2.744  1.00  0.00     0.024 A 
ATOM     30  C   UNL     1      33.739  23.718   4.520  1.00  0.00     0.097 A 
ATOM     31  F   UNL     1      32.727  23.744   6.679  1.00  0.00    -0.203 F 
ATOM     32  C   UNL     1      33.739  23.270   3.189  1.00  0.00     0.062 A 
ATOM     33  Cl  UNL     1      34.999  24.795   5.110  1.00  0.00    -0.079 Cl
ATOM     34  Cl  UNL     1      34.996  23.759   2.059  1.00  0.00    -0.083 Cl
ENDBRANCH  24  26
ENDBRANCH   8  24
TORSDOF 6
ENDMDL
MODEL 13
REMARK VINA RESULT:    -7.882      6.474     10.671
REMARK INTER + INTRA:         -11.523
REMARK INTER:                  -9.986
REMARK INTRA:                  -1.537
REMARK UNBOUND:                -0.877
REMARK SMILES COc1cc2c(Nc3ccc(Cl)c(Cl)c3F)ncnc2cc1OC[C@@H]1C[C@@H]2CN(C)C[C@@H]2C1
REMARK SMILES IDX 3 1 22 2 21 3 20 4 19 5 18 6 17 7 6 8 5 9 4 10 2 11 1 12
REMARK SMILES IDX 23 13 24 14 25 15 33 16 26 17 32 18 27 19 31 20 28 21 29 22
REMARK SMILES IDX 30 23 7 24 8 26 9 27 15 28 10 29 13 30 16 31 11 32 14 33
REMARK SMILES IDX 12 34
REMARK H PARENT 7 25
REMARK Flexibility Score: inf
ROOT
ATOM      1  C   UNL     1      25.678  20.252  10.785  1.00  0.00     0.161 A 
ATOM      2  C   UNL     1      26.024  21.505  10.257  1.00  0.00     0.163 A 
ATOM      3  C   UNL     1      25.135  22.587  10.395  1.00  0.00     0.079 A 
ATOM      4  C   UNL     1      23.904  22.417  11.032  1.00  0.00     0.080 A 
ATOM      5  N   UNL     1      23.065  23.476  11.168  1.00  0.00    -0.236 NA
ATOM      6  C   UNL     1      21.865  23.345  11.784  1.00  0.00     0.224 A 
ATOM      7  N   UNL     1      21.477  22.138  12.267  1.00  0.00    -0.219 NA
ATOM      8  C   UNL     1      22.272  21.037  12.165  1.00  0.00     0.141 A 
ATOM      9  C   UNL     1      23.533  21.154  11.537  1.00  0.00     0.047 A 
ATOM     10  C   UNL     1      24.435  20.080  11.426  1.00  0.00     0.064 A 
ENDROOT
BRANCH   1  11
ATOM     11  O   UNL     1      26.599  19.200  10.649  1.00  0.00    -0.493 OA
ATOM     12  C   UNL     1      26.444  18.097   9.762  1.00  0.00     0.278 C 
ENDBRANCH   1  11
BRANCH   2  13
ATOM     13  O   UNL     1      27.266  21.630   9.610  1.00  0.00    -0.489 OA
BRANCH  13  14
ATOM     14  C   UNL     1      27.482  21.550   8.201  1.00  0.00     0.233 C 
BRANCH  14  15
ATOM     15  C   UNL     1      27.950  22.906   7.641  1.00  0.00     0.027 C 
ATOM     16  C   UNL     1      26.780  23.829   7.314  1.00  0.00     0.012 C 
ATOM     17  C   UNL     1      28.836  23.683   8.626  1.00  0.00     0.012 C 
ATOM     18  C   UNL     1      27.335  25.241   7.484  1.00  0.00     0.008 C 
ATOM     19  C   UNL     1      28.343  25.137   8.601  1.00  0.00     0.008 C 
ATOM     20  C   UNL     1      26.297  26.256   7.963  1.00  0.00     0.088 C 
ATOM     21  C   UNL     1      27.554  25.547   9.841  1.00  0.00     0.088 C 
ATOM     22  N   UNL     1      26.527  26.501   9.398  1.00  0.00    -0.306 NA
ATOM     23  C   UNL     1      25.289  26.368  10.181  1.00  0.00     0.105 C 
ENDBRANCH  14  15
ENDBRANCH  13  14
ENDBRANCH   2  13
BRANCH   8  24
ATOM     24  N   UNL     1      21.781  19.772  12.641  1.00  0.00    -0.337 N 
ATOM     25  H   UNL     1      21.128  19.233  12.030  1.00  0.00     0.168 HD
BRANCH  24  26
ATOM     26  C   UNL     1      21.988  19.302  13.986  1.00  0.00     0.078 A 
ATOM     27  C   UNL     1      23.065  19.773  14.757  1.00  0.00     0.031 A 
ATOM     28  C   UNL     1      21.137  18.322  14.524  1.00  0.00     0.166 A 
ATOM     29  C   UNL     1      23.269  19.292  16.052  1.00  0.00     0.024 A 
ATOM     30  C   UNL     1      21.340  17.842  15.825  1.00  0.00     0.097 A 
ATOM     31  F   UNL     1      20.100  17.846  13.788  1.00  0.00    -0.203 F 
ATOM     32  C   UNL     1      22.409  18.332  16.592  1.00  0.00     0.062 A 
ATOM     33  Cl  UNL     1      20.244  16.628  16.476  1.00  0.00    -0.079 Cl
ATOM     34  Cl  UNL     1      22.703  17.753  18.228  1.00  0.00    -0.083 Cl
ENDBRANCH  24  26
ENDBRANCH   8  24
TORSDOF 6
ENDMDL
MODEL 14
REMARK VINA RESULT:    -7.868      5.121     10.983
REMARK INTER + INTRA:         -11.504
REMARK INTER:                 -10.375
REMARK INTRA:                  -1.129
REMARK UNBOUND:                -0.877
REMARK SMILES COc1cc2c(Nc3ccc(Cl)c(Cl)c3F)ncnc2cc1OC[C@@H]1C[C@@H]2CN(C)C[C@@H]2C1
REMARK SMILES IDX 3 1 22 2 21 3 20 4 19 5 18 6 17 7 6 8 5 9 4 10 2 11 1 12
REMARK SMILES IDX 23 13 24 14 25 15 33 16 26 17 32 18 27 19 31 20 28 21 29 22
REMARK SMILES IDX 30 23 7 24 8 26 9 27 15 28 10 29 13 30 16 31 11 32 14 33
REMARK SMILES IDX 12 34
REMARK H PARENT 7 25
REMARK Flexibility Score: inf
ROOT
ATOM      1  C   UNL     1      28.157  23.693   9.014  1.00  0.00     0.161 A 
ATOM      2  C   UNL     1      28.613  23.256   7.761  1.00  0.00     0.163 A 
ATOM      3  C   UNL     1      28.271  21.970   7.306  1.00  0.00     0.079 A 
ATOM      4  C   UNL     1      27.501  21.118   8.101  1.00  0.00     0.080 A 
ATOM      5  N   UNL     1      27.168  19.885   7.640  1.00  0.00    -0.236 NA
ATOM      6  C   UNL     1      26.419  19.037   8.385  1.00  0.00     0.224 A 
ATOM      7  N   UNL     1      25.998  19.407   9.620  1.00  0.00    -0.219 NA
ATOM      8  C   UNL     1      26.294  20.630  10.140  1.00  0.00     0.141 A 
ATOM      9  C   UNL     1      27.064  21.535   9.376  1.00  0.00     0.047 A 
ATOM     10  C   UNL     1      27.381  22.833   9.817  1.00  0.00     0.064 A 
ENDROOT
BRANCH   1  11
ATOM     11  O   UNL     1      28.498  24.992   9.426  1.00  0.00    -0.493 OA
ATOM     12  C   UNL     1      29.490  25.297  10.401  1.00  0.00     0.278 C 
ENDBRANCH   1  11
BRANCH   2  13
ATOM     13  O   UNL     1      29.398  24.139   6.999  1.00  0.00    -0.489 OA
BRANCH  13  14
ATOM     14  C   UNL     1      30.139  23.794   5.827  1.00  0.00     0.233 C 
BRANCH  14  15
ATOM     15  C   UNL     1      31.528  23.244   6.200  1.00  0.00     0.027 C 
ATOM     16  C   UNL     1      32.089  22.320   5.122  1.00  0.00     0.012 C 
ATOM     17  C   UNL     1      32.575  24.351   6.391  1.00  0.00     0.012 C 
ATOM     18  C   UNL     1      33.606  22.451   5.245  1.00  0.00     0.008 C 
ATOM     19  C   UNL     1      33.846  23.879   5.668  1.00  0.00     0.008 C 
ATOM     20  C   UNL     1      34.345  22.289   3.917  1.00  0.00     0.088 C 
ATOM     21  C   UNL     1      34.120  24.606   4.356  1.00  0.00     0.088 C 
ATOM     22  N   UNL     1      34.740  23.630   3.448  1.00  0.00    -0.306 NA
ATOM     23  C   UNL     1      34.343  23.861   2.050  1.00  0.00     0.105 C 
ENDBRANCH  14  15
ENDBRANCH  13  14
ENDBRANCH   2  13
BRANCH   8  24
ATOM     24  N   UNL     1      25.872  20.943  11.479  1.00  0.00    -0.337 N 
ATOM     25  H   UNL     1      26.598  20.995  12.227  1.00  0.00     0.168 HD
BRANCH  24  26
ATOM     26  C   UNL     1      24.489  20.998  11.876  1.00  0.00     0.078 A 
ATOM     27  C   UNL     1      23.923  19.981  12.665  1.00  0.00     0.031 A 
ATOM     28  C   UNL     1      23.674  22.052  11.429  1.00  0.00     0.166 A 
ATOM     29  C   UNL     1      22.575  20.033  13.024  1.00  0.00     0.024 A 
ATOM     30  C   UNL     1      22.321  22.106  11.792  1.00  0.00     0.097 A 
ATOM     31  F   UNL     1      24.201  23.035  10.655  1.00  0.00    -0.203 F 
ATOM     32  C   UNL     1      21.771  21.093  12.595  1.00  0.00     0.062 A 
ATOM     33  Cl  UNL     1      21.333  23.450  11.231  1.00  0.00    -0.079 Cl
ATOM     34  Cl  UNL     1      20.077  21.120  13.070  1.00  0.00    -0.083 Cl
ENDBRANCH  24  26
ENDBRANCH   8  24
TORSDOF 6
ENDMDL
MODEL 15
REMARK VINA RESULT:    -7.867      5.987     11.353
REMARK INTER + INTRA:         -11.504
REMARK INTER:                 -10.543
REMARK INTRA:                  -0.961
REMARK UNBOUND:                -0.877
REMARK SMILES COc1cc2c(Nc3ccc(Cl)c(Cl)c3F)ncnc2cc1OC[C@@H]1C[C@@H]2CN(C)C[C@@H]2C1
REMARK SMILES IDX 3 1 22 2 21 3 20 4 19 5 18 6 17 7 6 8 5 9 4 10 2 11 1 12
REMARK SMILES IDX 23 13 24 14 25 15 33 16 26 17 32 18 27 19 31 20 28 21 29 22
REMARK SMILES IDX 30 23 7 24 8 26 9 27 15 28 10 29 13 30 16 31 11 32 14 33
REMARK SMILES IDX 12 34
REMARK H PARENT 7 25
REMARK Flexibility Score: inf
ROOT
ATOM      1  C   UNL     1      25.981  20.173  10.744  1.00  0.00     0.161 A 
ATOM      2  C   UNL     1      26.334  21.418  10.202  1.00  0.00     0.163 A 
ATOM      3  C   UNL     1      25.437  22.497  10.298  1.00  0.00     0.079 A 
ATOM      4  C   UNL     1      24.191  22.333  10.907  1.00  0.00     0.080 A 
ATOM      5  N   UNL     1      23.344  23.389  11.003  1.00  0.00    -0.236 NA
ATOM      6  C   UNL     1      22.130  23.263  11.592  1.00  0.00     0.224 A 
ATOM      7  N   UNL     1      21.736  22.063  12.087  1.00  0.00    -0.219 NA
ATOM      8  C   UNL     1      22.538  20.965  12.025  1.00  0.00     0.141 A 
ATOM      9  C   UNL     1      23.814  21.077  11.427  1.00  0.00     0.047 A 
ATOM     10  C   UNL     1      24.724  20.006  11.358  1.00  0.00     0.064 A 
ENDROOT
BRANCH   1  11
ATOM     11  O   UNL     1      26.911  19.124  10.651  1.00  0.00    -0.493 OA
ATOM     12  C   UNL     1      26.971  18.188   9.579  1.00  0.00     0.278 C 
ENDBRANCH   1  11
BRANCH   2  13
ATOM     13  O   UNL     1      27.591  21.538   9.584  1.00  0.00    -0.489 OA
BRANCH  13  14
ATOM     14  C   UNL     1      27.828  21.562   8.176  1.00  0.00     0.233 C 
BRANCH  14  15
ATOM     15  C   UNL     1      28.432  22.912   7.745  1.00  0.00     0.027 C 
ATOM     16  C   UNL     1      29.913  23.017   8.095  1.00  0.00     0.012 C 
ATOM     17  C   UNL     1      28.339  23.148   6.230  1.00  0.00     0.012 C 
ATOM     18  C   UNL     1      30.497  23.962   7.047  1.00  0.00     0.008 C 
ATOM     19  C   UNL     1      29.704  23.697   5.791  1.00  0.00     0.008 C 
ATOM     20  C   UNL     1      31.950  23.657   6.685  1.00  0.00     0.088 C 
ATOM     21  C   UNL     1      30.561  22.693   5.026  1.00  0.00     0.088 C 
ATOM     22  N   UNL     1      31.961  22.966   5.383  1.00  0.00    -0.306 NA
ATOM     23  C   UNL     1      32.762  21.733   5.424  1.00  0.00     0.105 C 
ENDBRANCH  14  15
ENDBRANCH  13  14
ENDBRANCH   2  13
BRANCH   8  24
ATOM     24  N   UNL     1      22.042  19.706  12.512  1.00  0.00    -0.337 N 
ATOM     25  H   UNL     1      21.452  19.127  11.874  1.00  0.00     0.168 HD
BRANCH  24  26
ATOM     26  C   UNL     1      22.154  19.294  13.886  1.00  0.00     0.078 A 
ATOM     27  C   UNL     1      23.212  19.749  14.693  1.00  0.00     0.031 A 
ATOM     28  C   UNL     1      21.227  18.382  14.422  1.00  0.00     0.166 A 
ATOM     29  C   UNL     1      23.323  19.324  16.018  1.00  0.00     0.024 A 
ATOM     30  C   UNL     1      21.338  17.957  15.753  1.00  0.00     0.097 A 
ATOM     31  F   UNL     1      20.208  17.922  13.653  1.00  0.00    -0.203 F 
ATOM     32  C   UNL     1      22.389  18.433  16.554  1.00  0.00     0.062 A 
ATOM     33  Cl  UNL     1      20.149  16.831  16.398  1.00  0.00    -0.079 Cl
ATOM     34  Cl  UNL     1      22.567  17.922  18.229  1.00  0.00    -0.083 Cl
ENDBRANCH  24  26
ENDBRANCH   8  24
TORSDOF 6
ENDMDL
