MODEL 1
REMARK VINA RESULT:    -8.685      0.000      0.000
REMARK INTER + INTRA:         -16.187
REMARK INTER:                 -14.778
REMARK INTRA:                  -1.409
REMARK UNBOUND:                -1.409
REMARK SMILES CCOc1cc2ncc(C#N)c(Nc3ccc(OCc4ccccn4)c(Cl)c3)c2cc1NC(=O)/C=C/CN(C)C
REMARK SMILES IDX 4 1 31 2 30 3 29 4 12 5 9 6 8 7 7 8 6 9 5 10 3 11 2 12 1 13
REMARK SMILES IDX 32 14 33 15 34 17 35 18 36 19 37 20 38 21 39 22 40 23 13 24
REMARK SMILES IDX 14 26 15 27 28 28 16 29 26 30 17 31 27 32 18 33 19 34 20 35
REMARK SMILES IDX 21 36 25 37 22 38 24 39 23 40 10 41 11 42
REMARK H PARENT 32 16 13 25
REMARK Flexibility Score: inf
ROOT
ATOM      1  C   UNL     1      26.365  23.084  31.502  1.00  0.00     0.144 A 
ATOM      2  C   UNL     1      26.587  22.486  32.760  1.00  0.00     0.084 A 
ATOM      3  C   UNL     1      27.124  21.195  32.838  1.00  0.00     0.042 A 
ATOM      4  C   UNL     1      27.391  20.458  31.673  1.00  0.00     0.027 A 
ATOM      5  C   UNL     1      27.906  19.145  31.718  1.00  0.00     0.068 A 
ATOM      6  C   UNL     1      28.122  18.445  30.517  1.00  0.00     0.094 A 
ATOM      7  C   UNL     1      27.841  19.069  29.297  1.00  0.00     0.133 A 
ATOM      8  N   UNL     1      27.359  20.338  29.274  1.00  0.00    -0.255 NA
ATOM      9  C   UNL     1      27.127  21.042  30.413  1.00  0.00     0.076 A 
ATOM     10  C   UNL     1      26.631  22.345  30.334  1.00  0.00     0.077 A 
ENDROOT
BRANCH   1  11
ATOM     11  O   UNL     1      25.913  24.415  31.458  1.00  0.00    -0.492 OA
BRANCH  11  12
ATOM     12  C   UNL     1      26.570  25.502  30.808  1.00  0.00     0.226 C 
ATOM     13  C   UNL     1      27.983  25.682  31.351  1.00  0.00     0.049 C 
ENDBRANCH  11  12
ENDBRANCH   1  11
BRANCH   2  14
ATOM     14  N   UNL     1      26.299  23.194  33.977  1.00  0.00    -0.319 N 
ATOM     15  C   UNL     1      25.741  22.557  35.136  1.00  0.00     0.248 C 
ATOM     16  H   UNL     1      26.626  24.184  34.062  1.00  0.00     0.170 HD
ATOM     17  O   UNL     1      25.651  21.299  35.185  1.00  0.00    -0.270 OA
BRANCH  15  18
ATOM     18  C   UNL     1      25.300  23.378  36.279  1.00  0.00     0.068 C 
ATOM     19  C   UNL     1      24.082  23.260  36.816  1.00  0.00    -0.006 C 
BRANCH  19  20
ATOM     20  C   UNL     1      23.666  24.115  37.979  1.00  0.00     0.111 C 
BRANCH  20  21
ATOM     21  N   UNL     1      22.206  24.339  37.961  1.00  0.00    -0.306 NA
ATOM     22  C   UNL     1      21.507  23.110  37.551  1.00  0.00     0.105 C 
ATOM     23  C   UNL     1      21.726  24.758  39.290  1.00  0.00     0.105 C 
ENDBRANCH  20  21
ENDBRANCH  19  20
ENDBRANCH  15  18
ENDBRANCH   2  14
BRANCH   5  24
ATOM     24  N   UNL     1      28.221  18.521  32.972  1.00  0.00    -0.354 N 
ATOM     25  H   UNL     1      29.061  18.870  33.487  1.00  0.00     0.167 HD
BRANCH  24  26
ATOM     26  C   UNL     1      27.365  17.550  33.600  1.00  0.00     0.040 A 
ATOM     27  C   UNL     1      25.992  17.814  33.712  1.00  0.00     0.030 A 
ATOM     28  C   UNL     1      27.868  16.331  34.091  1.00  0.00     0.050 A 
ATOM     29  C   UNL     1      25.134  16.881  34.300  1.00  0.00     0.050 A 
ATOM     30  C   UNL     1      27.010  15.394  34.678  1.00  0.00     0.085 A 
ATOM     31  C   UNL     1      25.635  15.656  34.781  1.00  0.00     0.138 A 
ATOM     32  Cl  UNL     1      27.675  13.879  35.269  1.00  0.00    -0.080 Cl
BRANCH  31  33
ATOM     33  O   UNL     1      24.808  14.681  35.365  1.00  0.00    -0.486 OA
BRANCH  33  34
ATOM     34  C   UNL     1      24.283  13.533  34.697  1.00  0.00     0.285 C 
BRANCH  34  35
ATOM     35  C   UNL     1      23.817  13.883  33.313  1.00  0.00     0.078 A 
ATOM     36  C   UNL     1      24.628  13.624  32.198  1.00  0.00     0.027 A 
ATOM     37  N   UNL     1      22.582  14.429  33.135  1.00  0.00    -0.258 NA
ATOM     38  C   UNL     1      24.164  13.950  30.923  1.00  0.00     0.004 A 
ATOM     39  C   UNL     1      22.112  14.751  31.901  1.00  0.00     0.111 A 
ATOM     40  C   UNL     1      22.897  14.519  30.769  1.00  0.00     0.020 A 
ENDBRANCH  34  35
ENDBRANCH  33  34
ENDBRANCH  31  33
ENDBRANCH  24  26
ENDBRANCH   5  24
BRANCH   6  41
ATOM     41  C   UNL     1      28.648  17.103  30.523  1.00  0.00     0.103 C 
ATOM     42  N   UNL     1      29.069  16.025  30.530  1.00  0.00    -0.192 NA
ENDBRANCH   6  41
TORSDOF 12
ENDMDL
MODEL 2
REMARK VINA RESULT:    -8.541      9.685     16.704
REMARK INTER + INTRA:         -15.941
REMARK INTER:                 -14.721
REMARK INTRA:                  -1.221
REMARK UNBOUND:                -1.409
REMARK SMILES CCOc1cc2ncc(C#N)c(Nc3ccc(OCc4ccccn4)c(Cl)c3)c2cc1NC(=O)/C=C/CN(C)C
REMARK SMILES IDX 4 1 31 2 30 3 29 4 12 5 9 6 8 7 7 8 6 9 5 10 3 11 2 12 1 13
REMARK SMILES IDX 32 14 33 15 34 17 35 18 36 19 37 20 38 21 39 22 40 23 13 24
REMARK SMILES IDX 14 26 15 27 28 28 16 29 26 30 17 31 27 32 18 33 19 34 20 35
REMARK SMILES IDX 21 36 25 37 22 38 24 39 23 40 10 41 11 42
REMARK H PARENT 32 16 13 25
REMARK Flexibility Score: inf
ROOT
ATOM      1  C   UNL     1      10.457  24.844  39.272  1.00  0.00     0.144 A 
ATOM      2  C   UNL     1      11.646  24.407  39.890  1.00  0.00     0.084 A 
ATOM      3  C   UNL     1      12.374  25.280  40.709  1.00  0.00     0.042 A 
ATOM      4  C   UNL     1      11.964  26.613  40.878  1.00  0.00     0.027 A 
ATOM      5  C   UNL     1      12.689  27.525  41.674  1.00  0.00     0.068 A 
ATOM      6  C   UNL     1      12.247  28.856  41.777  1.00  0.00     0.094 A 
ATOM      7  C   UNL     1      11.085  29.249  41.106  1.00  0.00     0.133 A 
ATOM      8  N   UNL     1      10.393  28.354  40.356  1.00  0.00    -0.255 NA
ATOM      9  C   UNL     1      10.795  27.062  40.223  1.00  0.00     0.076 A 
ATOM     10  C   UNL     1      10.046  26.180  39.439  1.00  0.00     0.077 A 
ENDROOT
BRANCH   1  11
ATOM     11  O   UNL     1       9.701  23.917  38.532  1.00  0.00    -0.492 OA
BRANCH  11  12
ATOM     12  C   UNL     1       8.805  22.946  39.070  1.00  0.00     0.226 C 
ATOM     13  C   UNL     1       7.723  23.616  39.910  1.00  0.00     0.049 C 
ENDBRANCH  11  12
ENDBRANCH   1  11
BRANCH   2  14
ATOM     14  N   UNL     1      12.117  23.060  39.719  1.00  0.00    -0.319 N 
ATOM     15  C   UNL     1      13.177  22.713  38.815  1.00  0.00     0.248 C 
ATOM     16  H   UNL     1      11.759  22.325  40.371  1.00  0.00     0.170 HD
ATOM     17  O   UNL     1      13.862  23.619  38.264  1.00  0.00    -0.270 OA
BRANCH  15  18
ATOM     18  C   UNL     1      13.479  21.293  38.555  1.00  0.00     0.068 C 
ATOM     19  C   UNL     1      13.489  20.779  37.321  1.00  0.00    -0.006 C 
BRANCH  19  20
ATOM     20  C   UNL     1      13.798  19.327  37.095  1.00  0.00     0.111 C 
BRANCH  20  21
ATOM     21  N   UNL     1      12.724  18.684  36.310  1.00  0.00    -0.306 NA
ATOM     22  C   UNL     1      11.628  18.261  37.198  1.00  0.00     0.105 C 
ATOM     23  C   UNL     1      12.200  19.606  35.287  1.00  0.00     0.105 C 
ENDBRANCH  20  21
ENDBRANCH  19  20
ENDBRANCH  15  18
ENDBRANCH   2  14
BRANCH   5  24
ATOM     24  N   UNL     1      13.864  27.107  42.385  1.00  0.00    -0.354 N 
ATOM     25  H   UNL     1      13.751  26.836  43.388  1.00  0.00     0.167 HD
BRANCH  24  26
ATOM     26  C   UNL     1      15.140  26.918  41.746  1.00  0.00     0.040 A 
ATOM     27  C   UNL     1      15.411  25.705  41.097  1.00  0.00     0.030 A 
ATOM     28  C   UNL     1      16.120  27.929  41.741  1.00  0.00     0.050 A 
ATOM     29  C   UNL     1      16.633  25.501  40.452  1.00  0.00     0.050 A 
ATOM     30  C   UNL     1      17.343  27.728  41.093  1.00  0.00     0.085 A 
ATOM     31  C   UNL     1      17.609  26.516  40.437  1.00  0.00     0.138 A 
ATOM     32  Cl  UNL     1      18.536  29.018  41.100  1.00  0.00    -0.080 Cl
BRANCH  31  33
ATOM     33  O   UNL     1      18.846  26.362  39.788  1.00  0.00    -0.486 OA
BRANCH  33  34
ATOM     34  C   UNL     1      20.076  26.005  40.421  1.00  0.00     0.285 C 
BRANCH  34  35
ATOM     35  C   UNL     1      20.772  24.911  39.663  1.00  0.00     0.078 A 
ATOM     36  C   UNL     1      20.251  24.437  38.451  1.00  0.00     0.027 A 
ATOM     37  N   UNL     1      21.937  24.394  40.144  1.00  0.00    -0.258 NA
ATOM     38  C   UNL     1      20.927  23.427  37.763  1.00  0.00     0.004 A 
ATOM     39  C   UNL     1      22.610  23.412  39.488  1.00  0.00     0.111 A 
ATOM     40  C   UNL     1      22.114  22.907  38.284  1.00  0.00     0.020 A 
ENDBRANCH  34  35
ENDBRANCH  33  34
ENDBRANCH  31  33
ENDBRANCH  24  26
ENDBRANCH   5  24
BRANCH   6  41
ATOM     41  C   UNL     1      12.961  29.815  42.583  1.00  0.00     0.103 C 
ATOM     42  N   UNL     1      13.534  30.584  43.231  1.00  0.00    -0.192 NA
ENDBRANCH   6  41
TORSDOF 12
ENDMDL
MODEL 3
REMARK VINA RESULT:    -8.393      9.775     16.747
REMARK INTER + INTRA:         -15.690
REMARK INTER:                 -14.193
REMARK INTRA:                  -1.497
REMARK UNBOUND:                -1.409
REMARK SMILES CCOc1cc2ncc(C#N)c(Nc3ccc(OCc4ccccn4)c(Cl)c3)c2cc1NC(=O)/C=C/CN(C)C
REMARK SMILES IDX 4 1 31 2 30 3 29 4 12 5 9 6 8 7 7 8 6 9 5 10 3 11 2 12 1 13
REMARK SMILES IDX 32 14 33 15 34 17 35 18 36 19 37 20 38 21 39 22 40 23 13 24
REMARK SMILES IDX 14 26 15 27 28 28 16 29 26 30 17 31 27 32 18 33 19 34 20 35
REMARK SMILES IDX 21 36 25 37 22 38 24 39 23 40 10 41 11 42
REMARK H PARENT 32 16 13 25
REMARK Flexibility Score: inf
ROOT
ATOM      1  C   UNL     1      10.808  22.797  41.263  1.00  0.00     0.144 A 
ATOM      2  C   UNL     1      11.662  23.330  40.276  1.00  0.00     0.084 A 
ATOM      3  C   UNL     1      12.308  24.555  40.493  1.00  0.00     0.042 A 
ATOM      4  C   UNL     1      12.067  25.294  41.663  1.00  0.00     0.027 A 
ATOM      5  C   UNL     1      12.680  26.543  41.899  1.00  0.00     0.068 A 
ATOM      6  C   UNL     1      12.373  27.252  43.075  1.00  0.00     0.094 A 
ATOM      7  C   UNL     1      11.483  26.698  43.999  1.00  0.00     0.133 A 
ATOM      8  N   UNL     1      10.914  25.488  43.762  1.00  0.00    -0.255 NA
ATOM      9  C   UNL     1      11.177  24.779  42.632  1.00  0.00     0.076 A 
ATOM     10  C   UNL     1      10.565  23.538  42.435  1.00  0.00     0.077 A 
ENDROOT
BRANCH   1  11
ATOM     11  O   UNL     1      10.249  21.523  41.055  1.00  0.00    -0.492 OA
BRANCH  11  12
ATOM     12  C   UNL     1      10.491  20.362  41.849  1.00  0.00     0.226 C 
ATOM     13  C   UNL     1      11.967  19.983  41.815  1.00  0.00     0.049 C 
ENDBRANCH  11  12
ENDBRANCH   1  11
BRANCH   2  14
ATOM     14  N   UNL     1      11.912  22.620  39.052  1.00  0.00    -0.319 N 
ATOM     15  C   UNL     1      13.168  21.990  38.758  1.00  0.00     0.248 C 
ATOM     16  H   UNL     1      11.108  22.451  38.406  1.00  0.00     0.170 HD
ATOM     17  O   UNL     1      14.048  21.882  39.657  1.00  0.00    -0.270 OA
BRANCH  15  18
ATOM     18  C   UNL     1      13.414  21.443  37.410  1.00  0.00     0.068 C 
ATOM     19  C   UNL     1      12.420  21.149  36.567  1.00  0.00    -0.006 C 
BRANCH  19  20
ATOM     20  C   UNL     1      12.707  20.591  35.203  1.00  0.00     0.111 C 
BRANCH  20  21
ATOM     21  N   UNL     1      11.989  19.314  35.003  1.00  0.00    -0.306 NA
ATOM     22  C   UNL     1      11.165  19.004  36.182  1.00  0.00     0.105 C 
ATOM     23  C   UNL     1      11.132  19.379  33.806  1.00  0.00     0.105 C 
ENDBRANCH  20  21
ENDBRANCH  19  20
ENDBRANCH  15  18
ENDBRANCH   2  14
BRANCH   5  24
ATOM     24  N   UNL     1      13.616  27.092  40.960  1.00  0.00    -0.354 N 
ATOM     25  H   UNL     1      13.264  27.817  40.294  1.00  0.00     0.167 HD
BRANCH  24  26
ATOM     26  C   UNL     1      15.024  26.792  40.991  1.00  0.00     0.040 A 
ATOM     27  C   UNL     1      15.449  25.469  40.802  1.00  0.00     0.030 A 
ATOM     28  C   UNL     1      15.988  27.797  41.190  1.00  0.00     0.050 A 
ATOM     29  C   UNL     1      16.810  25.152  40.808  1.00  0.00     0.050 A 
ATOM     30  C   UNL     1      17.351  27.482  41.193  1.00  0.00     0.085 A 
ATOM     31  C   UNL     1      17.776  26.159  40.995  1.00  0.00     0.138 A 
ATOM     32  Cl  UNL     1      18.525  28.767  41.433  1.00  0.00    -0.080 Cl
BRANCH  31  33
ATOM     33  O   UNL     1      19.155  25.890  40.992  1.00  0.00    -0.486 OA
BRANCH  33  34
ATOM     34  C   UNL     1      20.060  26.209  39.934  1.00  0.00     0.285 C 
BRANCH  34  35
ATOM     35  C   UNL     1      20.779  24.982  39.454  1.00  0.00     0.078 A 
ATOM     36  C   UNL     1      20.312  24.268  38.341  1.00  0.00     0.027 A 
ATOM     37  N   UNL     1      21.914  24.575  40.087  1.00  0.00    -0.258 NA
ATOM     38  C   UNL     1      21.008  23.137  37.911  1.00  0.00     0.004 A 
ATOM     39  C   UNL     1      22.607  23.477  39.682  1.00  0.00     0.111 A 
ATOM     40  C   UNL     1      22.163  22.735  38.585  1.00  0.00     0.020 A 
ENDBRANCH  34  35
ENDBRANCH  33  34
ENDBRANCH  31  33
ENDBRANCH  24  26
ENDBRANCH   5  24
BRANCH   6  41
ATOM     41  C   UNL     1      12.981  28.530  43.351  1.00  0.00     0.103 C 
ATOM     42  N   UNL     1      13.468  29.556  43.571  1.00  0.00    -0.192 NA
ENDBRANCH   6  41
TORSDOF 12
ENDMDL
MODEL 4
REMARK VINA RESULT:    -8.155     10.085     17.165
REMARK INTER + INTRA:         -15.285
REMARK INTER:                 -13.662
REMARK INTRA:                  -1.623
REMARK UNBOUND:                -1.409
REMARK SMILES CCOc1cc2ncc(C#N)c(Nc3ccc(OCc4ccccn4)c(Cl)c3)c2cc1NC(=O)/C=C/CN(C)C
REMARK SMILES IDX 4 1 31 2 30 3 29 4 12 5 9 6 8 7 7 8 6 9 5 10 3 11 2 12 1 13
REMARK SMILES IDX 32 14 33 15 34 17 35 18 36 19 37 20 38 21 39 22 40 23 13 24
REMARK SMILES IDX 14 26 15 27 28 28 16 29 26 30 17 31 27 32 18 33 19 34 20 35
REMARK SMILES IDX 21 36 25 37 22 38 24 39 23 40 10 41 11 42
REMARK H PARENT 32 16 13 25
REMARK Flexibility Score: inf
ROOT
ATOM      1  C   UNL     1      10.513  22.941  42.076  1.00  0.00     0.144 A 
ATOM      2  C   UNL     1      11.319  23.263  40.965  1.00  0.00     0.084 A 
ATOM      3  C   UNL     1      12.038  24.466  40.944  1.00  0.00     0.042 A 
ATOM      4  C   UNL     1      11.919  25.390  41.995  1.00  0.00     0.027 A 
ATOM      5  C   UNL     1      12.607  26.621  41.992  1.00  0.00     0.068 A 
ATOM      6  C   UNL     1      12.422  27.520  43.058  1.00  0.00     0.094 A 
ATOM      7  C   UNL     1      11.574  27.171  44.113  1.00  0.00     0.133 A 
ATOM      8  N   UNL     1      10.931  25.975  44.105  1.00  0.00    -0.255 NA
ATOM      9  C   UNL     1      11.076  25.085  43.088  1.00  0.00     0.076 A 
ATOM     10  C   UNL     1      10.391  23.868  43.129  1.00  0.00     0.077 A 
ENDROOT
BRANCH   1  11
ATOM     11  O   UNL     1       9.878  21.687  42.108  1.00  0.00    -0.492 OA
BRANCH  11  12
ATOM     12  C   UNL     1       8.471  21.462  42.183  1.00  0.00     0.226 C 
ATOM     13  C   UNL     1       7.813  21.695  40.828  1.00  0.00     0.049 C 
ENDBRANCH  11  12
ENDBRANCH   1  11
BRANCH   2  14
ATOM     14  N   UNL     1      11.445  22.359  39.855  1.00  0.00    -0.319 N 
ATOM     15  C   UNL     1      10.647  22.468  38.667  1.00  0.00     0.248 C 
ATOM     16  H   UNL     1      12.235  21.674  39.863  1.00  0.00     0.170 HD
ATOM     17  O   UNL     1       9.923  23.486  38.480  1.00  0.00    -0.270 OA
BRANCH  15  18
ATOM     18  C   UNL     1      10.700  21.399  37.652  1.00  0.00     0.068 C 
ATOM     19  C   UNL     1      11.814  21.112  36.973  1.00  0.00    -0.006 C 
BRANCH  19  20
ATOM     20  C   UNL     1      11.830  20.018  35.944  1.00  0.00     0.111 C 
BRANCH  20  21
ATOM     21  N   UNL     1      12.733  18.926  36.362  1.00  0.00    -0.306 NA
ATOM     22  C   UNL     1      13.819  19.457  37.202  1.00  0.00     0.105 C 
ATOM     23  C   UNL     1      11.993  17.894  37.109  1.00  0.00     0.105 C 
ENDBRANCH  20  21
ENDBRANCH  19  20
ENDBRANCH  15  18
ENDBRANCH   2  14
BRANCH   5  24
ATOM     24  N   UNL     1      13.500  26.961  40.921  1.00  0.00    -0.354 N 
ATOM     25  H   UNL     1      13.111  27.520  40.127  1.00  0.00     0.167 HD
BRANCH  24  26
ATOM     26  C   UNL     1      14.913  26.690  40.962  1.00  0.00     0.040 A 
ATOM     27  C   UNL     1      15.366  25.376  40.779  1.00  0.00     0.030 A 
ATOM     28  C   UNL     1      15.855  27.715  41.166  1.00  0.00     0.050 A 
ATOM     29  C   UNL     1      16.733  25.086  40.795  1.00  0.00     0.050 A 
ATOM     30  C   UNL     1      17.225  27.428  41.180  1.00  0.00     0.085 A 
ATOM     31  C   UNL     1      17.677  26.114  40.987  1.00  0.00     0.138 A 
ATOM     32  Cl  UNL     1      18.370  28.737  41.426  1.00  0.00    -0.080 Cl
BRANCH  31  33
ATOM     33  O   UNL     1      19.061  25.872  40.995  1.00  0.00    -0.486 OA
BRANCH  33  34
ATOM     34  C   UNL     1      19.970  26.225  39.951  1.00  0.00     0.285 C 
BRANCH  34  35
ATOM     35  C   UNL     1      20.704  25.015  39.447  1.00  0.00     0.078 A 
ATOM     36  C   UNL     1      20.287  24.360  38.280  1.00  0.00     0.027 A 
ATOM     37  N   UNL     1      21.804  24.569  40.114  1.00  0.00    -0.258 NA
ATOM     38  C   UNL     1      20.996  23.245  37.829  1.00  0.00     0.004 A 
ATOM     39  C   UNL     1      22.509  23.486  39.690  1.00  0.00     0.111 A 
ATOM     40  C   UNL     1      22.115  22.801  38.538  1.00  0.00     0.020 A 
ENDBRANCH  34  35
ENDBRANCH  33  34
ENDBRANCH  31  33
ENDBRANCH  24  26
ENDBRANCH   5  24
BRANCH   6  41
ATOM     41  C   UNL     1      13.110  28.787  43.089  1.00  0.00     0.103 C 
ATOM     42  N   UNL     1      13.663  29.803  43.113  1.00  0.00    -0.192 NA
ENDBRANCH   6  41
TORSDOF 12
ENDMDL
MODEL 5
REMARK VINA RESULT:    -8.028      1.851      2.862
REMARK INTER + INTRA:         -15.069
REMARK INTER:                 -14.409
REMARK INTRA:                  -0.660
REMARK UNBOUND:                -1.409
REMARK SMILES CCOc1cc2ncc(C#N)c(Nc3ccc(OCc4ccccn4)c(Cl)c3)c2cc1NC(=O)/C=C/CN(C)C
REMARK SMILES IDX 4 1 31 2 30 3 29 4 12 5 9 6 8 7 7 8 6 9 5 10 3 11 2 12 1 13
REMARK SMILES IDX 32 14 33 15 34 17 35 18 36 19 37 20 38 21 39 22 40 23 13 24
REMARK SMILES IDX 14 26 15 27 28 28 16 29 26 30 17 31 27 32 18 33 19 34 20 35
REMARK SMILES IDX 21 36 25 37 22 38 24 39 23 40 10 41 11 42
REMARK H PARENT 32 16 13 25
REMARK Flexibility Score: inf
ROOT
ATOM      1  C   UNL     1      26.535  23.134  31.119  1.00  0.00     0.144 A 
ATOM      2  C   UNL     1      26.532  22.513  32.385  1.00  0.00     0.084 A 
ATOM      3  C   UNL     1      27.202  21.297  32.572  1.00  0.00     0.042 A 
ATOM      4  C   UNL     1      27.830  20.652  31.494  1.00  0.00     0.027 A 
ATOM      5  C   UNL     1      28.490  19.413  31.643  1.00  0.00     0.068 A 
ATOM      6  C   UNL     1      29.072  18.800  30.519  1.00  0.00     0.094 A 
ATOM      7  C   UNL     1      29.005  19.437  29.277  1.00  0.00     0.133 A 
ATOM      8  N   UNL     1      28.379  20.636  29.155  1.00  0.00    -0.255 NA
ATOM      9  C   UNL     1      27.795  21.253  30.216  1.00  0.00     0.076 A 
ATOM     10  C   UNL     1      27.163  22.487  30.038  1.00  0.00     0.077 A 
ENDROOT
BRANCH   1  11
ATOM     11  O   UNL     1      25.933  24.398  30.986  1.00  0.00    -0.492 OA
BRANCH  11  12
ATOM     12  C   UNL     1      26.601  25.612  30.644  1.00  0.00     0.226 C 
ATOM     13  C   UNL     1      27.920  25.733  31.398  1.00  0.00     0.049 C 
ENDBRANCH  11  12
ENDBRANCH   1  11
BRANCH   2  14
ATOM     14  N   UNL     1      25.875  23.124  33.507  1.00  0.00    -0.319 N 
ATOM     15  C   UNL     1      25.912  22.568  34.830  1.00  0.00     0.248 C 
ATOM     16  H   UNL     1      25.460  24.075  33.379  1.00  0.00     0.170 HD
ATOM     17  O   UNL     1      26.686  21.605  35.091  1.00  0.00    -0.270 OA
BRANCH  15  18
ATOM     18  C   UNL     1      25.064  23.145  35.889  1.00  0.00     0.068 C 
ATOM     19  C   UNL     1      25.467  23.231  37.161  1.00  0.00    -0.006 C 
BRANCH  19  20
ATOM     20  C   UNL     1      24.574  23.822  38.214  1.00  0.00     0.111 C 
BRANCH  20  21
ATOM     21  N   UNL     1      23.157  23.730  37.805  1.00  0.00    -0.306 NA
ATOM     22  C   UNL     1      22.460  22.715  38.612  1.00  0.00     0.105 C 
ATOM     23  C   UNL     1      22.483  25.031  37.961  1.00  0.00     0.105 C 
ENDBRANCH  20  21
ENDBRANCH  19  20
ENDBRANCH  15  18
ENDBRANCH   2  14
BRANCH   5  24
ATOM     24  N   UNL     1      28.581  18.779  32.928  1.00  0.00    -0.354 N 
ATOM     25  H   UNL     1      29.042  19.313  33.699  1.00  0.00     0.167 HD
BRANCH  24  26
ATOM     26  C   UNL     1      27.951  17.519  33.225  1.00  0.00     0.040 A 
ATOM     27  C   UNL     1      28.662  16.547  33.943  1.00  0.00     0.030 A 
ATOM     28  C   UNL     1      26.629  17.243  32.828  1.00  0.00     0.050 A 
ATOM     29  C   UNL     1      28.069  15.323  34.263  1.00  0.00     0.050 A 
ATOM     30  C   UNL     1      26.032  16.020  33.150  1.00  0.00     0.085 A 
ATOM     31  C   UNL     1      26.743  15.051  33.876  1.00  0.00     0.138 A 
ATOM     32  Cl  UNL     1      24.377  15.718  32.646  1.00  0.00    -0.080 Cl
BRANCH  31  33
ATOM     33  O   UNL     1      26.100  13.841  34.189  1.00  0.00    -0.486 OA
BRANCH  33  34
ATOM     34  C   UNL     1      25.026  13.690  35.118  1.00  0.00     0.285 C 
BRANCH  34  35
ATOM     35  C   UNL     1      25.408  14.217  36.471  1.00  0.00     0.078 A 
ATOM     36  C   UNL     1      26.548  13.736  37.131  1.00  0.00     0.027 A 
ATOM     37  N   UNL     1      24.657  15.195  37.051  1.00  0.00    -0.258 NA
ATOM     38  C   UNL     1      26.885  14.254  38.383  1.00  0.00     0.004 A 
ATOM     39  C   UNL     1      24.970  15.713  38.268  1.00  0.00     0.111 A 
ATOM     40  C   UNL     1      26.091  15.248  38.960  1.00  0.00     0.020 A 
ENDBRANCH  34  35
ENDBRANCH  33  34
ENDBRANCH  31  33
ENDBRANCH  24  26
ENDBRANCH   5  24
BRANCH   6  41
ATOM     41  C   UNL     1      29.755  17.535  30.634  1.00  0.00     0.103 C 
ATOM     42  N   UNL     1      30.306  16.521  30.725  1.00  0.00    -0.192 NA
ENDBRANCH   6  41
TORSDOF 12
ENDMDL
MODEL 6
REMARK VINA RESULT:    -7.829      9.427     14.809
REMARK INTER + INTRA:         -14.730
REMARK INTER:                 -13.244
REMARK INTRA:                  -1.486
REMARK UNBOUND:                -1.409
REMARK SMILES CCOc1cc2ncc(C#N)c(Nc3ccc(OCc4ccccn4)c(Cl)c3)c2cc1NC(=O)/C=C/CN(C)C
REMARK SMILES IDX 4 1 31 2 30 3 29 4 12 5 9 6 8 7 7 8 6 9 5 10 3 11 2 12 1 13
REMARK SMILES IDX 32 14 33 15 34 17 35 18 36 19 37 20 38 21 39 22 40 23 13 24
REMARK SMILES IDX 14 26 15 27 28 28 16 29 26 30 17 31 27 32 18 33 19 34 20 35
REMARK SMILES IDX 21 36 25 37 22 38 24 39 23 40 10 41 11 42
REMARK H PARENT 32 16 13 25
REMARK Flexibility Score: inf
ROOT
ATOM      1  C   UNL     1      15.673  27.241  41.301  1.00  0.00     0.144 A 
ATOM      2  C   UNL     1      15.897  26.190  40.389  1.00  0.00     0.084 A 
ATOM      3  C   UNL     1      14.813  25.481  39.853  1.00  0.00     0.042 A 
ATOM      4  C   UNL     1      13.500  25.766  40.262  1.00  0.00     0.027 A 
ATOM      5  C   UNL     1      12.389  25.053  39.763  1.00  0.00     0.068 A 
ATOM      6  C   UNL     1      11.100  25.362  40.235  1.00  0.00     0.094 A 
ATOM      7  C   UNL     1      10.939  26.383  41.176  1.00  0.00     0.133 A 
ATOM      8  N   UNL     1      12.019  27.068  41.634  1.00  0.00    -0.255 NA
ATOM      9  C   UNL     1      13.280  26.790  41.210  1.00  0.00     0.076 A 
ATOM     10  C   UNL     1      14.357  27.525  41.712  1.00  0.00     0.077 A 
ENDROOT
BRANCH   1  11
ATOM     11  O   UNL     1      16.775  27.992  41.749  1.00  0.00    -0.492 OA
BRANCH  11  12
ATOM     12  C   UNL     1      17.702  28.694  40.921  1.00  0.00     0.226 C 
ATOM     13  C   UNL     1      19.135  28.406  41.352  1.00  0.00     0.049 C 
ENDBRANCH  11  12
ENDBRANCH   1  11
BRANCH   2  14
ATOM     14  N   UNL     1      17.227  25.846  39.967  1.00  0.00    -0.319 N 
ATOM     15  C   UNL     1      18.035  24.875  40.649  1.00  0.00     0.248 C 
ATOM     16  H   UNL     1      17.571  26.227  39.056  1.00  0.00     0.170 HD
ATOM     17  O   UNL     1      17.528  24.149  41.549  1.00  0.00    -0.270 OA
BRANCH  15  18
ATOM     18  C   UNL     1      19.452  24.711  40.274  1.00  0.00     0.068 C 
ATOM     19  C   UNL     1      20.009  25.394  39.270  1.00  0.00    -0.006 C 
BRANCH  19  20
ATOM     20  C   UNL     1      21.455  25.198  38.914  1.00  0.00     0.111 C 
BRANCH  20  21
ATOM     21  N   UNL     1      21.826  23.771  39.015  1.00  0.00    -0.306 NA
ATOM     22  C   UNL     1      21.960  23.184  37.671  1.00  0.00     0.105 C 
ATOM     23  C   UNL     1      23.094  23.611  39.749  1.00  0.00     0.105 C 
ENDBRANCH  20  21
ENDBRANCH  19  20
ENDBRANCH  15  18
ENDBRANCH   2  14
BRANCH   5  24
ATOM     24  N   UNL     1      12.558  24.026  38.774  1.00  0.00    -0.354 N 
ATOM     25  H   UNL     1      12.614  24.323  37.773  1.00  0.00     0.167 HD
BRANCH  24  26
ATOM     26  C   UNL     1      12.789  22.646  39.111  1.00  0.00     0.040 A 
ATOM     27  C   UNL     1      12.153  22.096  40.233  1.00  0.00     0.030 A 
ATOM     28  C   UNL     1      13.624  21.826  38.330  1.00  0.00     0.050 A 
ATOM     29  C   UNL     1      12.343  20.754  40.572  1.00  0.00     0.050 A 
ATOM     30  C   UNL     1      13.813  20.481  38.665  1.00  0.00     0.085 A 
ATOM     31  C   UNL     1      13.170  19.930  39.784  1.00  0.00     0.138 A 
ATOM     32  Cl  UNL     1      14.855  19.487  37.658  1.00  0.00    -0.080 Cl
BRANCH  31  33
ATOM     33  O   UNL     1      13.377  18.572  40.077  1.00  0.00    -0.486 OA
BRANCH  33  34
ATOM     34  C   UNL     1      12.448  17.716  40.745  1.00  0.00     0.285 C 
BRANCH  34  35
ATOM     35  C   UNL     1      11.818  16.752  39.782  1.00  0.00     0.078 A 
ATOM     36  C   UNL     1      12.411  16.493  38.537  1.00  0.00     0.027 A 
ATOM     37  N   UNL     1      10.676  16.099  40.132  1.00  0.00    -0.258 NA
ATOM     38  C   UNL     1      11.809  15.583  37.667  1.00  0.00     0.004 A 
ATOM     39  C   UNL     1      10.076  15.207  39.299  1.00  0.00     0.111 A 
ATOM     40  C   UNL     1      10.631  14.934  38.047  1.00  0.00     0.020 A 
ENDBRANCH  34  35
ENDBRANCH  33  34
ENDBRANCH  31  33
ENDBRANCH  24  26
ENDBRANCH   5  24
BRANCH   6  41
ATOM     41  C   UNL     1       9.942  24.656  39.747  1.00  0.00     0.103 C 
ATOM     42  N   UNL     1       9.011  24.088  39.357  1.00  0.00    -0.192 NA
ENDBRANCH   6  41
TORSDOF 12
ENDMDL
MODEL 7
REMARK VINA RESULT:    -7.824     10.795     17.271
REMARK INTER + INTRA:         -14.721
REMARK INTER:                 -13.235
REMARK INTRA:                  -1.486
REMARK UNBOUND:                -1.409
REMARK SMILES CCOc1cc2ncc(C#N)c(Nc3ccc(OCc4ccccn4)c(Cl)c3)c2cc1NC(=O)/C=C/CN(C)C
REMARK SMILES IDX 4 1 31 2 30 3 29 4 12 5 9 6 8 7 7 8 6 9 5 10 3 11 2 12 1 13
REMARK SMILES IDX 32 14 33 15 34 17 35 18 36 19 37 20 38 21 39 22 40 23 13 24
REMARK SMILES IDX 14 26 15 27 28 28 16 29 26 30 17 31 27 32 18 33 19 34 20 35
REMARK SMILES IDX 21 36 25 37 22 38 24 39 23 40 10 41 11 42
REMARK H PARENT 32 16 13 25
REMARK Flexibility Score: inf
ROOT
ATOM      1  C   UNL     1      11.532  30.321  42.263  1.00  0.00     0.144 A 
ATOM      2  C   UNL     1      12.570  29.722  43.006  1.00  0.00     0.084 A 
ATOM      3  C   UNL     1      13.111  28.497  42.594  1.00  0.00     0.042 A 
ATOM      4  C   UNL     1      12.591  27.823  41.477  1.00  0.00     0.027 A 
ATOM      5  C   UNL     1      13.095  26.575  41.053  1.00  0.00     0.068 A 
ATOM      6  C   UNL     1      12.510  25.933  39.946  1.00  0.00     0.094 A 
ATOM      7  C   UNL     1      11.452  26.551  39.273  1.00  0.00     0.133 A 
ATOM      8  N   UNL     1      10.989  27.758  39.688  1.00  0.00    -0.255 NA
ATOM      9  C   UNL     1      11.521  28.404  40.760  1.00  0.00     0.076 A 
ATOM     10  C   UNL     1      11.009  29.645  41.145  1.00  0.00     0.077 A 
ENDROOT
BRANCH   1  11
ATOM     11  O   UNL     1      11.074  31.593  42.649  1.00  0.00    -0.492 OA
BRANCH  11  12
ATOM     12  C   UNL     1       9.876  32.224  42.199  1.00  0.00     0.226 C 
ATOM     13  C   UNL     1      10.121  32.985  40.901  1.00  0.00     0.049 C 
ENDBRANCH  11  12
ENDBRANCH   1  11
BRANCH   2  14
ATOM     14  N   UNL     1      13.111  30.363  44.173  1.00  0.00    -0.319 N 
ATOM     15  C   UNL     1      12.601  30.135  45.495  1.00  0.00     0.248 C 
ATOM     16  H   UNL     1      13.990  30.920  44.067  1.00  0.00     0.170 HD
ATOM     17  O   UNL     1      11.765  29.211  45.701  1.00  0.00    -0.270 OA
BRANCH  15  18
ATOM     18  C   UNL     1      13.080  30.965  46.616  1.00  0.00     0.068 C 
ATOM     19  C   UNL     1      13.662  32.153  46.427  1.00  0.00    -0.006 C 
BRANCH  19  20
ATOM     20  C   UNL     1      14.141  32.971  47.592  1.00  0.00     0.111 C 
BRANCH  20  21
ATOM     21  N   UNL     1      14.934  34.127  47.124  1.00  0.00    -0.306 NA
ATOM     22  C   UNL     1      14.091  35.332  47.064  1.00  0.00     0.105 C 
ATOM     23  C   UNL     1      16.079  34.372  48.019  1.00  0.00     0.105 C 
ENDBRANCH  20  21
ENDBRANCH  19  20
ENDBRANCH  15  18
ENDBRANCH   2  14
BRANCH   5  24
ATOM     24  N   UNL     1      14.202  25.961  41.730  1.00  0.00    -0.354 N 
ATOM     25  H   UNL     1      13.983  25.288  42.500  1.00  0.00     0.167 HD
BRANCH  24  26
ATOM     26  C   UNL     1      15.567  26.124  41.306  1.00  0.00     0.040 A 
ATOM     27  C   UNL     1      16.261  25.025  40.780  1.00  0.00     0.030 A 
ATOM     28  C   UNL     1      16.222  27.367  41.391  1.00  0.00     0.050 A 
ATOM     29  C   UNL     1      17.581  25.160  40.343  1.00  0.00     0.050 A 
ATOM     30  C   UNL     1      17.543  27.505  40.952  1.00  0.00     0.085 A 
ATOM     31  C   UNL     1      18.233  26.406  40.417  1.00  0.00     0.138 A 
ATOM     32  Cl  UNL     1      18.322  29.076  41.064  1.00  0.00    -0.080 Cl
BRANCH  31  33
ATOM     33  O   UNL     1      19.553  26.592  39.975  1.00  0.00    -0.486 OA
BRANCH  33  34
ATOM     34  C   UNL     1      20.690  25.854  40.427  1.00  0.00     0.285 C 
BRANCH  34  35
ATOM     35  C   UNL     1      21.213  24.956  39.342  1.00  0.00     0.078 A 
ATOM     36  C   UNL     1      20.526  23.785  38.989  1.00  0.00     0.027 A 
ATOM     37  N   UNL     1      22.349  25.298  38.673  1.00  0.00    -0.258 NA
ATOM     38  C   UNL     1      21.030  22.977  37.969  1.00  0.00     0.004 A 
ATOM     39  C   UNL     1      22.854  24.524  37.676  1.00  0.00     0.111 A 
ATOM     40  C   UNL     1      22.203  23.345  37.306  1.00  0.00     0.020 A 
ENDBRANCH  34  35
ENDBRANCH  33  34
ENDBRANCH  31  33
ENDBRANCH  24  26
ENDBRANCH   5  24
BRANCH   6  41
ATOM     41  C   UNL     1      12.999  24.659  39.483  1.00  0.00     0.103 C 
ATOM     42  N   UNL     1      13.394  23.636  39.112  1.00  0.00    -0.192 NA
ENDBRANCH   6  41
TORSDOF 12
ENDMDL
MODEL 8
REMARK VINA RESULT:    -7.809     13.080     17.687
REMARK INTER + INTRA:         -14.696
REMARK INTER:                 -13.177
REMARK INTRA:                  -1.519
REMARK UNBOUND:                -1.409
REMARK SMILES CCOc1cc2ncc(C#N)c(Nc3ccc(OCc4ccccn4)c(Cl)c3)c2cc1NC(=O)/C=C/CN(C)C
REMARK SMILES IDX 4 1 31 2 30 3 29 4 12 5 9 6 8 7 7 8 6 9 5 10 3 11 2 12 1 13
REMARK SMILES IDX 32 14 33 15 34 17 35 18 36 19 37 20 38 21 39 22 40 23 13 24
REMARK SMILES IDX 14 26 15 27 28 28 16 29 26 30 17 31 27 32 18 33 19 34 20 35
REMARK SMILES IDX 21 36 25 37 22 38 24 39 23 40 10 41 11 42
REMARK H PARENT 32 16 13 25
REMARK Flexibility Score: inf
ROOT
ATOM      1  C   UNL     1      11.791  17.650  38.501  1.00  0.00     0.144 A 
ATOM      2  C   UNL     1      11.336  18.890  38.009  1.00  0.00     0.084 A 
ATOM      3  C   UNL     1      11.155  19.970  38.884  1.00  0.00     0.042 A 
ATOM      4  C   UNL     1      11.363  19.815  40.265  1.00  0.00     0.027 A 
ATOM      5  C   UNL     1      11.163  20.874  41.176  1.00  0.00     0.068 A 
ATOM      6  C   UNL     1      11.356  20.648  42.551  1.00  0.00     0.094 A 
ATOM      7  C   UNL     1      11.762  19.385  42.990  1.00  0.00     0.133 A 
ATOM      8  N   UNL     1      11.964  18.383  42.097  1.00  0.00    -0.255 NA
ATOM      9  C   UNL     1      11.776  18.559  40.762  1.00  0.00     0.076 A 
ATOM     10  C   UNL     1      11.998  17.494  39.885  1.00  0.00     0.077 A 
ENDROOT
BRANCH   1  11
ATOM     11  O   UNL     1      12.052  16.615  37.585  1.00  0.00    -0.492 OA
BRANCH  11  12
ATOM     12  C   UNL     1      11.555  15.280  37.666  1.00  0.00     0.226 C 
ATOM     13  C   UNL     1      10.033  15.264  37.583  1.00  0.00     0.049 C 
ENDBRANCH  11  12
ENDBRANCH   1  11
BRANCH   2  14
ATOM     14  N   UNL     1      11.082  19.083  36.608  1.00  0.00    -0.319 N 
ATOM     15  C   UNL     1      12.083  19.549  35.690  1.00  0.00     0.248 C 
ATOM     16  H   UNL     1      10.169  18.750  36.221  1.00  0.00     0.170 HD
ATOM     17  O   UNL     1      13.288  19.635  36.057  1.00  0.00    -0.270 OA
BRANCH  15  18
ATOM     18  C   UNL     1      11.701  19.900  34.309  1.00  0.00     0.068 C 
ATOM     19  C   UNL     1      10.435  20.144  33.958  1.00  0.00    -0.006 C 
BRANCH  19  20
ATOM     20  C   UNL     1      10.082  20.496  32.541  1.00  0.00     0.111 C 
BRANCH  20  21
ATOM     21  N   UNL     1       8.615  20.549  32.370  1.00  0.00    -0.306 NA
ATOM     22  C   UNL     1       8.250  20.168  30.995  1.00  0.00     0.105 C 
ATOM     23  C   UNL     1       7.944  19.650  33.324  1.00  0.00     0.105 C 
ENDBRANCH  20  21
ENDBRANCH  19  20
ENDBRANCH  15  18
ENDBRANCH   2  14
BRANCH   5  24
ATOM     24  N   UNL     1      10.775  22.177  40.715  1.00  0.00    -0.354 N 
ATOM     25  H   UNL     1       9.760  22.338  40.521  1.00  0.00     0.167 HD
BRANCH  24  26
ATOM     26  C   UNL     1      11.688  23.287  40.646  1.00  0.00     0.040 A 
ATOM     27  C   UNL     1      12.838  23.182  39.851  1.00  0.00     0.030 A 
ATOM     28  C   UNL     1      11.447  24.485  41.343  1.00  0.00     0.050 A 
ATOM     29  C   UNL     1      13.732  24.251  39.749  1.00  0.00     0.050 A 
ATOM     30  C   UNL     1      12.339  25.558  41.240  1.00  0.00     0.085 A 
ATOM     31  C   UNL     1      13.485  25.455  40.438  1.00  0.00     0.138 A 
ATOM     32  Cl  UNL     1      11.997  27.041  42.118  1.00  0.00    -0.080 Cl
BRANCH  31  33
ATOM     33  O   UNL     1      14.348  26.561  40.352  1.00  0.00    -0.486 OA
BRANCH  33  34
ATOM     34  C   UNL     1      15.166  27.058  41.413  1.00  0.00     0.285 C 
BRANCH  34  35
ATOM     35  C   UNL     1      16.623  26.936  41.068  1.00  0.00     0.078 A 
ATOM     36  C   UNL     1      17.465  28.056  41.111  1.00  0.00     0.027 A 
ATOM     37  N   UNL     1      17.138  25.718  40.740  1.00  0.00    -0.258 NA
ATOM     38  C   UNL     1      18.817  27.909  40.796  1.00  0.00     0.004 A 
ATOM     39  C   UNL     1      18.452  25.555  40.433  1.00  0.00     0.111 A 
ATOM     40  C   UNL     1      19.318  26.651  40.453  1.00  0.00     0.020 A 
ENDBRANCH  34  35
ENDBRANCH  33  34
ENDBRANCH  31  33
ENDBRANCH  24  26
ENDBRANCH   5  24
BRANCH   6  41
ATOM     41  C   UNL     1      11.162  21.706  43.511  1.00  0.00     0.103 C 
ATOM     42  N   UNL     1      11.008  22.557  44.281  1.00  0.00    -0.192 NA
ENDBRANCH   6  41
TORSDOF 12
ENDMDL
MODEL 9
REMARK VINA RESULT:    -7.646     12.660     17.879
REMARK INTER + INTRA:         -14.420
REMARK INTER:                 -12.839
REMARK INTRA:                  -1.581
REMARK UNBOUND:                -1.409
REMARK SMILES CCOc1cc2ncc(C#N)c(Nc3ccc(OCc4ccccn4)c(Cl)c3)c2cc1NC(=O)/C=C/CN(C)C
REMARK SMILES IDX 4 1 31 2 30 3 29 4 12 5 9 6 8 7 7 8 6 9 5 10 3 11 2 12 1 13
REMARK SMILES IDX 32 14 33 15 34 17 35 18 36 19 37 20 38 21 39 22 40 23 13 24
REMARK SMILES IDX 14 26 15 27 28 28 16 29 26 30 17 31 27 32 18 33 19 34 20 35
REMARK SMILES IDX 21 36 25 37 22 38 24 39 23 40 10 41 11 42
REMARK H PARENT 32 16 13 25
REMARK Flexibility Score: inf
ROOT
ATOM      1  C   UNL     1      11.049  18.435  38.262  1.00  0.00     0.144 A 
ATOM      2  C   UNL     1      10.980  19.713  37.672  1.00  0.00     0.084 A 
ATOM      3  C   UNL     1      10.949  20.858  38.478  1.00  0.00     0.042 A 
ATOM      4  C   UNL     1      10.925  20.749  39.878  1.00  0.00     0.027 A 
ATOM      5  C   UNL     1      10.866  21.881  40.718  1.00  0.00     0.068 A 
ATOM      6  C   UNL     1      10.810  21.706  42.112  1.00  0.00     0.094 A 
ATOM      7  C   UNL     1      10.835  20.413  42.644  1.00  0.00     0.133 A 
ATOM      8  N   UNL     1      10.906  19.336  41.821  1.00  0.00    -0.255 NA
ATOM      9  C   UNL     1      10.949  19.465  40.468  1.00  0.00     0.076 A 
ATOM     10  C   UNL     1      11.023  18.324  39.666  1.00  0.00     0.077 A 
ENDROOT
BRANCH   1  11
ATOM     11  O   UNL     1      11.172  17.311  37.426  1.00  0.00    -0.492 OA
BRANCH  11  12
ATOM     12  C   UNL     1      10.205  16.274  37.268  1.00  0.00     0.226 C 
ATOM     13  C   UNL     1      10.720  14.961  37.848  1.00  0.00     0.049 C 
ENDBRANCH  11  12
ENDBRANCH   1  11
BRANCH   2  14
ATOM     14  N   UNL     1      10.972  19.869  36.243  1.00  0.00    -0.319 N 
ATOM     15  C   UNL     1       9.790  19.700  35.447  1.00  0.00     0.248 C 
ATOM     16  H   UNL     1      11.833  20.242  35.782  1.00  0.00     0.170 HD
ATOM     17  O   UNL     1       8.663  19.584  36.003  1.00  0.00    -0.270 OA
BRANCH  15  18
ATOM     18  C   UNL     1       9.895  19.691  33.975  1.00  0.00     0.068 C 
ATOM     19  C   UNL     1       9.253  20.576  33.208  1.00  0.00    -0.006 C 
BRANCH  19  20
ATOM     20  C   UNL     1       9.382  20.535  31.712  1.00  0.00     0.111 C 
BRANCH  20  21
ATOM     21  N   UNL     1       8.065  20.737  31.072  1.00  0.00    -0.306 NA
ATOM     22  C   UNL     1       8.171  20.543  29.617  1.00  0.00     0.105 C 
ATOM     23  C   UNL     1       7.069  19.800  31.621  1.00  0.00     0.105 C 
ENDBRANCH  20  21
ENDBRANCH  19  20
ENDBRANCH  15  18
ENDBRANCH   2  14
BRANCH   5  24
ATOM     24  N   UNL     1      10.872  23.206  40.166  1.00  0.00    -0.354 N 
ATOM     25  H   UNL     1       9.961  23.594  39.830  1.00  0.00     0.167 HD
BRANCH  24  26
ATOM     26  C   UNL     1      12.032  24.057  40.185  1.00  0.00     0.040 A 
ATOM     27  C   UNL     1      13.241  23.584  39.656  1.00  0.00     0.030 A 
ATOM     28  C   UNL     1      11.981  25.363  40.707  1.00  0.00     0.050 A 
ATOM     29  C   UNL     1      14.379  24.395  39.644  1.00  0.00     0.050 A 
ATOM     30  C   UNL     1      13.118  26.179  40.693  1.00  0.00     0.085 A 
ATOM     31  C   UNL     1      14.325  25.706  40.156  1.00  0.00     0.138 A 
ATOM     32  Cl  UNL     1      13.010  27.807  41.344  1.00  0.00    -0.080 Cl
BRANCH  31  33
ATOM     33  O   UNL     1      15.438  26.563  40.149  1.00  0.00    -0.486 OA
BRANCH  33  34
ATOM     34  C   UNL     1      16.360  26.732  41.227  1.00  0.00     0.285 C 
BRANCH  34  35
ATOM     35  C   UNL     1      17.778  26.656  40.738  1.00  0.00     0.078 A 
ATOM     36  C   UNL     1      18.370  25.418  40.448  1.00  0.00     0.027 A 
ATOM     37  N   UNL     1      18.486  27.804  40.545  1.00  0.00    -0.258 NA
ATOM     38  C   UNL     1      19.686  25.381  39.983  1.00  0.00     0.004 A 
ATOM     39  C   UNL     1      19.768  27.787  40.091  1.00  0.00     0.111 A 
ATOM     40  C   UNL     1      20.394  26.572  39.804  1.00  0.00     0.020 A 
ENDBRANCH  34  35
ENDBRANCH  33  34
ENDBRANCH  31  33
ENDBRANCH  24  26
ENDBRANCH   5  24
BRANCH   6  41
ATOM     41  C   UNL     1      10.751  22.839  43.001  1.00  0.00     0.103 C 
ATOM     42  N   UNL     1      10.704  23.750  43.713  1.00  0.00    -0.192 NA
ENDBRANCH   6  41
TORSDOF 12
ENDMDL
MODEL 10
REMARK VINA RESULT:    -7.505      9.863     16.061
REMARK INTER + INTRA:         -14.179
REMARK INTER:                 -12.670
REMARK INTRA:                  -1.508
REMARK UNBOUND:                -1.409
REMARK SMILES CCOc1cc2ncc(C#N)c(Nc3ccc(OCc4ccccn4)c(Cl)c3)c2cc1NC(=O)/C=C/CN(C)C
REMARK SMILES IDX 4 1 31 2 30 3 29 4 12 5 9 6 8 7 7 8 6 9 5 10 3 11 2 12 1 13
REMARK SMILES IDX 32 14 33 15 34 17 35 18 36 19 37 20 38 21 39 22 40 23 13 24
REMARK SMILES IDX 14 26 15 27 28 28 16 29 26 30 17 31 27 32 18 33 19 34 20 35
REMARK SMILES IDX 21 36 25 37 22 38 24 39 23 40 10 41 11 42
REMARK H PARENT 32 16 13 25
REMARK Flexibility Score: inf
ROOT
ATOM      1  C   UNL     1      16.681  28.071  40.775  1.00  0.00     0.144 A 
ATOM      2  C   UNL     1      16.375  26.696  40.727  1.00  0.00     0.084 A 
ATOM      3  C   UNL     1      15.176  26.224  41.279  1.00  0.00     0.042 A 
ATOM      4  C   UNL     1      14.297  27.099  41.937  1.00  0.00     0.027 A 
ATOM      5  C   UNL     1      13.096  26.651  42.526  1.00  0.00     0.068 A 
ATOM      6  C   UNL     1      12.272  27.570  43.201  1.00  0.00     0.094 A 
ATOM      7  C   UNL     1      12.646  28.915  43.259  1.00  0.00     0.133 A 
ATOM      8  N   UNL     1      13.798  29.331  42.673  1.00  0.00    -0.255 NA
ATOM      9  C   UNL     1      14.626  28.470  42.023  1.00  0.00     0.076 A 
ATOM     10  C   UNL     1      15.800  28.949  41.437  1.00  0.00     0.077 A 
ENDROOT
BRANCH   1  11
ATOM     11  O   UNL     1      17.846  28.526  40.132  1.00  0.00    -0.492 OA
BRANCH  11  12
ATOM     12  C   UNL     1      19.103  28.781  40.757  1.00  0.00     0.226 C 
ATOM     13  C   UNL     1      20.253  28.422  39.824  1.00  0.00     0.049 C 
ENDBRANCH  11  12
ENDBRANCH   1  11
BRANCH   2  14
ATOM     14  N   UNL     1      17.261  25.762  40.090  1.00  0.00    -0.319 N 
ATOM     15  C   UNL     1      18.501  25.338  40.677  1.00  0.00     0.248 C 
ATOM     16  H   UNL     1      16.930  25.279  39.223  1.00  0.00     0.170 HD
ATOM     17  O   UNL     1      18.770  25.638  41.873  1.00  0.00    -0.270 OA
BRANCH  15  18
ATOM     18  C   UNL     1      19.444  24.526  39.885  1.00  0.00     0.068 C 
ATOM     19  C   UNL     1      20.148  25.035  38.871  1.00  0.00    -0.006 C 
BRANCH  19  20
ATOM     20  C   UNL     1      21.098  24.178  38.084  1.00  0.00     0.111 C 
BRANCH  20  21
ATOM     21  N   UNL     1      22.459  24.254  38.655  1.00  0.00    -0.306 NA
ATOM     22  C   UNL     1      22.823  22.970  39.277  1.00  0.00     0.105 C 
ATOM     23  C   UNL     1      23.444  24.591  37.612  1.00  0.00     0.105 C 
ENDBRANCH  20  21
ENDBRANCH  19  20
ENDBRANCH  15  18
ENDBRANCH   2  14
BRANCH   5  24
ATOM     24  N   UNL     1      12.702  25.273  42.437  1.00  0.00    -0.354 N 
ATOM     25  H   UNL     1      12.897  24.661  43.262  1.00  0.00     0.167 HD
BRANCH  24  26
ATOM     26  C   UNL     1      11.940  24.746  41.336  1.00  0.00     0.040 A 
ATOM     27  C   UNL     1      12.600  24.049  40.314  1.00  0.00     0.030 A 
ATOM     28  C   UNL     1      10.543  24.898  41.266  1.00  0.00     0.050 A 
ATOM     29  C   UNL     1      11.884  23.509  39.243  1.00  0.00     0.050 A 
ATOM     30  C   UNL     1       9.823  24.356  40.196  1.00  0.00     0.085 A 
ATOM     31  C   UNL     1      10.484  23.651  39.179  1.00  0.00     0.138 A 
ATOM     32  Cl  UNL     1       8.078  24.557  40.151  1.00  0.00    -0.080 Cl
BRANCH  31  33
ATOM     33  O   UNL     1       9.721  23.112  38.129  1.00  0.00    -0.486 OA
BRANCH  33  34
ATOM     34  C   UNL     1       9.441  21.724  37.936  1.00  0.00     0.285 C 
BRANCH  34  35
ATOM     35  C   UNL     1      10.338  21.138  36.883  1.00  0.00     0.078 A 
ATOM     36  C   UNL     1      11.050  19.955  37.127  1.00  0.00     0.027 A 
ATOM     37  N   UNL     1      10.437  21.746  35.668  1.00  0.00    -0.258 NA
ATOM     38  C   UNL     1      11.866  19.428  36.124  1.00  0.00     0.004 A 
ATOM     39  C   UNL     1      11.225  21.247  34.679  1.00  0.00     0.111 A 
ATOM     40  C   UNL     1      11.958  20.077  34.891  1.00  0.00     0.020 A 
ENDBRANCH  34  35
ENDBRANCH  33  34
ENDBRANCH  31  33
ENDBRANCH  24  26
ENDBRANCH   5  24
BRANCH   6  41
ATOM     41  C   UNL     1      11.037  27.149  43.815  1.00  0.00     0.103 C 
ATOM     42  N   UNL     1      10.045  26.809  44.306  1.00  0.00    -0.192 NA
ENDBRANCH   6  41
TORSDOF 12
ENDMDL
MODEL 11
REMARK VINA RESULT:    -7.401     11.735     17.675
REMARK INTER + INTRA:         -14.002
REMARK INTER:                 -12.590
REMARK INTRA:                  -1.412
REMARK UNBOUND:                -1.409
REMARK SMILES CCOc1cc2ncc(C#N)c(Nc3ccc(OCc4ccccn4)c(Cl)c3)c2cc1NC(=O)/C=C/CN(C)C
REMARK SMILES IDX 4 1 31 2 30 3 29 4 12 5 9 6 8 7 7 8 6 9 5 10 3 11 2 12 1 13
REMARK SMILES IDX 32 14 33 15 34 17 35 18 36 19 37 20 38 21 39 22 40 23 13 24
REMARK SMILES IDX 14 26 15 27 28 28 16 29 26 30 17 31 27 32 18 33 19 34 20 35
REMARK SMILES IDX 21 36 25 37 22 38 24 39 23 40 10 41 11 42
REMARK H PARENT 32 16 13 25
REMARK Flexibility Score: inf
ROOT
ATOM      1  C   UNL     1      11.163  19.978  39.947  1.00  0.00     0.144 A 
ATOM      2  C   UNL     1      11.342  21.124  39.146  1.00  0.00     0.084 A 
ATOM      3  C   UNL     1      11.400  22.393  39.739  1.00  0.00     0.042 A 
ATOM      4  C   UNL     1      11.220  22.545  41.124  1.00  0.00     0.027 A 
ATOM      5  C   UNL     1      11.245  23.810  41.748  1.00  0.00     0.068 A 
ATOM      6  C   UNL     1      11.025  23.902  43.135  1.00  0.00     0.094 A 
ATOM      7  C   UNL     1      10.806  22.736  43.875  1.00  0.00     0.133 A 
ATOM      8  N   UNL     1      10.800  21.526  43.259  1.00  0.00    -0.255 NA
ATOM      9  C   UNL     1      10.997  21.399  41.919  1.00  0.00     0.076 A 
ATOM     10  C   UNL     1      10.981  20.130  41.335  1.00  0.00     0.077 A 
ENDROOT
BRANCH   1  11
ATOM     11  O   UNL     1      11.202  18.713  39.333  1.00  0.00    -0.492 OA
BRANCH  11  12
ATOM     12  C   UNL     1      11.742  17.522  39.902  1.00  0.00     0.226 C 
ATOM     13  C   UNL     1      13.074  17.167  39.252  1.00  0.00     0.049 C 
ENDBRANCH  11  12
ENDBRANCH   1  11
BRANCH   2  14
ATOM     14  N   UNL     1      11.500  21.016  37.722  1.00  0.00    -0.319 N 
ATOM     15  C   UNL     1      10.433  21.279  36.797  1.00  0.00     0.248 C 
ATOM     16  H   UNL     1      12.461  20.862  37.342  1.00  0.00     0.170 HD
ATOM     17  O   UNL     1       9.356  21.796  37.203  1.00  0.00    -0.270 OA
BRANCH  15  18
ATOM     18  C   UNL     1      10.614  20.967  35.367  1.00  0.00     0.068 C 
ATOM     19  C   UNL     1      10.562  19.718  34.896  1.00  0.00    -0.006 C 
BRANCH  19  20
ATOM     20  C   UNL     1      10.754  19.437  33.433  1.00  0.00     0.111 C 
BRANCH  20  21
ATOM     21  N   UNL     1       9.487  18.982  32.822  1.00  0.00    -0.306 NA
ATOM     22  C   UNL     1       8.655  18.299  33.825  1.00  0.00     0.105 C 
ATOM     23  C   UNL     1       8.741  20.120  32.257  1.00  0.00     0.105 C 
ENDBRANCH  20  21
ENDBRANCH  19  20
ENDBRANCH  15  18
ENDBRANCH   2  14
BRANCH   5  24
ATOM     24  N   UNL     1      11.500  25.000  40.988  1.00  0.00    -0.354 N 
ATOM     25  H   UNL     1      10.674  25.533  40.633  1.00  0.00     0.167 HD
BRANCH  24  26
ATOM     26  C   UNL     1      12.819  25.553  40.817  1.00  0.00     0.040 A 
ATOM     27  C   UNL     1      13.729  24.911  39.966  1.00  0.00     0.030 A 
ATOM     28  C   UNL     1      13.213  26.735  41.471  1.00  0.00     0.050 A 
ATOM     29  C   UNL     1      15.008  25.435  39.766  1.00  0.00     0.050 A 
ATOM     30  C   UNL     1      14.493  27.264  41.271  1.00  0.00     0.085 A 
ATOM     31  C   UNL     1      15.399  26.624  40.412  1.00  0.00     0.138 A 
ATOM     32  Cl  UNL     1      14.943  28.747  42.098  1.00  0.00    -0.080 Cl
BRANCH  31  33
ATOM     33  O   UNL     1      16.669  27.197  40.229  1.00  0.00    -0.486 OA
BRANCH  33  34
ATOM     34  C   UNL     1      17.750  27.134  41.162  1.00  0.00     0.285 C 
BRANCH  34  35
ATOM     35  C   UNL     1      18.986  26.580  40.514  1.00  0.00     0.078 A 
ATOM     36  C   UNL     1      19.065  25.224  40.165  1.00  0.00     0.027 A 
ATOM     37  N   UNL     1      20.030  27.409  40.234  1.00  0.00    -0.258 NA
ATOM     38  C   UNL     1      20.223  24.740  39.553  1.00  0.00     0.004 A 
ATOM     39  C   UNL     1      21.165  26.957  39.637  1.00  0.00     0.111 A 
ATOM     40  C   UNL     1      21.283  25.610  39.287  1.00  0.00     0.020 A 
ENDBRANCH  34  35
ENDBRANCH  33  34
ENDBRANCH  31  33
ENDBRANCH  24  26
ENDBRANCH   5  24
BRANCH   6  41
ATOM     41  C   UNL     1      11.045  25.177  43.807  1.00  0.00     0.103 C 
ATOM     42  N   UNL     1      11.061  26.200  44.349  1.00  0.00    -0.192 NA
ENDBRANCH   6  41
TORSDOF 12
ENDMDL
MODEL 12
REMARK VINA RESULT:    -7.387     11.762     19.820
REMARK INTER + INTRA:         -13.978
REMARK INTER:                 -12.566
REMARK INTRA:                  -1.411
REMARK UNBOUND:                -1.409
REMARK SMILES CCOc1cc2ncc(C#N)c(Nc3ccc(OCc4ccccn4)c(Cl)c3)c2cc1NC(=O)/C=C/CN(C)C
REMARK SMILES IDX 4 1 31 2 30 3 29 4 12 5 9 6 8 7 7 8 6 9 5 10 3 11 2 12 1 13
REMARK SMILES IDX 32 14 33 15 34 17 35 18 36 19 37 20 38 21 39 22 40 23 13 24
REMARK SMILES IDX 14 26 15 27 28 28 16 29 26 30 17 31 27 32 18 33 19 34 20 35
REMARK SMILES IDX 21 36 25 37 22 38 24 39 23 40 10 41 11 42
REMARK H PARENT 32 16 13 25
REMARK Flexibility Score: inf
ROOT
ATOM      1  C   UNL     1      13.505  25.420  39.825  1.00  0.00     0.144 A 
ATOM      2  C   UNL     1      14.394  26.093  40.688  1.00  0.00     0.084 A 
ATOM      3  C   UNL     1      13.999  27.283  41.315  1.00  0.00     0.042 A 
ATOM      4  C   UNL     1      12.744  27.851  41.045  1.00  0.00     0.027 A 
ATOM      5  C   UNL     1      12.327  29.062  41.638  1.00  0.00     0.068 A 
ATOM      6  C   UNL     1      11.071  29.599  41.304  1.00  0.00     0.094 A 
ATOM      7  C   UNL     1      10.247  28.914  40.405  1.00  0.00     0.133 A 
ATOM      8  N   UNL     1      10.659  27.743  39.856  1.00  0.00    -0.255 NA
ATOM      9  C   UNL     1      11.871  27.199  40.146  1.00  0.00     0.076 A 
ATOM     10  C   UNL     1      12.247  25.991  39.554  1.00  0.00     0.077 A 
ENDROOT
BRANCH   1  11
ATOM     11  O   UNL     1      13.896  24.182  39.286  1.00  0.00    -0.492 OA
BRANCH  11  12
ATOM     12  C   UNL     1      13.119  22.985  39.287  1.00  0.00     0.226 C 
ATOM     13  C   UNL     1      13.504  22.089  38.115  1.00  0.00     0.049 C 
ENDBRANCH  11  12
ENDBRANCH   1  11
BRANCH   2  14
ATOM     14  N   UNL     1      15.700  25.561  40.967  1.00  0.00    -0.319 N 
ATOM     15  C   UNL     1      16.910  26.202  40.539  1.00  0.00     0.248 C 
ATOM     16  H   UNL     1      15.772  24.743  41.615  1.00  0.00     0.170 HD
ATOM     17  O   UNL     1      16.872  27.366  40.051  1.00  0.00    -0.270 OA
BRANCH  15  18
ATOM     18  C   UNL     1      18.201  25.506  40.697  1.00  0.00     0.068 C 
ATOM     19  C   UNL     1      19.117  25.469  39.725  1.00  0.00    -0.006 C 
BRANCH  19  20
ATOM     20  C   UNL     1      20.420  24.748  39.921  1.00  0.00     0.111 C 
BRANCH  20  21
ATOM     21  N   UNL     1      20.986  24.336  38.619  1.00  0.00    -0.306 NA
ATOM     22  C   UNL     1      22.230  25.075  38.349  1.00  0.00     0.105 C 
ATOM     23  C   UNL     1      21.260  22.889  38.603  1.00  0.00     0.105 C 
ENDBRANCH  20  21
ENDBRANCH  19  20
ENDBRANCH  15  18
ENDBRANCH   2  14
BRANCH   5  24
ATOM     24  N   UNL     1      13.165  29.745  42.583  1.00  0.00    -0.354 N 
ATOM     25  H   UNL     1      13.884  30.402  42.204  1.00  0.00     0.167 HD
BRANCH  24  26
ATOM     26  C   UNL     1      12.964  29.668  44.006  1.00  0.00     0.040 A 
ATOM     27  C   UNL     1      13.231  30.792  44.800  1.00  0.00     0.030 A 
ATOM     28  C   UNL     1      12.490  28.495  44.622  1.00  0.00     0.050 A 
ATOM     29  C   UNL     1      13.027  30.753  46.181  1.00  0.00     0.050 A 
ATOM     30  C   UNL     1      12.282  28.453  46.005  1.00  0.00     0.085 A 
ATOM     31  C   UNL     1      12.541  29.583  46.797  1.00  0.00     0.138 A 
ATOM     32  Cl  UNL     1      11.678  26.974  46.734  1.00  0.00    -0.080 Cl
BRANCH  31  33
ATOM     33  O   UNL     1      12.306  29.502  48.180  1.00  0.00    -0.486 OA
BRANCH  33  34
ATOM     34  C   UNL     1      12.371  30.595  49.097  1.00  0.00     0.285 C 
BRANCH  34  35
ATOM     35  C   UNL     1      13.450  30.374  50.118  1.00  0.00     0.078 A 
ATOM     36  C   UNL     1      13.773  29.080  50.551  1.00  0.00     0.027 A 
ATOM     37  N   UNL     1      14.144  31.440  50.606  1.00  0.00    -0.258 NA
ATOM     38  C   UNL     1      14.789  28.905  51.492  1.00  0.00     0.004 A 
ATOM     39  C   UNL     1      15.138  31.289  51.522  1.00  0.00     0.111 A 
ATOM     40  C   UNL     1      15.477  30.016  51.985  1.00  0.00     0.020 A 
ENDBRANCH  34  35
ENDBRANCH  33  34
ENDBRANCH  31  33
ENDBRANCH  24  26
ENDBRANCH   5  24
BRANCH   6  41
ATOM     41  C   UNL     1      10.611  30.834  41.890  1.00  0.00     0.103 C 
ATOM     42  N   UNL     1      10.243  31.825  42.360  1.00  0.00    -0.192 NA
ENDBRANCH   6  41
TORSDOF 12
ENDMDL
MODEL 13
REMARK VINA RESULT:    -7.318     12.778     18.165
REMARK INTER + INTRA:         -13.862
REMARK INTER:                 -12.227
REMARK INTRA:                  -1.634
REMARK UNBOUND:                -1.409
REMARK SMILES CCOc1cc2ncc(C#N)c(Nc3ccc(OCc4ccccn4)c(Cl)c3)c2cc1NC(=O)/C=C/CN(C)C
REMARK SMILES IDX 4 1 31 2 30 3 29 4 12 5 9 6 8 7 7 8 6 9 5 10 3 11 2 12 1 13
REMARK SMILES IDX 32 14 33 15 34 17 35 18 36 19 37 20 38 21 39 22 40 23 13 24
REMARK SMILES IDX 14 26 15 27 28 28 16 29 26 30 17 31 27 32 18 33 19 34 20 35
REMARK SMILES IDX 21 36 25 37 22 38 24 39 23 40 10 41 11 42
REMARK H PARENT 32 16 13 25
REMARK Flexibility Score: inf
ROOT
ATOM      1  C   UNL     1      15.787  26.266  40.833  1.00  0.00     0.144 A 
ATOM      2  C   UNL     1      14.623  25.473  40.881  1.00  0.00     0.084 A 
ATOM      3  C   UNL     1      13.435  25.999  41.405  1.00  0.00     0.042 A 
ATOM      4  C   UNL     1      13.403  27.296  41.943  1.00  0.00     0.027 A 
ATOM      5  C   UNL     1      12.230  27.846  42.503  1.00  0.00     0.068 A 
ATOM      6  C   UNL     1      12.268  29.139  43.057  1.00  0.00     0.094 A 
ATOM      7  C   UNL     1      13.462  29.865  43.025  1.00  0.00     0.133 A 
ATOM      8  N   UNL     1      14.576  29.325  42.469  1.00  0.00    -0.255 NA
ATOM      9  C   UNL     1      14.582  28.075  41.935  1.00  0.00     0.076 A 
ATOM     10  C   UNL     1      15.756  27.566  41.374  1.00  0.00     0.077 A 
ENDROOT
BRANCH   1  11
ATOM     11  O   UNL     1      16.937  25.741  40.218  1.00  0.00    -0.492 OA
BRANCH  11  12
ATOM     12  C   UNL     1      18.172  25.442  40.866  1.00  0.00     0.226 C 
ATOM     13  C   UNL     1      19.328  26.175  40.194  1.00  0.00     0.049 C 
ENDBRANCH  11  12
ENDBRANCH   1  11
BRANCH   2  14
ATOM     14  N   UNL     1      14.621  24.130  40.369  1.00  0.00    -0.319 N 
ATOM     15  C   UNL     1      13.639  23.652  39.438  1.00  0.00     0.248 C 
ATOM     16  H   UNL     1      15.440  23.517  40.588  1.00  0.00     0.170 HD
ATOM     17  O   UNL     1      12.838  24.460  38.892  1.00  0.00    -0.270 OA
BRANCH  15  18
ATOM     18  C   UNL     1      13.589  22.216  39.102  1.00  0.00     0.068 C 
ATOM     19  C   UNL     1      13.933  21.752  37.898  1.00  0.00    -0.006 C 
BRANCH  19  20
ATOM     20  C   UNL     1      13.867  20.284  37.590  1.00  0.00     0.111 C 
BRANCH  20  21
ATOM     21  N   UNL     1      13.500  20.066  36.175  1.00  0.00    -0.306 NA
ATOM     22  C   UNL     1      12.317  19.194  36.085  1.00  0.00     0.105 C 
ATOM     23  C   UNL     1      13.217  21.348  35.505  1.00  0.00     0.105 C 
ENDBRANCH  20  21
ENDBRANCH  19  20
ENDBRANCH  15  18
ENDBRANCH   2  14
BRANCH   5  24
ATOM     24  N   UNL     1      11.000  27.106  42.506  1.00  0.00    -0.354 N 
ATOM     25  H   UNL     1      10.316  27.304  41.740  1.00  0.00     0.167 HD
BRANCH  24  26
ATOM     26  C   UNL     1      10.737  26.027  43.421  1.00  0.00     0.040 A 
ATOM     27  C   UNL     1      11.062  26.180  44.776  1.00  0.00     0.030 A 
ATOM     28  C   UNL     1      10.144  24.825  42.993  1.00  0.00     0.050 A 
ATOM     29  C   UNL     1      10.800  25.157  45.691  1.00  0.00     0.050 A 
ATOM     30  C   UNL     1       9.877  23.800  43.907  1.00  0.00     0.085 A 
ATOM     31  C   UNL     1      10.196  23.958  45.265  1.00  0.00     0.138 A 
ATOM     32  Cl  UNL     1       9.126  22.318  43.336  1.00  0.00    -0.080 Cl
BRANCH  31  33
ATOM     33  O   UNL     1       9.899  22.909  46.151  1.00  0.00    -0.486 OA
BRANCH  33  34
ATOM     34  C   UNL     1      10.814  22.322  47.078  1.00  0.00     0.285 C 
BRANCH  34  35
ATOM     35  C   UNL     1      11.251  20.963  46.612  1.00  0.00     0.078 A 
ATOM     36  C   UNL     1      12.030  20.818  45.455  1.00  0.00     0.027 A 
ATOM     37  N   UNL     1      10.913  19.861  47.339  1.00  0.00    -0.258 NA
ATOM     38  C   UNL     1      12.431  19.542  45.054  1.00  0.00     0.004 A 
ATOM     39  C   UNL     1      11.296  18.611  46.965  1.00  0.00     0.111 A 
ATOM     40  C   UNL     1      12.061  18.428  45.811  1.00  0.00     0.020 A 
ENDBRANCH  34  35
ENDBRANCH  33  34
ENDBRANCH  31  33
ENDBRANCH  24  26
ENDBRANCH   5  24
BRANCH   6  41
ATOM     41  C   UNL     1      11.089  29.734  43.636  1.00  0.00     0.103 C 
ATOM     42  N   UNL     1      10.144  30.213  44.101  1.00  0.00    -0.192 NA
ENDBRANCH   6  41
TORSDOF 12
ENDMDL
MODEL 14
REMARK VINA RESULT:    -7.280     11.451     16.195
REMARK INTER + INTRA:         -13.796
REMARK INTER:                 -12.030
REMARK INTRA:                  -1.767
REMARK UNBOUND:                -1.409
REMARK SMILES CCOc1cc2ncc(C#N)c(Nc3ccc(OCc4ccccn4)c(Cl)c3)c2cc1NC(=O)/C=C/CN(C)C
REMARK SMILES IDX 4 1 31 2 30 3 29 4 12 5 9 6 8 7 7 8 6 9 5 10 3 11 2 12 1 13
REMARK SMILES IDX 32 14 33 15 34 17 35 18 36 19 37 20 38 21 39 22 40 23 13 24
REMARK SMILES IDX 14 26 15 27 28 28 16 29 26 30 17 31 27 32 18 33 19 34 20 35
REMARK SMILES IDX 21 36 25 37 22 38 24 39 23 40 10 41 11 42
REMARK H PARENT 32 16 13 25
REMARK Flexibility Score: inf
ROOT
ATOM      1  C   UNL     1      12.146  26.721  41.941  1.00  0.00     0.144 A 
ATOM      2  C   UNL     1      12.930  25.716  41.338  1.00  0.00     0.084 A 
ATOM      3  C   UNL     1      12.329  24.759  40.509  1.00  0.00     0.042 A 
ATOM      4  C   UNL     1      10.937  24.751  40.317  1.00  0.00     0.027 A 
ATOM      5  C   UNL     1      10.299  23.786  39.510  1.00  0.00     0.068 A 
ATOM      6  C   UNL     1       8.898  23.809  39.382  1.00  0.00     0.094 A 
ATOM      7  C   UNL     1       8.164  24.800  40.039  1.00  0.00     0.133 A 
ATOM      8  N   UNL     1       8.797  25.730  40.799  1.00  0.00    -0.255 NA
ATOM      9  C   UNL     1      10.148  25.733  40.956  1.00  0.00     0.076 A 
ATOM     10  C   UNL     1      10.751  26.712  41.749  1.00  0.00     0.077 A 
ENDROOT
BRANCH   1  11
ATOM     11  O   UNL     1      12.791  27.720  42.692  1.00  0.00    -0.492 OA
BRANCH  11  12
ATOM     12  C   UNL     1      13.139  29.024  42.227  1.00  0.00     0.226 C 
ATOM     13  C   UNL     1      14.649  29.152  42.060  1.00  0.00     0.049 C 
ENDBRANCH  11  12
ENDBRANCH   1  11
BRANCH   2  14
ATOM     14  N   UNL     1      14.352  25.670  41.534  1.00  0.00    -0.319 N 
ATOM     15  C   UNL     1      15.289  25.660  40.446  1.00  0.00     0.248 C 
ATOM     16  H   UNL     1      14.721  25.774  42.507  1.00  0.00     0.170 HD
ATOM     17  O   UNL     1      14.893  25.877  39.267  1.00  0.00    -0.270 OA
BRANCH  15  18
ATOM     18  C   UNL     1      16.720  25.424  40.716  1.00  0.00     0.068 C 
ATOM     19  C   UNL     1      17.639  26.386  40.590  1.00  0.00    -0.006 C 
BRANCH  19  20
ATOM     20  C   UNL     1      19.088  26.108  40.871  1.00  0.00     0.111 C 
BRANCH  20  21
ATOM     21  N   UNL     1      19.858  26.043  39.611  1.00  0.00    -0.306 NA
ATOM     22  C   UNL     1      21.050  26.901  39.699  1.00  0.00     0.105 C 
ATOM     23  C   UNL     1      20.269  24.658  39.321  1.00  0.00     0.105 C 
ENDBRANCH  20  21
ENDBRANCH  19  20
ENDBRANCH  15  18
ENDBRANCH   2  14
BRANCH   5  24
ATOM     24  N   UNL     1      11.061  22.788  38.814  1.00  0.00    -0.354 N 
ATOM     25  H   UNL     1      11.389  23.019  37.848  1.00  0.00     0.167 HD
BRANCH  24  26
ATOM     26  C   UNL     1      11.500  21.565  39.432  1.00  0.00     0.040 A 
ATOM     27  C   UNL     1      10.743  21.010  40.472  1.00  0.00     0.030 A 
ATOM     28  C   UNL     1      12.665  20.900  39.006  1.00  0.00     0.050 A 
ATOM     29  C   UNL     1      11.135  19.813  41.077  1.00  0.00     0.050 A 
ATOM     30  C   UNL     1      13.059  19.700  39.608  1.00  0.00     0.085 A 
ATOM     31  C   UNL     1      12.294  19.142  40.644  1.00  0.00     0.138 A 
ATOM     32  Cl  UNL     1      14.513  18.896  39.040  1.00  0.00    -0.080 Cl
BRANCH  31  33
ATOM     33  O   UNL     1      12.718  17.928  41.212  1.00  0.00    -0.486 OA
BRANCH  33  34
ATOM     34  C   UNL     1      11.904  16.768  41.393  1.00  0.00     0.285 C 
BRANCH  34  35
ATOM     35  C   UNL     1      11.378  16.272  40.077  1.00  0.00     0.078 A 
ATOM     36  C   UNL     1      12.244  16.051  38.997  1.00  0.00     0.027 A 
ATOM     37  N   UNL     1      10.049  16.003  39.940  1.00  0.00    -0.258 NA
ATOM     38  C   UNL     1      11.728  15.578  37.789  1.00  0.00     0.004 A 
ATOM     39  C   UNL     1       9.528  15.540  38.773  1.00  0.00     0.111 A 
ATOM     40  C   UNL     1      10.360  15.321  37.672  1.00  0.00     0.020 A 
ENDBRANCH  34  35
ENDBRANCH  33  34
ENDBRANCH  31  33
ENDBRANCH  24  26
ENDBRANCH   5  24
BRANCH   6  41
ATOM     41  C   UNL     1       8.211  22.839  38.566  1.00  0.00     0.103 C 
ATOM     42  N   UNL     1       7.658  22.062  37.909  1.00  0.00    -0.192 NA
ENDBRANCH   6  41
TORSDOF 12
ENDMDL
MODEL 15
REMARK VINA RESULT:    -7.252     13.370     18.047
REMARK INTER + INTRA:         -13.749
REMARK INTER:                 -11.772
REMARK INTRA:                  -1.977
REMARK UNBOUND:                -1.409
REMARK SMILES CCOc1cc2ncc(C#N)c(Nc3ccc(OCc4ccccn4)c(Cl)c3)c2cc1NC(=O)/C=C/CN(C)C
REMARK SMILES IDX 4 1 31 2 30 3 29 4 12 5 9 6 8 7 7 8 6 9 5 10 3 11 2 12 1 13
REMARK SMILES IDX 32 14 33 15 34 17 35 18 36 19 37 20 38 21 39 22 40 23 13 24
REMARK SMILES IDX 14 26 15 27 28 28 16 29 26 30 17 31 27 32 18 33 19 34 20 35
REMARK SMILES IDX 21 36 25 37 22 38 24 39 23 40 10 41 11 42
REMARK H PARENT 32 16 13 25
REMARK Flexibility Score: inf
ROOT
ATOM      1  C   UNL     1      11.128  18.232  43.035  1.00  0.00     0.144 A 
ATOM      2  C   UNL     1      10.633  19.505  42.684  1.00  0.00     0.084 A 
ATOM      3  C   UNL     1      10.944  20.059  41.435  1.00  0.00     0.042 A 
ATOM      4  C   UNL     1      11.797  19.387  40.545  1.00  0.00     0.027 A 
ATOM      5  C   UNL     1      12.151  19.930  39.292  1.00  0.00     0.068 A 
ATOM      6  C   UNL     1      13.037  19.224  38.457  1.00  0.00     0.094 A 
ATOM      7  C   UNL     1      13.535  17.986  38.875  1.00  0.00     0.133 A 
ATOM      8  N   UNL     1      13.171  17.472  40.078  1.00  0.00    -0.255 NA
ATOM      9  C   UNL     1      12.327  18.131  40.916  1.00  0.00     0.076 A 
ATOM     10  C   UNL     1      11.984  17.558  42.143  1.00  0.00     0.077 A 
ENDROOT
BRANCH   1  11
ATOM     11  O   UNL     1      10.722  17.664  44.255  1.00  0.00    -0.492 OA
BRANCH  11  12
ATOM     12  C   UNL     1      11.587  17.215  45.299  1.00  0.00     0.226 C 
ATOM     13  C   UNL     1      11.685  18.259  46.405  1.00  0.00     0.049 C 
ENDBRANCH  11  12
ENDBRANCH   1  11
BRANCH   2  14
ATOM     14  N   UNL     1       9.781  20.240  43.578  1.00  0.00    -0.319 N 
ATOM     15  C   UNL     1      10.290  21.120  44.591  1.00  0.00     0.248 C 
ATOM     16  H   UNL     1       8.751  20.228  43.400  1.00  0.00     0.170 HD
ATOM     17  O   UNL     1      11.516  21.421  44.613  1.00  0.00    -0.270 OA
BRANCH  15  18
ATOM     18  C   UNL     1       9.368  21.695  45.589  1.00  0.00     0.068 C 
ATOM     19  C   UNL     1       9.711  21.855  46.870  1.00  0.00    -0.006 C 
BRANCH  19  20
ATOM     20  C   UNL     1       8.745  22.441  47.860  1.00  0.00     0.111 C 
BRANCH  20  21
ATOM     21  N   UNL     1       8.801  21.702  49.139  1.00  0.00    -0.306 NA
ATOM     22  C   UNL     1       7.700  20.727  49.212  1.00  0.00     0.105 C 
ATOM     23  C   UNL     1      10.089  21.001  49.282  1.00  0.00     0.105 C 
ENDBRANCH  20  21
ENDBRANCH  19  20
ENDBRANCH  15  18
ENDBRANCH   2  14
BRANCH   5  24
ATOM     24  N   UNL     1      11.612  21.187  38.857  1.00  0.00    -0.354 N 
ATOM     25  H   UNL     1      10.729  21.166  38.298  1.00  0.00     0.167 HD
BRANCH  24  26
ATOM     26  C   UNL     1      12.153  22.456  39.269  1.00  0.00     0.040 A 
ATOM     27  C   UNL     1      13.463  22.796  38.904  1.00  0.00     0.030 A 
ATOM     28  C   UNL     1      11.392  23.374  40.016  1.00  0.00     0.050 A 
ATOM     29  C   UNL     1      14.007  24.029  39.273  1.00  0.00     0.050 A 
ATOM     30  C   UNL     1      11.933  24.610  40.385  1.00  0.00     0.085 A 
ATOM     31  C   UNL     1      13.242  24.953  40.011  1.00  0.00     0.138 A 
ATOM     32  Cl  UNL     1      10.948  25.733  41.309  1.00  0.00    -0.080 Cl
BRANCH  31  33
ATOM     33  O   UNL     1      13.741  26.210  40.391  1.00  0.00    -0.486 OA
BRANCH  33  34
ATOM     34  C   UNL     1      14.442  26.492  41.604  1.00  0.00     0.285 C 
BRANCH  34  35
ATOM     35  C   UNL     1      15.889  26.787  41.331  1.00  0.00     0.078 A 
ATOM     36  C   UNL     1      16.749  25.781  40.867  1.00  0.00     0.027 A 
ATOM     37  N   UNL     1      16.364  28.051  41.508  1.00  0.00    -0.258 NA
ATOM     38  C   UNL     1      18.087  26.088  40.612  1.00  0.00     0.004 A 
ATOM     39  C   UNL     1      17.663  28.370  41.263  1.00  0.00     0.111 A 
ATOM     40  C   UNL     1      18.551  27.390  40.811  1.00  0.00     0.020 A 
ENDBRANCH  34  35
ENDBRANCH  33  34
ENDBRANCH  31  33
ENDBRANCH  24  26
ENDBRANCH   5  24
BRANCH   6  41
ATOM     41  C   UNL     1      13.420  19.747  37.170  1.00  0.00     0.103 C 
ATOM     42  N   UNL     1      13.728  20.165  36.135  1.00  0.00    -0.192 NA
ENDBRANCH   6  41
TORSDOF 12
ENDMDL
