MODEL 1
REMARK VINA RESULT:   -10.234      0.000      0.000
REMARK INTER + INTRA:         -15.093
REMARK INTER:                 -13.823
REMARK INTRA:                  -1.269
REMARK UNBOUND:                -1.269
REMARK SMILES COc1cc2c(Nc3ccc(Cl)c(Cl)c3F)ncnc2cc1OC[C@@H]1C[C@@H]2CN(C)C[C@@H]2C1
REMARK SMILES IDX 3 1 22 2 21 3 20 4 19 5 18 6 17 7 6 8 5 9 4 10 2 11 1 12
REMARK SMILES IDX 23 13 24 14 25 15 33 16 26 17 32 18 27 19 31 20 28 21 29 22
REMARK SMILES IDX 30 23 7 24 8 26 9 27 15 28 10 29 13 30 16 31 11 32 14 33
REMARK SMILES IDX 12 34
REMARK H PARENT 7 25
REMARK Flexibility Score: inf
ROOT
ATOM      1  C   UNL     1     -76.837 -18.845  88.767  1.00  0.00     0.161 A 
ATOM      2  C   UNL     1     -76.058 -17.807  88.233  1.00  0.00     0.163 A 
ATOM      3  C   UNL     1     -76.244 -17.416  86.894  1.00  0.00     0.079 A 
ATOM      4  C   UNL     1     -77.180 -18.067  86.088  1.00  0.00     0.080 A 
ATOM      5  N   UNL     1     -77.356 -17.666  84.803  1.00  0.00    -0.236 NA
ATOM      6  C   UNL     1     -78.259 -18.275  83.997  1.00  0.00     0.224 A 
ATOM      7  N   UNL     1     -78.998 -19.312  84.464  1.00  0.00    -0.219 NA
ATOM      8  C   UNL     1     -78.872 -19.761  85.743  1.00  0.00     0.141 A 
ATOM      9  C   UNL     1     -77.946 -19.133  86.606  1.00  0.00     0.047 A 
ATOM     10  C   UNL     1     -77.780 -19.504  87.953  1.00  0.00     0.064 A 
ENDROOT
BRANCH   1  11
ATOM     11  O   UNL     1     -76.640 -19.195  90.113  1.00  0.00    -0.493 OA
ATOM     12  C   UNL     1     -77.179 -20.356  90.735  1.00  0.00     0.278 C 
ENDBRANCH   1  11
BRANCH   2  13
ATOM     13  O   UNL     1     -75.116 -17.188  89.073  1.00  0.00    -0.489 OA
BRANCH  13  14
ATOM     14  C   UNL     1     -74.749 -15.808  89.038  1.00  0.00     0.233 C 
BRANCH  14  15
ATOM     15  C   UNL     1     -75.036 -15.129  90.389  1.00  0.00     0.027 C 
ATOM     16  C   UNL     1     -76.112 -15.863  91.184  1.00  0.00     0.012 C 
ATOM     17  C   UNL     1     -73.802 -15.075  91.302  1.00  0.00     0.012 C 
ATOM     18  C   UNL     1     -75.783 -15.573  92.648  1.00  0.00     0.008 C 
ATOM     19  C   UNL     1     -74.278 -15.483  92.704  1.00  0.00     0.008 C 
ATOM     20  C   UNL     1     -76.160 -16.710  93.598  1.00  0.00     0.088 C 
ATOM     21  C   UNL     1     -73.846 -16.885  93.124  1.00  0.00     0.088 C 
ATOM     22  N   UNL     1     -74.927 -17.435  93.954  1.00  0.00    -0.306 NA
ATOM     23  C   UNL     1     -75.071 -18.886  93.767  1.00  0.00     0.105 C 
ENDBRANCH  14  15
ENDBRANCH  13  14
ENDBRANCH   2  13
BRANCH   8  24
ATOM     24  N   UNL     1     -79.638 -20.904  86.164  1.00  0.00    -0.337 N 
ATOM     25  H   UNL     1     -79.291 -21.854  85.905  1.00  0.00     0.168 HD
BRANCH  24  26
ATOM     26  C   UNL     1     -80.948 -20.801  86.751  1.00  0.00     0.078 A 
ATOM     27  C   UNL     1     -82.036 -20.307  86.009  1.00  0.00     0.031 A 
ATOM     28  C   UNL     1     -81.139 -21.147  88.100  1.00  0.00     0.166 A 
ATOM     29  C   UNL     1     -83.296 -20.190  86.598  1.00  0.00     0.024 A 
ATOM     30  C   UNL     1     -82.406 -21.031  88.690  1.00  0.00     0.097 A 
ATOM     31  F   UNL     1     -80.097 -21.612  88.835  1.00  0.00    -0.203 F 
ATOM     32  C   UNL     1     -83.489 -20.553  87.934  1.00  0.00     0.062 A 
ATOM     33  Cl  UNL     1     -82.615 -21.492  90.376  1.00  0.00    -0.079 Cl
ATOM     34  Cl  UNL     1     -85.093 -20.389  88.636  1.00  0.00    -0.083 Cl
ENDBRANCH  24  26
ENDBRANCH   8  24
TORSDOF 6
ENDMDL
MODEL 2
REMARK VINA RESULT:    -9.768      0.892      1.429
REMARK INTER + INTRA:         -14.463
REMARK INTER:                 -13.527
REMARK INTRA:                  -0.937
REMARK UNBOUND:                -1.269
REMARK SMILES COc1cc2c(Nc3ccc(Cl)c(Cl)c3F)ncnc2cc1OC[C@@H]1C[C@@H]2CN(C)C[C@@H]2C1
REMARK SMILES IDX 3 1 22 2 21 3 20 4 19 5 18 6 17 7 6 8 5 9 4 10 2 11 1 12
REMARK SMILES IDX 23 13 24 14 25 15 33 16 26 17 32 18 27 19 31 20 28 21 29 22
REMARK SMILES IDX 30 23 7 24 8 26 9 27 15 28 10 29 13 30 16 31 11 32 14 33
REMARK SMILES IDX 12 34
REMARK H PARENT 7 25
REMARK Flexibility Score: inf
ROOT
ATOM      1  C   UNL     1     -76.820 -18.931  88.774  1.00  0.00     0.161 A 
ATOM      2  C   UNL     1     -76.107 -17.845  88.244  1.00  0.00     0.163 A 
ATOM      3  C   UNL     1     -76.372 -17.414  86.931  1.00  0.00     0.079 A 
ATOM      4  C   UNL     1     -77.321 -18.073  86.146  1.00  0.00     0.080 A 
ATOM      5  N   UNL     1     -77.573 -17.634  84.886  1.00  0.00    -0.236 NA
ATOM      6  C   UNL     1     -78.490 -18.249  84.101  1.00  0.00     0.224 A 
ATOM      7  N   UNL     1     -79.167 -19.329  84.563  1.00  0.00    -0.219 NA
ATOM      8  C   UNL     1     -78.962 -19.818  85.817  1.00  0.00     0.141 A 
ATOM      9  C   UNL     1     -78.020 -19.185  86.658  1.00  0.00     0.047 A 
ATOM     10  C   UNL     1     -77.776 -19.597  87.982  1.00  0.00     0.064 A 
ENDROOT
BRANCH   1  11
ATOM     11  O   UNL     1     -76.546 -19.320  90.096  1.00  0.00    -0.493 OA
ATOM     12  C   UNL     1     -76.890 -20.583  90.657  1.00  0.00     0.278 C 
ENDBRANCH   1  11
BRANCH   2  13
ATOM     13  O   UNL     1     -75.150 -17.219  89.062  1.00  0.00    -0.489 OA
BRANCH  13  14
ATOM     14  C   UNL     1     -74.760 -15.847  88.988  1.00  0.00     0.233 C 
BRANCH  14  15
ATOM     15  C   UNL     1     -75.054 -15.122  90.314  1.00  0.00     0.027 C 
ATOM     16  C   UNL     1     -76.094 -15.857  91.154  1.00  0.00     0.012 C 
ATOM     17  C   UNL     1     -73.812 -14.987  91.206  1.00  0.00     0.012 C 
ATOM     18  C   UNL     1     -75.757 -15.495  92.599  1.00  0.00     0.008 C 
ATOM     19  C   UNL     1     -74.256 -15.351  92.630  1.00  0.00     0.008 C 
ATOM     20  C   UNL     1     -76.083 -16.601  93.601  1.00  0.00     0.088 C 
ATOM     21  C   UNL     1     -73.770 -16.717  93.103  1.00  0.00     0.088 C 
ATOM     22  N   UNL     1     -74.821 -17.268  93.971  1.00  0.00    -0.306 NA
ATOM     23  C   UNL     1     -74.917 -18.731  93.847  1.00  0.00     0.105 C 
ENDBRANCH  14  15
ENDBRANCH  13  14
ENDBRANCH   2  13
BRANCH   8  24
ATOM     24  N   UNL     1     -79.664 -21.004  86.230  1.00  0.00    -0.337 N 
ATOM     25  H   UNL     1     -79.508 -21.884  85.691  1.00  0.00     0.168 HD
BRANCH  24  26
ATOM     26  C   UNL     1     -80.710 -20.996  87.220  1.00  0.00     0.078 A 
ATOM     27  C   UNL     1     -80.483 -21.499  88.513  1.00  0.00     0.031 A 
ATOM     28  C   UNL     1     -81.991 -20.528  86.881  1.00  0.00     0.166 A 
ATOM     29  C   UNL     1     -81.512 -21.506  89.457  1.00  0.00     0.024 A 
ATOM     30  C   UNL     1     -83.023 -20.534  87.830  1.00  0.00     0.097 A 
ATOM     31  F   UNL     1     -82.231 -20.052  85.633  1.00  0.00    -0.203 F 
ATOM     32  C   UNL     1     -82.780 -21.023  89.124  1.00  0.00     0.062 A 
ATOM     33  Cl  UNL     1     -84.611 -19.923  87.378  1.00  0.00    -0.079 Cl
ATOM     34  Cl  UNL     1     -84.048 -21.051  90.344  1.00  0.00    -0.083 Cl
ENDBRANCH  24  26
ENDBRANCH   8  24
TORSDOF 6
ENDMDL
MODEL 3
REMARK VINA RESULT:    -9.474      5.062      8.885
REMARK INTER + INTRA:         -14.067
REMARK INTER:                 -12.827
REMARK INTRA:                  -1.240
REMARK UNBOUND:                -1.269
REMARK SMILES COc1cc2c(Nc3ccc(Cl)c(Cl)c3F)ncnc2cc1OC[C@@H]1C[C@@H]2CN(C)C[C@@H]2C1
REMARK SMILES IDX 3 1 22 2 21 3 20 4 19 5 18 6 17 7 6 8 5 9 4 10 2 11 1 12
REMARK SMILES IDX 23 13 24 14 25 15 33 16 26 17 32 18 27 19 31 20 28 21 29 22
REMARK SMILES IDX 30 23 7 24 8 26 9 27 15 28 10 29 13 30 16 31 11 32 14 33
REMARK SMILES IDX 12 34
REMARK H PARENT 7 25
REMARK Flexibility Score: inf
ROOT
ATOM      1  C   UNL     1     -78.545 -19.434  86.174  1.00  0.00     0.161 A 
ATOM      2  C   UNL     1     -78.494 -19.987  87.462  1.00  0.00     0.163 A 
ATOM      3  C   UNL     1     -77.602 -19.457  88.412  1.00  0.00     0.079 A 
ATOM      4  C   UNL     1     -76.753 -18.400  88.076  1.00  0.00     0.080 A 
ATOM      5  N   UNL     1     -75.910 -17.891  89.010  1.00  0.00    -0.236 NA
ATOM      6  C   UNL     1     -75.076 -16.864  88.716  1.00  0.00     0.224 A 
ATOM      7  N   UNL     1     -75.066 -16.333  87.468  1.00  0.00    -0.219 NA
ATOM      8  C   UNL     1     -75.888 -16.795  86.486  1.00  0.00     0.141 A 
ATOM      9  C   UNL     1     -76.774 -17.858  86.774  1.00  0.00     0.047 A 
ATOM     10  C   UNL     1     -77.687 -18.369  85.834  1.00  0.00     0.064 A 
ENDROOT
BRANCH   1  11
ATOM     11  O   UNL     1     -79.463 -19.974  85.258  1.00  0.00    -0.493 OA
ATOM     12  C   UNL     1     -80.544 -19.253  84.675  1.00  0.00     0.278 C 
ENDBRANCH   1  11
BRANCH   2  13
ATOM     13  O   UNL     1     -79.355 -21.060  87.756  1.00  0.00    -0.489 OA
BRANCH  13  14
ATOM     14  C   UNL     1     -80.067 -21.245  88.980  1.00  0.00     0.233 C 
BRANCH  14  15
ATOM     15  C   UNL     1     -81.429 -21.916  88.725  1.00  0.00     0.027 C 
ATOM     16  C   UNL     1     -82.539 -21.306  89.576  1.00  0.00     0.012 C 
ATOM     17  C   UNL     1     -81.895 -21.783  87.268  1.00  0.00     0.012 C 
ATOM     18  C   UNL     1     -83.814 -21.508  88.759  1.00  0.00     0.008 C 
ATOM     19  C   UNL     1     -83.381 -21.400  87.318  1.00  0.00     0.008 C 
ATOM     20  C   UNL     1     -84.852 -20.403  88.957  1.00  0.00     0.088 C 
ATOM     21  C   UNL     1     -83.660 -19.943  86.963  1.00  0.00     0.088 C 
ATOM     22  N   UNL     1     -84.803 -19.514  87.783  1.00  0.00    -0.306 NA
ATOM     23  C   UNL     1     -84.693 -18.100  88.170  1.00  0.00     0.105 C 
ENDBRANCH  14  15
ENDBRANCH  13  14
ENDBRANCH   2  13
BRANCH   8  24
ATOM     24  N   UNL     1     -75.788 -16.233  85.166  1.00  0.00    -0.337 N 
ATOM     25  H   UNL     1     -76.515 -15.546  84.865  1.00  0.00     0.168 HD
BRANCH  24  26
ATOM     26  C   UNL     1     -74.858 -16.709  84.176  1.00  0.00     0.078 A 
ATOM     27  C   UNL     1     -75.214 -17.736  83.284  1.00  0.00     0.031 A 
ATOM     28  C   UNL     1     -73.555 -16.181  84.129  1.00  0.00     0.166 A 
ATOM     29  C   UNL     1     -74.295 -18.205  82.344  1.00  0.00     0.024 A 
ATOM     30  C   UNL     1     -72.634 -16.651  83.183  1.00  0.00     0.097 A 
ATOM     31  F   UNL     1     -73.190 -15.199  84.991  1.00  0.00    -0.203 F 
ATOM     32  C   UNL     1     -73.007 -17.665  82.285  1.00  0.00     0.062 A 
ATOM     33  Cl  UNL     1     -71.018 -15.955  83.137  1.00  0.00    -0.079 Cl
ATOM     34  Cl  UNL     1     -71.880 -18.285  81.085  1.00  0.00    -0.083 Cl
ENDBRANCH  24  26
ENDBRANCH   8  24
TORSDOF 6
ENDMDL
MODEL 4
REMARK VINA RESULT:    -9.467      1.830      2.838
REMARK INTER + INTRA:         -14.057
REMARK INTER:                 -12.585
REMARK INTRA:                  -1.472
REMARK UNBOUND:                -1.269
REMARK SMILES COc1cc2c(Nc3ccc(Cl)c(Cl)c3F)ncnc2cc1OC[C@@H]1C[C@@H]2CN(C)C[C@@H]2C1
REMARK SMILES IDX 3 1 22 2 21 3 20 4 19 5 18 6 17 7 6 8 5 9 4 10 2 11 1 12
REMARK SMILES IDX 23 13 24 14 25 15 33 16 26 17 32 18 27 19 31 20 28 21 29 22
REMARK SMILES IDX 30 23 7 24 8 26 9 27 15 28 10 29 13 30 16 31 11 32 14 33
REMARK SMILES IDX 12 34
REMARK H PARENT 7 25
REMARK Flexibility Score: inf
ROOT
ATOM      1  C   UNL     1     -76.762 -18.985  89.571  1.00  0.00     0.161 A 
ATOM      2  C   UNL     1     -75.979 -17.855  89.284  1.00  0.00     0.163 A 
ATOM      3  C   UNL     1     -76.038 -17.276  88.004  1.00  0.00     0.079 A 
ATOM      4  C   UNL     1     -76.850 -17.829  87.011  1.00  0.00     0.080 A 
ATOM      5  N   UNL     1     -76.905 -17.247  85.785  1.00  0.00    -0.236 NA
ATOM      6  C   UNL     1     -77.685 -17.756  84.802  1.00  0.00     0.224 A 
ATOM      7  N   UNL     1     -78.421 -18.873  85.028  1.00  0.00    -0.219 NA
ATOM      8  C   UNL     1     -78.413 -19.504  86.235  1.00  0.00     0.141 A 
ATOM      9  C   UNL     1     -77.616 -18.982  87.279  1.00  0.00     0.047 A 
ATOM     10  C   UNL     1     -77.580 -19.544  88.569  1.00  0.00     0.064 A 
ENDROOT
BRANCH   1  11
ATOM     11  O   UNL     1     -76.696 -19.524  90.866  1.00  0.00    -0.493 OA
ATOM     12  C   UNL     1     -75.813 -20.567  91.265  1.00  0.00     0.278 C 
ENDBRANCH   1  11
BRANCH   2  13
ATOM     13  O   UNL     1     -75.164 -17.339  90.307  1.00  0.00    -0.489 OA
BRANCH  13  14
ATOM     14  C   UNL     1     -75.433 -16.164  91.073  1.00  0.00     0.233 C 
BRANCH  14  15
ATOM     15  C   UNL     1     -74.319 -15.119  90.883  1.00  0.00     0.027 C 
ATOM     16  C   UNL     1     -72.932 -15.754  90.860  1.00  0.00     0.012 C 
ATOM     17  C   UNL     1     -74.448 -14.345  89.563  1.00  0.00     0.012 C 
ATOM     18  C   UNL     1     -72.088 -14.822  89.993  1.00  0.00     0.008 C 
ATOM     19  C   UNL     1     -73.039 -14.279  88.956  1.00  0.00     0.008 C 
ATOM     20  C   UNL     1     -70.992 -15.539  89.207  1.00  0.00     0.088 C 
ATOM     21  C   UNL     1     -72.835 -15.201  87.758  1.00  0.00     0.088 C 
ATOM     22  N   UNL     1     -71.440 -15.664  87.808  1.00  0.00    -0.306 NA
ATOM     23  C   UNL     1     -71.308 -17.042  87.311  1.00  0.00     0.105 C 
ENDBRANCH  14  15
ENDBRANCH  13  14
ENDBRANCH   2  13
BRANCH   8  24
ATOM     24  N   UNL     1     -79.166 -20.719  86.397  1.00  0.00    -0.337 N 
ATOM     25  H   UNL     1     -78.733 -21.614  86.079  1.00  0.00     0.168 HD
BRANCH  24  26
ATOM     26  C   UNL     1     -80.550 -20.741  86.791  1.00  0.00     0.078 A 
ATOM     27  C   UNL     1     -81.558 -20.305  85.914  1.00  0.00     0.031 A 
ATOM     28  C   UNL     1     -80.901 -21.153  88.089  1.00  0.00     0.166 A 
ATOM     29  C   UNL     1     -82.895 -20.310  86.317  1.00  0.00     0.024 A 
ATOM     30  C   UNL     1     -82.243 -21.160  88.492  1.00  0.00     0.097 A 
ATOM     31  F   UNL     1     -79.939 -21.563  88.953  1.00  0.00    -0.203 F 
ATOM     32  C   UNL     1     -83.244 -20.739  87.601  1.00  0.00     0.062 A 
ATOM     33  Cl  UNL     1     -82.651 -21.700  90.117  1.00  0.00    -0.079 Cl
ATOM     34  Cl  UNL     1     -84.940 -20.728  88.068  1.00  0.00    -0.083 Cl
ENDBRANCH  24  26
ENDBRANCH   8  24
TORSDOF 6
ENDMDL
MODEL 5
REMARK VINA RESULT:    -9.330      3.649      8.251
REMARK INTER + INTRA:         -13.871
REMARK INTER:                 -12.928
REMARK INTRA:                  -0.943
REMARK UNBOUND:                -1.269
REMARK SMILES COc1cc2c(Nc3ccc(Cl)c(Cl)c3F)ncnc2cc1OC[C@@H]1C[C@@H]2CN(C)C[C@@H]2C1
REMARK SMILES IDX 3 1 22 2 21 3 20 4 19 5 18 6 17 7 6 8 5 9 4 10 2 11 1 12
REMARK SMILES IDX 23 13 24 14 25 15 33 16 26 17 32 18 27 19 31 20 28 21 29 22
REMARK SMILES IDX 30 23 7 24 8 26 9 27 15 28 10 29 13 30 16 31 11 32 14 33
REMARK SMILES IDX 12 34
REMARK H PARENT 7 25
REMARK Flexibility Score: inf
ROOT
ATOM      1  C   UNL     1     -77.399 -20.374  89.916  1.00  0.00     0.161 A 
ATOM      2  C   UNL     1     -78.328 -20.546  88.878  1.00  0.00     0.163 A 
ATOM      3  C   UNL     1     -78.268 -19.713  87.747  1.00  0.00     0.079 A 
ATOM      4  C   UNL     1     -77.308 -18.703  87.659  1.00  0.00     0.080 A 
ATOM      5  N   UNL     1     -77.256 -17.918  86.552  1.00  0.00    -0.236 NA
ATOM      6  C   UNL     1     -76.334 -16.932  86.435  1.00  0.00     0.224 A 
ATOM      7  N   UNL     1     -75.449 -16.707  87.438  1.00  0.00    -0.219 NA
ATOM      8  C   UNL     1     -75.445 -17.459  88.572  1.00  0.00     0.141 A 
ATOM      9  C   UNL     1     -76.390 -18.501  88.711  1.00  0.00     0.047 A 
ATOM     10  C   UNL     1     -76.431 -19.354  89.829  1.00  0.00     0.064 A 
ENDROOT
BRANCH   1  11
ATOM     11  O   UNL     1     -77.474 -21.238  91.021  1.00  0.00    -0.493 OA
ATOM     12  C   UNL     1     -76.463 -21.371  92.015  1.00  0.00     0.278 C 
ENDBRANCH   1  11
BRANCH   2  13
ATOM     13  O   UNL     1     -79.288 -21.565  89.013  1.00  0.00    -0.489 OA
BRANCH  13  14
ATOM     14  C   UNL     1     -80.554 -21.436  89.661  1.00  0.00     0.233 C 
BRANCH  14  15
ATOM     15  C   UNL     1     -81.681 -22.010  88.783  1.00  0.00     0.027 C 
ATOM     16  C   UNL     1     -83.064 -21.696  89.344  1.00  0.00     0.012 C 
ATOM     17  C   UNL     1     -81.668 -21.445  87.355  1.00  0.00     0.012 C 
ATOM     18  C   UNL     1     -83.981 -21.652  88.123  1.00  0.00     0.008 C 
ATOM     19  C   UNL     1     -83.125 -21.109  87.006  1.00  0.00     0.008 C 
ATOM     20  C   UNL     1     -85.143 -20.668  88.263  1.00  0.00     0.088 C 
ATOM     21  C   UNL     1     -83.435 -19.615  87.004  1.00  0.00     0.088 C 
ATOM     22  N   UNL     1     -84.819 -19.465  87.476  1.00  0.00    -0.306 NA
ATOM     23  C   UNL     1     -84.995 -18.233  88.260  1.00  0.00     0.105 C 
ENDBRANCH  14  15
ENDBRANCH  13  14
ENDBRANCH   2  13
BRANCH   8  24
ATOM     24  N   UNL     1     -74.523 -17.133  89.627  1.00  0.00    -0.337 N 
ATOM     25  H   UNL     1     -73.506 -17.311  89.467  1.00  0.00     0.168 HD
BRANCH  24  26
ATOM     26  C   UNL     1     -74.942 -16.757  90.951  1.00  0.00     0.078 A 
ATOM     27  C   UNL     1     -75.987 -15.836  91.144  1.00  0.00     0.031 A 
ATOM     28  C   UNL     1     -74.269 -17.275  92.072  1.00  0.00     0.166 A 
ATOM     29  C   UNL     1     -76.369 -15.462  92.434  1.00  0.00     0.024 A 
ATOM     30  C   UNL     1     -74.655 -16.901  93.367  1.00  0.00     0.097 A 
ATOM     31  F   UNL     1     -73.249 -18.154  91.903  1.00  0.00    -0.203 F 
ATOM     32  C   UNL     1     -75.711 -15.993  93.547  1.00  0.00     0.062 A 
ATOM     33  Cl  UNL     1     -73.803 -17.582  94.748  1.00  0.00    -0.079 Cl
ATOM     34  Cl  UNL     1     -76.224 -15.494  95.155  1.00  0.00    -0.083 Cl
ENDBRANCH  24  26
ENDBRANCH   8  24
TORSDOF 6
ENDMDL
MODEL 6
REMARK VINA RESULT:    -9.237      3.145      7.488
REMARK INTER + INTRA:         -13.746
REMARK INTER:                 -12.520
REMARK INTRA:                  -1.227
REMARK UNBOUND:                -1.269
REMARK SMILES COc1cc2c(Nc3ccc(Cl)c(Cl)c3F)ncnc2cc1OC[C@@H]1C[C@@H]2CN(C)C[C@@H]2C1
REMARK SMILES IDX 3 1 22 2 21 3 20 4 19 5 18 6 17 7 6 8 5 9 4 10 2 11 1 12
REMARK SMILES IDX 23 13 24 14 25 15 33 16 26 17 32 18 27 19 31 20 28 21 29 22
REMARK SMILES IDX 30 23 7 24 8 26 9 27 15 28 10 29 13 30 16 31 11 32 14 33
REMARK SMILES IDX 12 34
REMARK H PARENT 7 25
REMARK Flexibility Score: inf
ROOT
ATOM      1  C   UNL     1     -78.223 -19.846  87.111  1.00  0.00     0.161 A 
ATOM      2  C   UNL     1     -78.803 -19.465  85.892  1.00  0.00     0.163 A 
ATOM      3  C   UNL     1     -78.183 -18.478  85.105  1.00  0.00     0.079 A 
ATOM      4  C   UNL     1     -77.008 -17.859  85.539  1.00  0.00     0.080 A 
ATOM      5  N   UNL     1     -76.416 -16.918  84.759  1.00  0.00    -0.236 NA
ATOM      6  C   UNL     1     -75.275 -16.302  85.150  1.00  0.00     0.224 A 
ATOM      7  N   UNL     1     -74.709 -16.611  86.343  1.00  0.00    -0.219 NA
ATOM      8  C   UNL     1     -75.251 -17.547  87.171  1.00  0.00     0.141 A 
ATOM      9  C   UNL     1     -76.434 -18.211  86.778  1.00  0.00     0.047 A 
ATOM     10  C   UNL     1     -77.039 -19.220  87.550  1.00  0.00     0.064 A 
ENDROOT
BRANCH   1  11
ATOM     11  O   UNL     1     -78.857 -20.851  87.861  1.00  0.00    -0.493 OA
ATOM     12  C   UNL     1     -78.269 -21.531  88.964  1.00  0.00     0.278 C 
ENDBRANCH   1  11
BRANCH   2  13
ATOM     13  O   UNL     1     -79.993 -20.102  85.499  1.00  0.00    -0.489 OA
BRANCH  13  14
ATOM     14  C   UNL     1     -81.251 -19.460  85.288  1.00  0.00     0.233 C 
BRANCH  14  15
ATOM     15  C   UNL     1     -82.412 -20.365  85.742  1.00  0.00     0.027 C 
ATOM     16  C   UNL     1     -81.919 -21.600  86.490  1.00  0.00     0.012 C 
ATOM     17  C   UNL     1     -83.382 -19.654  86.696  1.00  0.00     0.012 C 
ATOM     18  C   UNL     1     -83.058 -21.961  87.441  1.00  0.00     0.008 C 
ATOM     19  C   UNL     1     -83.679 -20.643  87.832  1.00  0.00     0.008 C 
ATOM     20  C   UNL     1     -82.588 -22.595  88.750  1.00  0.00     0.088 C 
ATOM     21  C   UNL     1     -82.996 -20.296  89.152  1.00  0.00     0.088 C 
ATOM     22  N   UNL     1     -82.661 -21.570  89.806  1.00  0.00    -0.306 NA
ATOM     23  C   UNL     1     -81.405 -21.475  90.566  1.00  0.00     0.105 C 
ENDBRANCH  14  15
ENDBRANCH  13  14
ENDBRANCH   2  13
BRANCH   8  24
ATOM     24  N   UNL     1     -74.640 -17.788  88.451  1.00  0.00    -0.337 N 
ATOM     25  H   UNL     1     -73.867 -18.488  88.506  1.00  0.00     0.168 HD
BRANCH  24  26
ATOM     26  C   UNL     1     -75.164 -17.263  89.684  1.00  0.00     0.078 A 
ATOM     27  C   UNL     1     -75.186 -15.878  89.928  1.00  0.00     0.031 A 
ATOM     28  C   UNL     1     -75.614 -18.142  90.685  1.00  0.00     0.166 A 
ATOM     29  C   UNL     1     -75.675 -15.383  91.138  1.00  0.00     0.024 A 
ATOM     30  C   UNL     1     -76.107 -17.644  91.898  1.00  0.00     0.097 A 
ATOM     31  F   UNL     1     -75.587 -19.482  90.471  1.00  0.00    -0.203 F 
ATOM     32  C   UNL     1     -76.140 -16.258  92.124  1.00  0.00     0.062 A 
ATOM     33  Cl  UNL     1     -76.681 -18.771  93.122  1.00  0.00    -0.079 Cl
ATOM     34  Cl  UNL     1     -76.747 -15.591  93.634  1.00  0.00    -0.083 Cl
ENDBRANCH  24  26
ENDBRANCH   8  24
TORSDOF 6
ENDMDL
MODEL 7
REMARK VINA RESULT:    -9.140      2.178      3.615
REMARK INTER + INTRA:         -13.616
REMARK INTER:                 -12.094
REMARK INTRA:                  -1.522
REMARK UNBOUND:                -1.269
REMARK SMILES COc1cc2c(Nc3ccc(Cl)c(Cl)c3F)ncnc2cc1OC[C@@H]1C[C@@H]2CN(C)C[C@@H]2C1
REMARK SMILES IDX 3 1 22 2 21 3 20 4 19 5 18 6 17 7 6 8 5 9 4 10 2 11 1 12
REMARK SMILES IDX 23 13 24 14 25 15 33 16 26 17 32 18 27 19 31 20 28 21 29 22
REMARK SMILES IDX 30 23 7 24 8 26 9 27 15 28 10 29 13 30 16 31 11 32 14 33
REMARK SMILES IDX 12 34
REMARK H PARENT 7 25
REMARK Flexibility Score: inf
ROOT
ATOM      1  C   UNL     1     -76.899 -18.089  87.525  1.00  0.00     0.161 A 
ATOM      2  C   UNL     1     -76.064 -17.363  88.387  1.00  0.00     0.163 A 
ATOM      3  C   UNL     1     -75.831 -17.835  89.692  1.00  0.00     0.079 A 
ATOM      4  C   UNL     1     -76.442 -19.008  90.141  1.00  0.00     0.080 A 
ATOM      5  N   UNL     1     -76.194 -19.457  91.398  1.00  0.00    -0.236 NA
ATOM      6  C   UNL     1     -76.768 -20.593  91.862  1.00  0.00     0.224 A 
ATOM      7  N   UNL     1     -77.616 -21.298  91.073  1.00  0.00    -0.219 NA
ATOM      8  C   UNL     1     -77.905 -20.904  89.802  1.00  0.00     0.141 A 
ATOM      9  C   UNL     1     -77.308 -19.729  89.293  1.00  0.00     0.047 A 
ATOM     10  C   UNL     1     -77.516 -19.272  87.979  1.00  0.00     0.064 A 
ENDROOT
BRANCH   1  11
ATOM     11  O   UNL     1     -77.091 -17.600  86.222  1.00  0.00    -0.493 OA
ATOM     12  C   UNL     1     -77.922 -18.212  85.242  1.00  0.00     0.278 C 
ENDBRANCH   1  11
BRANCH   2  13
ATOM     13  O   UNL     1     -75.481 -16.179  87.901  1.00  0.00    -0.489 OA
BRANCH  13  14
ATOM     14  C   UNL     1     -74.137 -16.043  87.436  1.00  0.00     0.233 C 
BRANCH  14  15
ATOM     15  C   UNL     1     -73.318 -15.145  88.381  1.00  0.00     0.027 C 
ATOM     16  C   UNL     1     -74.152 -14.626  89.548  1.00  0.00     0.012 C 
ATOM     17  C   UNL     1     -72.123 -15.876  89.010  1.00  0.00     0.012 C 
ATOM     18  C   UNL     1     -73.151 -14.417  90.683  1.00  0.00     0.008 C 
ATOM     19  C   UNL     1     -72.114 -15.497  90.497  1.00  0.00     0.008 C 
ATOM     20  C   UNL     1     -73.740 -14.651  92.073  1.00  0.00     0.088 C 
ATOM     21  C   UNL     1     -72.581 -16.613  91.426  1.00  0.00     0.088 C 
ATOM     22  N   UNL     1     -73.284 -15.971  92.547  1.00  0.00    -0.306 NA
ATOM     23  C   UNL     1     -74.402 -16.795  93.031  1.00  0.00     0.105 C 
ENDBRANCH  14  15
ENDBRANCH  13  14
ENDBRANCH   2  13
BRANCH   8  24
ATOM     24  N   UNL     1     -78.859 -21.659  89.034  1.00  0.00    -0.337 N 
ATOM     25  H   UNL     1     -78.499 -22.372  88.361  1.00  0.00     0.168 HD
BRANCH  24  26
ATOM     26  C   UNL     1     -80.265 -21.351  89.004  1.00  0.00     0.078 A 
ATOM     27  C   UNL     1     -81.042 -21.406  90.174  1.00  0.00     0.031 A 
ATOM     28  C   UNL     1     -80.887 -21.042  87.782  1.00  0.00     0.166 A 
ATOM     29  C   UNL     1     -82.409 -21.128  90.127  1.00  0.00     0.024 A 
ATOM     30  C   UNL     1     -82.259 -20.760  87.736  1.00  0.00     0.097 A 
ATOM     31  F   UNL     1     -80.155 -20.997  86.640  1.00  0.00    -0.203 F 
ATOM     32  C   UNL     1     -83.022 -20.801  88.914  1.00  0.00     0.062 A 
ATOM     33  Cl  UNL     1     -83.004 -20.357  86.193  1.00  0.00    -0.079 Cl
ATOM     34  Cl  UNL     1     -84.748 -20.458  88.900  1.00  0.00    -0.083 Cl
ENDBRANCH  24  26
ENDBRANCH   8  24
TORSDOF 6
ENDMDL
MODEL 8
REMARK VINA RESULT:    -8.905      1.629      2.796
REMARK INTER + INTRA:         -13.298
REMARK INTER:                 -12.167
REMARK INTRA:                  -1.131
REMARK UNBOUND:                -1.269
REMARK SMILES COc1cc2c(Nc3ccc(Cl)c(Cl)c3F)ncnc2cc1OC[C@@H]1C[C@@H]2CN(C)C[C@@H]2C1
REMARK SMILES IDX 3 1 22 2 21 3 20 4 19 5 18 6 17 7 6 8 5 9 4 10 2 11 1 12
REMARK SMILES IDX 23 13 24 14 25 15 33 16 26 17 32 18 27 19 31 20 28 21 29 22
REMARK SMILES IDX 30 23 7 24 8 26 9 27 15 28 10 29 13 30 16 31 11 32 14 33
REMARK SMILES IDX 12 34
REMARK H PARENT 7 25
REMARK Flexibility Score: inf
ROOT
ATOM      1  C   UNL     1     -76.870 -17.697  87.041  1.00  0.00     0.161 A 
ATOM      2  C   UNL     1     -76.050 -17.380  88.135  1.00  0.00     0.163 A 
ATOM      3  C   UNL     1     -75.939 -18.285  89.206  1.00  0.00     0.079 A 
ATOM      4  C   UNL     1     -76.654 -19.484  89.199  1.00  0.00     0.080 A 
ATOM      5  N   UNL     1     -76.523 -20.352  90.235  1.00  0.00    -0.236 NA
ATOM      6  C   UNL     1     -77.201 -21.525  90.257  1.00  0.00     0.224 A 
ATOM      7  N   UNL     1     -78.037 -21.846  89.238  1.00  0.00    -0.219 NA
ATOM      8  C   UNL     1     -78.212 -21.021  88.169  1.00  0.00     0.141 A 
ATOM      9  C   UNL     1     -77.506 -19.798  88.119  1.00  0.00     0.047 A 
ATOM     10  C   UNL     1     -77.594 -18.907  87.035  1.00  0.00     0.064 A 
ENDROOT
BRANCH   1  11
ATOM     11  O   UNL     1     -76.940 -16.781  85.979  1.00  0.00    -0.493 OA
ATOM     12  C   UNL     1     -76.245 -16.918  84.744  1.00  0.00     0.278 C 
ENDBRANCH   1  11
BRANCH   2  13
ATOM     13  O   UNL     1     -75.359 -16.156  88.110  1.00  0.00    -0.489 OA
BRANCH  13  14
ATOM     14  C   UNL     1     -73.949 -15.992  88.271  1.00  0.00     0.233 C 
BRANCH  14  15
ATOM     15  C   UNL     1     -73.623 -15.370  89.641  1.00  0.00     0.027 C 
ATOM     16  C   UNL     1     -74.881 -15.067  90.450  1.00  0.00     0.012 C 
ATOM     17  C   UNL     1     -72.767 -16.291  90.524  1.00  0.00     0.012 C 
ATOM     18  C   UNL     1     -74.442 -15.168  91.909  1.00  0.00     0.008 C 
ATOM     19  C   UNL     1     -73.383 -16.243  91.930  1.00  0.00     0.008 C 
ATOM     20  C   UNL     1     -75.542 -15.661  92.848  1.00  0.00     0.088 C 
ATOM     21  C   UNL     1     -74.153 -17.503  92.314  1.00  0.00     0.088 C 
ATOM     22  N   UNL     1     -75.276 -17.076  93.162  1.00  0.00    -0.306 NA
ATOM     23  C   UNL     1     -76.464 -17.917  92.952  1.00  0.00     0.105 C 
ENDBRANCH  14  15
ENDBRANCH  13  14
ENDBRANCH   2  13
BRANCH   8  24
ATOM     24  N   UNL     1     -79.159 -21.387  87.149  1.00  0.00    -0.337 N 
ATOM     25  H   UNL     1     -78.799 -21.842  86.281  1.00  0.00     0.168 HD
BRANCH  24  26
ATOM     26  C   UNL     1     -80.541 -20.987  87.179  1.00  0.00     0.078 A 
ATOM     27  C   UNL     1     -81.109 -20.270  86.111  1.00  0.00     0.031 A 
ATOM     28  C   UNL     1     -81.327 -21.268  88.310  1.00  0.00     0.166 A 
ATOM     29  C   UNL     1     -82.445 -19.868  86.162  1.00  0.00     0.024 A 
ATOM     30  C   UNL     1     -82.669 -20.866  88.359  1.00  0.00     0.097 A 
ATOM     31  F   UNL     1     -80.792 -21.948  89.355  1.00  0.00    -0.203 F 
ATOM     32  C   UNL     1     -83.230 -20.166  87.279  1.00  0.00     0.062 A 
ATOM     33  Cl  UNL     1     -83.631 -21.252  89.782  1.00  0.00    -0.079 Cl
ATOM     34  Cl  UNL     1     -84.909 -19.640  87.302  1.00  0.00    -0.083 Cl
ENDBRANCH  24  26
ENDBRANCH   8  24
TORSDOF 6
ENDMDL
MODEL 9
REMARK VINA RESULT:    -8.872      1.641      2.213
REMARK INTER + INTRA:         -13.254
REMARK INTER:                 -11.980
REMARK INTRA:                  -1.274
REMARK UNBOUND:                -1.269
REMARK SMILES COc1cc2c(Nc3ccc(Cl)c(Cl)c3F)ncnc2cc1OC[C@@H]1C[C@@H]2CN(C)C[C@@H]2C1
REMARK SMILES IDX 3 1 22 2 21 3 20 4 19 5 18 6 17 7 6 8 5 9 4 10 2 11 1 12
REMARK SMILES IDX 23 13 24 14 25 15 33 16 26 17 32 18 27 19 31 20 28 21 29 22
REMARK SMILES IDX 30 23 7 24 8 26 9 27 15 28 10 29 13 30 16 31 11 32 14 33
REMARK SMILES IDX 12 34
REMARK H PARENT 7 25
REMARK Flexibility Score: inf
ROOT
ATOM      1  C   UNL     1     -75.953 -17.554  89.855  1.00  0.00     0.161 A 
ATOM      2  C   UNL     1     -75.493 -16.331  89.344  1.00  0.00     0.163 A 
ATOM      3  C   UNL     1     -75.684 -16.029  87.984  1.00  0.00     0.079 A 
ATOM      4  C   UNL     1     -76.306 -16.947  87.134  1.00  0.00     0.080 A 
ATOM      5  N   UNL     1     -76.495 -16.633  85.826  1.00  0.00    -0.236 NA
ATOM      6  C   UNL     1     -77.098 -17.499  84.978  1.00  0.00     0.224 A 
ATOM      7  N   UNL     1     -77.515 -18.710  85.425  1.00  0.00    -0.219 NA
ATOM      8  C   UNL     1     -77.359 -19.086  86.724  1.00  0.00     0.141 A 
ATOM      9  C   UNL     1     -76.743 -18.193  87.630  1.00  0.00     0.047 A 
ATOM     10  C   UNL     1     -76.579 -18.481  88.997  1.00  0.00     0.064 A 
ENDROOT
BRANCH   1  11
ATOM     11  O   UNL     1     -75.766 -17.812  91.223  1.00  0.00    -0.493 OA
ATOM     12  C   UNL     1     -76.411 -18.856  91.946  1.00  0.00     0.278 C 
ENDBRANCH   1  11
BRANCH   2  13
ATOM     13  O   UNL     1     -74.859 -15.441  90.230  1.00  0.00    -0.489 OA
BRANCH  13  14
ATOM     14  C   UNL     1     -73.743 -14.608  89.915  1.00  0.00     0.233 C 
BRANCH  14  15
ATOM     15  C   UNL     1     -72.636 -14.751  90.975  1.00  0.00     0.027 C 
ATOM     16  C   UNL     1     -72.952 -13.967  92.246  1.00  0.00     0.012 C 
ATOM     17  C   UNL     1     -72.422 -16.205  91.420  1.00  0.00     0.012 C 
ATOM     18  C   UNL     1     -72.241 -14.730  93.363  1.00  0.00     0.008 C 
ATOM     19  C   UNL     1     -72.300 -16.180  92.950  1.00  0.00     0.008 C 
ATOM     20  C   UNL     1     -72.961 -14.658  94.709  1.00  0.00     0.088 C 
ATOM     21  C   UNL     1     -73.528 -16.716  93.681  1.00  0.00     0.088 C 
ATOM     22  N   UNL     1     -73.659 -15.939  94.922  1.00  0.00    -0.306 NA
ATOM     23  C   UNL     1     -75.069 -15.740  95.291  1.00  0.00     0.105 C 
ENDBRANCH  14  15
ENDBRANCH  13  14
ENDBRANCH   2  13
BRANCH   8  24
ATOM     24  N   UNL     1     -77.766 -20.405  87.126  1.00  0.00    -0.337 N 
ATOM     25  H   UNL     1     -77.071 -21.181  87.051  1.00  0.00     0.168 HD
BRANCH  24  26
ATOM     26  C   UNL     1     -79.128 -20.748  87.441  1.00  0.00     0.078 A 
ATOM     27  C   UNL     1     -80.133 -20.687  86.461  1.00  0.00     0.031 A 
ATOM     28  C   UNL     1     -79.475 -21.097  88.758  1.00  0.00     0.166 A 
ATOM     29  C   UNL     1     -81.455 -20.999  86.785  1.00  0.00     0.024 A 
ATOM     30  C   UNL     1     -80.801 -21.413  89.082  1.00  0.00     0.097 A 
ATOM     31  F   UNL     1     -78.519 -21.147  89.721  1.00  0.00    -0.203 F 
ATOM     32  C   UNL     1     -81.794 -21.366  88.090  1.00  0.00     0.062 A 
ATOM     33  Cl  UNL     1     -81.199 -21.866  90.736  1.00  0.00    -0.079 Cl
ATOM     34  Cl  UNL     1     -83.472 -21.751  88.455  1.00  0.00    -0.083 Cl
ENDBRANCH  24  26
ENDBRANCH   8  24
TORSDOF 6
ENDMDL
MODEL 10
REMARK VINA RESULT:    -8.812      5.295      8.560
REMARK INTER + INTRA:         -13.172
REMARK INTER:                 -12.360
REMARK INTRA:                  -0.812
REMARK UNBOUND:                -1.269
REMARK SMILES COc1cc2c(Nc3ccc(Cl)c(Cl)c3F)ncnc2cc1OC[C@@H]1C[C@@H]2CN(C)C[C@@H]2C1
REMARK SMILES IDX 3 1 22 2 21 3 20 4 19 5 18 6 17 7 6 8 5 9 4 10 2 11 1 12
REMARK SMILES IDX 23 13 24 14 25 15 33 16 26 17 32 18 27 19 31 20 28 21 29 22
REMARK SMILES IDX 30 23 7 24 8 26 9 27 15 28 10 29 13 30 16 31 11 32 14 33
REMARK SMILES IDX 12 34
REMARK H PARENT 7 25
REMARK Flexibility Score: inf
ROOT
ATOM      1  C   UNL     1     -77.387 -20.490  87.880  1.00  0.00     0.161 A 
ATOM      2  C   UNL     1     -78.747 -20.833  87.836  1.00  0.00     0.163 A 
ATOM      3  C   UNL     1     -79.531 -20.428  86.740  1.00  0.00     0.079 A 
ATOM      4  C   UNL     1     -78.972 -19.669  85.710  1.00  0.00     0.080 A 
ATOM      5  N   UNL     1     -79.741 -19.299  84.653  1.00  0.00    -0.236 NA
ATOM      6  C   UNL     1     -79.228 -18.566  83.636  1.00  0.00     0.224 A 
ATOM      7  N   UNL     1     -77.928 -18.177  83.666  1.00  0.00    -0.219 NA
ATOM      8  C   UNL     1     -77.103 -18.516  84.695  1.00  0.00     0.141 A 
ATOM      9  C   UNL     1     -77.614 -19.291  85.760  1.00  0.00     0.047 A 
ATOM     10  C   UNL     1     -76.823 -19.722  86.841  1.00  0.00     0.064 A 
ENDROOT
BRANCH   1  11
ATOM     11  O   UNL     1     -76.629 -20.930  88.977  1.00  0.00    -0.493 OA
ATOM     12  C   UNL     1     -75.796 -20.094  89.775  1.00  0.00     0.278 C 
ENDBRANCH   1  11
BRANCH   2  13
ATOM     13  O   UNL     1     -79.274 -21.585  88.900  1.00  0.00    -0.489 OA
BRANCH  13  14
ATOM     14  C   UNL     1     -80.264 -21.137  89.827  1.00  0.00     0.233 C 
BRANCH  14  15
ATOM     15  C   UNL     1     -81.609 -21.842  89.576  1.00  0.00     0.027 C 
ATOM     16  C   UNL     1     -82.781 -21.082  90.190  1.00  0.00     0.012 C 
ATOM     17  C   UNL     1     -81.936 -21.986  88.083  1.00  0.00     0.012 C 
ATOM     18  C   UNL     1     -83.979 -21.433  89.310  1.00  0.00     0.008 C 
ATOM     19  C   UNL     1     -83.413 -21.600  87.921  1.00  0.00     0.008 C 
ATOM     20  C   UNL     1     -85.009 -20.310  89.199  1.00  0.00     0.088 C 
ATOM     21  C   UNL     1     -83.631 -20.235  87.274  1.00  0.00     0.088 C 
ATOM     22  N   UNL     1     -84.836 -19.659  87.888  1.00  0.00    -0.306 NA
ATOM     23  C   UNL     1     -84.736 -18.196  88.011  1.00  0.00     0.105 C 
ENDBRANCH  14  15
ENDBRANCH  13  14
ENDBRANCH   2  13
BRANCH   8  24
ATOM     24  N   UNL     1     -75.752 -18.023  84.701  1.00  0.00    -0.337 N 
ATOM     25  H   UNL     1     -75.536 -17.181  85.280  1.00  0.00     0.168 HD
BRANCH  24  26
ATOM     26  C   UNL     1     -74.733 -18.508  83.809  1.00  0.00     0.078 A 
ATOM     27  C   UNL     1     -74.618 -19.880  83.520  1.00  0.00     0.031 A 
ATOM     28  C   UNL     1     -73.802 -17.612  83.255  1.00  0.00     0.166 A 
ATOM     29  C   UNL     1     -73.611 -20.341  82.671  1.00  0.00     0.024 A 
ATOM     30  C   UNL     1     -72.792 -18.075  82.400  1.00  0.00     0.097 A 
ATOM     31  F   UNL     1     -73.889 -16.286  83.534  1.00  0.00    -0.203 F 
ATOM     32  C   UNL     1     -72.699 -19.445  82.105  1.00  0.00     0.062 A 
ATOM     33  Cl  UNL     1     -71.655 -16.923  81.708  1.00  0.00    -0.079 Cl
ATOM     34  Cl  UNL     1     -71.444 -20.068  81.041  1.00  0.00    -0.083 Cl
ENDBRANCH  24  26
ENDBRANCH   8  24
TORSDOF 6
ENDMDL
MODEL 11
REMARK VINA RESULT:    -8.765      5.847     10.921
REMARK INTER + INTRA:         -13.108
REMARK INTER:                 -12.221
REMARK INTRA:                  -0.887
REMARK UNBOUND:                -1.269
REMARK SMILES COc1cc2c(Nc3ccc(Cl)c(Cl)c3F)ncnc2cc1OC[C@@H]1C[C@@H]2CN(C)C[C@@H]2C1
REMARK SMILES IDX 3 1 22 2 21 3 20 4 19 5 18 6 17 7 6 8 5 9 4 10 2 11 1 12
REMARK SMILES IDX 23 13 24 14 25 15 33 16 26 17 32 18 27 19 31 20 28 21 29 22
REMARK SMILES IDX 30 23 7 24 8 26 9 27 15 28 10 29 13 30 16 31 11 32 14 33
REMARK SMILES IDX 12 34
REMARK H PARENT 7 25
REMARK Flexibility Score: inf
ROOT
ATOM      1  C   UNL     1     -73.935 -14.734  90.188  1.00  0.00     0.161 A 
ATOM      2  C   UNL     1     -75.147 -15.423  90.031  1.00  0.00     0.163 A 
ATOM      3  C   UNL     1     -75.805 -15.937  91.163  1.00  0.00     0.079 A 
ATOM      4  C   UNL     1     -75.250 -15.787  92.436  1.00  0.00     0.080 A 
ATOM      5  N   UNL     1     -75.907 -16.277  93.519  1.00  0.00    -0.236 NA
ATOM      6  C   UNL     1     -75.397 -16.145  94.767  1.00  0.00     0.224 A 
ATOM      7  N   UNL     1     -74.205 -15.524  94.952  1.00  0.00    -0.219 NA
ATOM      8  C   UNL     1     -73.497 -15.008  93.910  1.00  0.00     0.141 A 
ATOM      9  C   UNL     1     -74.016 -15.124  92.600  1.00  0.00     0.047 A 
ATOM     10  C   UNL     1     -73.373 -14.583  91.471  1.00  0.00     0.064 A 
ENDROOT
BRANCH   1  11
ATOM     11  O   UNL     1     -73.316 -14.214  89.038  1.00  0.00    -0.493 OA
ATOM     12  C   UNL     1     -71.910 -14.183  88.818  1.00  0.00     0.278 C 
ENDBRANCH   1  11
BRANCH   2  13
ATOM     13  O   UNL     1     -75.664 -15.565  88.732  1.00  0.00    -0.489 OA
BRANCH  13  14
ATOM     14  C   UNL     1     -75.240 -16.530  87.768  1.00  0.00     0.233 C 
BRANCH  14  15
ATOM     15  C   UNL     1     -76.448 -17.267  87.161  1.00  0.00     0.027 C 
ATOM     16  C   UNL     1     -76.824 -16.720  85.787  1.00  0.00     0.012 C 
ATOM     17  C   UNL     1     -76.191 -18.767  86.961  1.00  0.00     0.012 C 
ATOM     18  C   UNL     1     -77.458 -17.902  85.056  1.00  0.00     0.008 C 
ATOM     19  C   UNL     1     -76.728 -19.119  85.566  1.00  0.00     0.008 C 
ATOM     20  C   UNL     1     -77.223 -17.887  83.546  1.00  0.00     0.088 C 
ATOM     21  C   UNL     1     -75.640 -19.354  84.522  1.00  0.00     0.088 C 
ATOM     22  N   UNL     1     -76.168 -18.870  83.238  1.00  0.00    -0.306 NA
ATOM     23  C   UNL     1     -75.108 -18.291  82.399  1.00  0.00     0.105 C 
ENDBRANCH  14  15
ENDBRANCH  13  14
ENDBRANCH   2  13
BRANCH   8  24
ATOM     24  N   UNL     1     -72.211 -14.415  94.161  1.00  0.00    -0.337 N 
ATOM     25  H   UNL     1     -71.399 -15.050  94.334  1.00  0.00     0.168 HD
BRANCH  24  26
ATOM     26  C   UNL     1     -72.022 -13.005  94.375  1.00  0.00     0.078 A 
ATOM     27  C   UNL     1     -71.491 -12.185  93.364  1.00  0.00     0.031 A 
ATOM     28  C   UNL     1     -72.321 -12.441  95.628  1.00  0.00     0.166 A 
ATOM     29  C   UNL     1     -71.291 -10.822  93.592  1.00  0.00     0.024 A 
ATOM     30  C   UNL     1     -72.122 -11.072  95.856  1.00  0.00     0.097 A 
ATOM     31  F   UNL     1     -72.821 -13.220  96.620  1.00  0.00    -0.203 F 
ATOM     32  C   UNL     1     -71.608 -10.260  94.832  1.00  0.00     0.062 A 
ATOM     33  Cl  UNL     1     -72.525 -10.394  97.429  1.00  0.00    -0.079 Cl
ATOM     34  Cl  UNL     1     -71.339  -8.538  95.077  1.00  0.00    -0.083 Cl
ENDBRANCH  24  26
ENDBRANCH   8  24
TORSDOF 6
ENDMDL
MODEL 12
REMARK VINA RESULT:    -8.734      3.959      8.066
REMARK INTER + INTRA:         -13.066
REMARK INTER:                 -12.011
REMARK INTRA:                  -1.056
REMARK UNBOUND:                -1.269
REMARK SMILES COc1cc2c(Nc3ccc(Cl)c(Cl)c3F)ncnc2cc1OC[C@@H]1C[C@@H]2CN(C)C[C@@H]2C1
REMARK SMILES IDX 3 1 22 2 21 3 20 4 19 5 18 6 17 7 6 8 5 9 4 10 2 11 1 12
REMARK SMILES IDX 23 13 24 14 25 15 33 16 26 17 32 18 27 19 31 20 28 21 29 22
REMARK SMILES IDX 30 23 7 24 8 26 9 27 15 28 10 29 13 30 16 31 11 32 14 33
REMARK SMILES IDX 12 34
REMARK H PARENT 7 25
REMARK Flexibility Score: inf
ROOT
ATOM      1  C   UNL     1     -77.356 -20.672  88.870  1.00  0.00     0.161 A 
ATOM      2  C   UNL     1     -78.649 -20.939  88.393  1.00  0.00     0.163 A 
ATOM      3  C   UNL     1     -79.083 -20.350  87.192  1.00  0.00     0.079 A 
ATOM      4  C   UNL     1     -78.246 -19.484  86.484  1.00  0.00     0.080 A 
ATOM      5  N   UNL     1     -78.677 -18.936  85.318  1.00  0.00    -0.236 NA
ATOM      6  C   UNL     1     -77.888 -18.095  84.606  1.00  0.00     0.224 A 
ATOM      7  N   UNL     1     -76.649 -17.778  85.059  1.00  0.00    -0.219 NA
ATOM      8  C   UNL     1     -76.157 -18.295  86.218  1.00  0.00     0.141 A 
ATOM      9  C   UNL     1     -76.957 -19.183  86.971  1.00  0.00     0.047 A 
ATOM     10  C   UNL     1     -76.513 -19.797  88.156  1.00  0.00     0.064 A 
ENDROOT
BRANCH   1  11
ATOM     11  O   UNL     1     -76.948 -21.295  90.061  1.00  0.00    -0.493 OA
ATOM     12  C   UNL     1     -76.916 -20.663  91.336  1.00  0.00     0.278 C 
ENDBRANCH   1  11
BRANCH   2  13
ATOM     13  O   UNL     1     -79.464 -21.804  89.144  1.00  0.00    -0.489 OA
BRANCH  13  14
ATOM     14  C   UNL     1     -80.481 -21.402  90.063  1.00  0.00     0.233 C 
BRANCH  14  15
ATOM     15  C   UNL     1     -81.844 -22.001  89.670  1.00  0.00     0.027 C 
ATOM     16  C   UNL     1     -83.010 -21.183  90.215  1.00  0.00     0.012 C 
ATOM     17  C   UNL     1     -82.049 -22.064  88.149  1.00  0.00     0.012 C 
ATOM     18  C   UNL     1     -84.149 -21.414  89.223  1.00  0.00     0.008 C 
ATOM     19  C   UNL     1     -83.477 -21.568  87.881  1.00  0.00     0.008 C 
ATOM     20  C   UNL     1     -85.087 -20.218  89.076  1.00  0.00     0.088 C 
ATOM     21  C   UNL     1     -83.546 -20.168  87.278  1.00  0.00     0.088 C 
ATOM     22  N   UNL     1     -84.758 -19.531  87.814  1.00  0.00    -0.306 NA
ATOM     23  C   UNL     1     -84.570 -18.085  88.009  1.00  0.00     0.105 C 
ENDBRANCH  14  15
ENDBRANCH  13  14
ENDBRANCH   2  13
BRANCH   8  24
ATOM     24  N   UNL     1     -74.861 -17.873  86.678  1.00  0.00    -0.337 N 
ATOM     25  H   UNL     1     -74.018 -18.218  86.167  1.00  0.00     0.168 HD
BRANCH  24  26
ATOM     26  C   UNL     1     -74.657 -17.164  87.914  1.00  0.00     0.078 A 
ATOM     27  C   UNL     1     -75.535 -16.142  88.314  1.00  0.00     0.031 A 
ATOM     28  C   UNL     1     -73.537 -17.456  88.712  1.00  0.00     0.166 A 
ATOM     29  C   UNL     1     -75.313 -15.445  89.503  1.00  0.00     0.024 A 
ATOM     30  C   UNL     1     -73.316 -16.758  89.907  1.00  0.00     0.097 A 
ATOM     31  F   UNL     1     -72.671 -18.430  88.334  1.00  0.00    -0.203 F 
ATOM     32  C   UNL     1     -74.210 -15.750  90.305  1.00  0.00     0.062 A 
ATOM     33  Cl  UNL     1     -71.914 -17.161  90.893  1.00  0.00    -0.079 Cl
ATOM     34  Cl  UNL     1     -73.968 -14.847  91.795  1.00  0.00    -0.083 Cl
ENDBRANCH  24  26
ENDBRANCH   8  24
TORSDOF 6
ENDMDL
MODEL 13
REMARK VINA RESULT:    -8.717      3.746      6.349
REMARK INTER + INTRA:         -13.044
REMARK INTER:                 -12.178
REMARK INTRA:                  -0.866
REMARK UNBOUND:                -1.269
REMARK SMILES COc1cc2c(Nc3ccc(Cl)c(Cl)c3F)ncnc2cc1OC[C@@H]1C[C@@H]2CN(C)C[C@@H]2C1
REMARK SMILES IDX 3 1 22 2 21 3 20 4 19 5 18 6 17 7 6 8 5 9 4 10 2 11 1 12
REMARK SMILES IDX 23 13 24 14 25 15 33 16 26 17 32 18 27 19 31 20 28 21 29 22
REMARK SMILES IDX 30 23 7 24 8 26 9 27 15 28 10 29 13 30 16 31 11 32 14 33
REMARK SMILES IDX 12 34
REMARK H PARENT 7 25
REMARK Flexibility Score: inf
ROOT
ATOM      1  C   UNL     1     -77.623 -18.455  85.707  1.00  0.00     0.161 A 
ATOM      2  C   UNL     1     -76.790 -17.390  86.082  1.00  0.00     0.163 A 
ATOM      3  C   UNL     1     -76.284 -17.330  87.393  1.00  0.00     0.079 A 
ATOM      4  C   UNL     1     -76.622 -18.310  88.329  1.00  0.00     0.080 A 
ATOM      5  N   UNL     1     -76.112 -18.245  89.586  1.00  0.00    -0.236 NA
ATOM      6  C   UNL     1     -76.417 -19.181  90.515  1.00  0.00     0.224 A 
ATOM      7  N   UNL     1     -77.255 -20.202  90.203  1.00  0.00    -0.219 NA
ATOM      8  C   UNL     1     -77.798 -20.327  88.961  1.00  0.00     0.141 A 
ATOM      9  C   UNL     1     -77.484 -19.368  87.972  1.00  0.00     0.047 A 
ATOM     10  C   UNL     1     -77.965 -19.443  86.652  1.00  0.00     0.064 A 
ENDROOT
BRANCH   1  11
ATOM     11  O   UNL     1     -78.092 -18.494  84.384  1.00  0.00    -0.493 OA
ATOM     12  C   UNL     1     -79.412 -18.866  84.003  1.00  0.00     0.278 C 
ENDBRANCH   1  11
BRANCH   2  13
ATOM     13  O   UNL     1     -76.486 -16.416  85.114  1.00  0.00    -0.489 OA
BRANCH  13  14
ATOM     14  C   UNL     1     -75.709 -16.628  83.934  1.00  0.00     0.233 C 
BRANCH  14  15
ATOM     15  C   UNL     1     -74.232 -16.880  84.290  1.00  0.00     0.027 C 
ATOM     16  C   UNL     1     -73.430 -17.382  83.092  1.00  0.00     0.012 C 
ATOM     17  C   UNL     1     -73.513 -15.614  84.777  1.00  0.00     0.012 C 
ATOM     18  C   UNL     1     -72.002 -16.905  83.350  1.00  0.00     0.008 C 
ATOM     19  C   UNL     1     -72.150 -15.588  84.070  1.00  0.00     0.008 C 
ATOM     20  C   UNL     1     -71.221 -16.589  82.075  1.00  0.00     0.088 C 
ATOM     21  C   UNL     1     -72.048 -14.551  82.955  1.00  0.00     0.088 C 
ATOM     22  N   UNL     1     -71.179 -15.124  81.917  1.00  0.00    -0.306 NA
ATOM     23  C   UNL     1     -71.594 -14.706  80.570  1.00  0.00     0.105 C 
ENDBRANCH  14  15
ENDBRANCH  13  14
ENDBRANCH   2  13
BRANCH   8  24
ATOM     24  N   UNL     1     -78.728 -21.394  88.707  1.00  0.00    -0.337 N 
ATOM     25  H   UNL     1     -78.365 -22.275  88.279  1.00  0.00     0.168 HD
BRANCH  24  26
ATOM     26  C   UNL     1     -80.154 -21.243  88.832  1.00  0.00     0.078 A 
ATOM     27  C   UNL     1     -80.772 -21.242  90.095  1.00  0.00     0.031 A 
ATOM     28  C   UNL     1     -80.952 -21.147  87.678  1.00  0.00     0.166 A 
ATOM     29  C   UNL     1     -82.159 -21.118  90.202  1.00  0.00     0.024 A 
ATOM     30  C   UNL     1     -82.343 -21.020  87.786  1.00  0.00     0.097 A 
ATOM     31  F   UNL     1     -80.373 -21.160  86.451  1.00  0.00    -0.203 F 
ATOM     32  C   UNL     1     -82.948 -21.002  89.054  1.00  0.00     0.062 A 
ATOM     33  Cl  UNL     1     -83.311 -20.882  86.323  1.00  0.00    -0.079 Cl
ATOM     34  Cl  UNL     1     -84.691 -20.848  89.234  1.00  0.00    -0.083 Cl
ENDBRANCH  24  26
ENDBRANCH   8  24
TORSDOF 6
ENDMDL
MODEL 14
REMARK VINA RESULT:    -8.643      2.630      5.310
REMARK INTER + INTRA:         -12.944
REMARK INTER:                 -11.686
REMARK INTRA:                  -1.257
REMARK UNBOUND:                -1.269
REMARK SMILES COc1cc2c(Nc3ccc(Cl)c(Cl)c3F)ncnc2cc1OC[C@@H]1C[C@@H]2CN(C)C[C@@H]2C1
REMARK SMILES IDX 3 1 22 2 21 3 20 4 19 5 18 6 17 7 6 8 5 9 4 10 2 11 1 12
REMARK SMILES IDX 23 13 24 14 25 15 33 16 26 17 32 18 27 19 31 20 28 21 29 22
REMARK SMILES IDX 30 23 7 24 8 26 9 27 15 28 10 29 13 30 16 31 11 32 14 33
REMARK SMILES IDX 12 34
REMARK H PARENT 7 25
REMARK Flexibility Score: inf
ROOT
ATOM      1  C   UNL     1     -76.834 -18.121  87.546  1.00  0.00     0.161 A 
ATOM      2  C   UNL     1     -76.009 -17.378  88.403  1.00  0.00     0.163 A 
ATOM      3  C   UNL     1     -75.807 -17.815  89.725  1.00  0.00     0.079 A 
ATOM      4  C   UNL     1     -76.438 -18.969  90.195  1.00  0.00     0.080 A 
ATOM      5  N   UNL     1     -76.220 -19.383  91.470  1.00  0.00    -0.236 NA
ATOM      6  C   UNL     1     -76.815 -20.500  91.954  1.00  0.00     0.224 A 
ATOM      7  N   UNL     1     -77.654 -21.219  91.168  1.00  0.00    -0.219 NA
ATOM      8  C   UNL     1     -77.914 -20.859  89.881  1.00  0.00     0.141 A 
ATOM      9  C   UNL     1     -77.295 -19.705  89.351  1.00  0.00     0.047 A 
ATOM     10  C   UNL     1     -77.473 -19.284  88.020  1.00  0.00     0.064 A 
ENDROOT
BRANCH   1  11
ATOM     11  O   UNL     1     -76.996 -17.667  86.226  1.00  0.00    -0.493 OA
ATOM     12  C   UNL     1     -77.936 -18.196  85.297  1.00  0.00     0.278 C 
ENDBRANCH   1  11
BRANCH   2  13
ATOM     13  O   UNL     1     -75.404 -16.214  87.896  1.00  0.00    -0.489 OA
BRANCH  13  14
ATOM     14  C   UNL     1     -74.272 -15.550  88.459  1.00  0.00     0.233 C 
BRANCH  14  15
ATOM     15  C   UNL     1     -73.020 -15.768  87.590  1.00  0.00     0.027 C 
ATOM     16  C   UNL     1     -72.899 -17.211  87.107  1.00  0.00     0.012 C 
ATOM     17  C   UNL     1     -73.017 -14.899  86.323  1.00  0.00     0.012 C 
ATOM     18  C   UNL     1     -72.140 -17.118  85.785  1.00  0.00     0.008 C 
ATOM     19  C   UNL     1     -72.575 -15.811  85.170  1.00  0.00     0.008 C 
ATOM     20  C   UNL     1     -72.532 -18.196  84.775  1.00  0.00     0.088 C 
ATOM     21  C   UNL     1     -73.705 -16.212  84.227  1.00  0.00     0.088 C 
ATOM     22  N   UNL     1     -73.415 -17.579  83.768  1.00  0.00    -0.306 NA
ATOM     23  C   UNL     1     -74.647 -18.357  83.568  1.00  0.00     0.105 C 
ENDBRANCH  14  15
ENDBRANCH  13  14
ENDBRANCH   2  13
BRANCH   8  24
ATOM     24  N   UNL     1     -78.860 -21.626  89.116  1.00  0.00    -0.337 N 
ATOM     25  H   UNL     1     -78.493 -22.341  88.449  1.00  0.00     0.168 HD
BRANCH  24  26
ATOM     26  C   UNL     1     -80.268 -21.330  89.080  1.00  0.00     0.078 A 
ATOM     27  C   UNL     1     -81.051 -21.399  90.246  1.00  0.00     0.031 A 
ATOM     28  C   UNL     1     -80.886 -21.016  87.857  1.00  0.00     0.166 A 
ATOM     29  C   UNL     1     -82.420 -21.131  90.193  1.00  0.00     0.024 A 
ATOM     30  C   UNL     1     -82.261 -20.745  87.805  1.00  0.00     0.097 A 
ATOM     31  F   UNL     1     -80.148 -20.959  86.720  1.00  0.00    -0.203 F 
ATOM     32  C   UNL     1     -83.029 -20.800  88.979  1.00  0.00     0.062 A 
ATOM     33  Cl  UNL     1     -83.000 -20.337  86.261  1.00  0.00    -0.079 Cl
ATOM     34  Cl  UNL     1     -84.758 -20.471  88.958  1.00  0.00    -0.083 Cl
ENDBRANCH  24  26
ENDBRANCH   8  24
TORSDOF 6
ENDMDL
MODEL 15
REMARK VINA RESULT:    -8.546      3.981      7.936
REMARK INTER + INTRA:         -12.813
REMARK INTER:                 -11.909
REMARK INTRA:                  -0.904
REMARK UNBOUND:                -1.269
REMARK SMILES COc1cc2c(Nc3ccc(Cl)c(Cl)c3F)ncnc2cc1OC[C@@H]1C[C@@H]2CN(C)C[C@@H]2C1
REMARK SMILES IDX 3 1 22 2 21 3 20 4 19 5 18 6 17 7 6 8 5 9 4 10 2 11 1 12
REMARK SMILES IDX 23 13 24 14 25 15 33 16 26 17 32 18 27 19 31 20 28 21 29 22
REMARK SMILES IDX 30 23 7 24 8 26 9 27 15 28 10 29 13 30 16 31 11 32 14 33
REMARK SMILES IDX 12 34
REMARK H PARENT 7 25
REMARK Flexibility Score: inf
ROOT
ATOM      1  C   UNL     1     -78.614 -19.771  85.824  1.00  0.00     0.161 A 
ATOM      2  C   UNL     1     -79.437 -19.500  84.720  1.00  0.00     0.163 A 
ATOM      3  C   UNL     1     -78.911 -18.803  83.616  1.00  0.00     0.079 A 
ATOM      4  C   UNL     1     -77.586 -18.360  83.622  1.00  0.00     0.080 A 
ATOM      5  N   UNL     1     -77.092 -17.702  82.542  1.00  0.00    -0.236 NA
ATOM      6  C   UNL     1     -75.811 -17.263  82.515  1.00  0.00     0.224 A 
ATOM      7  N   UNL     1     -74.999 -17.467  83.583  1.00  0.00    -0.219 NA
ATOM      8  C   UNL     1     -75.432 -18.122  84.695  1.00  0.00     0.141 A 
ATOM      9  C   UNL     1     -76.761 -18.600  84.740  1.00  0.00     0.047 A 
ATOM     10  C   UNL     1     -77.278 -19.323  85.831  1.00  0.00     0.064 A 
ENDROOT
BRANCH   1  11
ATOM     11  O   UNL     1     -79.166 -20.489  86.898  1.00  0.00    -0.493 OA
ATOM     12  C   UNL     1     -78.488 -20.768  88.118  1.00  0.00     0.278 C 
ENDBRANCH   1  11
BRANCH   2  13
ATOM     13  O   UNL     1     -80.768 -19.949  84.760  1.00  0.00    -0.489 OA
BRANCH  13  14
ATOM     14  C   UNL     1     -81.851 -19.287  85.415  1.00  0.00     0.233 C 
BRANCH  14  15
ATOM     15  C   UNL     1     -82.852 -20.308  85.987  1.00  0.00     0.027 C 
ATOM     16  C   UNL     1     -82.155 -21.535  86.566  1.00  0.00     0.012 C 
ATOM     17  C   UNL     1     -83.704 -19.731  87.126  1.00  0.00     0.012 C 
ATOM     18  C   UNL     1     -83.094 -22.039  87.660  1.00  0.00     0.008 C 
ATOM     19  C   UNL     1     -83.738 -20.800  88.229  1.00  0.00     0.008 C 
ATOM     20  C   UNL     1     -82.372 -22.700  88.833  1.00  0.00     0.088 C 
ATOM     21  C   UNL     1     -82.877 -20.467  89.443  1.00  0.00     0.088 C 
ATOM     22  N   UNL     1     -82.347 -21.741  89.952  1.00  0.00    -0.306 NA
ATOM     23  C   UNL     1     -80.994 -21.582  90.508  1.00  0.00     0.105 C 
ENDBRANCH  14  15
ENDBRANCH  13  14
ENDBRANCH   2  13
BRANCH   8  24
ATOM     24  N   UNL     1     -74.545 -18.255  85.820  1.00  0.00    -0.337 N 
ATOM     25  H   UNL     1     -74.160 -19.201  86.037  1.00  0.00     0.168 HD
BRANCH  24  26
ATOM     26  C   UNL     1     -74.314 -17.199  86.770  1.00  0.00     0.078 A 
ATOM     27  C   UNL     1     -73.290 -16.257  86.568  1.00  0.00     0.031 A 
ATOM     28  C   UNL     1     -75.086 -17.132  87.943  1.00  0.00     0.166 A 
ATOM     29  C   UNL     1     -73.062 -15.251  87.509  1.00  0.00     0.024 A 
ATOM     30  C   UNL     1     -74.858 -16.120  88.886  1.00  0.00     0.097 A 
ATOM     31  F   UNL     1     -76.070 -18.041  88.160  1.00  0.00    -0.203 F 
ATOM     32  C   UNL     1     -73.843 -15.174  88.665  1.00  0.00     0.062 A 
ATOM     33  Cl  UNL     1     -75.855 -16.053  90.335  1.00  0.00    -0.079 Cl
ATOM     34  Cl  UNL     1     -73.521 -13.890  89.824  1.00  0.00    -0.083 Cl
ENDBRANCH  24  26
ENDBRANCH   8  24
TORSDOF 6
ENDMDL
