MODEL 1
REMARK VINA RESULT:   -12.302      0.000      0.000
REMARK INTER + INTRA:         -16.273
REMARK INTER:                 -15.898
REMARK INTRA:                  -0.375
REMARK UNBOUND:                -0.375
REMARK SMILES Cc1cc(Nc2ncnc3ccc(NC4=NC(C)(C)CO4)cc23)ccc1Oc1ccn2ncnc2c1
REMARK SMILES IDX 1 1 2 2 3 3 4 4 24 5 25 6 26 7 27 8 28 9 36 10 29 11 35 12
REMARK SMILES IDX 30 13 34 14 31 15 33 16 32 17 5 18 6 20 7 21 23 22 8 23
REMARK SMILES IDX 10 24 22 25 9 26 11 27 13 28 12 29 14 30 15 31 16 33 21 34
REMARK SMILES IDX 17 35 20 36 18 37 19 38
REMARK H PARENT 5 19 14 32
REMARK Flexibility Score: inf
ROOT
ATOM      1  C   UNL     1      15.753  35.162   9.061  1.00  0.00     0.048 C 
ATOM      2  C   UNL     1      16.571  34.347  10.023  1.00  0.00    -0.006 A 
ATOM      3  C   UNL     1      16.514  34.620  11.401  1.00  0.00     0.033 A 
ATOM      4  C   UNL     1      17.274  33.860  12.309  1.00  0.00     0.040 A 
ATOM      5  C   UNL     1      18.073  32.802  11.826  1.00  0.00     0.030 A 
ATOM      6  C   UNL     1      18.141  32.543  10.456  1.00  0.00     0.049 A 
ATOM      7  C   UNL     1      17.402  33.318   9.548  1.00  0.00     0.130 A 
ENDROOT
BRANCH   7   8
ATOM      8  O   UNL     1      17.465  33.052   8.173  1.00  0.00    -0.457 OA
BRANCH   8   9
ATOM      9  C   UNL     1      17.073  31.839   7.593  1.00  0.00     0.132 A 
ATOM     10  C   UNL     1      15.718  31.444   7.560  1.00  0.00     0.096 A 
ATOM     11  C   UNL     1      18.064  30.974   7.082  1.00  0.00     0.067 A 
ATOM     12  C   UNL     1      15.422  30.194   7.025  1.00  0.00     0.158 A 
ATOM     13  C   UNL     1      17.699  29.733   6.539  1.00  0.00     0.119 A 
ATOM     14  N   UNL     1      14.209  29.624   6.938  1.00  0.00    -0.215 NA
ATOM     15  N   UNL     1      16.384  29.402   6.544  1.00  0.00    -0.221 N 
ATOM     16  C   UNL     1      14.516  28.430   6.365  1.00  0.00     0.247 A 
ATOM     17  N   UNL     1      15.840  28.280   6.119  1.00  0.00    -0.155 NA
ENDBRANCH   8   9
ENDBRANCH   7   8
BRANCH   4  18
ATOM     18  N   UNL     1      17.190  34.099  13.724  1.00  0.00    -0.340 N 
ATOM     19  H   UNL     1      18.071  34.277  14.254  1.00  0.00     0.168 HD
BRANCH  18  20
ATOM     20  C   UNL     1      15.940  34.214  14.425  1.00  0.00     0.141 A 
ATOM     21  N   UNL     1      14.805  33.727  13.847  1.00  0.00    -0.219 NA
ATOM     22  C   UNL     1      15.857  34.836  15.689  1.00  0.00     0.045 A 
ATOM     23  C   UNL     1      13.593  33.839  14.453  1.00  0.00     0.224 A 
ATOM     24  C   UNL     1      14.581  34.949  16.291  1.00  0.00     0.076 A 
ATOM     25  C   UNL     1      16.991  35.286  16.389  1.00  0.00     0.040 A 
ATOM     26  N   UNL     1      13.485  34.451  15.661  1.00  0.00    -0.236 NA
ATOM     27  C   UNL     1      14.447  35.537  17.555  1.00  0.00     0.031 A 
ATOM     28  C   UNL     1      16.856  35.870  17.659  1.00  0.00     0.043 A 
ATOM     29  C   UNL     1      15.575  35.986  18.239  1.00  0.00     0.028 A 
BRANCH  28  30
ATOM     30  N   UNL     1      18.039  36.269  18.375  1.00  0.00    -0.310 N 
ATOM     31  C   UNL     1      19.371  35.911  17.983  1.00  0.00     0.289 C 
ATOM     32  H   UNL     1      17.926  36.700  19.323  1.00  0.00     0.171 HD
ATOM     33  N   UNL     1      19.626  35.094  17.021  1.00  0.00    -0.225 NA
ATOM     34  O   UNL     1      20.493  36.381  18.642  1.00  0.00    -0.462 OA
ATOM     35  C   UNL     1      21.073  34.927  16.911  1.00  0.00     0.095 C 
ATOM     36  C   UNL     1      21.648  35.802  18.065  1.00  0.00     0.263 C 
ATOM     37  C   UNL     1      21.537  35.434  15.535  1.00  0.00     0.040 C 
ATOM     38  C   UNL     1      21.433  33.441  17.094  1.00  0.00     0.040 C 
ENDBRANCH  28  30
ENDBRANCH  18  20
ENDBRANCH   4  18
TORSDOF 5
ENDMDL
MODEL 2
REMARK VINA RESULT:   -11.965      1.954      2.856
REMARK INTER + INTRA:         -15.837
REMARK INTER:                 -15.102
REMARK INTRA:                  -0.735
REMARK UNBOUND:                -0.375
REMARK SMILES Cc1cc(Nc2ncnc3ccc(NC4=NC(C)(C)CO4)cc23)ccc1Oc1ccn2ncnc2c1
REMARK SMILES IDX 1 1 2 2 3 3 4 4 24 5 25 6 26 7 27 8 28 9 36 10 29 11 35 12
REMARK SMILES IDX 30 13 34 14 31 15 33 16 32 17 5 18 6 20 7 21 23 22 8 23
REMARK SMILES IDX 10 24 22 25 9 26 11 27 13 28 12 29 14 30 15 31 16 33 21 34
REMARK SMILES IDX 17 35 20 36 18 37 19 38
REMARK H PARENT 5 19 14 32
REMARK Flexibility Score: inf
ROOT
ATOM      1  C   UNL     1      16.138  35.223  10.227  1.00  0.00     0.048 C 
ATOM      2  C   UNL     1      17.093  34.205  10.786  1.00  0.00    -0.006 A 
ATOM      3  C   UNL     1      17.443  34.242  12.146  1.00  0.00     0.033 A 
ATOM      4  C   UNL     1      18.333  33.291  12.678  1.00  0.00     0.040 A 
ATOM      5  C   UNL     1      18.850  32.282  11.838  1.00  0.00     0.030 A 
ATOM      6  C   UNL     1      18.515  32.257  10.484  1.00  0.00     0.049 A 
ATOM      7  C   UNL     1      17.645  33.221   9.948  1.00  0.00     0.130 A 
ENDROOT
BRANCH   7   8
ATOM      8  O   UNL     1      17.303  33.190   8.588  1.00  0.00    -0.457 OA
BRANCH   8   9
ATOM      9  C   UNL     1      16.958  32.022   7.896  1.00  0.00     0.132 A 
ATOM     10  C   UNL     1      15.631  31.544   7.877  1.00  0.00     0.096 A 
ATOM     11  C   UNL     1      17.975  31.285   7.253  1.00  0.00     0.067 A 
ATOM     12  C   UNL     1      15.387  30.341   7.222  1.00  0.00     0.158 A 
ATOM     13  C   UNL     1      17.661  30.087   6.593  1.00  0.00     0.119 A 
ATOM     14  N   UNL     1      14.209  29.703   7.124  1.00  0.00    -0.215 NA
ATOM     15  N   UNL     1      16.371  29.670   6.617  1.00  0.00    -0.221 N 
ATOM     16  C   UNL     1      14.561  28.600   6.412  1.00  0.00     0.247 A 
ATOM     17  N   UNL     1      15.878  28.566   6.095  1.00  0.00    -0.155 NA
ENDBRANCH   8   9
ENDBRANCH   7   8
BRANCH   4  18
ATOM     18  N   UNL     1      18.664  33.290  14.078  1.00  0.00    -0.340 N 
ATOM     19  H   UNL     1      19.506  32.761  14.391  1.00  0.00     0.168 HD
BRANCH  18  20
ATOM     20  C   UNL     1      17.953  34.075  15.049  1.00  0.00     0.141 A 
ATOM     21  N   UNL     1      16.609  33.898  15.195  1.00  0.00    -0.219 NA
ATOM     22  C   UNL     1      18.611  35.039  15.844  1.00  0.00     0.045 A 
ATOM     23  C   UNL     1      15.884  34.637  16.077  1.00  0.00     0.224 A 
ATOM     24  C   UNL     1      17.830  35.802  16.745  1.00  0.00     0.076 A 
ATOM     25  C   UNL     1      20.005  35.221  15.816  1.00  0.00     0.040 A 
ATOM     26  N   UNL     1      16.492  35.584  16.838  1.00  0.00    -0.236 NA
ATOM     27  C   UNL     1      18.437  36.754  17.572  1.00  0.00     0.031 A 
ATOM     28  C   UNL     1      20.614  36.173  16.650  1.00  0.00     0.043 A 
ATOM     29  C   UNL     1      19.819  36.933  17.534  1.00  0.00     0.028 A 
BRANCH  28  30
ATOM     30  N   UNL     1      22.047  36.297  16.640  1.00  0.00    -0.310 N 
ATOM     31  C   UNL     1      22.829  36.459  15.449  1.00  0.00     0.289 C 
ATOM     32  H   UNL     1      22.571  36.093  17.524  1.00  0.00     0.171 HD
ATOM     33  N   UNL     1      22.330  36.383  14.264  1.00  0.00    -0.225 NA
ATOM     34  O   UNL     1      24.197  36.661  15.478  1.00  0.00    -0.462 OA
ATOM     35  C   UNL     1      23.400  36.560  13.287  1.00  0.00     0.095 C 
ATOM     36  C   UNL     1      24.687  36.718  14.152  1.00  0.00     0.263 C 
ATOM     37  C   UNL     1      23.123  37.825  12.456  1.00  0.00     0.040 C 
ATOM     38  C   UNL     1      23.477  35.318  12.380  1.00  0.00     0.040 C 
ENDBRANCH  28  30
ENDBRANCH  18  20
ENDBRANCH   4  18
TORSDOF 5
ENDMDL
MODEL 3
REMARK VINA RESULT:   -11.742      1.617      4.149
REMARK INTER + INTRA:         -15.550
REMARK INTER:                 -15.239
REMARK INTRA:                  -0.311
REMARK UNBOUND:                -0.375
REMARK SMILES Cc1cc(Nc2ncnc3ccc(NC4=NC(C)(C)CO4)cc23)ccc1Oc1ccn2ncnc2c1
REMARK SMILES IDX 1 1 2 2 3 3 4 4 24 5 25 6 26 7 27 8 28 9 36 10 29 11 35 12
REMARK SMILES IDX 30 13 34 14 31 15 33 16 32 17 5 18 6 20 7 21 23 22 8 23
REMARK SMILES IDX 10 24 22 25 9 26 11 27 13 28 12 29 14 30 15 31 16 33 21 34
REMARK SMILES IDX 17 35 20 36 18 37 19 38
REMARK H PARENT 5 19 14 32
REMARK Flexibility Score: inf
ROOT
ATOM      1  C   UNL     1      16.054  35.239   9.928  1.00  0.00     0.048 C 
ATOM      2  C   UNL     1      17.067  34.274  10.480  1.00  0.00    -0.006 A 
ATOM      3  C   UNL     1      17.500  34.396  11.811  1.00  0.00     0.033 A 
ATOM      4  C   UNL     1      18.445  33.496  12.337  1.00  0.00     0.040 A 
ATOM      5  C   UNL     1      18.932  32.452  11.523  1.00  0.00     0.030 A 
ATOM      6  C   UNL     1      18.513  32.342  10.196  1.00  0.00     0.049 A 
ATOM      7  C   UNL     1      17.589  33.256   9.664  1.00  0.00     0.130 A 
ENDROOT
BRANCH   7   8
ATOM      8  O   UNL     1      17.163  33.141   8.333  1.00  0.00    -0.457 OA
BRANCH   8   9
ATOM      9  C   UNL     1      16.831  31.925   7.722  1.00  0.00     0.132 A 
ATOM     10  C   UNL     1      15.507  31.434   7.734  1.00  0.00     0.096 A 
ATOM     11  C   UNL     1      17.856  31.155   7.132  1.00  0.00     0.067 A 
ATOM     12  C   UNL     1      15.276  30.187   7.162  1.00  0.00     0.158 A 
ATOM     13  C   UNL     1      17.554  29.912   6.556  1.00  0.00     0.119 A 
ATOM     14  N   UNL     1      14.105  29.532   7.107  1.00  0.00    -0.215 NA
ATOM     15  N   UNL     1      16.268  29.485   6.606  1.00  0.00    -0.221 N 
ATOM     16  C   UNL     1      14.469  28.387   6.472  1.00  0.00     0.247 A 
ATOM     17  N   UNL     1      15.786  28.344   6.161  1.00  0.00    -0.155 NA
ENDBRANCH   8   9
ENDBRANCH   7   8
BRANCH   4  18
ATOM     18  N   UNL     1      18.863  33.581  13.710  1.00  0.00    -0.340 N 
ATOM     19  H   UNL     1      18.266  33.139  14.442  1.00  0.00     0.168 HD
BRANCH  18  20
ATOM     20  C   UNL     1      20.121  34.150  14.110  1.00  0.00     0.141 A 
ATOM     21  N   UNL     1      21.237  33.887  13.370  1.00  0.00    -0.219 NA
ATOM     22  C   UNL     1      20.233  34.961  15.260  1.00  0.00     0.045 A 
ATOM     23  C   UNL     1      22.456  34.374  13.723  1.00  0.00     0.224 A 
ATOM     24  C   UNL     1      21.516  35.445  15.610  1.00  0.00     0.076 A 
ATOM     25  C   UNL     1      19.118  35.348  16.025  1.00  0.00     0.040 A 
ATOM     26  N   UNL     1      22.592  35.140  14.837  1.00  0.00    -0.236 NA
ATOM     27  C   UNL     1      21.677  36.271  16.728  1.00  0.00     0.031 A 
ATOM     28  C   UNL     1      19.280  36.183  17.144  1.00  0.00     0.043 A 
ATOM     29  C   UNL     1      20.568  36.646  17.485  1.00  0.00     0.028 A 
BRANCH  28  30
ATOM     30  N   UNL     1      18.115  36.609  17.873  1.00  0.00    -0.310 N 
ATOM     31  C   UNL     1      16.810  36.041  17.701  1.00  0.00     0.289 C 
ATOM     32  H   UNL     1      18.176  37.489  18.438  1.00  0.00     0.171 HD
ATOM     33  N   UNL     1      16.533  35.178  16.786  1.00  0.00    -0.225 NA
ATOM     34  O   UNL     1      15.727  36.413  18.477  1.00  0.00    -0.462 OA
ATOM     35  C   UNL     1      15.116  34.836  16.869  1.00  0.00     0.095 C 
ATOM     36  C   UNL     1      14.575  35.728  18.026  1.00  0.00     0.263 C 
ATOM     37  C   UNL     1      14.975  33.340  17.199  1.00  0.00     0.040 C 
ATOM     38  C   UNL     1      14.429  35.166  15.531  1.00  0.00     0.040 C 
ENDBRANCH  28  30
ENDBRANCH  18  20
ENDBRANCH   4  18
TORSDOF 5
ENDMDL
MODEL 4
REMARK VINA RESULT:   -11.588      3.096      4.631
REMARK INTER + INTRA:         -15.350
REMARK INTER:                 -14.614
REMARK INTRA:                  -0.736
REMARK UNBOUND:                -0.375
REMARK SMILES Cc1cc(Nc2ncnc3ccc(NC4=NC(C)(C)CO4)cc23)ccc1Oc1ccn2ncnc2c1
REMARK SMILES IDX 1 1 2 2 3 3 4 4 24 5 25 6 26 7 27 8 28 9 36 10 29 11 35 12
REMARK SMILES IDX 30 13 34 14 31 15 33 16 32 17 5 18 6 20 7 21 23 22 8 23
REMARK SMILES IDX 10 24 22 25 9 26 11 27 13 28 12 29 14 30 15 31 16 33 21 34
REMARK SMILES IDX 17 35 20 36 18 37 19 38
REMARK H PARENT 5 19 14 32
REMARK Flexibility Score: inf
ROOT
ATOM      1  C   UNL     1      16.122  35.190   9.953  1.00  0.00     0.048 C 
ATOM      2  C   UNL     1      17.009  34.178  10.625  1.00  0.00    -0.006 A 
ATOM      3  C   UNL     1      17.254  34.266  12.006  1.00  0.00     0.033 A 
ATOM      4  C   UNL     1      18.079  33.322  12.643  1.00  0.00     0.040 A 
ATOM      5  C   UNL     1      18.638  32.270  11.887  1.00  0.00     0.030 A 
ATOM      6  C   UNL     1      18.408  32.195  10.513  1.00  0.00     0.049 A 
ATOM      7  C   UNL     1      17.603  33.151   9.873  1.00  0.00     0.130 A 
ENDROOT
BRANCH   7   8
ATOM      8  O   UNL     1      17.366  33.070   8.493  1.00  0.00    -0.457 OA
BRANCH   8   9
ATOM      9  C   UNL     1      17.007  31.889   7.830  1.00  0.00     0.132 A 
ATOM     10  C   UNL     1      15.669  31.441   7.800  1.00  0.00     0.096 A 
ATOM     11  C   UNL     1      18.018  31.109   7.230  1.00  0.00     0.067 A 
ATOM     12  C   UNL     1      15.409  30.224   7.177  1.00  0.00     0.158 A 
ATOM     13  C   UNL     1      17.688  29.899   6.601  1.00  0.00     0.119 A 
ATOM     14  N   UNL     1      14.219  29.611   7.075  1.00  0.00    -0.215 NA
ATOM     15  N   UNL     1      16.389  29.512   6.612  1.00  0.00    -0.221 N 
ATOM     16  C   UNL     1      14.558  28.479   6.404  1.00  0.00     0.247 A 
ATOM     17  N   UNL     1      15.880  28.405   6.115  1.00  0.00    -0.155 NA
ENDBRANCH   8   9
ENDBRANCH   7   8
BRANCH   4  18
ATOM     18  N   UNL     1      18.301  33.373  14.063  1.00  0.00    -0.340 N 
ATOM     19  H   UNL     1      18.194  32.496  14.617  1.00  0.00     0.168 HD
BRANCH  18  20
ATOM     20  C   UNL     1      18.773  34.551  14.738  1.00  0.00     0.141 A 
ATOM     21  N   UNL     1      17.956  35.181  15.630  1.00  0.00    -0.219 NA
ATOM     22  C   UNL     1      20.056  35.083  14.486  1.00  0.00     0.045 A 
ATOM     23  C   UNL     1      18.341  36.316  16.271  1.00  0.00     0.224 A 
ATOM     24  C   UNL     1      20.427  36.272  15.159  1.00  0.00     0.076 A 
ATOM     25  C   UNL     1      20.989  34.446  13.648  1.00  0.00     0.040 A 
ATOM     26  N   UNL     1      19.564  36.858  16.030  1.00  0.00    -0.236 NA
ATOM     27  C   UNL     1      21.697  36.826  14.962  1.00  0.00     0.031 A 
ATOM     28  C   UNL     1      22.265  35.001  13.456  1.00  0.00     0.043 A 
ATOM     29  C   UNL     1      22.614  36.193  14.124  1.00  0.00     0.028 A 
BRANCH  28  30
ATOM     30  N   UNL     1      23.218  34.297  12.638  1.00  0.00    -0.310 N 
ATOM     31  C   UNL     1      24.586  34.083  13.007  1.00  0.00     0.289 C 
ATOM     32  H   UNL     1      22.954  34.073  11.649  1.00  0.00     0.171 HD
ATOM     33  N   UNL     1      25.124  34.608  14.052  1.00  0.00    -0.225 NA
ATOM     34  O   UNL     1      25.455  33.329  12.238  1.00  0.00    -0.462 OA
ATOM     35  C   UNL     1      26.529  34.215  14.111  1.00  0.00     0.095 C 
ATOM     36  C   UNL     1      26.741  33.357  12.828  1.00  0.00     0.263 C 
ATOM     37  C   UNL     1      26.770  33.388  15.386  1.00  0.00     0.040 C 
ATOM     38  C   UNL     1      27.415  35.474  14.103  1.00  0.00     0.040 C 
ENDBRANCH  28  30
ENDBRANCH  18  20
ENDBRANCH   4  18
TORSDOF 5
ENDMDL
MODEL 5
REMARK VINA RESULT:   -11.379      1.323      1.730
REMARK INTER + INTRA:         -15.080
REMARK INTER:                 -14.488
REMARK INTRA:                  -0.592
REMARK UNBOUND:                -0.375
REMARK SMILES Cc1cc(Nc2ncnc3ccc(NC4=NC(C)(C)CO4)cc23)ccc1Oc1ccn2ncnc2c1
REMARK SMILES IDX 1 1 2 2 3 3 4 4 24 5 25 6 26 7 27 8 28 9 36 10 29 11 35 12
REMARK SMILES IDX 30 13 34 14 31 15 33 16 32 17 5 18 6 20 7 21 23 22 8 23
REMARK SMILES IDX 10 24 22 25 9 26 11 27 13 28 12 29 14 30 15 31 16 33 21 34
REMARK SMILES IDX 17 35 20 36 18 37 19 38
REMARK H PARENT 5 19 14 32
REMARK Flexibility Score: inf
ROOT
ATOM      1  C   UNL     1      15.804  35.342   9.793  1.00  0.00     0.048 C 
ATOM      2  C   UNL     1      16.850  34.470  10.431  1.00  0.00    -0.006 A 
ATOM      3  C   UNL     1      17.187  34.654  11.783  1.00  0.00     0.033 A 
ATOM      4  C   UNL     1      18.162  33.840  12.390  1.00  0.00     0.040 A 
ATOM      5  C   UNL     1      18.779  32.821  11.635  1.00  0.00     0.030 A 
ATOM      6  C   UNL     1      18.455  32.652  10.288  1.00  0.00     0.049 A 
ATOM      7  C   UNL     1      17.500  33.479   9.676  1.00  0.00     0.130 A 
ENDROOT
BRANCH   7   8
ATOM      8  O   UNL     1      17.170  33.304   8.325  1.00  0.00    -0.457 OA
BRANCH   8   9
ATOM      9  C   UNL     1      16.838  32.067   7.756  1.00  0.00     0.132 A 
ATOM     10  C   UNL     1      15.516  31.575   7.787  1.00  0.00     0.096 A 
ATOM     11  C   UNL     1      17.864  31.279   7.191  1.00  0.00     0.067 A 
ATOM     12  C   UNL     1      15.286  30.309   7.258  1.00  0.00     0.158 A 
ATOM     13  C   UNL     1      17.563  30.016   6.658  1.00  0.00     0.119 A 
ATOM     14  N   UNL     1      14.115  29.651   7.227  1.00  0.00    -0.215 NA
ATOM     15  N   UNL     1      16.278  29.590   6.725  1.00  0.00    -0.221 N 
ATOM     16  C   UNL     1      14.480  28.485   6.631  1.00  0.00     0.247 A 
ATOM     17  N   UNL     1      15.797  28.433   6.319  1.00  0.00    -0.155 NA
ENDBRANCH   8   9
ENDBRANCH   7   8
BRANCH   4  18
ATOM     18  N   UNL     1      18.483  33.986  13.784  1.00  0.00    -0.340 N 
ATOM     19  H   UNL     1      19.483  33.934  14.074  1.00  0.00     0.168 HD
BRANCH  18  20
ATOM     20  C   UNL     1      17.502  34.312  14.782  1.00  0.00     0.141 A 
ATOM     21  N   UNL     1      16.238  33.811  14.664  1.00  0.00    -0.219 NA
ATOM     22  C   UNL     1      17.809  35.152  15.874  1.00  0.00     0.045 A 
ATOM     23  C   UNL     1      15.265  34.115  15.562  1.00  0.00     0.224 A 
ATOM     24  C   UNL     1      16.773  35.460  16.788  1.00  0.00     0.076 A 
ATOM     25  C   UNL     1      19.107  35.638  16.114  1.00  0.00     0.040 A 
ATOM     26  N   UNL     1      15.531  34.937  16.610  1.00  0.00    -0.236 NA
ATOM     27  C   UNL     1      17.032  36.271  17.899  1.00  0.00     0.031 A 
ATOM     28  C   UNL     1      19.367  36.446  17.234  1.00  0.00     0.043 A 
ATOM     29  C   UNL     1      18.320  36.754  18.128  1.00  0.00     0.028 A 
BRANCH  28  30
ATOM     30  N   UNL     1      20.715  36.881  17.485  1.00  0.00    -0.310 N 
ATOM     31  C   UNL     1      21.860  36.022  17.411  1.00  0.00     0.289 C 
ATOM     32  H   UNL     1      20.862  37.829  17.906  1.00  0.00     0.171 HD
ATOM     33  N   UNL     1      21.776  34.749  17.234  1.00  0.00    -0.225 NA
ATOM     34  O   UNL     1      23.153  36.488  17.574  1.00  0.00    -0.462 OA
ATOM     35  C   UNL     1      23.120  34.178  17.242  1.00  0.00     0.095 C 
ATOM     36  C   UNL     1      24.052  35.397  17.512  1.00  0.00     0.263 C 
ATOM     37  C   UNL     1      23.407  33.542  15.871  1.00  0.00     0.040 C 
ATOM     38  C   UNL     1      23.223  33.127  18.363  1.00  0.00     0.040 C 
ENDBRANCH  28  30
ENDBRANCH  18  20
ENDBRANCH   4  18
TORSDOF 5
ENDMDL
MODEL 6
REMARK VINA RESULT:   -11.298      4.389      6.388
REMARK INTER + INTRA:         -14.975
REMARK INTER:                 -14.580
REMARK INTRA:                  -0.395
REMARK UNBOUND:                -0.375
REMARK SMILES Cc1cc(Nc2ncnc3ccc(NC4=NC(C)(C)CO4)cc23)ccc1Oc1ccn2ncnc2c1
REMARK SMILES IDX 1 1 2 2 3 3 4 4 24 5 25 6 26 7 27 8 28 9 36 10 29 11 35 12
REMARK SMILES IDX 30 13 34 14 31 15 33 16 32 17 5 18 6 20 7 21 23 22 8 23
REMARK SMILES IDX 10 24 22 25 9 26 11 27 13 28 12 29 14 30 15 31 16 33 21 34
REMARK SMILES IDX 17 35 20 36 18 37 19 38
REMARK H PARENT 5 19 14 32
REMARK Flexibility Score: inf
ROOT
ATOM      1  C   UNL     1      16.568  35.310  10.417  1.00  0.00     0.048 C 
ATOM      2  C   UNL     1      17.537  34.207  10.742  1.00  0.00    -0.006 A 
ATOM      3  C   UNL     1      18.306  34.270  11.917  1.00  0.00     0.033 A 
ATOM      4  C   UNL     1      19.212  33.240  12.230  1.00  0.00     0.040 A 
ATOM      5  C   UNL     1      19.322  32.130  11.366  1.00  0.00     0.030 A 
ATOM      6  C   UNL     1      18.571  32.077  10.192  1.00  0.00     0.049 A 
ATOM      7  C   UNL     1      17.684  33.117   9.867  1.00  0.00     0.130 A 
ENDROOT
BRANCH   7   8
ATOM      8  O   UNL     1      16.924  33.059   8.690  1.00  0.00    -0.457 OA
BRANCH   8   9
ATOM      9  C   UNL     1      16.657  31.876   7.990  1.00  0.00     0.132 A 
ATOM     10  C   UNL     1      15.367  31.303   7.980  1.00  0.00     0.096 A 
ATOM     11  C   UNL     1      17.718  31.221   7.328  1.00  0.00     0.067 A 
ATOM     12  C   UNL     1      15.204  30.091   7.314  1.00  0.00     0.158 A 
ATOM     13  C   UNL     1      17.484  30.009   6.660  1.00  0.00     0.119 A 
ATOM     14  N   UNL     1      14.075  29.370   7.223  1.00  0.00    -0.215 NA
ATOM     15  N   UNL     1      16.228  29.500   6.693  1.00  0.00    -0.221 N 
ATOM     16  C   UNL     1      14.498  28.303   6.495  1.00  0.00     0.247 A 
ATOM     17  N   UNL     1      15.810  28.368   6.165  1.00  0.00    -0.155 NA
ENDBRANCH   8   9
ENDBRANCH   7   8
BRANCH   4  18
ATOM     18  N   UNL     1      19.971  33.269  13.451  1.00  0.00    -0.340 N 
ATOM     19  H   UNL     1      19.998  32.411  14.043  1.00  0.00     0.168 HD
BRANCH  18  20
ATOM     20  C   UNL     1      20.785  34.389  13.839  1.00  0.00     0.141 A 
ATOM     21  N   UNL     1      20.272  35.323  14.691  1.00  0.00    -0.219 NA
ATOM     22  C   UNL     1      22.096  34.555  13.344  1.00  0.00     0.045 A 
ATOM     23  C   UNL     1      20.988  36.417  15.063  1.00  0.00     0.224 A 
ATOM     24  C   UNL     1      22.814  35.709  13.739  1.00  0.00     0.076 A 
ATOM     25  C   UNL     1      22.727  33.595  12.531  1.00  0.00     0.040 A 
ATOM     26  N   UNL     1      22.245  36.608  14.584  1.00  0.00    -0.236 NA
ATOM     27  C   UNL     1      24.126  35.909  13.294  1.00  0.00     0.031 A 
ATOM     28  C   UNL     1      24.046  33.795  12.091  1.00  0.00     0.043 A 
ATOM     29  C   UNL     1      24.742  34.957  12.484  1.00  0.00     0.028 A 
BRANCH  28  30
ATOM     30  N   UNL     1      24.684  32.769  11.308  1.00  0.00    -0.310 N 
ATOM     31  C   UNL     1      26.047  32.361  11.482  1.00  0.00     0.289 C 
ATOM     32  H   UNL     1      24.189  32.414  10.456  1.00  0.00     0.171 HD
ATOM     33  N   UNL     1      26.866  32.962  12.273  1.00  0.00    -0.225 NA
ATOM     34  O   UNL     1      26.607  31.314  10.772  1.00  0.00    -0.462 OA
ATOM     35  C   UNL     1      28.172  32.314  12.185  1.00  0.00     0.095 C 
ATOM     36  C   UNL     1      27.975  31.199  11.116  1.00  0.00     0.263 C 
ATOM     37  C   UNL     1      28.536  31.721  13.557  1.00  0.00     0.040 C 
ATOM     38  C   UNL     1      29.226  33.345  11.740  1.00  0.00     0.040 C 
ENDBRANCH  28  30
ENDBRANCH  18  20
ENDBRANCH   4  18
TORSDOF 5
ENDMDL
MODEL 7
REMARK VINA RESULT:   -11.238      1.764      3.132
REMARK INTER + INTRA:         -14.897
REMARK INTER:                 -13.590
REMARK INTRA:                  -1.308
REMARK UNBOUND:                -0.375
REMARK SMILES Cc1cc(Nc2ncnc3ccc(NC4=NC(C)(C)CO4)cc23)ccc1Oc1ccn2ncnc2c1
REMARK SMILES IDX 1 1 2 2 3 3 4 4 24 5 25 6 26 7 27 8 28 9 36 10 29 11 35 12
REMARK SMILES IDX 30 13 34 14 31 15 33 16 32 17 5 18 6 20 7 21 23 22 8 23
REMARK SMILES IDX 10 24 22 25 9 26 11 27 13 28 12 29 14 30 15 31 16 33 21 34
REMARK SMILES IDX 17 35 20 36 18 37 19 38
REMARK H PARENT 5 19 14 32
REMARK Flexibility Score: inf
ROOT
ATOM      1  C   UNL     1      19.903  33.801  11.974  1.00  0.00     0.048 C 
ATOM      2  C   UNL     1      18.559  33.914  12.639  1.00  0.00    -0.006 A 
ATOM      3  C   UNL     1      18.432  33.657  14.015  1.00  0.00     0.033 A 
ATOM      4  C   UNL     1      17.179  33.763  14.646  1.00  0.00     0.040 A 
ATOM      5  C   UNL     1      16.055  34.156  13.889  1.00  0.00     0.030 A 
ATOM      6  C   UNL     1      16.180  34.394  12.520  1.00  0.00     0.049 A 
ATOM      7  C   UNL     1      17.426  34.265  11.886  1.00  0.00     0.130 A 
ENDROOT
BRANCH   7   8
ATOM      8  O   UNL     1      17.552  34.512  10.511  1.00  0.00    -0.457 OA
BRANCH   8   9
ATOM      9  C   UNL     1      17.099  33.636   9.516  1.00  0.00     0.132 A 
ATOM     10  C   UNL     1      17.599  32.320   9.410  1.00  0.00     0.096 A 
ATOM     11  C   UNL     1      16.163  34.105   8.569  1.00  0.00     0.067 A 
ATOM     12  C   UNL     1      17.145  31.539   8.353  1.00  0.00     0.158 A 
ATOM     13  C   UNL     1      15.731  33.261   7.535  1.00  0.00     0.119 A 
ATOM     14  N   UNL     1      17.525  30.285   8.058  1.00  0.00    -0.215 NA
ATOM     15  N   UNL     1      16.254  32.011   7.476  1.00  0.00    -0.221 N 
ATOM     16  C   UNL     1      16.791  30.040   6.940  1.00  0.00     0.247 A 
ATOM     17  N   UNL     1      16.011  31.084   6.573  1.00  0.00    -0.155 NA
ENDBRANCH   8   9
ENDBRANCH   7   8
BRANCH   4  18
ATOM     18  N   UNL     1      17.044  33.547  16.061  1.00  0.00    -0.340 N 
ATOM     19  H   UNL     1      17.397  32.654  16.467  1.00  0.00     0.168 HD
BRANCH  18  20
ATOM     20  C   UNL     1      16.545  34.552  16.960  1.00  0.00     0.141 A 
ATOM     21  N   UNL     1      15.198  34.722  17.090  1.00  0.00    -0.219 NA
ATOM     22  C   UNL     1      17.417  35.381  17.699  1.00  0.00     0.045 A 
ATOM     23  C   UNL     1      14.675  35.679  17.902  1.00  0.00     0.224 A 
ATOM     24  C   UNL     1      16.846  36.376  18.527  1.00  0.00     0.076 A 
ATOM     25  C   UNL     1      18.814  35.213  17.686  1.00  0.00     0.040 A 
ATOM     26  N   UNL     1      15.495  36.501  18.607  1.00  0.00    -0.236 NA
ATOM     27  C   UNL     1      17.666  37.208  19.297  1.00  0.00     0.031 A 
ATOM     28  C   UNL     1      19.636  36.045  18.464  1.00  0.00     0.043 A 
ATOM     29  C   UNL     1      19.050  37.040  19.275  1.00  0.00     0.028 A 
BRANCH  28  30
ATOM     30  N   UNL     1      21.056  35.812  18.475  1.00  0.00    -0.310 N 
ATOM     31  C   UNL     1      21.803  35.370  17.335  1.00  0.00     0.289 C 
ATOM     32  H   UNL     1      21.551  35.801  19.399  1.00  0.00     0.171 HD
ATOM     33  N   UNL     1      21.253  35.018  16.225  1.00  0.00    -0.225 NA
ATOM     34  O   UNL     1      23.180  35.237  17.354  1.00  0.00    -0.462 OA
ATOM     35  C   UNL     1      22.294  34.593  15.293  1.00  0.00     0.095 C 
ATOM     36  C   UNL     1      23.615  34.723  16.109  1.00  0.00     0.263 C 
ATOM     37  C   UNL     1      22.293  35.529  14.073  1.00  0.00     0.040 C 
ATOM     38  C   UNL     1      22.033  33.137  14.864  1.00  0.00     0.040 C 
ENDBRANCH  28  30
ENDBRANCH  18  20
ENDBRANCH   4  18
TORSDOF 5
ENDMDL
MODEL 8
REMARK VINA RESULT:   -11.083      2.013      4.797
REMARK INTER + INTRA:         -14.697
REMARK INTER:                 -13.974
REMARK INTRA:                  -0.723
REMARK UNBOUND:                -0.375
REMARK SMILES Cc1cc(Nc2ncnc3ccc(NC4=NC(C)(C)CO4)cc23)ccc1Oc1ccn2ncnc2c1
REMARK SMILES IDX 1 1 2 2 3 3 4 4 24 5 25 6 26 7 27 8 28 9 36 10 29 11 35 12
REMARK SMILES IDX 30 13 34 14 31 15 33 16 32 17 5 18 6 20 7 21 23 22 8 23
REMARK SMILES IDX 10 24 22 25 9 26 11 27 13 28 12 29 14 30 15 31 16 33 21 34
REMARK SMILES IDX 17 35 20 36 18 37 19 38
REMARK H PARENT 5 19 14 32
REMARK Flexibility Score: inf
ROOT
ATOM      1  C   UNL     1      15.830  33.781  12.451  1.00  0.00     0.048 C 
ATOM      2  C   UNL     1      17.307  33.630  12.695  1.00  0.00    -0.006 A 
ATOM      3  C   UNL     1      17.771  33.219  13.956  1.00  0.00     0.033 A 
ATOM      4  C   UNL     1      19.150  33.071  14.193  1.00  0.00     0.040 A 
ATOM      5  C   UNL     1      20.062  33.314  13.143  1.00  0.00     0.030 A 
ATOM      6  C   UNL     1      19.599  33.739  11.897  1.00  0.00     0.049 A 
ATOM      7  C   UNL     1      18.224  33.909  11.668  1.00  0.00     0.130 A 
ENDROOT
BRANCH   7   8
ATOM      8  O   UNL     1      17.760  34.329  10.413  1.00  0.00    -0.457 OA
BRANCH   8   9
ATOM      9  C   UNL     1      17.262  33.461   9.434  1.00  0.00     0.132 A 
ATOM     10  C   UNL     1      17.797  32.166   9.259  1.00  0.00     0.096 A 
ATOM     11  C   UNL     1      16.241  33.917   8.573  1.00  0.00     0.067 A 
ATOM     12  C   UNL     1      17.288  31.393   8.219  1.00  0.00     0.158 A 
ATOM     13  C   UNL     1      15.759  33.081   7.554  1.00  0.00     0.119 A 
ATOM     14  N   UNL     1      17.687  30.160   7.866  1.00  0.00    -0.215 NA
ATOM     15  N   UNL     1      16.317  31.852   7.425  1.00  0.00    -0.221 N 
ATOM     16  C   UNL     1      16.878  29.913   6.801  1.00  0.00     0.247 A 
ATOM     17  N   UNL     1      16.037  30.937   6.521  1.00  0.00    -0.155 NA
ENDBRANCH   8   9
ENDBRANCH   7   8
BRANCH   4  18
ATOM     18  N   UNL     1      19.637  32.607  15.464  1.00  0.00    -0.340 N 
ATOM     19  H   UNL     1      19.174  31.784  15.906  1.00  0.00     0.168 HD
BRANCH  18  20
ATOM     20  C   UNL     1      20.803  33.155  16.101  1.00  0.00     0.141 A 
ATOM     21  N   UNL     1      22.040  32.760  15.682  1.00  0.00    -0.219 NA
ATOM     22  C   UNL     1      20.699  34.080  17.162  1.00  0.00     0.045 A 
ATOM     23  C   UNL     1      23.174  33.223  16.273  1.00  0.00     0.224 A 
ATOM     24  C   UNL     1      21.895  34.537  17.766  1.00  0.00     0.076 A 
ATOM     25  C   UNL     1      19.466  34.602  17.594  1.00  0.00     0.040 A 
ATOM     26  N   UNL     1      23.098  34.098  17.309  1.00  0.00    -0.236 NA
ATOM     27  C   UNL     1      21.847  35.472  18.806  1.00  0.00     0.031 A 
ATOM     28  C   UNL     1      19.420  35.544  18.635  1.00  0.00     0.043 A 
ATOM     29  C   UNL     1      20.621  35.979  19.233  1.00  0.00     0.028 A 
BRANCH  28  30
ATOM     30  N   UNL     1      18.150  36.103  19.016  1.00  0.00    -0.310 N 
ATOM     31  C   UNL     1      16.904  35.754  18.400  1.00  0.00     0.289 C 
ATOM     32  H   UNL     1      18.143  36.929  19.660  1.00  0.00     0.171 HD
ATOM     33  N   UNL     1      16.820  34.998  17.361  1.00  0.00    -0.225 NA
ATOM     34  O   UNL     1      15.689  36.244  18.845  1.00  0.00    -0.462 OA
ATOM     35  C   UNL     1      15.416  34.874  16.976  1.00  0.00     0.095 C 
ATOM     36  C   UNL     1      14.658  35.772  17.999  1.00  0.00     0.263 C 
ATOM     37  C   UNL     1      14.987  33.402  17.093  1.00  0.00     0.040 C 
ATOM     38  C   UNL     1      15.234  35.381  15.533  1.00  0.00     0.040 C 
ENDBRANCH  28  30
ENDBRANCH  18  20
ENDBRANCH   4  18
TORSDOF 5
ENDMDL
MODEL 9
REMARK VINA RESULT:   -11.070      1.916      2.600
REMARK INTER + INTRA:         -14.680
REMARK INTER:                 -14.399
REMARK INTRA:                  -0.281
REMARK UNBOUND:                -0.375
REMARK SMILES Cc1cc(Nc2ncnc3ccc(NC4=NC(C)(C)CO4)cc23)ccc1Oc1ccn2ncnc2c1
REMARK SMILES IDX 1 1 2 2 3 3 4 4 24 5 25 6 26 7 27 8 28 9 36 10 29 11 35 12
REMARK SMILES IDX 30 13 34 14 31 15 33 16 32 17 5 18 6 20 7 21 23 22 8 23
REMARK SMILES IDX 10 24 22 25 9 26 11 27 13 28 12 29 14 30 15 31 16 33 21 34
REMARK SMILES IDX 17 35 20 36 18 37 19 38
REMARK H PARENT 5 19 14 32
REMARK Flexibility Score: inf
ROOT
ATOM      1  C   UNL     1      15.978  35.372   9.954  1.00  0.00     0.048 C 
ATOM      2  C   UNL     1      16.881  34.457  10.734  1.00  0.00    -0.006 A 
ATOM      3  C   UNL     1      17.044  34.643  12.118  1.00  0.00     0.033 A 
ATOM      4  C   UNL     1      17.884  33.789  12.856  1.00  0.00     0.040 A 
ATOM      5  C   UNL     1      18.541  32.727  12.198  1.00  0.00     0.030 A 
ATOM      6  C   UNL     1      18.391  32.555  10.821  1.00  0.00     0.049 A 
ATOM      7  C   UNL     1      17.571  33.422  10.081  1.00  0.00     0.130 A 
ENDROOT
BRANCH   7   8
ATOM      8  O   UNL     1      17.416  33.244   8.699  1.00  0.00    -0.457 OA
BRANCH   8   9
ATOM      9  C   UNL     1      16.942  32.064   8.112  1.00  0.00     0.132 A 
ATOM     10  C   UNL     1      15.611  31.633   8.298  1.00  0.00     0.096 A 
ATOM     11  C   UNL     1      17.836  31.266   7.366  1.00  0.00     0.067 A 
ATOM     12  C   UNL     1      15.241  30.415   7.735  1.00  0.00     0.158 A 
ATOM     13  C   UNL     1      17.396  30.055   6.809  1.00  0.00     0.119 A 
ATOM     14  N   UNL     1      14.042  29.817   7.829  1.00  0.00    -0.215 NA
ATOM     15  N   UNL     1      16.110  29.687   7.029  1.00  0.00    -0.221 N 
ATOM     16  C   UNL     1      14.257  28.676   7.123  1.00  0.00     0.247 A 
ATOM     17  N   UNL     1      15.515  28.582   6.629  1.00  0.00    -0.155 NA
ENDBRANCH   8   9
ENDBRANCH   7   8
BRANCH   4  18
ATOM     18  N   UNL     1      18.024  33.939  14.279  1.00  0.00    -0.340 N 
ATOM     19  H   UNL     1      18.977  33.873  14.697  1.00  0.00     0.168 HD
BRANCH  18  20
ATOM     20  C   UNL     1      16.926  34.286  15.140  1.00  0.00     0.141 A 
ATOM     21  N   UNL     1      15.677  33.822  14.848  1.00  0.00    -0.219 NA
ATOM     22  C   UNL     1      17.107  35.112  16.270  1.00  0.00     0.045 A 
ATOM     23  C   UNL     1      14.600  34.148  15.611  1.00  0.00     0.224 A 
ATOM     24  C   UNL     1      15.967  35.444  17.040  1.00  0.00     0.076 A 
ATOM     25  C   UNL     1      18.374  35.559  16.687  1.00  0.00     0.040 A 
ATOM     26  N   UNL     1      14.746  34.957  16.693  1.00  0.00    -0.236 NA
ATOM     27  C   UNL     1      16.096  36.240  18.184  1.00  0.00     0.031 A 
ATOM     28  C   UNL     1      18.503  36.354  17.838  1.00  0.00     0.043 A 
ATOM     29  C   UNL     1      17.354  36.686  18.587  1.00  0.00     0.028 A 
BRANCH  28  30
ATOM     30  N   UNL     1      19.817  36.749  18.272  1.00  0.00    -0.310 N 
ATOM     31  C   UNL     1      20.095  37.342  19.547  1.00  0.00     0.289 C 
ATOM     32  H   UNL     1      20.590  36.764  17.565  1.00  0.00     0.171 HD
ATOM     33  N   UNL     1      19.174  37.691  20.377  1.00  0.00    -0.225 NA
ATOM     34  O   UNL     1      21.380  37.633  19.969  1.00  0.00    -0.462 OA
ATOM     35  C   UNL     1      19.798  38.289  21.554  1.00  0.00     0.095 C 
ATOM     36  C   UNL     1      21.323  38.266  21.232  1.00  0.00     0.263 C 
ATOM     37  C   UNL     1      19.471  37.433  22.789  1.00  0.00     0.040 C 
ATOM     38  C   UNL     1      19.279  39.727  21.735  1.00  0.00     0.040 C 
ENDBRANCH  28  30
ENDBRANCH  18  20
ENDBRANCH   4  18
TORSDOF 5
ENDMDL
MODEL 10
REMARK VINA RESULT:   -11.064      5.435      9.353
REMARK INTER + INTRA:         -14.673
REMARK INTER:                 -13.569
REMARK INTRA:                  -1.104
REMARK UNBOUND:                -0.375
REMARK SMILES Cc1cc(Nc2ncnc3ccc(NC4=NC(C)(C)CO4)cc23)ccc1Oc1ccn2ncnc2c1
REMARK SMILES IDX 1 1 2 2 3 3 4 4 24 5 25 6 26 7 27 8 28 9 36 10 29 11 35 12
REMARK SMILES IDX 30 13 34 14 31 15 33 16 32 17 5 18 6 20 7 21 23 22 8 23
REMARK SMILES IDX 10 24 22 25 9 26 11 27 13 28 12 29 14 30 15 31 16 33 21 34
REMARK SMILES IDX 17 35 20 36 18 37 19 38
REMARK H PARENT 5 19 14 32
REMARK Flexibility Score: inf
ROOT
ATOM      1  C   UNL     1      24.372  35.788  11.459  1.00  0.00     0.048 C 
ATOM      2  C   UNL     1      23.840  34.723  12.376  1.00  0.00    -0.006 A 
ATOM      3  C   UNL     1      22.454  34.506  12.472  1.00  0.00     0.033 A 
ATOM      4  C   UNL     1      21.948  33.508  13.326  1.00  0.00     0.040 A 
ATOM      5  C   UNL     1      22.846  32.709  14.064  1.00  0.00     0.030 A 
ATOM      6  C   UNL     1      24.220  32.937  13.980  1.00  0.00     0.049 A 
ATOM      7  C   UNL     1      24.724  33.949  13.147  1.00  0.00     0.130 A 
ENDROOT
BRANCH   7   8
ATOM      8  O   UNL     1      26.106  34.172  13.058  1.00  0.00    -0.457 OA
BRANCH   8   9
ATOM      9  C   UNL     1      27.056  33.151  12.937  1.00  0.00     0.132 A 
ATOM     10  C   UNL     1      27.192  32.410  11.743  1.00  0.00     0.096 A 
ATOM     11  C   UNL     1      27.852  32.824  14.056  1.00  0.00     0.067 A 
ATOM     12  C   UNL     1      28.115  31.369  11.731  1.00  0.00     0.158 A 
ATOM     13  C   UNL     1      28.778  31.773  13.973  1.00  0.00     0.119 A 
ATOM     14  N   UNL     1      28.365  30.528  10.713  1.00  0.00    -0.215 NA
ATOM     15  N   UNL     1      28.858  31.089  12.805  1.00  0.00    -0.221 N 
ATOM     16  C   UNL     1      29.317  29.726  11.258  1.00  0.00     0.247 A 
ATOM     17  N   UNL     1      29.628  30.056  12.534  1.00  0.00    -0.155 NA
ENDBRANCH   8   9
ENDBRANCH   7   8
BRANCH   4  18
ATOM     18  N   UNL     1      20.536  33.245  13.399  1.00  0.00    -0.340 N 
ATOM     19  H   UNL     1      20.180  32.332  13.045  1.00  0.00     0.168 HD
BRANCH  18  20
ATOM     20  C   UNL     1      19.608  34.136  14.040  1.00  0.00     0.141 A 
ATOM     21  N   UNL     1      20.082  35.109  14.870  1.00  0.00    -0.219 NA
ATOM     22  C   UNL     1      18.215  34.017  13.843  1.00  0.00     0.045 A 
ATOM     23  C   UNL     1      19.244  35.957  15.525  1.00  0.00     0.224 A 
ATOM     24  C   UNL     1      17.367  34.906  14.546  1.00  0.00     0.076 A 
ATOM     25  C   UNL     1      17.653  33.099  12.938  1.00  0.00     0.040 A 
ATOM     26  N   UNL     1      17.899  35.849  15.367  1.00  0.00    -0.236 NA
ATOM     27  C   UNL     1      15.980  34.844  14.369  1.00  0.00     0.031 A 
ATOM     28  C   UNL     1      16.261  33.042  12.757  1.00  0.00     0.043 A 
ATOM     29  C   UNL     1      15.429  33.927  13.475  1.00  0.00     0.028 A 
BRANCH  28  30
ATOM     30  N   UNL     1      15.719  32.132  11.783  1.00  0.00    -0.310 N 
ATOM     31  C   UNL     1      15.912  32.264  10.369  1.00  0.00     0.289 C 
ATOM     32  H   UNL     1      15.009  31.430  12.099  1.00  0.00     0.171 HD
ATOM     33  N   UNL     1      16.485  33.283   9.829  1.00  0.00    -0.225 NA
ATOM     34  O   UNL     1      15.450  31.326   9.463  1.00  0.00    -0.462 OA
ATOM     35  C   UNL     1      16.486  33.114   8.378  1.00  0.00     0.095 C 
ATOM     36  C   UNL     1      15.735  31.768   8.150  1.00  0.00     0.263 C 
ATOM     37  C   UNL     1      17.938  33.040   7.878  1.00  0.00     0.040 C 
ATOM     38  C   UNL     1      15.744  34.295   7.724  1.00  0.00     0.040 C 
ENDBRANCH  28  30
ENDBRANCH  18  20
ENDBRANCH   4  18
TORSDOF 5
ENDMDL
MODEL 11
REMARK VINA RESULT:   -10.989      3.005      5.129
REMARK INTER + INTRA:         -14.576
REMARK INTER:                 -13.318
REMARK INTRA:                  -1.258
REMARK UNBOUND:                -0.375
REMARK SMILES Cc1cc(Nc2ncnc3ccc(NC4=NC(C)(C)CO4)cc23)ccc1Oc1ccn2ncnc2c1
REMARK SMILES IDX 1 1 2 2 3 3 4 4 24 5 25 6 26 7 27 8 28 9 36 10 29 11 35 12
REMARK SMILES IDX 30 13 34 14 31 15 33 16 32 17 5 18 6 20 7 21 23 22 8 23
REMARK SMILES IDX 10 24 22 25 9 26 11 27 13 28 12 29 14 30 15 31 16 33 21 34
REMARK SMILES IDX 17 35 20 36 18 37 19 38
REMARK H PARENT 5 19 14 32
REMARK Flexibility Score: inf
ROOT
ATOM      1  C   UNL     1      15.634  33.899  12.804  1.00  0.00     0.048 C 
ATOM      2  C   UNL     1      17.120  33.747  12.975  1.00  0.00    -0.006 A 
ATOM      3  C   UNL     1      17.644  33.302  14.201  1.00  0.00     0.033 A 
ATOM      4  C   UNL     1      19.033  33.153  14.369  1.00  0.00     0.040 A 
ATOM      5  C   UNL     1      19.894  33.429  13.285  1.00  0.00     0.030 A 
ATOM      6  C   UNL     1      19.373  33.887  12.075  1.00  0.00     0.049 A 
ATOM      7  C   UNL     1      17.988  34.058  11.915  1.00  0.00     0.130 A 
ENDROOT
BRANCH   7   8
ATOM      8  O   UNL     1      17.465  34.511  10.696  1.00  0.00    -0.457 OA
BRANCH   8   9
ATOM      9  C   UNL     1      17.074  33.664   9.651  1.00  0.00     0.132 A 
ATOM     10  C   UNL     1      17.618  32.370   9.511  1.00  0.00     0.096 A 
ATOM     11  C   UNL     1      16.157  34.144   8.691  1.00  0.00     0.067 A 
ATOM     12  C   UNL     1      17.224  31.619   8.407  1.00  0.00     0.158 A 
ATOM     13  C   UNL     1      15.786  33.331   7.609  1.00  0.00     0.119 A 
ATOM     14  N   UNL     1      17.653  30.390   8.076  1.00  0.00    -0.215 NA
ATOM     15  N   UNL     1      16.349  32.100   7.519  1.00  0.00    -0.221 N 
ATOM     16  C   UNL     1      16.966  30.169   6.924  1.00  0.00     0.247 A 
ATOM     17  N   UNL     1      16.166  31.205   6.572  1.00  0.00    -0.155 NA
ENDBRANCH   8   9
ENDBRANCH   7   8
BRANCH   4  18
ATOM     18  N   UNL     1      19.580  32.656  15.603  1.00  0.00    -0.340 N 
ATOM     19  H   UNL     1      19.940  31.678  15.631  1.00  0.00     0.168 HD
BRANCH  18  20
ATOM     20  C   UNL     1      19.755  33.479  16.768  1.00  0.00     0.141 A 
ATOM     21  N   UNL     1      18.657  33.881  17.472  1.00  0.00    -0.219 NA
ATOM     22  C   UNL     1      21.035  33.897  17.192  1.00  0.00     0.045 A 
ATOM     23  C   UNL     1      18.766  34.686  18.562  1.00  0.00     0.224 A 
ATOM     24  C   UNL     1      21.117  34.744  18.323  1.00  0.00     0.076 A 
ATOM     25  C   UNL     1      22.219  33.456  16.573  1.00  0.00     0.040 A 
ATOM     26  N   UNL     1      19.985  35.117  18.976  1.00  0.00    -0.236 NA
ATOM     27  C   UNL     1      22.364  35.167  18.797  1.00  0.00     0.031 A 
ATOM     28  C   UNL     1      23.470  33.878  17.054  1.00  0.00     0.043 A 
ATOM     29  C   UNL     1      23.533  34.732  18.174  1.00  0.00     0.028 A 
BRANCH  28  30
ATOM     30  N   UNL     1      24.664  33.366  16.436  1.00  0.00    -0.310 N 
ATOM     31  C   UNL     1      25.214  33.872  15.213  1.00  0.00     0.289 C 
ATOM     32  H   UNL     1      25.067  32.469  16.799  1.00  0.00     0.171 HD
ATOM     33  N   UNL     1      24.621  34.754  14.486  1.00  0.00    -0.225 NA
ATOM     34  O   UNL     1      26.411  33.416  14.689  1.00  0.00    -0.462 OA
ATOM     35  C   UNL     1      25.434  35.019  13.303  1.00  0.00     0.095 C 
ATOM     36  C   UNL     1      26.651  34.058  13.452  1.00  0.00     0.263 C 
ATOM     37  C   UNL     1      25.877  36.492  13.314  1.00  0.00     0.040 C 
ATOM     38  C   UNL     1      24.616  34.706  12.037  1.00  0.00     0.040 C 
ENDBRANCH  28  30
ENDBRANCH  18  20
ENDBRANCH   4  18
TORSDOF 5
ENDMDL
MODEL 12
REMARK VINA RESULT:   -10.958      4.917      9.874
REMARK INTER + INTRA:         -14.536
REMARK INTER:                 -13.315
REMARK INTRA:                  -1.221
REMARK UNBOUND:                -0.375
REMARK SMILES Cc1cc(Nc2ncnc3ccc(NC4=NC(C)(C)CO4)cc23)ccc1Oc1ccn2ncnc2c1
REMARK SMILES IDX 1 1 2 2 3 3 4 4 24 5 25 6 26 7 27 8 28 9 36 10 29 11 35 12
REMARK SMILES IDX 30 13 34 14 31 15 33 16 32 17 5 18 6 20 7 21 23 22 8 23
REMARK SMILES IDX 10 24 22 25 9 26 11 27 13 28 12 29 14 30 15 31 16 33 21 34
REMARK SMILES IDX 17 35 20 36 18 37 19 38
REMARK H PARENT 5 19 14 32
REMARK Flexibility Score: inf
ROOT
ATOM      1  C   UNL     1      23.323  35.402  11.974  1.00  0.00     0.048 C 
ATOM      2  C   UNL     1      22.937  34.293  12.913  1.00  0.00    -0.006 A 
ATOM      3  C   UNL     1      21.614  33.819  12.934  1.00  0.00     0.033 A 
ATOM      4  C   UNL     1      21.245  32.779  13.807  1.00  0.00     0.040 A 
ATOM      5  C   UNL     1      22.222  32.198  14.643  1.00  0.00     0.030 A 
ATOM      6  C   UNL     1      23.531  32.682  14.633  1.00  0.00     0.049 A 
ATOM      7  C   UNL     1      23.894  33.736  13.778  1.00  0.00     0.130 A 
ENDROOT
BRANCH   7   8
ATOM      8  O   UNL     1      25.211  34.215  13.764  1.00  0.00    -0.457 OA
BRANCH   8   9
ATOM      9  C   UNL     1      26.327  33.423  13.468  1.00  0.00     0.132 A 
ATOM     10  C   UNL     1      26.441  32.742  12.237  1.00  0.00     0.096 A 
ATOM     11  C   UNL     1      27.330  33.264  14.449  1.00  0.00     0.067 A 
ATOM     12  C   UNL     1      27.551  31.924  12.052  1.00  0.00     0.158 A 
ATOM     13  C   UNL     1      28.435  32.437  14.193  1.00  0.00     0.119 A 
ATOM     14  N   UNL     1      27.821  31.167  10.975  1.00  0.00    -0.215 NA
ATOM     15  N   UNL     1      28.485  31.799  12.998  1.00  0.00    -0.221 N 
ATOM     16  C   UNL     1      28.990  30.582  11.346  1.00  0.00     0.247 A 
ATOM     17  N   UNL     1      29.408  30.958  12.579  1.00  0.00    -0.155 NA
ENDBRANCH   8   9
ENDBRANCH   7   8
BRANCH   4  18
ATOM     18  N   UNL     1      19.906  32.254  13.807  1.00  0.00    -0.340 N 
ATOM     19  H   UNL     1      19.764  31.247  14.037  1.00  0.00     0.168 HD
BRANCH  18  20
ATOM     20  C   UNL     1      18.743  33.078  13.613  1.00  0.00     0.141 A 
ATOM     21  N   UNL     1      18.252  33.796  14.663  1.00  0.00    -0.219 NA
ATOM     22  C   UNL     1      18.087  33.147  12.365  1.00  0.00     0.045 A 
ATOM     23  C   UNL     1      17.137  34.564  14.541  1.00  0.00     0.224 A 
ATOM     24  C   UNL     1      16.923  33.946  12.270  1.00  0.00     0.076 A 
ATOM     25  C   UNL     1      18.580  32.506  11.214  1.00  0.00     0.040 A 
ATOM     26  N   UNL     1      16.477  34.631  13.356  1.00  0.00    -0.236 NA
ATOM     27  C   UNL     1      16.249  34.066  11.049  1.00  0.00     0.031 A 
ATOM     28  C   UNL     1      17.905  32.632   9.988  1.00  0.00     0.043 A 
ATOM     29  C   UNL     1      16.739  33.423   9.914  1.00  0.00     0.028 A 
BRANCH  28  30
ATOM     30  N   UNL     1      18.463  32.013   8.815  1.00  0.00    -0.310 N 
ATOM     31  C   UNL     1      17.751  31.092   7.980  1.00  0.00     0.289 C 
ATOM     32  H   UNL     1      19.494  32.101   8.649  1.00  0.00     0.171 HD
ATOM     33  N   UNL     1      16.582  30.636   8.271  1.00  0.00    -0.225 NA
ATOM     34  O   UNL     1      18.285  30.578   6.812  1.00  0.00    -0.462 OA
ATOM     35  C   UNL     1      16.163  29.702   7.230  1.00  0.00     0.095 C 
ATOM     36  C   UNL     1      17.373  29.654   6.249  1.00  0.00     0.263 C 
ATOM     37  C   UNL     1      14.901  30.245   6.540  1.00  0.00     0.040 C 
ATOM     38  C   UNL     1      15.890  28.323   7.859  1.00  0.00     0.040 C 
ENDBRANCH  28  30
ENDBRANCH  18  20
ENDBRANCH   4  18
TORSDOF 5
ENDMDL
MODEL 13
REMARK VINA RESULT:   -10.954      5.302      9.788
REMARK INTER + INTRA:         -14.531
REMARK INTER:                 -13.863
REMARK INTRA:                  -0.669
REMARK UNBOUND:                -0.375
REMARK SMILES Cc1cc(Nc2ncnc3ccc(NC4=NC(C)(C)CO4)cc23)ccc1Oc1ccn2ncnc2c1
REMARK SMILES IDX 1 1 2 2 3 3 4 4 24 5 25 6 26 7 27 8 28 9 36 10 29 11 35 12
REMARK SMILES IDX 30 13 34 14 31 15 33 16 32 17 5 18 6 20 7 21 23 22 8 23
REMARK SMILES IDX 10 24 22 25 9 26 11 27 13 28 12 29 14 30 15 31 16 33 21 34
REMARK SMILES IDX 17 35 20 36 18 37 19 38
REMARK H PARENT 5 19 14 32
REMARK Flexibility Score: inf
ROOT
ATOM      1  C   UNL     1      23.871  34.717  11.853  1.00  0.00     0.048 C 
ATOM      2  C   UNL     1      23.572  33.905  13.083  1.00  0.00    -0.006 A 
ATOM      3  C   UNL     1      22.246  33.542  13.381  1.00  0.00     0.033 A 
ATOM      4  C   UNL     1      21.958  32.780  14.527  1.00  0.00     0.040 A 
ATOM      5  C   UNL     1      23.015  32.359  15.362  1.00  0.00     0.030 A 
ATOM      6  C   UNL     1      24.328  32.734  15.074  1.00  0.00     0.049 A 
ATOM      7  C   UNL     1      24.613  33.516  13.943  1.00  0.00     0.130 A 
ENDROOT
BRANCH   7   8
ATOM      8  O   UNL     1      25.933  33.886  13.651  1.00  0.00    -0.457 OA
BRANCH   8   9
ATOM      9  C   UNL     1      26.960  32.971  13.382  1.00  0.00     0.132 A 
ATOM     10  C   UNL     1      26.999  32.245  12.172  1.00  0.00     0.096 A 
ATOM     11  C   UNL     1      27.940  32.736  14.369  1.00  0.00     0.067 A 
ATOM     12  C   UNL     1      28.016  31.309  12.014  1.00  0.00     0.158 A 
ATOM     13  C   UNL     1      28.951  31.790  14.141  1.00  0.00     0.119 A 
ATOM     14  N   UNL     1      28.204  30.496  10.960  1.00  0.00    -0.215 NA
ATOM     15  N   UNL     1      28.933  31.114  12.966  1.00  0.00    -0.221 N 
ATOM     16  C   UNL     1      29.305  29.802  11.352  1.00  0.00     0.247 A 
ATOM     17  N   UNL     1      29.761  30.169  12.574  1.00  0.00    -0.155 NA
ENDBRANCH   8   9
ENDBRANCH   7   8
BRANCH   4  18
ATOM     18  N   UNL     1      20.613  32.364  14.819  1.00  0.00    -0.340 N 
ATOM     19  H   UNL     1      20.458  31.407  15.203  1.00  0.00     0.168 HD
BRANCH  18  20
ATOM     20  C   UNL     1      19.481  33.244  14.710  1.00  0.00     0.141 A 
ATOM     21  N   UNL     1      19.171  34.064  15.755  1.00  0.00    -0.219 NA
ATOM     22  C   UNL     1      18.673  33.267  13.553  1.00  0.00     0.045 A 
ATOM     23  C   UNL     1      18.093  34.891  15.715  1.00  0.00     0.224 A 
ATOM     24  C   UNL     1      17.551  34.130  13.544  1.00  0.00     0.076 A 
ATOM     25  C   UNL     1      18.975  32.517  12.402  1.00  0.00     0.040 A 
ATOM     26  N   UNL     1      17.289  34.917  14.621  1.00  0.00    -0.236 NA
ATOM     27  C   UNL     1      16.731  34.207  12.412  1.00  0.00     0.031 A 
ATOM     28  C   UNL     1      18.154  32.600  11.265  1.00  0.00     0.043 A 
ATOM     29  C   UNL     1      17.033  33.456  11.277  1.00  0.00     0.028 A 
BRANCH  28  30
ATOM     30  N   UNL     1      18.520  31.866  10.083  1.00  0.00    -0.310 N 
ATOM     31  C   UNL     1      17.630  31.615   8.988  1.00  0.00     0.289 C 
ATOM     32  H   UNL     1      19.426  31.340  10.085  1.00  0.00     0.171 HD
ATOM     33  N   UNL     1      16.378  31.918   9.014  1.00  0.00    -0.225 NA
ATOM     34  O   UNL     1      18.036  30.979   7.828  1.00  0.00    -0.462 OA
ATOM     35  C   UNL     1      15.762  31.498   7.759  1.00  0.00     0.095 C 
ATOM     36  C   UNL     1      16.922  30.822   6.970  1.00  0.00     0.263 C 
ATOM     37  C   UNL     1      15.225  32.736   7.020  1.00  0.00     0.040 C 
ATOM     38  C   UNL     1      14.623  30.504   8.055  1.00  0.00     0.040 C 
ENDBRANCH  28  30
ENDBRANCH  18  20
ENDBRANCH   4  18
TORSDOF 5
ENDMDL
MODEL 14
REMARK VINA RESULT:   -10.865      1.589      2.341
REMARK INTER + INTRA:         -14.415
REMARK INTER:                 -13.034
REMARK INTRA:                  -1.382
REMARK UNBOUND:                -0.375
REMARK SMILES Cc1cc(Nc2ncnc3ccc(NC4=NC(C)(C)CO4)cc23)ccc1Oc1ccn2ncnc2c1
REMARK SMILES IDX 1 1 2 2 3 3 4 4 24 5 25 6 26 7 27 8 28 9 36 10 29 11 35 12
REMARK SMILES IDX 30 13 34 14 31 15 33 16 32 17 5 18 6 20 7 21 23 22 8 23
REMARK SMILES IDX 10 24 22 25 9 26 11 27 13 28 12 29 14 30 15 31 16 33 21 34
REMARK SMILES IDX 17 35 20 36 18 37 19 38
REMARK H PARENT 5 19 14 32
REMARK Flexibility Score: inf
ROOT
ATOM      1  C   UNL     1      19.269  31.970  11.458  1.00  0.00     0.048 C 
ATOM      2  C   UNL     1      18.161  32.956  11.211  1.00  0.00    -0.006 A 
ATOM      3  C   UNL     1      17.591  33.656  12.289  1.00  0.00     0.033 A 
ATOM      4  C   UNL     1      16.556  34.582  12.067  1.00  0.00     0.040 A 
ATOM      5  C   UNL     1      16.113  34.823  10.749  1.00  0.00     0.030 A 
ATOM      6  C   UNL     1      16.669  34.114   9.683  1.00  0.00     0.049 A 
ATOM      7  C   UNL     1      17.685  33.172   9.907  1.00  0.00     0.130 A 
ENDROOT
BRANCH   7   8
ATOM      8  O   UNL     1      18.248  32.466   8.834  1.00  0.00    -0.457 OA
BRANCH   8   9
ATOM      9  C   UNL     1      17.567  31.486   8.101  1.00  0.00     0.132 A 
ATOM     10  C   UNL     1      16.204  31.205   8.338  1.00  0.00     0.096 A 
ATOM     11  C   UNL     1      18.279  30.730   7.146  1.00  0.00     0.067 A 
ATOM     12  C   UNL     1      15.622  30.170   7.612  1.00  0.00     0.158 A 
ATOM     13  C   UNL     1      17.630  29.710   6.434  1.00  0.00     0.119 A 
ATOM     14  N   UNL     1      14.358  29.726   7.717  1.00  0.00    -0.215 NA
ATOM     15  N   UNL     1      16.323  29.477   6.711  1.00  0.00    -0.221 N 
ATOM     16  C   UNL     1      14.355  28.716   6.808  1.00  0.00     0.247 A 
ATOM     17  N   UNL     1      15.547  28.552   6.186  1.00  0.00    -0.155 NA
ENDBRANCH   8   9
ENDBRANCH   7   8
BRANCH   4  18
ATOM     18  N   UNL     1      15.995  35.339  13.154  1.00  0.00    -0.340 N 
ATOM     19  H   UNL     1      15.604  36.284  12.955  1.00  0.00     0.168 HD
BRANCH  18  20
ATOM     20  C   UNL     1      15.848  34.807  14.482  1.00  0.00     0.141 A 
ATOM     21  N   UNL     1      14.763  34.033  14.774  1.00  0.00    -0.219 NA
ATOM     22  C   UNL     1      16.791  35.081  15.496  1.00  0.00     0.045 A 
ATOM     23  C   UNL     1      14.561  33.533  16.022  1.00  0.00     0.224 A 
ATOM     24  C   UNL     1      16.549  34.557  16.788  1.00  0.00     0.076 A 
ATOM     25  C   UNL     1      17.978  35.797  15.253  1.00  0.00     0.040 A 
ATOM     26  N   UNL     1      15.444  33.800  17.019  1.00  0.00    -0.236 NA
ATOM     27  C   UNL     1      17.465  34.781  17.822  1.00  0.00     0.031 A 
ATOM     28  C   UNL     1      18.899  36.016  16.291  1.00  0.00     0.043 A 
ATOM     29  C   UNL     1      18.636  35.497  17.576  1.00  0.00     0.028 A 
BRANCH  28  30
ATOM     30  N   UNL     1      20.130  36.702  16.000  1.00  0.00    -0.310 N 
ATOM     31  C   UNL     1      21.198  36.138  15.228  1.00  0.00     0.289 C 
ATOM     32  H   UNL     1      20.337  37.592  16.512  1.00  0.00     0.171 HD
ATOM     33  N   UNL     1      21.206  34.914  14.827  1.00  0.00    -0.225 NA
ATOM     34  O   UNL     1      22.334  36.853  14.893  1.00  0.00    -0.462 OA
ATOM     35  C   UNL     1      22.448  34.661  14.101  1.00  0.00     0.095 C 
ATOM     36  C   UNL     1      23.224  36.009  14.190  1.00  0.00     0.263 C 
ATOM     37  C   UNL     1      22.117  34.298  12.643  1.00  0.00     0.040 C 
ATOM     38  C   UNL     1      23.218  33.517  14.786  1.00  0.00     0.040 C 
ENDBRANCH  28  30
ENDBRANCH  18  20
ENDBRANCH   4  18
TORSDOF 5
ENDMDL
MODEL 15
REMARK VINA RESULT:   -10.600      5.790     10.180
REMARK INTER + INTRA:         -14.073
REMARK INTER:                 -13.017
REMARK INTRA:                  -1.057
REMARK UNBOUND:                -0.375
REMARK SMILES Cc1cc(Nc2ncnc3ccc(NC4=NC(C)(C)CO4)cc23)ccc1Oc1ccn2ncnc2c1
REMARK SMILES IDX 1 1 2 2 3 3 4 4 24 5 25 6 26 7 27 8 28 9 36 10 29 11 35 12
REMARK SMILES IDX 30 13 34 14 31 15 33 16 32 17 5 18 6 20 7 21 23 22 8 23
REMARK SMILES IDX 10 24 22 25 9 26 11 27 13 28 12 29 14 30 15 31 16 33 21 34
REMARK SMILES IDX 17 35 20 36 18 37 19 38
REMARK H PARENT 5 19 14 32
REMARK Flexibility Score: inf
ROOT
ATOM      1  C   UNL     1      25.286  36.322  12.959  1.00  0.00     0.048 C 
ATOM      2  C   UNL     1      24.696  34.940  12.930  1.00  0.00    -0.006 A 
ATOM      3  C   UNL     1      23.314  34.769  12.734  1.00  0.00     0.033 A 
ATOM      4  C   UNL     1      22.755  33.479  12.701  1.00  0.00     0.040 A 
ATOM      5  C   UNL     1      23.597  32.356  12.840  1.00  0.00     0.030 A 
ATOM      6  C   UNL     1      24.966  32.528  13.051  1.00  0.00     0.049 A 
ATOM      7  C   UNL     1      25.521  33.816  13.108  1.00  0.00     0.130 A 
ENDROOT
BRANCH   7   8
ATOM      8  O   UNL     1      26.897  33.987  13.313  1.00  0.00    -0.457 OA
BRANCH   8   9
ATOM      9  C   UNL     1      27.848  32.978  13.115  1.00  0.00     0.132 A 
ATOM     10  C   UNL     1      28.472  32.332  14.205  1.00  0.00     0.096 A 
ATOM     11  C   UNL     1      28.224  32.643  11.797  1.00  0.00     0.067 A 
ATOM     12  C   UNL     1      29.453  31.387  13.920  1.00  0.00     0.158 A 
ATOM     13  C   UNL     1      29.208  31.668  11.576  1.00  0.00     0.119 A 
ATOM     14  N   UNL     1      30.185  30.696  14.808  1.00  0.00    -0.215 NA
ATOM     15  N   UNL     1      29.782  31.089  12.660  1.00  0.00    -0.221 N 
ATOM     16  C   UNL     1      30.976  29.957  13.985  1.00  0.00     0.247 A 
ATOM     17  N   UNL     1      30.741  30.187  12.671  1.00  0.00    -0.155 NA
ENDBRANCH   8   9
ENDBRANCH   7   8
BRANCH   4  18
ATOM     18  N   UNL     1      21.350  33.289  12.456  1.00  0.00    -0.340 N 
ATOM     19  H   UNL     1      21.045  32.996  11.503  1.00  0.00     0.168 HD
BRANCH  18  20
ATOM     20  C   UNL     1      20.358  33.375  13.493  1.00  0.00     0.141 A 
ATOM     21  N   UNL     1      20.730  33.179  14.791  1.00  0.00    -0.219 NA
ATOM     22  C   UNL     1      19.003  33.639  13.198  1.00  0.00     0.045 A 
ATOM     23  C   UNL     1      19.825  33.217  15.804  1.00  0.00     0.224 A 
ATOM     24  C   UNL     1      18.081  33.663  14.271  1.00  0.00     0.076 A 
ATOM     25  C   UNL     1      18.555  33.937  11.898  1.00  0.00     0.040 A 
ATOM     26  N   UNL     1      18.512  33.451  15.543  1.00  0.00    -0.236 NA
ATOM     27  C   UNL     1      16.731  33.943  14.035  1.00  0.00     0.031 A 
ATOM     28  C   UNL     1      17.200  34.225  11.663  1.00  0.00     0.043 A 
ATOM     29  C   UNL     1      16.292  34.231  12.743  1.00  0.00     0.028 A 
BRANCH  28  30
ATOM     30  N   UNL     1      16.781  34.582  10.333  1.00  0.00    -0.310 N 
ATOM     31  C   UNL     1      16.446  33.629   9.316  1.00  0.00     0.289 C 
ATOM     32  H   UNL     1      16.884  35.579  10.030  1.00  0.00     0.171 HD
ATOM     33  N   UNL     1      16.608  32.359   9.460  1.00  0.00    -0.225 NA
ATOM     34  O   UNL     1      15.965  34.003   8.074  1.00  0.00    -0.462 OA
ATOM     35  C   UNL     1      16.200  31.686   8.230  1.00  0.00     0.095 C 
ATOM     36  C   UNL     1      15.791  32.848   7.276  1.00  0.00     0.263 C 
ATOM     37  C   UNL     1      15.010  30.759   8.530  1.00  0.00     0.040 C 
ATOM     38  C   UNL     1      17.388  30.883   7.667  1.00  0.00     0.040 C 
ENDBRANCH  28  30
ENDBRANCH  18  20
ENDBRANCH   4  18
TORSDOF 5
ENDMDL
