MODEL 1
REMARK VINA RESULT:    -9.008      0.000      0.000
REMARK INTER + INTRA:         -16.493
REMARK INTER:                 -15.327
REMARK INTRA:                  -1.166
REMARK UNBOUND:                -1.166
REMARK SMILES CCOc1cc2ncc(C#N)c(Nc3ccc(OCc4ccccn4)c(Cl)c3)c2cc1NC(=O)/C=C/CN(C)C
REMARK SMILES IDX 4 1 31 2 30 3 29 4 12 5 9 6 8 7 7 8 6 9 5 10 3 11 2 12 1 13
REMARK SMILES IDX 32 14 33 15 34 17 35 18 36 19 37 20 38 21 39 22 40 23 13 24
REMARK SMILES IDX 14 26 15 27 28 28 16 29 26 30 17 31 27 32 18 33 19 34 20 35
REMARK SMILES IDX 21 36 25 37 22 38 24 39 23 40 10 41 11 42
REMARK H PARENT 32 16 13 25
REMARK Flexibility Score: inf
ROOT
ATOM      1  C   UNL     1      25.578  13.993  11.164  1.00  0.00     0.144 A 
ATOM      2  C   UNL     1      26.518  13.187  10.491  1.00  0.00     0.084 A 
ATOM      3  C   UNL     1      26.224  11.846  10.214  1.00  0.00     0.042 A 
ATOM      4  C   UNL     1      25.021  11.271  10.655  1.00  0.00     0.027 A 
ATOM      5  C   UNL     1      24.706   9.916  10.417  1.00  0.00     0.068 A 
ATOM      6  C   UNL     1      23.499   9.389  10.913  1.00  0.00     0.094 A 
ATOM      7  C   UNL     1      22.623  10.221  11.616  1.00  0.00     0.133 A 
ATOM      8  N   UNL     1      22.936  11.526  11.823  1.00  0.00    -0.255 NA
ATOM      9  C   UNL     1      24.098  12.068  11.369  1.00  0.00     0.076 A 
ATOM     10  C   UNL     1      24.372  13.417  11.608  1.00  0.00     0.077 A 
ENDROOT
BRANCH   1  11
ATOM     11  O   UNL     1      25.864  15.358  11.345  1.00  0.00    -0.492 OA
BRANCH  11  12
ATOM     12  C   UNL     1      25.058  16.296  12.056  1.00  0.00     0.226 C 
ATOM     13  C   UNL     1      25.296  17.712  11.542  1.00  0.00     0.049 C 
ENDBRANCH  11  12
ENDBRANCH   1  11
BRANCH   2  14
ATOM     14  N   UNL     1      27.774  13.728  10.049  1.00  0.00    -0.319 N 
ATOM     15  C   UNL     1      29.027  13.397  10.667  1.00  0.00     0.248 C 
ATOM     16  H   UNL     1      27.788  14.285   9.164  1.00  0.00     0.170 HD
ATOM     17  O   UNL     1      29.086  12.466  11.518  1.00  0.00    -0.270 OA
BRANCH  15  18
ATOM     18  C   UNL     1      30.247  14.130  10.283  1.00  0.00     0.068 C 
ATOM     19  C   UNL     1      31.468  13.726  10.646  1.00  0.00    -0.006 C 
BRANCH  19  20
ATOM     20  C   UNL     1      32.689  14.500  10.239  1.00  0.00     0.111 C 
BRANCH  20  21
ATOM     21  N   UNL     1      33.485  14.875  11.426  1.00  0.00    -0.306 NA
ATOM     22  C   UNL     1      34.923  14.797  11.121  1.00  0.00     0.105 C 
ATOM     23  C   UNL     1      33.150  16.240  11.869  1.00  0.00     0.105 C 
ENDBRANCH  20  21
ENDBRANCH  19  20
ENDBRANCH  15  18
ENDBRANCH   2  14
BRANCH   5  24
ATOM     24  N   UNL     1      25.596   9.075   9.669  1.00  0.00    -0.354 N 
ATOM     25  H   UNL     1      25.180   8.480   8.917  1.00  0.00     0.167 HD
BRANCH  24  26
ATOM     26  C   UNL     1      27.027   9.122   9.816  1.00  0.00     0.040 A 
ATOM     27  C   UNL     1      27.623   8.522  10.934  1.00  0.00     0.030 A 
ATOM     28  C   UNL     1      27.848   9.741   8.855  1.00  0.00     0.050 A 
ATOM     29  C   UNL     1      29.011   8.535  11.093  1.00  0.00     0.050 A 
ATOM     30  C   UNL     1      29.238   9.753   9.011  1.00  0.00     0.085 A 
ATOM     31  C   UNL     1      29.834   9.145  10.126  1.00  0.00     0.138 A 
ATOM     32  Cl  UNL     1      30.229  10.527   7.784  1.00  0.00    -0.080 Cl
BRANCH  31  33
ATOM     33  O   UNL     1      31.234   9.168  10.236  1.00  0.00    -0.486 OA
BRANCH  33  34
ATOM     34  C   UNL     1      32.008  10.260  10.736  1.00  0.00     0.285 C 
BRANCH  34  35
ATOM     35  C   UNL     1      33.428  10.177  10.252  1.00  0.00     0.078 A 
ATOM     36  C   UNL     1      34.430  10.966  10.835  1.00  0.00     0.027 A 
ATOM     37  N   UNL     1      33.750   9.305   9.257  1.00  0.00    -0.258 NA
ATOM     38  C   UNL     1      35.742  10.859  10.370  1.00  0.00     0.004 A 
ATOM     39  C   UNL     1      35.023   9.185   8.793  1.00  0.00     0.111 A 
ATOM     40  C   UNL     1      36.044   9.964   9.341  1.00  0.00     0.020 A 
ENDBRANCH  34  35
ENDBRANCH  33  34
ENDBRANCH  31  33
ENDBRANCH  24  26
ENDBRANCH   5  24
BRANCH   6  41
ATOM     41  C   UNL     1      23.144   8.010  10.688  1.00  0.00     0.103 C 
ATOM     42  N   UNL     1      22.858   6.903  10.510  1.00  0.00    -0.192 NA
ENDBRANCH   6  41
TORSDOF 12
ENDMDL
MODEL 2
REMARK VINA RESULT:    -8.995      2.079      7.980
REMARK INTER + INTRA:         -16.471
REMARK INTER:                 -14.442
REMARK INTRA:                  -2.029
REMARK UNBOUND:                -1.166
REMARK SMILES CCOc1cc2ncc(C#N)c(Nc3ccc(OCc4ccccn4)c(Cl)c3)c2cc1NC(=O)/C=C/CN(C)C
REMARK SMILES IDX 4 1 31 2 30 3 29 4 12 5 9 6 8 7 7 8 6 9 5 10 3 11 2 12 1 13
REMARK SMILES IDX 32 14 33 15 34 17 35 18 36 19 37 20 38 21 39 22 40 23 13 24
REMARK SMILES IDX 14 26 15 27 28 28 16 29 26 30 17 31 27 32 18 33 19 34 20 35
REMARK SMILES IDX 21 36 25 37 22 38 24 39 23 40 10 41 11 42
REMARK H PARENT 32 16 13 25
REMARK Flexibility Score: inf
ROOT
ATOM      1  C   UNL     1      33.619  13.478  11.196  1.00  0.00     0.144 A 
ATOM      2  C   UNL     1      32.460  13.397  10.398  1.00  0.00     0.084 A 
ATOM      3  C   UNL     1      32.216  12.251   9.629  1.00  0.00     0.042 A 
ATOM      4  C   UNL     1      33.147  11.200   9.593  1.00  0.00     0.027 A 
ATOM      5  C   UNL     1      32.944  10.046   8.808  1.00  0.00     0.068 A 
ATOM      6  C   UNL     1      33.929   9.041   8.788  1.00  0.00     0.094 A 
ATOM      7  C   UNL     1      35.083   9.194   9.562  1.00  0.00     0.133 A 
ATOM      8  N   UNL     1      35.253  10.305  10.323  1.00  0.00    -0.255 NA
ATOM      9  C   UNL     1      34.330  11.303  10.359  1.00  0.00     0.076 A 
ATOM     10  C   UNL     1      34.554  12.426  11.159  1.00  0.00     0.077 A 
ENDROOT
BRANCH   1  11
ATOM     11  O   UNL     1      33.789  14.600  12.027  1.00  0.00    -0.492 OA
BRANCH  11  12
ATOM     12  C   UNL     1      34.417  15.828  11.659  1.00  0.00     0.226 C 
ATOM     13  C   UNL     1      33.603  17.019  12.153  1.00  0.00     0.049 C 
ENDBRANCH  11  12
ENDBRANCH   1  11
BRANCH   2  14
ATOM     14  N   UNL     1      31.496  14.463  10.382  1.00  0.00    -0.319 N 
ATOM     15  C   UNL     1      30.411  14.547  11.318  1.00  0.00     0.248 C 
ATOM     16  H   UNL     1      31.667  15.273   9.743  1.00  0.00     0.170 HD
ATOM     17  O   UNL     1      30.371  13.772  12.314  1.00  0.00    -0.270 OA
BRANCH  15  18
ATOM     18  C   UNL     1      29.358  15.562  11.125  1.00  0.00     0.068 C 
ATOM     19  C   UNL     1      28.058  15.274  11.245  1.00  0.00    -0.006 C 
BRANCH  19  20
ATOM     20  C   UNL     1      27.013  16.333  11.038  1.00  0.00     0.111 C 
BRANCH  20  21
ATOM     21  N   UNL     1      26.269  16.579  12.292  1.00  0.00    -0.306 NA
ATOM     22  C   UNL     1      26.828  17.747  12.993  1.00  0.00     0.105 C 
ATOM     23  C   UNL     1      24.840  16.808  12.015  1.00  0.00     0.105 C 
ENDBRANCH  20  21
ENDBRANCH  19  20
ENDBRANCH  15  18
ENDBRANCH   2  14
BRANCH   5  24
ATOM     24  N   UNL     1      31.743   9.881   8.039  1.00  0.00    -0.354 N 
ATOM     25  H   UNL     1      31.832   9.890   6.997  1.00  0.00     0.167 HD
BRANCH  24  26
ATOM     26  C   UNL     1      30.469   9.572   8.632  1.00  0.00     0.040 A 
ATOM     27  C   UNL     1      29.294   9.847   7.920  1.00  0.00     0.030 A 
ATOM     28  C   UNL     1      30.373   8.983   9.906  1.00  0.00     0.050 A 
ATOM     29  C   UNL     1      28.044   9.539   8.463  1.00  0.00     0.050 A 
ATOM     30  C   UNL     1      29.122   8.670  10.452  1.00  0.00     0.085 A 
ATOM     31  C   UNL     1      27.947   8.939   9.733  1.00  0.00     0.138 A 
ATOM     32  Cl  UNL     1      29.045   7.925  12.041  1.00  0.00    -0.080 Cl
BRANCH  31  33
ATOM     33  O   UNL     1      26.713   8.597  10.312  1.00  0.00    -0.486 OA
BRANCH  33  34
ATOM     34  C   UNL     1      25.429   8.887   9.758  1.00  0.00     0.285 C 
BRANCH  34  35
ATOM     35  C   UNL     1      24.827  10.101  10.407  1.00  0.00     0.078 A 
ATOM     36  C   UNL     1      25.501  11.331  10.389  1.00  0.00     0.027 A 
ATOM     37  N   UNL     1      23.601  10.013  10.993  1.00  0.00    -0.258 NA
ATOM     38  C   UNL     1      24.911  12.444  10.991  1.00  0.00     0.004 A 
ATOM     39  C   UNL     1      23.009  11.086  11.582  1.00  0.00     0.111 A 
ATOM     40  C   UNL     1      23.657  12.324  11.594  1.00  0.00     0.020 A 
ENDBRANCH  34  35
ENDBRANCH  33  34
ENDBRANCH  31  33
ENDBRANCH  24  26
ENDBRANCH   5  24
BRANCH   6  41
ATOM     41  C   UNL     1      33.755   7.847   7.998  1.00  0.00     0.103 C 
ATOM     42  N   UNL     1      33.615   6.888   7.366  1.00  0.00    -0.192 NA
ENDBRANCH   6  41
TORSDOF 12
ENDMDL
MODEL 3
REMARK VINA RESULT:    -8.825      2.461      5.928
REMARK INTER + INTRA:         -16.182
REMARK INTER:                 -14.212
REMARK INTRA:                  -1.970
REMARK UNBOUND:                -1.166
REMARK SMILES CCOc1cc2ncc(C#N)c(Nc3ccc(OCc4ccccn4)c(Cl)c3)c2cc1NC(=O)/C=C/CN(C)C
REMARK SMILES IDX 4 1 31 2 30 3 29 4 12 5 9 6 8 7 7 8 6 9 5 10 3 11 2 12 1 13
REMARK SMILES IDX 32 14 33 15 34 17 35 18 36 19 37 20 38 21 39 22 40 23 13 24
REMARK SMILES IDX 14 26 15 27 28 28 16 29 26 30 17 31 27 32 18 33 19 34 20 35
REMARK SMILES IDX 21 36 25 37 22 38 24 39 23 40 10 41 11 42
REMARK H PARENT 32 16 13 25
REMARK Flexibility Score: inf
ROOT
ATOM      1  C   UNL     1      25.367  10.386  10.426  1.00  0.00     0.144 A 
ATOM      2  C   UNL     1      26.576  10.777   9.815  1.00  0.00     0.084 A 
ATOM      3  C   UNL     1      26.995  12.113   9.880  1.00  0.00     0.042 A 
ATOM      4  C   UNL     1      26.193  13.087  10.496  1.00  0.00     0.027 A 
ATOM      5  C   UNL     1      26.573  14.444  10.554  1.00  0.00     0.068 A 
ATOM      6  C   UNL     1      25.711  15.379  11.156  1.00  0.00     0.094 A 
ATOM      7  C   UNL     1      24.501  14.944  11.705  1.00  0.00     0.133 A 
ATOM      8  N   UNL     1      24.159  13.632  11.653  1.00  0.00    -0.255 NA
ATOM      9  C   UNL     1      24.960  12.701  11.069  1.00  0.00     0.076 A 
ATOM     10  C   UNL     1      24.561  11.363  11.042  1.00  0.00     0.077 A 
ENDROOT
BRANCH   1  11
ATOM     11  O   UNL     1      25.020   9.024  10.424  1.00  0.00    -0.492 OA
BRANCH  11  12
ATOM     12  C   UNL     1      23.770   8.478  10.004  1.00  0.00     0.226 C 
ATOM     13  C   UNL     1      23.439   7.217  10.793  1.00  0.00     0.049 C 
ENDBRANCH  11  12
ENDBRANCH   1  11
BRANCH   2  14
ATOM     14  N   UNL     1      27.412   9.818   9.148  1.00  0.00    -0.319 N 
ATOM     15  C   UNL     1      28.503   9.148   9.798  1.00  0.00     0.248 C 
ATOM     16  H   UNL     1      27.137   9.505   8.189  1.00  0.00     0.170 HD
ATOM     17  O   UNL     1      28.652   9.247  11.048  1.00  0.00    -0.270 OA
BRANCH  15  18
ATOM     18  C   UNL     1      29.430   8.321   9.003  1.00  0.00     0.068 C 
ATOM     19  C   UNL     1      30.527   7.770   9.531  1.00  0.00    -0.006 C 
BRANCH  19  20
ATOM     20  C   UNL     1      31.451   6.936   8.690  1.00  0.00     0.111 C 
BRANCH  20  21
ATOM     21  N   UNL     1      32.861   7.263   8.988  1.00  0.00    -0.306 NA
ATOM     22  C   UNL     1      33.721   6.884   7.855  1.00  0.00     0.105 C 
ATOM     23  C   UNL     1      33.017   8.702   9.264  1.00  0.00     0.105 C 
ENDBRANCH  20  21
ENDBRANCH  19  20
ENDBRANCH  15  18
ENDBRANCH   2  14
BRANCH   5  24
ATOM     24  N   UNL     1      27.830  14.879  10.015  1.00  0.00    -0.354 N 
ATOM     25  H   UNL     1      27.811  15.417   9.119  1.00  0.00     0.167 HD
BRANCH  24  26
ATOM     26  C   UNL     1      29.078  14.729  10.718  1.00  0.00     0.040 A 
ATOM     27  C   UNL     1      30.095  13.947  10.153  1.00  0.00     0.030 A 
ATOM     28  C   UNL     1      29.309  15.362  11.953  1.00  0.00     0.050 A 
ATOM     29  C   UNL     1      31.323  13.800  10.803  1.00  0.00     0.050 A 
ATOM     30  C   UNL     1      30.539  15.218  12.605  1.00  0.00     0.085 A 
ATOM     31  C   UNL     1      31.559  14.442  12.034  1.00  0.00     0.138 A 
ATOM     32  Cl  UNL     1      30.793  16.034  14.140  1.00  0.00    -0.080 Cl
BRANCH  31  33
ATOM     33  O   UNL     1      32.783  14.336  12.715  1.00  0.00    -0.486 OA
BRANCH  33  34
ATOM     34  C   UNL     1      34.069  14.623  12.162  1.00  0.00     0.285 C 
BRANCH  34  35
ATOM     35  C   UNL     1      34.618  13.430  11.434  1.00  0.00     0.078 A 
ATOM     36  C   UNL     1      35.264  13.580  10.198  1.00  0.00     0.027 A 
ATOM     37  N   UNL     1      34.516  12.193  11.995  1.00  0.00    -0.258 NA
ATOM     38  C   UNL     1      35.775  12.453   9.551  1.00  0.00     0.004 A 
ATOM     39  C   UNL     1      35.009  11.084  11.381  1.00  0.00     0.111 A 
ATOM     40  C   UNL     1      35.647  11.195  10.143  1.00  0.00     0.020 A 
ENDBRANCH  34  35
ENDBRANCH  33  34
ENDBRANCH  31  33
ENDBRANCH  24  26
ENDBRANCH   5  24
BRANCH   6  41
ATOM     41  C   UNL     1      26.067  16.774  11.235  1.00  0.00     0.103 C 
ATOM     42  N   UNL     1      26.351  17.894  11.296  1.00  0.00    -0.192 NA
ENDBRANCH   6  41
TORSDOF 12
ENDMDL
MODEL 4
REMARK VINA RESULT:    -8.780      2.637      8.518
REMARK INTER + INTRA:         -16.105
REMARK INTER:                 -14.211
REMARK INTRA:                  -1.894
REMARK UNBOUND:                -1.166
REMARK SMILES CCOc1cc2ncc(C#N)c(Nc3ccc(OCc4ccccn4)c(Cl)c3)c2cc1NC(=O)/C=C/CN(C)C
REMARK SMILES IDX 4 1 31 2 30 3 29 4 12 5 9 6 8 7 7 8 6 9 5 10 3 11 2 12 1 13
REMARK SMILES IDX 32 14 33 15 34 17 35 18 36 19 37 20 38 21 39 22 40 23 13 24
REMARK SMILES IDX 14 26 15 27 28 28 16 29 26 30 17 31 27 32 18 33 19 34 20 35
REMARK SMILES IDX 21 36 25 37 22 38 24 39 23 40 10 41 11 42
REMARK H PARENT 32 16 13 25
REMARK Flexibility Score: inf
ROOT
ATOM      1  C   UNL     1      35.282  11.867   8.077  1.00  0.00     0.144 A 
ATOM      2  C   UNL     1      34.245  11.791   9.030  1.00  0.00     0.084 A 
ATOM      3  C   UNL     1      33.606  10.569   9.277  1.00  0.00     0.042 A 
ATOM      4  C   UNL     1      33.945   9.422   8.540  1.00  0.00     0.027 A 
ATOM      5  C   UNL     1      33.302   8.183   8.745  1.00  0.00     0.068 A 
ATOM      6  C   UNL     1      33.662   7.078   7.953  1.00  0.00     0.094 A 
ATOM      7  C   UNL     1      34.665   7.220   6.989  1.00  0.00     0.133 A 
ATOM      8  N   UNL     1      35.282   8.416   6.816  1.00  0.00    -0.255 NA
ATOM      9  C   UNL     1      34.954   9.510   7.554  1.00  0.00     0.076 A 
ATOM     10  C   UNL     1      35.620  10.718   7.337  1.00  0.00     0.077 A 
ENDROOT
BRANCH   1  11
ATOM     11  O   UNL     1      35.965  13.086   7.919  1.00  0.00    -0.492 OA
BRANCH  11  12
ATOM     12  C   UNL     1      37.283  13.373   8.383  1.00  0.00     0.226 C 
ATOM     13  C   UNL     1      37.258  14.481   9.430  1.00  0.00     0.049 C 
ENDBRANCH  11  12
ENDBRANCH   1  11
BRANCH   2  14
ATOM     14  N   UNL     1      33.847  12.948   9.784  1.00  0.00    -0.319 N 
ATOM     15  C   UNL     1      34.295  13.197  11.125  1.00  0.00     0.248 C 
ATOM     16  H   UNL     1      33.311  13.698   9.291  1.00  0.00     0.170 HD
ATOM     17  O   UNL     1      35.211  12.488  11.628  1.00  0.00    -0.270 OA
BRANCH  15  18
ATOM     18  C   UNL     1      33.700  14.301  11.900  1.00  0.00     0.068 C 
ATOM     19  C   UNL     1      32.614  14.961  11.486  1.00  0.00    -0.006 C 
BRANCH  19  20
ATOM     20  C   UNL     1      32.037  16.083  12.301  1.00  0.00     0.111 C 
BRANCH  20  21
ATOM     21  N   UNL     1      30.657  15.763  12.722  1.00  0.00    -0.306 NA
ATOM     22  C   UNL     1      30.534  15.869  14.185  1.00  0.00     0.105 C 
ATOM     23  C   UNL     1      29.691  16.671  12.080  1.00  0.00     0.105 C 
ENDBRANCH  20  21
ENDBRANCH  19  20
ENDBRANCH  15  18
ENDBRANCH   2  14
BRANCH   5  24
ATOM     24  N   UNL     1      32.294   8.036   9.756  1.00  0.00    -0.354 N 
ATOM     25  H   UNL     1      32.584   7.619  10.670  1.00  0.00     0.167 HD
BRANCH  24  26
ATOM     26  C   UNL     1      30.960   8.557   9.615  1.00  0.00     0.040 A 
ATOM     27  C   UNL     1      30.072   7.941   8.722  1.00  0.00     0.030 A 
ATOM     28  C   UNL     1      30.517   9.663  10.363  1.00  0.00     0.050 A 
ATOM     29  C   UNL     1      28.765   8.413   8.578  1.00  0.00     0.050 A 
ATOM     30  C   UNL     1      29.208  10.137  10.224  1.00  0.00     0.085 A 
ATOM     31  C   UNL     1      28.318   9.513   9.336  1.00  0.00     0.138 A 
ATOM     32  Cl  UNL     1      28.689  11.513  11.185  1.00  0.00    -0.080 Cl
BRANCH  31  33
ATOM     33  O   UNL     1      27.008  10.012   9.236  1.00  0.00    -0.486 OA
BRANCH  33  34
ATOM     34  C   UNL     1      25.829   9.343   9.687  1.00  0.00     0.285 C 
BRANCH  34  35
ATOM     35  C   UNL     1      24.918  10.290  10.413  1.00  0.00     0.078 A 
ATOM     36  C   UNL     1      25.257  11.644  10.552  1.00  0.00     0.027 A 
ATOM     37  N   UNL     1      23.736   9.837  10.915  1.00  0.00    -0.258 NA
ATOM     38  C   UNL     1      24.384  12.503  11.222  1.00  0.00     0.004 A 
ATOM     39  C   UNL     1      22.872  10.659  11.568  1.00  0.00     0.111 A 
ATOM     40  C   UNL     1      23.183  12.010  11.737  1.00  0.00     0.020 A 
ENDBRANCH  34  35
ENDBRANCH  33  34
ENDBRANCH  31  33
ENDBRANCH  24  26
ENDBRANCH   5  24
BRANCH   6  41
ATOM     41  C   UNL     1      33.028   5.795   8.134  1.00  0.00     0.103 C 
ATOM     42  N   UNL     1      32.520   4.765   8.279  1.00  0.00    -0.192 NA
ENDBRANCH   6  41
TORSDOF 12
ENDMDL
MODEL 5
REMARK VINA RESULT:    -8.740      5.526     12.181
REMARK INTER + INTRA:         -16.038
REMARK INTER:                 -14.415
REMARK INTRA:                  -1.622
REMARK UNBOUND:                -1.166
REMARK SMILES CCOc1cc2ncc(C#N)c(Nc3ccc(OCc4ccccn4)c(Cl)c3)c2cc1NC(=O)/C=C/CN(C)C
REMARK SMILES IDX 4 1 31 2 30 3 29 4 12 5 9 6 8 7 7 8 6 9 5 10 3 11 2 12 1 13
REMARK SMILES IDX 32 14 33 15 34 17 35 18 36 19 37 20 38 21 39 22 40 23 13 24
REMARK SMILES IDX 14 26 15 27 28 28 16 29 26 30 17 31 27 32 18 33 19 34 20 35
REMARK SMILES IDX 21 36 25 37 22 38 24 39 23 40 10 41 11 42
REMARK H PARENT 32 16 13 25
REMARK Flexibility Score: inf
ROOT
ATOM      1  C   UNL     1      35.718   7.547   3.882  1.00  0.00     0.144 A 
ATOM      2  C   UNL     1      35.154   6.753   4.901  1.00  0.00     0.084 A 
ATOM      3  C   UNL     1      35.010   7.270   6.196  1.00  0.00     0.042 A 
ATOM      4  C   UNL     1      35.479   8.556   6.509  1.00  0.00     0.027 A 
ATOM      5  C   UNL     1      35.374   9.096   7.809  1.00  0.00     0.068 A 
ATOM      6  C   UNL     1      35.892  10.377   8.070  1.00  0.00     0.094 A 
ATOM      7  C   UNL     1      36.484  11.103   7.032  1.00  0.00     0.133 A 
ATOM      8  N   UNL     1      36.563  10.574   5.785  1.00  0.00    -0.255 NA
ATOM      9  C   UNL     1      36.084   9.334   5.497  1.00  0.00     0.076 A 
ATOM     10  C   UNL     1      36.190   8.836   4.197  1.00  0.00     0.077 A 
ENDROOT
BRANCH   1  11
ATOM     11  O   UNL     1      35.764   7.033   2.574  1.00  0.00    -0.492 OA
BRANCH  11  12
ATOM     12  C   UNL     1      36.925   6.943   1.749  1.00  0.00     0.226 C 
ATOM     13  C   UNL     1      37.678   5.645   2.017  1.00  0.00     0.049 C 
ENDBRANCH  11  12
ENDBRANCH   1  11
BRANCH   2  14
ATOM     14  N   UNL     1      34.689   5.421   4.630  1.00  0.00    -0.319 N 
ATOM     15  C   UNL     1      35.538   4.266   4.715  1.00  0.00     0.248 C 
ATOM     16  H   UNL     1      33.663   5.274   4.488  1.00  0.00     0.170 HD
ATOM     17  O   UNL     1      36.694   4.365   5.213  1.00  0.00    -0.270 OA
BRANCH  15  18
ATOM     18  C   UNL     1      35.043   2.959   4.243  1.00  0.00     0.068 C 
ATOM     19  C   UNL     1      35.827   2.087   3.603  1.00  0.00    -0.006 C 
BRANCH  19  20
ATOM     20  C   UNL     1      35.288   0.766   3.134  1.00  0.00     0.111 C 
BRANCH  20  21
ATOM     21  N   UNL     1      35.482   0.614   1.677  1.00  0.00    -0.306 NA
ATOM     22  C   UNL     1      36.596  -0.309   1.405  1.00  0.00     0.105 C 
ATOM     23  C   UNL     1      34.255   0.107   1.037  1.00  0.00     0.105 C 
ENDBRANCH  20  21
ENDBRANCH  19  20
ENDBRANCH  15  18
ENDBRANCH   2  14
BRANCH   5  24
ATOM     24  N   UNL     1      34.737   8.357   8.862  1.00  0.00    -0.354 N 
ATOM     25  H   UNL     1      35.353   7.825   9.519  1.00  0.00     0.167 HD
BRANCH  24  26
ATOM     26  C   UNL     1      33.325   8.431   9.129  1.00  0.00     0.040 A 
ATOM     27  C   UNL     1      32.535   7.283   8.976  1.00  0.00     0.030 A 
ATOM     28  C   UNL     1      32.717   9.626   9.556  1.00  0.00     0.050 A 
ATOM     29  C   UNL     1      31.165   7.321   9.246  1.00  0.00     0.050 A 
ATOM     30  C   UNL     1      31.345   9.666   9.830  1.00  0.00     0.085 A 
ATOM     31  C   UNL     1      30.558   8.514   9.685  1.00  0.00     0.138 A 
ATOM     32  Cl  UNL     1      30.626  11.174  10.373  1.00  0.00    -0.080 Cl
BRANCH  31  33
ATOM     33  O   UNL     1      29.187   8.595   9.984  1.00  0.00    -0.486 OA
BRANCH  33  34
ATOM     34  C   UNL     1      28.142   7.929   9.272  1.00  0.00     0.285 C 
BRANCH  34  35
ATOM     35  C   UNL     1      26.799   8.482   9.651  1.00  0.00     0.078 A 
ATOM     36  C   UNL     1      25.701   7.630   9.840  1.00  0.00     0.027 A 
ATOM     37  N   UNL     1      26.651   9.823   9.843  1.00  0.00    -0.258 NA
ATOM     38  C   UNL     1      24.467   8.172  10.203  1.00  0.00     0.004 A 
ATOM     39  C   UNL     1      25.458  10.369  10.199  1.00  0.00     0.111 A 
ATOM     40  C   UNL     1      24.340   9.551  10.383  1.00  0.00     0.020 A 
ENDBRANCH  34  35
ENDBRANCH  33  34
ENDBRANCH  31  33
ENDBRANCH  24  26
ENDBRANCH   5  24
BRANCH   6  41
ATOM     41  C   UNL     1      35.801  10.961   9.385  1.00  0.00     0.103 C 
ATOM     42  N   UNL     1      35.731  11.429  10.441  1.00  0.00    -0.192 NA
ENDBRANCH   6  41
TORSDOF 12
ENDMDL
MODEL 6
REMARK VINA RESULT:    -8.726      1.909      8.328
REMARK INTER + INTRA:         -16.014
REMARK INTER:                 -14.280
REMARK INTRA:                  -1.734
REMARK UNBOUND:                -1.166
REMARK SMILES CCOc1cc2ncc(C#N)c(Nc3ccc(OCc4ccccn4)c(Cl)c3)c2cc1NC(=O)/C=C/CN(C)C
REMARK SMILES IDX 4 1 31 2 30 3 29 4 12 5 9 6 8 7 7 8 6 9 5 10 3 11 2 12 1 13
REMARK SMILES IDX 32 14 33 15 34 17 35 18 36 19 37 20 38 21 39 22 40 23 13 24
REMARK SMILES IDX 14 26 15 27 28 28 16 29 26 30 17 31 27 32 18 33 19 34 20 35
REMARK SMILES IDX 21 36 25 37 22 38 24 39 23 40 10 41 11 42
REMARK H PARENT 32 16 13 25
REMARK Flexibility Score: inf
ROOT
ATOM      1  C   UNL     1      34.030  13.364  11.163  1.00  0.00     0.144 A 
ATOM      2  C   UNL     1      32.881  13.263  10.353  1.00  0.00     0.084 A 
ATOM      3  C   UNL     1      32.674  12.122   9.566  1.00  0.00     0.042 A 
ATOM      4  C   UNL     1      33.634  11.097   9.525  1.00  0.00     0.027 A 
ATOM      5  C   UNL     1      33.469   9.949   8.722  1.00  0.00     0.068 A 
ATOM      6  C   UNL     1      34.480   8.971   8.697  1.00  0.00     0.094 A 
ATOM      7  C   UNL     1      35.622   9.144   9.484  1.00  0.00     0.133 A 
ATOM      8  N   UNL     1      35.757  10.248  10.262  1.00  0.00    -0.255 NA
ATOM      9  C   UNL     1      34.806  11.220  10.303  1.00  0.00     0.076 A 
ATOM     10  C   UNL     1      34.993  12.337  11.121  1.00  0.00     0.077 A 
ENDROOT
BRANCH   1  11
ATOM     11  O   UNL     1      34.163  14.478  12.011  1.00  0.00    -0.492 OA
BRANCH  11  12
ATOM     12  C   UNL     1      34.642  15.767  11.631  1.00  0.00     0.226 C 
ATOM     13  C   UNL     1      36.163  15.773  11.541  1.00  0.00     0.049 C 
ENDBRANCH  11  12
ENDBRANCH   1  11
BRANCH   2  14
ATOM     14  N   UNL     1      31.889  14.303  10.342  1.00  0.00    -0.319 N 
ATOM     15  C   UNL     1      30.665  14.221  11.088  1.00  0.00     0.248 C 
ATOM     16  H   UNL     1      32.126  15.206   9.872  1.00  0.00     0.170 HD
ATOM     17  O   UNL     1      30.499  13.298  11.933  1.00  0.00    -0.270 OA
BRANCH  15  18
ATOM     18  C   UNL     1      29.616  15.237  10.883  1.00  0.00     0.068 C 
ATOM     19  C   UNL     1      28.343  15.031  11.233  1.00  0.00    -0.006 C 
BRANCH  19  20
ATOM     20  C   UNL     1      27.300  16.087  11.006  1.00  0.00     0.111 C 
BRANCH  20  21
ATOM     21  N   UNL     1      25.958  15.478  10.904  1.00  0.00    -0.306 NA
ATOM     22  C   UNL     1      26.064  14.009  10.916  1.00  0.00     0.105 C 
ATOM     23  C   UNL     1      25.098  15.918  12.016  1.00  0.00     0.105 C 
ENDBRANCH  20  21
ENDBRANCH  19  20
ENDBRANCH  15  18
ENDBRANCH   2  14
BRANCH   5  24
ATOM     24  N   UNL     1      32.280   9.763   7.939  1.00  0.00    -0.354 N 
ATOM     25  H   UNL     1      32.392   9.686   6.902  1.00  0.00     0.167 HD
BRANCH  24  26
ATOM     26  C   UNL     1      30.983   9.543   8.524  1.00  0.00     0.040 A 
ATOM     27  C   UNL     1      30.785   8.436   9.360  1.00  0.00     0.030 A 
ATOM     28  C   UNL     1      29.910  10.423   8.291  1.00  0.00     0.050 A 
ATOM     29  C   UNL     1      29.543   8.209   9.957  1.00  0.00     0.050 A 
ATOM     30  C   UNL     1      28.666  10.199   8.889  1.00  0.00     0.085 A 
ATOM     31  C   UNL     1      28.472   9.095   9.733  1.00  0.00     0.138 A 
ATOM     32  Cl  UNL     1      27.354  11.327   8.582  1.00  0.00    -0.080 Cl
BRANCH  31  33
ATOM     33  O   UNL     1      27.210   8.916  10.325  1.00  0.00    -0.486 OA
BRANCH  33  34
ATOM     34  C   UNL     1      26.020   8.528   9.637  1.00  0.00     0.285 C 
BRANCH  34  35
ATOM     35  C   UNL     1      24.805   9.119  10.292  1.00  0.00     0.078 A 
ATOM     36  C   UNL     1      23.638   8.358  10.456  1.00  0.00     0.027 A 
ATOM     37  N   UNL     1      24.846  10.397  10.760  1.00  0.00    -0.258 NA
ATOM     38  C   UNL     1      22.528   8.931  11.079  1.00  0.00     0.004 A 
ATOM     39  C   UNL     1      23.776  10.972  11.371  1.00  0.00     0.111 A 
ATOM     40  C   UNL     1      22.593  10.248  11.540  1.00  0.00     0.020 A 
ENDBRANCH  34  35
ENDBRANCH  33  34
ENDBRANCH  31  33
ENDBRANCH  24  26
ENDBRANCH   5  24
BRANCH   6  41
ATOM     41  C   UNL     1      34.346   7.784   7.890  1.00  0.00     0.103 C 
ATOM     42  N   UNL     1      34.237   6.832   7.241  1.00  0.00    -0.192 NA
ENDBRANCH   6  41
TORSDOF 12
ENDMDL
MODEL 7
REMARK VINA RESULT:    -8.711      2.518      8.260
REMARK INTER + INTRA:         -15.988
REMARK INTER:                 -14.386
REMARK INTRA:                  -1.602
REMARK UNBOUND:                -1.166
REMARK SMILES CCOc1cc2ncc(C#N)c(Nc3ccc(OCc4ccccn4)c(Cl)c3)c2cc1NC(=O)/C=C/CN(C)C
REMARK SMILES IDX 4 1 31 2 30 3 29 4 12 5 9 6 8 7 7 8 6 9 5 10 3 11 2 12 1 13
REMARK SMILES IDX 32 14 33 15 34 17 35 18 36 19 37 20 38 21 39 22 40 23 13 24
REMARK SMILES IDX 14 26 15 27 28 28 16 29 26 30 17 31 27 32 18 33 19 34 20 35
REMARK SMILES IDX 21 36 25 37 22 38 24 39 23 40 10 41 11 42
REMARK H PARENT 32 16 13 25
REMARK Flexibility Score: inf
ROOT
ATOM      1  C   UNL     1      35.298  11.768   9.704  1.00  0.00     0.144 A 
ATOM      2  C   UNL     1      34.076  11.547  10.371  1.00  0.00     0.084 A 
ATOM      3  C   UNL     1      33.415  10.319  10.238  1.00  0.00     0.042 A 
ATOM      4  C   UNL     1      33.925   9.318   9.395  1.00  0.00     0.027 A 
ATOM      5  C   UNL     1      33.270   8.081   9.217  1.00  0.00     0.068 A 
ATOM      6  C   UNL     1      33.814   7.131   8.333  1.00  0.00     0.094 A 
ATOM      7  C   UNL     1      35.005   7.420   7.661  1.00  0.00     0.133 A 
ATOM      8  N   UNL     1      35.629   8.610   7.856  1.00  0.00    -0.255 NA
ATOM      9  C   UNL     1      35.128   9.558   8.693  1.00  0.00     0.076 A 
ATOM     10  C   UNL     1      35.810  10.766   8.858  1.00  0.00     0.077 A 
ENDROOT
BRANCH   1  11
ATOM     11  O   UNL     1      35.982  12.975   9.932  1.00  0.00    -0.492 OA
BRANCH  11  12
ATOM     12  C   UNL     1      36.245  13.985   8.959  1.00  0.00     0.226 C 
ATOM     13  C   UNL     1      34.977  14.768   8.638  1.00  0.00     0.049 C 
ENDBRANCH  11  12
ENDBRANCH   1  11
BRANCH   2  14
ATOM     14  N   UNL     1      33.503  12.555  11.220  1.00  0.00    -0.319 N 
ATOM     15  C   UNL     1      32.373  13.352  10.831  1.00  0.00     0.248 C 
ATOM     16  H   UNL     1      33.844  12.624  12.206  1.00  0.00     0.170 HD
ATOM     17  O   UNL     1      31.725  13.064   9.787  1.00  0.00    -0.270 OA
BRANCH  15  18
ATOM     18  C   UNL     1      31.958  14.490  11.672  1.00  0.00     0.068 C 
ATOM     19  C   UNL     1      30.719  14.605  12.158  1.00  0.00    -0.006 C 
BRANCH  19  20
ATOM     20  C   UNL     1      30.331  15.780  13.010  1.00  0.00     0.111 C 
BRANCH  20  21
ATOM     21  N   UNL     1      29.373  16.647  12.292  1.00  0.00    -0.306 NA
ATOM     22  C   UNL     1      28.551  15.844  11.371  1.00  0.00     0.105 C 
ATOM     23  C   UNL     1      28.497  17.356  13.241  1.00  0.00     0.105 C 
ENDBRANCH  20  21
ENDBRANCH  19  20
ENDBRANCH  15  18
ENDBRANCH   2  14
BRANCH   5  24
ATOM     24  N   UNL     1      32.063   7.779   9.934  1.00  0.00    -0.354 N 
ATOM     25  H   UNL     1      32.145   7.178  10.785  1.00  0.00     0.167 HD
BRANCH  24  26
ATOM     26  C   UNL     1      30.792   8.373   9.613  1.00  0.00     0.040 A 
ATOM     27  C   UNL     1      30.737   9.416   8.677  1.00  0.00     0.030 A 
ATOM     28  C   UNL     1      29.597   7.921  10.202  1.00  0.00     0.050 A 
ATOM     29  C   UNL     1      29.515   9.997   8.332  1.00  0.00     0.050 A 
ATOM     30  C   UNL     1      28.372   8.500   9.856  1.00  0.00     0.085 A 
ATOM     31  C   UNL     1      28.317   9.538   8.913  1.00  0.00     0.138 A 
ATOM     32  Cl  UNL     1      26.900   7.900  10.606  1.00  0.00    -0.080 Cl
BRANCH  31  33
ATOM     33  O   UNL     1      27.064  10.082   8.584  1.00  0.00    -0.486 OA
BRANCH  33  34
ATOM     34  C   UNL     1      26.662  11.434   8.810  1.00  0.00     0.285 C 
BRANCH  34  35
ATOM     35  C   UNL     1      25.660  11.516   9.926  1.00  0.00     0.078 A 
ATOM     36  C   UNL     1      24.771  10.460  10.170  1.00  0.00     0.027 A 
ATOM     37  N   UNL     1      25.635  12.616  10.729  1.00  0.00    -0.258 NA
ATOM     38  C   UNL     1      23.859  10.561  11.222  1.00  0.00     0.004 A 
ATOM     39  C   UNL     1      24.756  12.732  11.759  1.00  0.00     0.111 A 
ATOM     40  C   UNL     1      23.847  11.704  12.024  1.00  0.00     0.020 A 
ENDBRANCH  34  35
ENDBRANCH  33  34
ENDBRANCH  31  33
ENDBRANCH  24  26
ENDBRANCH   5  24
BRANCH   6  41
ATOM     41  C   UNL     1      33.173   5.856   8.128  1.00  0.00     0.103 C 
ATOM     42  N   UNL     1      32.657   4.834   7.961  1.00  0.00    -0.192 NA
ENDBRANCH   6  41
TORSDOF 12
ENDMDL
MODEL 8
REMARK VINA RESULT:    -8.693      4.253     11.212
REMARK INTER + INTRA:         -15.958
REMARK INTER:                 -14.233
REMARK INTRA:                  -1.724
REMARK UNBOUND:                -1.166
REMARK SMILES CCOc1cc2ncc(C#N)c(Nc3ccc(OCc4ccccn4)c(Cl)c3)c2cc1NC(=O)/C=C/CN(C)C
REMARK SMILES IDX 4 1 31 2 30 3 29 4 12 5 9 6 8 7 7 8 6 9 5 10 3 11 2 12 1 13
REMARK SMILES IDX 32 14 33 15 34 17 35 18 36 19 37 20 38 21 39 22 40 23 13 24
REMARK SMILES IDX 14 26 15 27 28 28 16 29 26 30 17 31 27 32 18 33 19 34 20 35
REMARK SMILES IDX 21 36 25 37 22 38 24 39 23 40 10 41 11 42
REMARK H PARENT 32 16 13 25
REMARK Flexibility Score: inf
ROOT
ATOM      1  C   UNL     1      36.890   7.591   7.805  1.00  0.00     0.144 A 
ATOM      2  C   UNL     1      35.678   7.578   7.085  1.00  0.00     0.084 A 
ATOM      3  C   UNL     1      34.643   8.455   7.437  1.00  0.00     0.042 A 
ATOM      4  C   UNL     1      34.774   9.311   8.543  1.00  0.00     0.027 A 
ATOM      5  C   UNL     1      33.741  10.187   8.939  1.00  0.00     0.068 A 
ATOM      6  C   UNL     1      33.919  10.996  10.076  1.00  0.00     0.094 A 
ATOM      7  C   UNL     1      35.124  10.935  10.782  1.00  0.00     0.133 A 
ATOM      8  N   UNL     1      36.112  10.097  10.376  1.00  0.00    -0.255 NA
ATOM      9  C   UNL     1      35.973   9.291   9.290  1.00  0.00     0.076 A 
ATOM     10  C   UNL     1      37.021   8.447   8.915  1.00  0.00     0.077 A 
ENDROOT
BRANCH   1  11
ATOM     11  O   UNL     1      37.941   6.765   7.370  1.00  0.00    -0.492 OA
BRANCH  11  12
ATOM     12  C   UNL     1      38.230   5.453   7.852  1.00  0.00     0.226 C 
ATOM     13  C   UNL     1      38.512   4.502   6.694  1.00  0.00     0.049 C 
ENDBRANCH  11  12
ENDBRANCH   1  11
BRANCH   2  14
ATOM     14  N   UNL     1      35.491   6.697   5.966  1.00  0.00    -0.319 N 
ATOM     15  C   UNL     1      34.959   5.370   6.099  1.00  0.00     0.248 C 
ATOM     16  H   UNL     1      35.630   7.083   5.004  1.00  0.00     0.170 HD
ATOM     17  O   UNL     1      34.463   4.993   7.197  1.00  0.00    -0.270 OA
BRANCH  15  18
ATOM     18  C   UNL     1      34.970   4.459   4.938  1.00  0.00     0.068 C 
ATOM     19  C   UNL     1      35.336   3.178   5.039  1.00  0.00    -0.006 C 
BRANCH  19  20
ATOM     20  C   UNL     1      35.338   2.280   3.835  1.00  0.00     0.111 C 
BRANCH  20  21
ATOM     21  N   UNL     1      35.999   2.946   2.693  1.00  0.00    -0.306 NA
ATOM     22  C   UNL     1      37.424   2.577   2.644  1.00  0.00     0.105 C 
ATOM     23  C   UNL     1      35.351   2.572   1.424  1.00  0.00     0.105 C 
ENDBRANCH  20  21
ENDBRANCH  19  20
ENDBRANCH  15  18
ENDBRANCH   2  14
BRANCH   5  24
ATOM     24  N   UNL     1      32.518  10.267   8.193  1.00  0.00    -0.354 N 
ATOM     25  H   UNL     1      32.581  10.567   7.193  1.00  0.00     0.167 HD
BRANCH  24  26
ATOM     26  C   UNL     1      31.251   9.824   8.714  1.00  0.00     0.040 A 
ATOM     27  C   UNL     1      31.190   8.636   9.455  1.00  0.00     0.030 A 
ATOM     28  C   UNL     1      30.072  10.565   8.514  1.00  0.00     0.050 A 
ATOM     29  C   UNL     1      29.978   8.192   9.991  1.00  0.00     0.050 A 
ATOM     30  C   UNL     1      28.857  10.125   9.052  1.00  0.00     0.085 A 
ATOM     31  C   UNL     1      28.800   8.939   9.800  1.00  0.00     0.138 A 
ATOM     32  Cl  UNL     1      27.409  11.084   8.789  1.00  0.00    -0.080 Cl
BRANCH  31  33
ATOM     33  O   UNL     1      27.562   8.541  10.333  1.00  0.00    -0.486 OA
BRANCH  33  34
ATOM     34  C   UNL     1      26.564   7.789   9.640  1.00  0.00     0.285 C 
BRANCH  34  35
ATOM     35  C   UNL     1      25.192   8.120  10.150  1.00  0.00     0.078 A 
ATOM     36  C   UNL     1      24.793   9.454  10.318  1.00  0.00     0.027 A 
ATOM     37  N   UNL     1      24.314   7.116  10.424  1.00  0.00    -0.258 NA
ATOM     38  C   UNL     1      23.506   9.732  10.783  1.00  0.00     0.004 A 
ATOM     39  C   UNL     1      23.056   7.366  10.876  1.00  0.00     0.111 A 
ATOM     40  C   UNL     1      22.629   8.682  11.067  1.00  0.00     0.020 A 
ENDBRANCH  34  35
ENDBRANCH  33  34
ENDBRANCH  31  33
ENDBRANCH  24  26
ENDBRANCH   5  24
BRANCH   6  41
ATOM     41  C   UNL     1      32.886  11.904  10.510  1.00  0.00     0.103 C 
ATOM     42  N   UNL     1      32.058  12.634  10.858  1.00  0.00    -0.192 NA
ENDBRANCH   6  41
TORSDOF 12
ENDMDL
MODEL 9
REMARK VINA RESULT:    -8.652      2.574      6.417
REMARK INTER + INTRA:         -15.888
REMARK INTER:                 -14.035
REMARK INTRA:                  -1.852
REMARK UNBOUND:                -1.166
REMARK SMILES CCOc1cc2ncc(C#N)c(Nc3ccc(OCc4ccccn4)c(Cl)c3)c2cc1NC(=O)/C=C/CN(C)C
REMARK SMILES IDX 4 1 31 2 30 3 29 4 12 5 9 6 8 7 7 8 6 9 5 10 3 11 2 12 1 13
REMARK SMILES IDX 32 14 33 15 34 17 35 18 36 19 37 20 38 21 39 22 40 23 13 24
REMARK SMILES IDX 14 26 15 27 28 28 16 29 26 30 17 31 27 32 18 33 19 34 20 35
REMARK SMILES IDX 21 36 25 37 22 38 24 39 23 40 10 41 11 42
REMARK H PARENT 32 16 13 25
REMARK Flexibility Score: inf
ROOT
ATOM      1  C   UNL     1      25.689  10.275  10.404  1.00  0.00     0.144 A 
ATOM      2  C   UNL     1      26.883  10.706   9.792  1.00  0.00     0.084 A 
ATOM      3  C   UNL     1      27.253  12.056   9.848  1.00  0.00     0.042 A 
ATOM      4  C   UNL     1      26.415  13.004  10.458  1.00  0.00     0.027 A 
ATOM      5  C   UNL     1      26.746  14.374  10.508  1.00  0.00     0.068 A 
ATOM      6  C   UNL     1      25.850  15.281  11.104  1.00  0.00     0.094 A 
ATOM      7  C   UNL     1      24.657  14.806  11.655  1.00  0.00     0.133 A 
ATOM      8  N   UNL     1      24.362  13.481  11.611  1.00  0.00    -0.255 NA
ATOM      9  C   UNL     1      25.197  12.577  11.034  1.00  0.00     0.076 A 
ATOM     10  C   UNL     1      24.847  11.224  11.015  1.00  0.00     0.077 A 
ENDROOT
BRANCH   1  11
ATOM     11  O   UNL     1      25.392   8.900  10.411  1.00  0.00    -0.492 OA
BRANCH  11  12
ATOM     12  C   UNL     1      24.352   8.264   9.669  1.00  0.00     0.226 C 
ATOM     13  C   UNL     1      23.107   8.083  10.530  1.00  0.00     0.049 C 
ENDBRANCH  11  12
ENDBRANCH   1  11
BRANCH   2  14
ATOM     14  N   UNL     1      27.754   9.774   9.130  1.00  0.00    -0.319 N 
ATOM     15  C   UNL     1      28.819   9.088   9.805  1.00  0.00     0.248 C 
ATOM     16  H   UNL     1      27.522   9.491   8.150  1.00  0.00     0.170 HD
ATOM     17  O   UNL     1      28.913   9.146  11.063  1.00  0.00    -0.270 OA
BRANCH  15  18
ATOM     18  C   UNL     1      29.785   8.292   9.025  1.00  0.00     0.068 C 
ATOM     19  C   UNL     1      30.992   7.968   9.499  1.00  0.00    -0.006 C 
BRANCH  19  20
ATOM     20  C   UNL     1      31.952   7.159   8.675  1.00  0.00     0.111 C 
BRANCH  20  21
ATOM     21  N   UNL     1      33.086   7.996   8.228  1.00  0.00    -0.306 NA
ATOM     22  C   UNL     1      33.586   8.813   9.346  1.00  0.00     0.105 C 
ATOM     23  C   UNL     1      34.178   7.158   7.703  1.00  0.00     0.105 C 
ENDBRANCH  20  21
ENDBRANCH  19  20
ENDBRANCH  15  18
ENDBRANCH   2  14
BRANCH   5  24
ATOM     24  N   UNL     1      27.987  14.852   9.966  1.00  0.00    -0.354 N 
ATOM     25  H   UNL     1      27.945  15.414   9.085  1.00  0.00     0.167 HD
BRANCH  24  26
ATOM     26  C   UNL     1      29.246  14.708  10.649  1.00  0.00     0.040 A 
ATOM     27  C   UNL     1      30.293  14.019  10.022  1.00  0.00     0.030 A 
ATOM     28  C   UNL     1      29.459  15.259  11.926  1.00  0.00     0.050 A 
ATOM     29  C   UNL     1      31.532  13.881  10.652  1.00  0.00     0.050 A 
ATOM     30  C   UNL     1      30.700  15.125  12.558  1.00  0.00     0.085 A 
ATOM     31  C   UNL     1      31.750  14.442  11.926  1.00  0.00     0.138 A 
ATOM     32  Cl  UNL     1      30.930  15.836  14.148  1.00  0.00    -0.080 Cl
BRANCH  31  33
ATOM     33  O   UNL     1      32.984  14.342  12.591  1.00  0.00    -0.486 OA
BRANCH  33  34
ATOM     34  C   UNL     1      34.259  14.218  11.958  1.00  0.00     0.285 C 
BRANCH  34  35
ATOM     35  C   UNL     1      35.109  15.427  12.224  1.00  0.00     0.078 A 
ATOM     36  C   UNL     1      34.536  16.705  12.287  1.00  0.00     0.027 A 
ATOM     37  N   UNL     1      36.446  15.277  12.435  1.00  0.00    -0.258 NA
ATOM     38  C   UNL     1      35.351  17.809  12.547  1.00  0.00     0.004 A 
ATOM     39  C   UNL     1      37.256  16.339  12.692  1.00  0.00     0.111 A 
ATOM     40  C   UNL     1      36.721  17.628  12.750  1.00  0.00     0.020 A 
ENDBRANCH  34  35
ENDBRANCH  33  34
ENDBRANCH  31  33
ENDBRANCH  24  26
ENDBRANCH   5  24
BRANCH   6  41
ATOM     41  C   UNL     1      26.154  16.688  11.174  1.00  0.00     0.103 C 
ATOM     42  N   UNL     1      26.400  17.818  11.228  1.00  0.00    -0.192 NA
ENDBRANCH   6  41
TORSDOF 12
ENDMDL
MODEL 10
REMARK VINA RESULT:    -8.649      2.676      8.533
REMARK INTER + INTRA:         -15.882
REMARK INTER:                 -14.124
REMARK INTRA:                  -1.759
REMARK UNBOUND:                -1.166
REMARK SMILES CCOc1cc2ncc(C#N)c(Nc3ccc(OCc4ccccn4)c(Cl)c3)c2cc1NC(=O)/C=C/CN(C)C
REMARK SMILES IDX 4 1 31 2 30 3 29 4 12 5 9 6 8 7 7 8 6 9 5 10 3 11 2 12 1 13
REMARK SMILES IDX 32 14 33 15 34 17 35 18 36 19 37 20 38 21 39 22 40 23 13 24
REMARK SMILES IDX 14 26 15 27 28 28 16 29 26 30 17 31 27 32 18 33 19 34 20 35
REMARK SMILES IDX 21 36 25 37 22 38 24 39 23 40 10 41 11 42
REMARK H PARENT 32 16 13 25
REMARK Flexibility Score: inf
ROOT
ATOM      1  C   UNL     1      35.263  11.947   8.008  1.00  0.00     0.144 A 
ATOM      2  C   UNL     1      34.242  11.860   8.975  1.00  0.00     0.084 A 
ATOM      3  C   UNL     1      33.626  10.629   9.237  1.00  0.00     0.042 A 
ATOM      4  C   UNL     1      33.972   9.484   8.501  1.00  0.00     0.027 A 
ATOM      5  C   UNL     1      33.351   8.236   8.721  1.00  0.00     0.068 A 
ATOM      6  C   UNL     1      33.717   7.132   7.929  1.00  0.00     0.094 A 
ATOM      7  C   UNL     1      34.704   7.285   6.951  1.00  0.00     0.133 A 
ATOM      8  N   UNL     1      35.300   8.490   6.764  1.00  0.00    -0.255 NA
ATOM      9  C   UNL     1      34.965   9.582   7.501  1.00  0.00     0.076 A 
ATOM     10  C   UNL     1      35.610  10.800   7.269  1.00  0.00     0.077 A 
ENDROOT
BRANCH   1  11
ATOM     11  O   UNL     1      35.925  13.175   7.835  1.00  0.00    -0.492 OA
BRANCH  11  12
ATOM     12  C   UNL     1      37.186  13.535   8.399  1.00  0.00     0.226 C 
ATOM     13  C   UNL     1      37.061  14.800   9.240  1.00  0.00     0.049 C 
ENDBRANCH  11  12
ENDBRANCH   1  11
BRANCH   2  14
ATOM     14  N   UNL     1      33.836  13.014   9.730  1.00  0.00    -0.319 N 
ATOM     15  C   UNL     1      34.245  13.242  11.087  1.00  0.00     0.248 C 
ATOM     16  H   UNL     1      33.326  13.777   9.229  1.00  0.00     0.170 HD
ATOM     17  O   UNL     1      35.135  12.515  11.611  1.00  0.00    -0.270 OA
BRANCH  15  18
ATOM     18  C   UNL     1      33.641  14.346  11.855  1.00  0.00     0.068 C 
ATOM     19  C   UNL     1      32.325  14.574  11.866  1.00  0.00    -0.006 C 
BRANCH  19  20
ATOM     20  C   UNL     1      31.745  15.710  12.658  1.00  0.00     0.111 C 
BRANCH  20  21
ATOM     21  N   UNL     1      30.319  15.462  12.955  1.00  0.00    -0.306 NA
ATOM     22  C   UNL     1      29.607  16.737  13.136  1.00  0.00     0.105 C 
ATOM     23  C   UNL     1      29.685  14.695  11.868  1.00  0.00     0.105 C 
ENDBRANCH  20  21
ENDBRANCH  19  20
ENDBRANCH  15  18
ENDBRANCH   2  14
BRANCH   5  24
ATOM     24  N   UNL     1      32.360   8.078   9.748  1.00  0.00    -0.354 N 
ATOM     25  H   UNL     1      32.682   7.734  10.681  1.00  0.00     0.167 HD
BRANCH  24  26
ATOM     26  C   UNL     1      30.993   8.499   9.587  1.00  0.00     0.040 A 
ATOM     27  C   UNL     1      30.620   9.791   9.984  1.00  0.00     0.030 A 
ATOM     28  C   UNL     1      30.021   7.651   9.026  1.00  0.00     0.050 A 
ATOM     29  C   UNL     1      29.305  10.234   9.822  1.00  0.00     0.050 A 
ATOM     30  C   UNL     1      28.704   8.092   8.860  1.00  0.00     0.085 A 
ATOM     31  C   UNL     1      28.335   9.389   9.249  1.00  0.00     0.138 A 
ATOM     32  Cl  UNL     1      27.522   7.006   8.145  1.00  0.00    -0.080 Cl
BRANCH  31  33
ATOM     33  O   UNL     1      27.004   9.796   9.052  1.00  0.00    -0.486 OA
BRANCH  33  34
ATOM     34  C   UNL     1      26.501  11.116   9.267  1.00  0.00     0.285 C 
BRANCH  34  35
ATOM     35  C   UNL     1      25.267  11.086  10.122  1.00  0.00     0.078 A 
ATOM     36  C   UNL     1      24.525   9.905  10.269  1.00  0.00     0.027 A 
ATOM     37  N   UNL     1      24.881  12.211  10.787  1.00  0.00    -0.258 NA
ATOM     38  C   UNL     1      23.388   9.906  11.080  1.00  0.00     0.004 A 
ATOM     39  C   UNL     1      23.779  12.231  11.583  1.00  0.00     0.111 A 
ATOM     40  C   UNL     1      23.009  11.076  11.742  1.00  0.00     0.020 A 
ENDBRANCH  34  35
ENDBRANCH  33  34
ENDBRANCH  31  33
ENDBRANCH  24  26
ENDBRANCH   5  24
BRANCH   6  41
ATOM     41  C   UNL     1      33.106   5.841   8.126  1.00  0.00     0.103 C 
ATOM     42  N   UNL     1      32.615   4.805   8.286  1.00  0.00    -0.192 NA
ENDBRANCH   6  41
TORSDOF 12
ENDMDL
MODEL 11
REMARK VINA RESULT:    -8.384      3.981      8.912
REMARK INTER + INTRA:         -15.432
REMARK INTER:                 -13.486
REMARK INTRA:                  -1.946
REMARK UNBOUND:                -1.166
REMARK SMILES CCOc1cc2ncc(C#N)c(Nc3ccc(OCc4ccccn4)c(Cl)c3)c2cc1NC(=O)/C=C/CN(C)C
REMARK SMILES IDX 4 1 31 2 30 3 29 4 12 5 9 6 8 7 7 8 6 9 5 10 3 11 2 12 1 13
REMARK SMILES IDX 32 14 33 15 34 17 35 18 36 19 37 20 38 21 39 22 40 23 13 24
REMARK SMILES IDX 14 26 15 27 28 28 16 29 26 30 17 31 27 32 18 33 19 34 20 35
REMARK SMILES IDX 21 36 25 37 22 38 24 39 23 40 10 41 11 42
REMARK H PARENT 32 16 13 25
REMARK Flexibility Score: inf
ROOT
ATOM      1  C   UNL     1      30.680  12.028  10.775  1.00  0.00     0.144 A 
ATOM      2  C   UNL     1      31.003  10.680  10.519  1.00  0.00     0.084 A 
ATOM      3  C   UNL     1      32.331  10.312  10.265  1.00  0.00     0.042 A 
ATOM      4  C   UNL     1      33.344  11.283  10.202  1.00  0.00     0.027 A 
ATOM      5  C   UNL     1      34.686  10.949   9.921  1.00  0.00     0.068 A 
ATOM      6  C   UNL     1      35.650  11.970   9.838  1.00  0.00     0.094 A 
ATOM      7  C   UNL     1      35.267  13.296  10.055  1.00  0.00     0.133 A 
ATOM      8  N   UNL     1      33.974  13.597  10.338  1.00  0.00    -0.255 NA
ATOM      9  C   UNL     1      33.011  12.639  10.415  1.00  0.00     0.076 A 
ATOM     10  C   UNL     1      31.695  13.002  10.710  1.00  0.00     0.077 A 
ENDROOT
BRANCH   1  11
ATOM     11  O   UNL     1      29.355  12.351  11.118  1.00  0.00    -0.492 OA
BRANCH  11  12
ATOM     12  C   UNL     1      28.514  13.277  10.430  1.00  0.00     0.226 C 
ATOM     13  C   UNL     1      27.143  12.665  10.163  1.00  0.00     0.049 C 
ENDBRANCH  11  12
ENDBRANCH   1  11
BRANCH   2  14
ATOM     14  N   UNL     1      29.992   9.659  10.545  1.00  0.00    -0.319 N 
ATOM     15  C   UNL     1      29.121   9.397   9.434  1.00  0.00     0.248 C 
ATOM     16  H   UNL     1      29.975   9.000  11.357  1.00  0.00     0.170 HD
ATOM     17  O   UNL     1      29.338   9.942   8.316  1.00  0.00    -0.270 OA
BRANCH  15  18
ATOM     18  C   UNL     1      27.989   8.465   9.598  1.00  0.00     0.068 C 
ATOM     19  C   UNL     1      26.723   8.885   9.677  1.00  0.00    -0.006 C 
BRANCH  19  20
ATOM     20  C   UNL     1      25.596   7.908   9.847  1.00  0.00     0.111 C 
BRANCH  20  21
ATOM     21  N   UNL     1      24.459   8.544  10.545  1.00  0.00    -0.306 NA
ATOM     22  C   UNL     1      24.545  10.009  10.428  1.00  0.00     0.105 C 
ATOM     23  C   UNL     1      23.177   8.081   9.985  1.00  0.00     0.105 C 
ENDBRANCH  20  21
ENDBRANCH  19  20
ENDBRANCH  15  18
ENDBRANCH   2  14
BRANCH   5  24
ATOM     24  N   UNL     1      35.078   9.581   9.730  1.00  0.00    -0.354 N 
ATOM     25  H   UNL     1      35.382   9.043  10.573  1.00  0.00     0.167 HD
BRANCH  24  26
ATOM     26  C   UNL     1      34.940   8.895   8.472  1.00  0.00     0.040 A 
ATOM     27  C   UNL     1      35.246   9.572   7.283  1.00  0.00     0.030 A 
ATOM     28  C   UNL     1      34.520   7.554   8.405  1.00  0.00     0.050 A 
ATOM     29  C   UNL     1      35.140   8.925   6.049  1.00  0.00     0.050 A 
ATOM     30  C   UNL     1      34.415   6.903   7.171  1.00  0.00     0.085 A 
ATOM     31  C   UNL     1      34.731   7.579   5.982  1.00  0.00     0.138 A 
ATOM     32  Cl  UNL     1      33.898   5.225   7.131  1.00  0.00    -0.080 Cl
BRANCH  31  33
ATOM     33  O   UNL     1      34.625   6.884   4.766  1.00  0.00    -0.486 OA
BRANCH  33  34
ATOM     34  C   UNL     1      35.722   6.444   3.964  1.00  0.00     0.285 C 
BRANCH  34  35
ATOM     35  C   UNL     1      35.486   5.054   3.447  1.00  0.00     0.078 A 
ATOM     36  C   UNL     1      35.672   3.940   4.278  1.00  0.00     0.027 A 
ATOM     37  N   UNL     1      35.058   4.875   2.166  1.00  0.00    -0.258 NA
ATOM     38  C   UNL     1      35.433   2.661   3.772  1.00  0.00     0.004 A 
ATOM     39  C   UNL     1      34.819   3.638   1.657  1.00  0.00     0.111 A 
ATOM     40  C   UNL     1      35.005   2.505   2.452  1.00  0.00     0.020 A 
ENDBRANCH  34  35
ENDBRANCH  33  34
ENDBRANCH  31  33
ENDBRANCH  24  26
ENDBRANCH   5  24
BRANCH   6  41
ATOM     41  C   UNL     1      37.031  11.666   9.555  1.00  0.00     0.103 C 
ATOM     42  N   UNL     1      38.139  11.422   9.325  1.00  0.00    -0.192 NA
ENDBRANCH   6  41
TORSDOF 12
ENDMDL
MODEL 12
REMARK VINA RESULT:    -8.347      2.708      7.159
REMARK INTER + INTRA:         -15.369
REMARK INTER:                 -13.260
REMARK INTRA:                  -2.109
REMARK UNBOUND:                -1.166
REMARK SMILES CCOc1cc2ncc(C#N)c(Nc3ccc(OCc4ccccn4)c(Cl)c3)c2cc1NC(=O)/C=C/CN(C)C
REMARK SMILES IDX 4 1 31 2 30 3 29 4 12 5 9 6 8 7 7 8 6 9 5 10 3 11 2 12 1 13
REMARK SMILES IDX 32 14 33 15 34 17 35 18 36 19 37 20 38 21 39 22 40 23 13 24
REMARK SMILES IDX 14 26 15 27 28 28 16 29 26 30 17 31 27 32 18 33 19 34 20 35
REMARK SMILES IDX 21 36 25 37 22 38 24 39 23 40 10 41 11 42
REMARK H PARENT 32 16 13 25
REMARK Flexibility Score: inf
ROOT
ATOM      1  C   UNL     1      27.848   9.941   9.981  1.00  0.00     0.144 A 
ATOM      2  C   UNL     1      28.525  11.066   9.468  1.00  0.00     0.084 A 
ATOM      3  C   UNL     1      29.831  10.936   8.976  1.00  0.00     0.042 A 
ATOM      4  C   UNL     1      30.502   9.704   9.044  1.00  0.00     0.027 A 
ATOM      5  C   UNL     1      31.826   9.546   8.583  1.00  0.00     0.068 A 
ATOM      6  C   UNL     1      32.457   8.295   8.707  1.00  0.00     0.094 A 
ATOM      7  C   UNL     1      31.755   7.223   9.267  1.00  0.00     0.133 A 
ATOM      8  N   UNL     1      30.477   7.391   9.692  1.00  0.00    -0.255 NA
ATOM      9  C   UNL     1      29.838   8.587   9.599  1.00  0.00     0.076 A 
ATOM     10  C   UNL     1      28.521   8.706  10.050  1.00  0.00     0.077 A 
ENDROOT
BRANCH   1  11
ATOM     11  O   UNL     1      26.507  10.085  10.380  1.00  0.00    -0.492 OA
BRANCH  11  12
ATOM     12  C   UNL     1      25.438   9.195  10.062  1.00  0.00     0.226 C 
ATOM     13  C   UNL     1      24.098   9.788  10.482  1.00  0.00     0.049 C 
ENDBRANCH  11  12
ENDBRANCH   1  11
BRANCH   2  14
ATOM     14  N   UNL     1      27.886  12.352   9.409  1.00  0.00    -0.319 N 
ATOM     15  C   UNL     1      27.899  13.280  10.503  1.00  0.00     0.248 C 
ATOM     16  H   UNL     1      27.504  12.672   8.489  1.00  0.00     0.170 HD
ATOM     17  O   UNL     1      28.638  13.068  11.505  1.00  0.00    -0.270 OA
BRANCH  15  18
ATOM     18  C   UNL     1      27.068  14.497  10.439  1.00  0.00     0.068 C 
ATOM     19  C   UNL     1      27.475  15.668  10.937  1.00  0.00    -0.006 C 
BRANCH  19  20
ATOM     20  C   UNL     1      26.600  16.886  10.856  1.00  0.00     0.111 C 
BRANCH  20  21
ATOM     21  N   UNL     1      26.063  17.228  12.190  1.00  0.00    -0.306 NA
ATOM     22  C   UNL     1      27.157  17.629  13.091  1.00  0.00     0.105 C 
ATOM     23  C   UNL     1      25.081  18.322  12.093  1.00  0.00     0.105 C 
ENDBRANCH  20  21
ENDBRANCH  19  20
ENDBRANCH  15  18
ENDBRANCH   2  14
BRANCH   5  24
ATOM     24  N   UNL     1      32.531  10.642   7.981  1.00  0.00    -0.354 N 
ATOM     25  H   UNL     1      32.678  10.612   6.946  1.00  0.00     0.167 HD
BRANCH  24  26
ATOM     26  C   UNL     1      32.912  11.823   8.711  1.00  0.00     0.040 A 
ATOM     27  C   UNL     1      32.645  13.086   8.164  1.00  0.00     0.030 A 
ATOM     28  C   UNL     1      33.533  11.743   9.971  1.00  0.00     0.050 A 
ATOM     29  C   UNL     1      32.986  14.249   8.859  1.00  0.00     0.050 A 
ATOM     30  C   UNL     1      33.873  12.906  10.670  1.00  0.00     0.085 A 
ATOM     31  C   UNL     1      33.597  14.169  10.125  1.00  0.00     0.138 A 
ATOM     32  Cl  UNL     1      34.637  12.764  12.246  1.00  0.00    -0.080 Cl
BRANCH  31  33
ATOM     33  O   UNL     1      33.943  15.311  10.867  1.00  0.00    -0.486 OA
BRANCH  33  34
ATOM     34  C   UNL     1      33.202  16.532  10.903  1.00  0.00     0.285 C 
BRANCH  34  35
ATOM     35  C   UNL     1      32.302  16.578  12.104  1.00  0.00     0.078 A 
ATOM     36  C   UNL     1      32.385  17.636  13.021  1.00  0.00     0.027 A 
ATOM     37  N   UNL     1      31.375  15.598  12.289  1.00  0.00    -0.258 NA
ATOM     38  C   UNL     1      31.527  17.657  14.122  1.00  0.00     0.004 A 
ATOM     39  C   UNL     1      30.529  15.602  13.354  1.00  0.00     0.111 A 
ATOM     40  C   UNL     1      30.592  16.634  14.294  1.00  0.00     0.020 A 
ENDBRANCH  34  35
ENDBRANCH  33  34
ENDBRANCH  31  33
ENDBRANCH  24  26
ENDBRANCH   5  24
BRANCH   6  41
ATOM     41  C   UNL     1      33.809   8.095   8.246  1.00  0.00     0.103 C 
ATOM     42  N   UNL     1      34.894   7.937   7.875  1.00  0.00    -0.192 NA
ENDBRANCH   6  41
TORSDOF 12
ENDMDL
MODEL 13
REMARK VINA RESULT:    -8.325      3.298     10.090
REMARK INTER + INTRA:         -15.330
REMARK INTER:                 -13.685
REMARK INTRA:                  -1.645
REMARK UNBOUND:                -1.166
REMARK SMILES CCOc1cc2ncc(C#N)c(Nc3ccc(OCc4ccccn4)c(Cl)c3)c2cc1NC(=O)/C=C/CN(C)C
REMARK SMILES IDX 4 1 31 2 30 3 29 4 12 5 9 6 8 7 7 8 6 9 5 10 3 11 2 12 1 13
REMARK SMILES IDX 32 14 33 15 34 17 35 18 36 19 37 20 38 21 39 22 40 23 13 24
REMARK SMILES IDX 14 26 15 27 28 28 16 29 26 30 17 31 27 32 18 33 19 34 20 35
REMARK SMILES IDX 21 36 25 37 22 38 24 39 23 40 10 41 11 42
REMARK H PARENT 32 16 13 25
REMARK Flexibility Score: inf
ROOT
ATOM      1  C   UNL     1      36.018   9.075   9.220  1.00  0.00     0.144 A 
ATOM      2  C   UNL     1      34.833   8.897   8.477  1.00  0.00     0.084 A 
ATOM      3  C   UNL     1      33.772   9.801   8.622  1.00  0.00     0.042 A 
ATOM      4  C   UNL     1      33.849  10.854   9.548  1.00  0.00     0.027 A 
ATOM      5  C   UNL     1      32.788  11.765   9.737  1.00  0.00     0.068 A 
ATOM      6  C   UNL     1      32.911  12.780  10.703  1.00  0.00     0.094 A 
ATOM      7  C   UNL     1      34.090  12.882  11.446  1.00  0.00     0.133 A 
ATOM      8  N   UNL     1      35.107  12.005  11.240  1.00  0.00    -0.255 NA
ATOM      9  C   UNL     1      35.020  11.005  10.324  1.00  0.00     0.076 A 
ATOM     10  C   UNL     1      36.095  10.129  10.150  1.00  0.00     0.077 A 
ENDROOT
BRANCH   1  11
ATOM     11  O   UNL     1      37.098   8.206   8.985  1.00  0.00    -0.492 OA
BRANCH  11  12
ATOM     12  C   UNL     1      38.346   8.563   8.392  1.00  0.00     0.226 C 
ATOM     13  C   UNL     1      38.139   9.105   6.982  1.00  0.00     0.049 C 
ENDBRANCH  11  12
ENDBRANCH   1  11
BRANCH   2  14
ATOM     14  N   UNL     1      34.701   7.815   7.541  1.00  0.00    -0.319 N 
ATOM     15  C   UNL     1      33.954   6.624   7.827  1.00  0.00     0.248 C 
ATOM     16  H   UNL     1      35.059   7.957   6.569  1.00  0.00     0.170 HD
ATOM     17  O   UNL     1      33.226   6.564   8.858  1.00  0.00    -0.270 OA
BRANCH  15  18
ATOM     18  C   UNL     1      34.017   5.481   6.897  1.00  0.00     0.068 C 
ATOM     19  C   UNL     1      34.975   5.364   5.972  1.00  0.00    -0.006 C 
BRANCH  19  20
ATOM     20  C   UNL     1      35.006   4.188   5.039  1.00  0.00     0.111 C 
BRANCH  20  21
ATOM     21  N   UNL     1      35.543   2.995   5.727  1.00  0.00    -0.306 NA
ATOM     22  C   UNL     1      35.699   1.885   4.772  1.00  0.00     0.105 C 
ATOM     23  C   UNL     1      36.844   3.293   6.351  1.00  0.00     0.105 C 
ENDBRANCH  20  21
ENDBRANCH  19  20
ENDBRANCH  15  18
ENDBRANCH   2  14
BRANCH   5  24
ATOM     24  N   UNL     1      31.591  11.673   8.950  1.00  0.00    -0.354 N 
ATOM     25  H   UNL     1      31.532  12.263   8.089  1.00  0.00     0.167 HD
BRANCH  24  26
ATOM     26  C   UNL     1      30.549  10.716   9.217  1.00  0.00     0.040 A 
ATOM     27  C   UNL     1      29.775  10.227   8.155  1.00  0.00     0.030 A 
ATOM     28  C   UNL     1      30.297  10.245  10.519  1.00  0.00     0.050 A 
ATOM     29  C   UNL     1      28.770   9.284   8.383  1.00  0.00     0.050 A 
ATOM     30  C   UNL     1      29.293   9.298  10.749  1.00  0.00     0.085 A 
ATOM     31  C   UNL     1      28.525   8.803   9.684  1.00  0.00     0.138 A 
ATOM     32  Cl  UNL     1      29.017   8.726  12.387  1.00  0.00    -0.080 Cl
BRANCH  31  33
ATOM     33  O   UNL     1      27.537   7.843   9.958  1.00  0.00    -0.486 OA
BRANCH  33  34
ATOM     34  C   UNL     1      26.289   7.720   9.273  1.00  0.00     0.285 C 
BRANCH  34  35
ATOM     35  C   UNL     1      25.240   8.587   9.909  1.00  0.00     0.078 A 
ATOM     36  C   UNL     1      23.979   8.065  10.232  1.00  0.00     0.027 A 
ATOM     37  N   UNL     1      25.527   9.885  10.203  1.00  0.00    -0.258 NA
ATOM     38  C   UNL     1      23.029   8.893  10.833  1.00  0.00     0.004 A 
ATOM     39  C   UNL     1      24.616  10.706  10.790  1.00  0.00     0.111 A 
ATOM     40  C   UNL     1      23.346  10.223  11.114  1.00  0.00     0.020 A 
ENDBRANCH  34  35
ENDBRANCH  33  34
ENDBRANCH  31  33
ENDBRANCH  24  26
ENDBRANCH   5  24
BRANCH   6  41
ATOM     41  C   UNL     1      31.848  13.729  10.923  1.00  0.00     0.103 C 
ATOM     42  N   UNL     1      30.993  14.489  11.100  1.00  0.00    -0.192 NA
ENDBRANCH   6  41
TORSDOF 12
ENDMDL
MODEL 14
REMARK VINA RESULT:    -8.284      2.793      7.574
REMARK INTER + INTRA:         -15.262
REMARK INTER:                 -13.508
REMARK INTRA:                  -1.754
REMARK UNBOUND:                -1.166
REMARK SMILES CCOc1cc2ncc(C#N)c(Nc3ccc(OCc4ccccn4)c(Cl)c3)c2cc1NC(=O)/C=C/CN(C)C
REMARK SMILES IDX 4 1 31 2 30 3 29 4 12 5 9 6 8 7 7 8 6 9 5 10 3 11 2 12 1 13
REMARK SMILES IDX 32 14 33 15 34 17 35 18 36 19 37 20 38 21 39 22 40 23 13 24
REMARK SMILES IDX 14 26 15 27 28 28 16 29 26 30 17 31 27 32 18 33 19 34 20 35
REMARK SMILES IDX 21 36 25 37 22 38 24 39 23 40 10 41 11 42
REMARK H PARENT 32 16 13 25
REMARK Flexibility Score: inf
ROOT
ATOM      1  C   UNL     1      28.299   9.525   9.526  1.00  0.00     0.144 A 
ATOM      2  C   UNL     1      28.969  10.744   9.297  1.00  0.00     0.084 A 
ATOM      3  C   UNL     1      30.341  10.749   9.011  1.00  0.00     0.042 A 
ATOM      4  C   UNL     1      31.076   9.552   9.010  1.00  0.00     0.027 A 
ATOM      5  C   UNL     1      32.463   9.525   8.754  1.00  0.00     0.068 A 
ATOM      6  C   UNL     1      33.152   8.299   8.799  1.00  0.00     0.094 A 
ATOM      7  C   UNL     1      32.446   7.125   9.077  1.00  0.00     0.133 A 
ATOM      8  N   UNL     1      31.109   7.168   9.307  1.00  0.00    -0.255 NA
ATOM      9  C   UNL     1      30.412   8.335   9.284  1.00  0.00     0.076 A 
ATOM     10  C   UNL     1      29.036   8.325   9.527  1.00  0.00     0.077 A 
ENDROOT
BRANCH   1  11
ATOM     11  O   UNL     1      26.906   9.546   9.718  1.00  0.00    -0.492 OA
BRANCH  11  12
ATOM     12  C   UNL     1      26.090   8.425  10.054  1.00  0.00     0.226 C 
ATOM     13  C   UNL     1      24.616   8.814  10.063  1.00  0.00     0.049 C 
ENDBRANCH  11  12
ENDBRANCH   1  11
BRANCH   2  14
ATOM     14  N   UNL     1      28.260  11.994   9.319  1.00  0.00    -0.319 N 
ATOM     15  C   UNL     1      28.101  12.779  10.510  1.00  0.00     0.248 C 
ATOM     16  H   UNL     1      27.958  12.407   8.407  1.00  0.00     0.170 HD
ATOM     17  O   UNL     1      28.743  12.481  11.556  1.00  0.00    -0.270 OA
BRANCH  15  18
ATOM     18  C   UNL     1      27.206  13.952  10.498  1.00  0.00     0.068 C 
ATOM     19  C   UNL     1      27.631  15.178  10.816  1.00  0.00    -0.006 C 
BRANCH  19  20
ATOM     20  C   UNL     1      26.690  16.348  10.796  1.00  0.00     0.111 C 
BRANCH  20  21
ATOM     21  N   UNL     1      26.101  16.565  12.134  1.00  0.00    -0.306 NA
ATOM     22  C   UNL     1      26.241  17.976  12.529  1.00  0.00     0.105 C 
ATOM     23  C   UNL     1      24.676  16.189  12.145  1.00  0.00     0.105 C 
ENDBRANCH  20  21
ENDBRANCH  19  20
ENDBRANCH  15  18
ENDBRANCH   2  14
BRANCH   5  24
ATOM     24  N   UNL     1      33.176  10.731   8.439  1.00  0.00    -0.354 N 
ATOM     25  H   UNL     1      33.340  10.945   7.429  1.00  0.00     0.167 HD
BRANCH  24  26
ATOM     26  C   UNL     1      33.544  11.706   9.432  1.00  0.00     0.040 A 
ATOM     27  C   UNL     1      34.287  11.301  10.550  1.00  0.00     0.030 A 
ATOM     28  C   UNL     1      33.190  13.061   9.301  1.00  0.00     0.050 A 
ATOM     29  C   UNL     1      34.675  12.229  11.520  1.00  0.00     0.050 A 
ATOM     30  C   UNL     1      33.580  13.993  10.270  1.00  0.00     0.085 A 
ATOM     31  C   UNL     1      34.331  13.588  11.384  1.00  0.00     0.138 A 
ATOM     32  Cl  UNL     1      33.128  15.678  10.065  1.00  0.00    -0.080 Cl
BRANCH  31  33
ATOM     33  O   UNL     1      34.712  14.559  12.325  1.00  0.00    -0.486 OA
BRANCH  33  34
ATOM     34  C   UNL     1      36.042  15.043  12.525  1.00  0.00     0.285 C 
BRANCH  34  35
ATOM     35  C   UNL     1      36.029  16.475  12.976  1.00  0.00     0.078 A 
ATOM     36  C   UNL     1      34.847  17.228  12.935  1.00  0.00     0.027 A 
ATOM     37  N   UNL     1      37.171  17.040  13.459  1.00  0.00    -0.258 NA
ATOM     38  C   UNL     1      34.864  18.554  13.372  1.00  0.00     0.004 A 
ATOM     39  C   UNL     1      37.206  18.328  13.891  1.00  0.00     0.111 A 
ATOM     40  C   UNL     1      36.051  19.112  13.853  1.00  0.00     0.020 A 
ENDBRANCH  34  35
ENDBRANCH  33  34
ENDBRANCH  31  33
ENDBRANCH  24  26
ENDBRANCH   5  24
BRANCH   6  41
ATOM     41  C   UNL     1      34.569   8.233   8.541  1.00  0.00     0.103 C 
ATOM     42  N   UNL     1      35.706   8.182   8.335  1.00  0.00    -0.192 NA
ENDBRANCH   6  41
TORSDOF 12
ENDMDL
MODEL 15
REMARK VINA RESULT:    -8.214      4.853      9.391
REMARK INTER + INTRA:         -15.142
REMARK INTER:                 -13.476
REMARK INTRA:                  -1.665
REMARK UNBOUND:                -1.166
REMARK SMILES CCOc1cc2ncc(C#N)c(Nc3ccc(OCc4ccccn4)c(Cl)c3)c2cc1NC(=O)/C=C/CN(C)C
REMARK SMILES IDX 4 1 31 2 30 3 29 4 12 5 9 6 8 7 7 8 6 9 5 10 3 11 2 12 1 13
REMARK SMILES IDX 32 14 33 15 34 17 35 18 36 19 37 20 38 21 39 22 40 23 13 24
REMARK SMILES IDX 14 26 15 27 28 28 16 29 26 30 17 31 27 32 18 33 19 34 20 35
REMARK SMILES IDX 21 36 25 37 22 38 24 39 23 40 10 41 11 42
REMARK H PARENT 32 16 13 25
REMARK Flexibility Score: inf
ROOT
ATOM      1  C   UNL     1      30.929  11.581   9.404  1.00  0.00     0.144 A 
ATOM      2  C   UNL     1      30.769  10.213   9.108  1.00  0.00     0.084 A 
ATOM      3  C   UNL     1      31.890   9.373   9.042  1.00  0.00     0.042 A 
ATOM      4  C   UNL     1      33.184   9.892   9.210  1.00  0.00     0.027 A 
ATOM      5  C   UNL     1      34.334   9.079   9.123  1.00  0.00     0.068 A 
ATOM      6  C   UNL     1      35.606   9.663   9.267  1.00  0.00     0.094 A 
ATOM      7  C   UNL     1      35.709  11.035   9.514  1.00  0.00     0.133 A 
ATOM      8  N   UNL     1      34.590  11.799   9.609  1.00  0.00    -0.255 NA
ATOM      9  C   UNL     1      33.345  11.273   9.464  1.00  0.00     0.076 A 
ATOM     10  C   UNL     1      32.226  12.102   9.571  1.00  0.00     0.077 A 
ENDROOT
BRANCH   1  11
ATOM     11  O   UNL     1      29.779  12.377   9.554  1.00  0.00    -0.492 OA
BRANCH  11  12
ATOM     12  C   UNL     1      29.145  12.710  10.789  1.00  0.00     0.226 C 
ATOM     13  C   UNL     1      27.635  12.533  10.686  1.00  0.00     0.049 C 
ENDBRANCH  11  12
ENDBRANCH   1  11
BRANCH   2  14
ATOM     14  N   UNL     1      29.465   9.647   8.899  1.00  0.00    -0.319 N 
ATOM     15  C   UNL     1      28.699   9.044   9.953  1.00  0.00     0.248 C 
ATOM     16  H   UNL     1      29.006   9.793   7.971  1.00  0.00     0.170 HD
ATOM     17  O   UNL     1      29.076   9.154  11.153  1.00  0.00    -0.270 OA
BRANCH  15  18
ATOM     18  C   UNL     1      27.455   8.320   9.630  1.00  0.00     0.068 C 
ATOM     19  C   UNL     1      26.255   8.745  10.037  1.00  0.00    -0.006 C 
BRANCH  19  20
ATOM     20  C   UNL     1      25.010   7.980   9.691  1.00  0.00     0.111 C 
BRANCH  20  21
ATOM     21  N   UNL     1      23.806   8.772  10.022  1.00  0.00    -0.306 NA
ATOM     22  C   UNL     1      22.878   7.971  10.837  1.00  0.00     0.105 C 
ATOM     23  C   UNL     1      24.172   9.997  10.754  1.00  0.00     0.105 C 
ENDBRANCH  20  21
ENDBRANCH  19  20
ENDBRANCH  15  18
ENDBRANCH   2  14
BRANCH   5  24
ATOM     24  N   UNL     1      34.220   7.666   8.899  1.00  0.00    -0.354 N 
ATOM     25  H   UNL     1      33.853   7.081   9.684  1.00  0.00     0.167 HD
BRANCH  24  26
ATOM     26  C   UNL     1      34.455   7.054   7.618  1.00  0.00     0.040 A 
ATOM     27  C   UNL     1      34.341   5.663   7.488  1.00  0.00     0.030 A 
ATOM     28  C   UNL     1      34.780   7.821   6.483  1.00  0.00     0.050 A 
ATOM     29  C   UNL     1      34.544   5.045   6.252  1.00  0.00     0.050 A 
ATOM     30  C   UNL     1      34.981   7.204   5.244  1.00  0.00     0.085 A 
ATOM     31  C   UNL     1      34.858   5.812   5.114  1.00  0.00     0.138 A 
ATOM     32  Cl  UNL     1      35.375   8.197   3.849  1.00  0.00    -0.080 Cl
BRANCH  31  33
ATOM     33  O   UNL     1      35.055   5.236   3.848  1.00  0.00    -0.486 OA
BRANCH  33  34
ATOM     34  C   UNL     1      36.177   4.438   3.465  1.00  0.00     0.285 C 
BRANCH  34  35
ATOM     35  C   UNL     1      35.730   3.134   2.870  1.00  0.00     0.078 A 
ATOM     36  C   UNL     1      35.330   3.060   1.528  1.00  0.00     0.027 A 
ATOM     37  N   UNL     1      35.742   2.006   3.633  1.00  0.00    -0.258 NA
ATOM     38  C   UNL     1      34.931   1.831   0.999  1.00  0.00     0.004 A 
ATOM     39  C   UNL     1      35.359   0.800   3.135  1.00  0.00     0.111 A 
ATOM     40  C   UNL     1      34.943   0.691   1.806  1.00  0.00     0.020 A 
ENDBRANCH  34  35
ENDBRANCH  33  34
ENDBRANCH  31  33
ENDBRANCH  24  26
ENDBRANCH   5  24
BRANCH   6  41
ATOM     41  C   UNL     1      36.803   8.864   9.186  1.00  0.00     0.103 C 
ATOM     42  N   UNL     1      37.764   8.221   9.119  1.00  0.00    -0.192 NA
ENDBRANCH   6  41
TORSDOF 12
ENDMDL
