MODEL 1
REMARK VINA RESULT:   -11.012      0.000      0.000
REMARK INTER + INTRA:         -14.960
REMARK INTER:                 -14.231
REMARK INTRA:                  -0.728
REMARK UNBOUND:                -0.728
REMARK SMILES CNC(=O)c1c(C)oc2cc(Oc3ncnc4cc(OC)c(OC)cc34)ccc12
REMARK SMILES IDX 12 1 11 2 5 3 6 4 29 5 7 6 8 7 9 8 28 9 10 10 27 11 3 12
REMARK SMILES IDX 1 13 2 14 4 16 13 17 14 18 26 19 15 20 17 21 25 22 16 23
REMARK SMILES IDX 18 24 22 25 19 26 23 27 24 28 20 29 21 30
REMARK H PARENT 2 15
REMARK Flexibility Score: inf
ROOT
ATOM      1  O   UNL     1      19.860  24.865  39.668  1.00  0.00    -0.438 OA
ENDROOT
BRANCH   1   2
ATOM      2  C   UNL     1      21.078  24.420  39.133  1.00  0.00     0.133 A 
ATOM      3  C   UNL     1      24.831  23.111  37.971  1.00  0.00     0.088 A 
ATOM      4  C   UNL     1      25.307  22.910  39.272  1.00  0.00     0.115 A 
ATOM      5  C   UNL     1      23.533  23.557  38.144  1.00  0.00     0.034 A 
ATOM      6  C   UNL     1      26.654  22.397  39.668  1.00  0.00     0.088 C 
ATOM      7  O   UNL     1      24.381  23.234  40.154  1.00  0.00    -0.460 OA
ATOM      8  C   UNL     1      23.316  23.621  39.495  1.00  0.00     0.138 A 
ATOM      9  C   UNL     1      22.553  23.940  37.229  1.00  0.00     0.017 A 
ATOM     10  C   UNL     1      22.103  24.051  40.025  1.00  0.00     0.094 A 
ATOM     11  C   UNL     1      21.315  24.378  37.732  1.00  0.00     0.048 A 
BRANCH   3  12
ATOM     12  C   UNL     1      25.523  22.863  36.690  1.00  0.00     0.255 C 
ATOM     13  C   UNL     1      25.973  21.377  34.700  1.00  0.00     0.143 C 
ATOM     14  N   UNL     1      25.433  21.591  36.037  1.00  0.00    -0.355 N 
ATOM     15  H   UNL     1      25.017  20.776  36.539  1.00  0.00     0.163 HD
ATOM     16  O   UNL     1      26.218  23.782  36.176  1.00  0.00    -0.269 OA
ENDBRANCH   3  12
ENDBRANCH   1   2
BRANCH   1  17
ATOM     17  C   UNL     1      19.579  26.183  40.059  1.00  0.00     0.230 A 
ATOM     18  N   UNL     1      20.547  27.140  40.014  1.00  0.00    -0.201 NA
ATOM     19  C   UNL     1      18.280  26.536  40.462  1.00  0.00     0.067 A 
ATOM     20  C   UNL     1      20.289  28.425  40.368  1.00  0.00     0.226 A 
ATOM     21  C   UNL     1      18.036  27.875  40.823  1.00  0.00     0.081 A 
ATOM     22  C   UNL     1      17.235  25.601  40.517  1.00  0.00     0.066 A 
ATOM     23  N   UNL     1      19.044  28.785  40.768  1.00  0.00    -0.236 NA
ATOM     24  C   UNL     1      16.761  28.269  41.234  1.00  0.00     0.079 A 
ATOM     25  C   UNL     1      15.948  25.997  40.931  1.00  0.00     0.161 A 
ATOM     26  C   UNL     1      15.710  27.333  41.291  1.00  0.00     0.162 A 
BRANCH  25  27
ATOM     27  O   UNL     1      14.877  25.090  41.001  1.00  0.00    -0.493 OA
ATOM     28  C   UNL     1      14.129  24.635  39.877  1.00  0.00     0.278 C 
ENDBRANCH  25  27
BRANCH  26  29
ATOM     29  O   UNL     1      14.416  27.692  41.699  1.00  0.00    -0.493 OA
ATOM     30  C   UNL     1      14.020  29.012  42.060  1.00  0.00     0.278 C 
ENDBRANCH  26  29
ENDBRANCH   1  17
TORSDOF 5
ENDMDL
MODEL 2
REMARK VINA RESULT:    -8.931      3.161     10.931
REMARK INTER + INTRA:         -12.269
REMARK INTER:                 -11.686
REMARK INTRA:                  -0.583
REMARK UNBOUND:                -0.728
REMARK SMILES CNC(=O)c1c(C)oc2cc(Oc3ncnc4cc(OC)c(OC)cc34)ccc12
REMARK SMILES IDX 12 1 11 2 5 3 6 4 29 5 7 6 8 7 9 8 28 9 10 10 27 11 3 12
REMARK SMILES IDX 1 13 2 14 4 16 13 17 14 18 26 19 15 20 17 21 25 22 16 23
REMARK SMILES IDX 18 24 22 25 19 26 23 27 24 28 20 29 21 30
REMARK H PARENT 2 15
REMARK Flexibility Score: inf
ROOT
ATOM      1  O   UNL     1      26.460  22.416  35.568  1.00  0.00    -0.438 OA
ENDROOT
BRANCH   1   2
ATOM      2  C   UNL     1      25.447  22.809  36.455  1.00  0.00     0.133 A 
ATOM      3  C   UNL     1      22.730  23.848  39.402  1.00  0.00     0.088 A 
ATOM      4  C   UNL     1      23.622  23.676  40.468  1.00  0.00     0.115 A 
ATOM      5  C   UNL     1      23.475  23.548  38.277  1.00  0.00     0.034 A 
ATOM      6  C   UNL     1      23.343  23.901  41.919  1.00  0.00     0.088 C 
ATOM      7  O   UNL     1      24.798  23.279  40.021  1.00  0.00    -0.460 OA
ATOM      8  C   UNL     1      24.726  23.201  38.715  1.00  0.00     0.138 A 
ATOM      9  C   UNL     1      23.143  23.522  36.922  1.00  0.00     0.017 A 
ATOM     10  C   UNL     1      25.735  22.822  37.833  1.00  0.00     0.094 A 
ATOM     11  C   UNL     1      24.141  23.145  36.006  1.00  0.00     0.048 A 
BRANCH   3  12
ATOM     12  C   UNL     1      21.322  24.294  39.444  1.00  0.00     0.255 C 
ATOM     13  C   UNL     1      19.612  26.097  39.889  1.00  0.00     0.143 C 
ATOM     14  N   UNL     1      20.970  25.574  39.985  1.00  0.00    -0.355 N 
ATOM     15  H   UNL     1      21.681  26.133  40.505  1.00  0.00     0.163 HD
ATOM     16  O   UNL     1      20.418  23.526  39.014  1.00  0.00    -0.269 OA
ENDBRANCH   3  12
ENDBRANCH   1   2
BRANCH   1  17
ATOM     17  C   UNL     1      26.414  22.552  34.172  1.00  0.00     0.230 A 
ATOM     18  N   UNL     1      26.240  23.776  33.601  1.00  0.00    -0.201 NA
ATOM     19  C   UNL     1      26.589  21.428  33.349  1.00  0.00     0.067 A 
ATOM     20  C   UNL     1      26.214  23.932  32.253  1.00  0.00     0.226 A 
ATOM     21  C   UNL     1      26.560  21.614  31.953  1.00  0.00     0.081 A 
ATOM     22  C   UNL     1      26.787  20.141  33.873  1.00  0.00     0.066 A 
ATOM     23  N   UNL     1      26.373  22.858  31.440  1.00  0.00    -0.236 NA
ATOM     24  C   UNL     1      26.726  20.522  31.097  1.00  0.00     0.079 A 
ATOM     25  C   UNL     1      26.955  19.039  33.011  1.00  0.00     0.161 A 
ATOM     26  C   UNL     1      26.924  19.230  31.620  1.00  0.00     0.162 A 
BRANCH  25  27
ATOM     27  O   UNL     1      27.153  17.736  33.498  1.00  0.00    -0.493 OA
ATOM     28  C   UNL     1      26.138  16.930  34.085  1.00  0.00     0.278 C 
ENDBRANCH  25  27
BRANCH  26  29
ATOM     29  O   UNL     1      27.094  18.110  30.791  1.00  0.00    -0.493 OA
ATOM     30  C   UNL     1      27.919  18.082  29.631  1.00  0.00     0.278 C 
ENDBRANCH  26  29
ENDBRANCH   1  17
TORSDOF 5
ENDMDL
MODEL 3
REMARK VINA RESULT:    -8.622      3.274     11.105
REMARK INTER + INTRA:         -11.871
REMARK INTER:                 -11.083
REMARK INTRA:                  -0.788
REMARK UNBOUND:                -0.728
REMARK SMILES CNC(=O)c1c(C)oc2cc(Oc3ncnc4cc(OC)c(OC)cc34)ccc12
REMARK SMILES IDX 12 1 11 2 5 3 6 4 29 5 7 6 8 7 9 8 28 9 10 10 27 11 3 12
REMARK SMILES IDX 1 13 2 14 4 16 13 17 14 18 26 19 15 20 17 21 25 22 16 23
REMARK SMILES IDX 18 24 22 25 19 26 23 27 24 28 20 29 21 30
REMARK H PARENT 2 15
REMARK Flexibility Score: inf
ROOT
ATOM      1  O   UNL     1      26.666  22.415  35.304  1.00  0.00    -0.438 OA
ENDROOT
BRANCH   1   2
ATOM      2  C   UNL     1      25.649  22.781  36.198  1.00  0.00     0.133 A 
ATOM      3  C   UNL     1      22.918  23.733  39.162  1.00  0.00     0.088 A 
ATOM      4  C   UNL     1      23.807  23.537  40.226  1.00  0.00     0.115 A 
ATOM      5  C   UNL     1      23.668  23.466  38.032  1.00  0.00     0.034 A 
ATOM      6  C   UNL     1      23.523  23.723  41.682  1.00  0.00     0.088 C 
ATOM      7  O   UNL     1      24.987  23.157  39.773  1.00  0.00    -0.460 OA
ATOM      8  C   UNL     1      24.919  23.111  38.465  1.00  0.00     0.138 A 
ATOM      9  C   UNL     1      23.341  23.473  36.676  1.00  0.00     0.017 A 
ATOM     10  C   UNL     1      25.932  22.760  37.577  1.00  0.00     0.094 A 
ATOM     11  C   UNL     1      24.343  23.124  35.754  1.00  0.00     0.048 A 
BRANCH   3  12
ATOM     12  C   UNL     1      21.509  24.173  39.210  1.00  0.00     0.255 C 
ATOM     13  C   UNL     1      19.789  25.948  39.724  1.00  0.00     0.143 C 
ATOM     14  N   UNL     1      21.147  25.424  39.808  1.00  0.00    -0.355 N 
ATOM     15  H   UNL     1      21.851  25.960  40.362  1.00  0.00     0.163 HD
ATOM     16  O   UNL     1      20.612  23.424  38.735  1.00  0.00    -0.269 OA
ENDBRANCH   3  12
ENDBRANCH   1   2
BRANCH   1  17
ATOM     17  C   UNL     1      26.577  21.390  34.350  1.00  0.00     0.230 A 
ATOM     18  N   UNL     1      26.268  20.118  34.726  1.00  0.00    -0.201 NA
ATOM     19  C   UNL     1      26.766  21.678  32.988  1.00  0.00     0.067 A 
ATOM     20  C   UNL     1      26.155  19.118  33.816  1.00  0.00     0.226 A 
ATOM     21  C   UNL     1      26.643  20.625  32.062  1.00  0.00     0.081 A 
ATOM     22  C   UNL     1      27.073  22.970  32.533  1.00  0.00     0.066 A 
ATOM     23  N   UNL     1      26.342  19.373  32.496  1.00  0.00    -0.236 NA
ATOM     24  C   UNL     1      26.827  20.866  30.698  1.00  0.00     0.079 A 
ATOM     25  C   UNL     1      27.258  23.215  31.158  1.00  0.00     0.161 A 
ATOM     26  C   UNL     1      27.135  22.161  30.238  1.00  0.00     0.162 A 
BRANCH  25  27
ATOM     27  O   UNL     1      27.568  24.493  30.665  1.00  0.00    -0.493 OA
ATOM     28  C   UNL     1      26.630  25.556  30.530  1.00  0.00     0.278 C 
ENDBRANCH  25  27
BRANCH  26  29
ATOM     29  O   UNL     1      27.328  22.440  28.877  1.00  0.00    -0.493 OA
ATOM     30  C   UNL     1      28.477  22.057  28.128  1.00  0.00     0.278 C 
ENDBRANCH  26  29
ENDBRANCH   1  17
TORSDOF 5
ENDMDL
MODEL 4
REMARK VINA RESULT:    -8.428      1.155      2.111
REMARK INTER + INTRA:         -11.620
REMARK INTER:                 -11.650
REMARK INTRA:                   0.030
REMARK UNBOUND:                -0.728
REMARK SMILES CNC(=O)c1c(C)oc2cc(Oc3ncnc4cc(OC)c(OC)cc34)ccc12
REMARK SMILES IDX 12 1 11 2 5 3 6 4 29 5 7 6 8 7 9 8 28 9 10 10 27 11 3 12
REMARK SMILES IDX 1 13 2 14 4 16 13 17 14 18 26 19 15 20 17 21 25 22 16 23
REMARK SMILES IDX 18 24 22 25 19 26 23 27 24 28 20 29 21 30
REMARK H PARENT 2 15
REMARK Flexibility Score: inf
ROOT
ATOM      1  O   UNL     1      19.295  25.313  39.460  1.00  0.00    -0.438 OA
ENDROOT
BRANCH   1   2
ATOM      2  C   UNL     1      20.595  24.806  39.311  1.00  0.00     0.133 A 
ATOM      3  C   UNL     1      24.332  23.249  38.443  1.00  0.00     0.088 A 
ATOM      4  C   UNL     1      24.144  23.224  37.056  1.00  0.00     0.115 A 
ATOM      5  C   UNL     1      23.153  23.769  38.942  1.00  0.00     0.034 A 
ATOM      6  C   UNL     1      25.128  22.780  36.022  1.00  0.00     0.088 C 
ATOM      7  O   UNL     1      22.940  23.668  36.749  1.00  0.00    -0.460 OA
ATOM      8  C   UNL     1      22.338  23.998  37.865  1.00  0.00     0.138 A 
ATOM      9  C   UNL     1      22.727  24.022  40.246  1.00  0.00     0.017 A 
ATOM     10  C   UNL     1      21.052  24.512  38.012  1.00  0.00     0.094 A 
ATOM     11  C   UNL     1      21.434  24.543  40.428  1.00  0.00     0.048 A 
BRANCH   3  12
ATOM     12  C   UNL     1      25.529  22.859  39.216  1.00  0.00     0.255 C 
ATOM     13  C   UNL     1      27.805  21.771  39.321  1.00  0.00     0.143 C 
ATOM     14  N   UNL     1      26.547  22.034  38.633  1.00  0.00    -0.355 N 
ATOM     15  H   UNL     1      26.375  21.565  37.717  1.00  0.00     0.163 HD
ATOM     16  O   UNL     1      25.644  23.242  40.412  1.00  0.00    -0.269 OA
ENDBRANCH   3  12
ENDBRANCH   1   2
BRANCH   1  17
ATOM     17  C   UNL     1      18.966  26.537  40.061  1.00  0.00     0.230 A 
ATOM     18  N   UNL     1      19.899  27.523  40.181  1.00  0.00    -0.201 NA
ATOM     19  C   UNL     1      17.655  26.773  40.507  1.00  0.00     0.067 A 
ATOM     20  C   UNL     1      19.594  28.722  40.739  1.00  0.00     0.226 A 
ATOM     21  C   UNL     1      17.362  28.025  41.081  1.00  0.00     0.081 A 
ATOM     22  C   UNL     1      16.644  25.805  40.400  1.00  0.00     0.066 A 
ATOM     23  N   UNL     1      18.336  28.967  41.185  1.00  0.00    -0.236 NA
ATOM     24  C   UNL     1      16.072  28.300  41.542  1.00  0.00     0.079 A 
ATOM     25  C   UNL     1      15.343  26.081  40.864  1.00  0.00     0.161 A 
ATOM     26  C   UNL     1      15.056  27.330  41.436  1.00  0.00     0.162 A 
BRANCH  25  27
ATOM     27  O   UNL     1      14.306  25.137  40.775  1.00  0.00    -0.493 OA
ATOM     28  C   UNL     1      13.634  24.786  39.570  1.00  0.00     0.278 C 
ENDBRANCH  25  27
BRANCH  26  29
ATOM     29  O   UNL     1      13.749  27.570  41.889  1.00  0.00    -0.493 OA
ATOM     30  C   UNL     1      13.130  28.852  41.924  1.00  0.00     0.278 C 
ENDBRANCH  26  29
ENDBRANCH   1  17
TORSDOF 5
ENDMDL
MODEL 5
REMARK VINA RESULT:    -8.316      3.308      6.851
REMARK INTER + INTRA:         -11.475
REMARK INTER:                 -10.668
REMARK INTRA:                  -0.807
REMARK UNBOUND:                -0.728
REMARK SMILES CNC(=O)c1c(C)oc2cc(Oc3ncnc4cc(OC)c(OC)cc34)ccc12
REMARK SMILES IDX 12 1 11 2 5 3 6 4 29 5 7 6 8 7 9 8 28 9 10 10 27 11 3 12
REMARK SMILES IDX 1 13 2 14 4 16 13 17 14 18 26 19 15 20 17 21 25 22 16 23
REMARK SMILES IDX 18 24 22 25 19 26 23 27 24 28 20 29 21 30
REMARK H PARENT 2 15
REMARK Flexibility Score: inf
ROOT
ATOM      1  O   UNL     1      14.332  26.925  41.906  1.00  0.00    -0.438 OA
ENDROOT
BRANCH   1   2
ATOM      2  C   UNL     1      15.633  26.686  41.439  1.00  0.00     0.133 A 
ATOM      3  C   UNL     1      19.513  26.420  40.017  1.00  0.00     0.088 A 
ATOM      4  C   UNL     1      19.759  27.797  40.052  1.00  0.00     0.115 A 
ATOM      5  C   UNL     1      18.218  26.288  40.483  1.00  0.00     0.034 A 
ATOM      6  C   UNL     1      21.029  28.494  39.680  1.00  0.00     0.088 C 
ATOM      7  O   UNL     1      18.690  28.443  40.480  1.00  0.00    -0.460 OA
ATOM      8  C   UNL     1      17.764  27.555  40.742  1.00  0.00     0.138 A 
ATOM      9  C   UNL     1      17.404  25.170  40.665  1.00  0.00     0.017 A 
ATOM     10  C   UNL     1      16.476  27.791  41.217  1.00  0.00     0.094 A 
ATOM     11  C   UNL     1      16.099  25.376  41.144  1.00  0.00     0.048 A 
BRANCH   3  12
ATOM     12  C   UNL     1      20.429  25.331  39.620  1.00  0.00     0.255 C 
ATOM     13  C   UNL     1      21.196  23.628  37.922  1.00  0.00     0.143 C 
ATOM     14  N   UNL     1      20.218  24.593  38.410  1.00  0.00    -0.355 N 
ATOM     15  H   UNL     1      19.324  24.704  37.882  1.00  0.00     0.163 HD
ATOM     16  O   UNL     1      21.400  25.037  40.370  1.00  0.00    -0.269 OA
ENDBRANCH   3  12
ENDBRANCH   1   2
BRANCH   1  17
ATOM     17  C   UNL     1      13.201  27.106  41.096  1.00  0.00     0.230 A 
ATOM     18  N   UNL     1      12.894  26.204  40.123  1.00  0.00    -0.201 NA
ATOM     19  C   UNL     1      12.348  28.201  41.312  1.00  0.00     0.067 A 
ATOM     20  C   UNL     1      11.791  26.349  39.344  1.00  0.00     0.226 A 
ATOM     21  C   UNL     1      11.210  28.331  40.492  1.00  0.00     0.081 A 
ATOM     22  C   UNL     1      12.599  29.159  42.306  1.00  0.00     0.066 A 
ATOM     23  N   UNL     1      10.960  27.405  39.530  1.00  0.00    -0.236 NA
ATOM     24  C   UNL     1      10.338  29.408  40.669  1.00  0.00     0.079 A 
ATOM     25  C   UNL     1      11.721  30.246  42.487  1.00  0.00     0.161 A 
ATOM     26  C   UNL     1      10.587  30.371  41.666  1.00  0.00     0.162 A 
BRANCH  25  27
ATOM     27  O   UNL     1      11.939  31.225  43.470  1.00  0.00    -0.493 OA
ATOM     28  C   UNL     1      12.710  31.026  44.651  1.00  0.00     0.278 C 
ENDBRANCH  25  27
BRANCH  26  29
ATOM     29  O   UNL     1       9.734  31.466  41.873  1.00  0.00    -0.493 OA
ATOM     30  C   UNL     1       9.704  32.632  41.056  1.00  0.00     0.278 C 
ENDBRANCH  26  29
ENDBRANCH   1  17
TORSDOF 5
ENDMDL
MODEL 6
REMARK VINA RESULT:    -8.169      3.355      6.531
REMARK INTER + INTRA:         -11.285
REMARK INTER:                 -10.760
REMARK INTRA:                  -0.525
REMARK UNBOUND:                -0.728
REMARK SMILES CNC(=O)c1c(C)oc2cc(Oc3ncnc4cc(OC)c(OC)cc34)ccc12
REMARK SMILES IDX 12 1 11 2 5 3 6 4 29 5 7 6 8 7 9 8 28 9 10 10 27 11 3 12
REMARK SMILES IDX 1 13 2 14 4 16 13 17 14 18 26 19 15 20 17 21 25 22 16 23
REMARK SMILES IDX 18 24 22 25 19 26 23 27 24 28 20 29 21 30
REMARK H PARENT 2 15
REMARK Flexibility Score: inf
ROOT
ATOM      1  O   UNL     1      14.251  26.444  41.960  1.00  0.00    -0.438 OA
ENDROOT
BRANCH   1   2
ATOM      2  C   UNL     1      15.562  26.307  41.481  1.00  0.00     0.133 A 
ATOM      3  C   UNL     1      19.442  26.344  40.034  1.00  0.00     0.088 A 
ATOM      4  C   UNL     1      19.592  27.734  40.101  1.00  0.00     0.115 A 
ATOM      5  C   UNL     1      18.162  26.112  40.504  1.00  0.00     0.034 A 
ATOM      6  C   UNL     1      20.808  28.526  39.740  1.00  0.00     0.088 C 
ATOM      7  O   UNL     1      18.484  28.294  40.549  1.00  0.00    -0.460 OA
ATOM      8  C   UNL     1      17.623  27.338  40.795  1.00  0.00     0.138 A 
ATOM      9  C   UNL     1      17.429  24.936  40.663  1.00  0.00     0.017 A 
ATOM     10  C   UNL     1      16.325  27.473  41.282  1.00  0.00     0.094 A 
ATOM     11  C   UNL     1      16.116  25.039  41.154  1.00  0.00     0.048 A 
BRANCH   3  12
ATOM     12  C   UNL     1      20.429  25.331  39.607  1.00  0.00     0.255 C 
ATOM     13  C   UNL     1      21.306  23.733  37.862  1.00  0.00     0.143 C 
ATOM     14  N   UNL     1      20.266  24.616  38.376  1.00  0.00    -0.355 N 
ATOM     15  H   UNL     1      19.367  24.681  37.851  1.00  0.00     0.163 HD
ATOM     16  O   UNL     1      21.418  25.082  40.350  1.00  0.00    -0.269 OA
ENDBRANCH   3  12
ENDBRANCH   1   2
BRANCH   1  17
ATOM     17  C   UNL     1      13.511  27.636  41.967  1.00  0.00     0.230 A 
ATOM     18  N   UNL     1      13.919  28.701  42.712  1.00  0.00    -0.201 NA
ATOM     19  C   UNL     1      12.361  27.756  41.169  1.00  0.00     0.067 A 
ATOM     20  C   UNL     1      13.230  29.870  42.715  1.00  0.00     0.226 A 
ATOM     21  C   UNL     1      11.663  28.979  41.187  1.00  0.00     0.081 A 
ATOM     22  C   UNL     1      11.894  26.702  40.368  1.00  0.00     0.066 A 
ATOM     23  N   UNL     1      12.111  30.003  41.958  1.00  0.00    -0.236 NA
ATOM     24  C   UNL     1      10.511  29.140  40.412  1.00  0.00     0.079 A 
ATOM     25  C   UNL     1      10.734  26.863  39.585  1.00  0.00     0.161 A 
ATOM     26  C   UNL     1      10.040  28.084  39.607  1.00  0.00     0.162 A 
BRANCH  25  27
ATOM     27  O   UNL     1      10.236  25.831  38.772  1.00  0.00    -0.493 OA
ATOM     28  C   UNL     1       9.838  24.549  39.246  1.00  0.00     0.278 C 
ENDBRANCH  25  27
BRANCH  26  29
ATOM     29  O   UNL     1       8.888  28.209  38.816  1.00  0.00    -0.493 OA
ATOM     30  C   UNL     1       8.674  29.240  37.858  1.00  0.00     0.278 C 
ENDBRANCH  26  29
ENDBRANCH   1  17
TORSDOF 5
ENDMDL
MODEL 7
REMARK VINA RESULT:    -8.048      9.909     13.629
REMARK INTER + INTRA:         -11.129
REMARK INTER:                 -10.288
REMARK INTRA:                  -0.841
REMARK UNBOUND:                -0.728
REMARK SMILES CNC(=O)c1c(C)oc2cc(Oc3ncnc4cc(OC)c(OC)cc34)ccc12
REMARK SMILES IDX 12 1 11 2 5 3 6 4 29 5 7 6 8 7 9 8 28 9 10 10 27 11 3 12
REMARK SMILES IDX 1 13 2 14 4 16 13 17 14 18 26 19 15 20 17 21 25 22 16 23
REMARK SMILES IDX 18 24 22 25 19 26 23 27 24 28 20 29 21 30
REMARK H PARENT 2 15
REMARK Flexibility Score: inf
ROOT
ATOM      1  O   UNL     1      28.363  17.569  31.986  1.00  0.00    -0.438 OA
ENDROOT
BRANCH   1   2
ATOM      2  C   UNL     1      27.137  16.891  31.913  1.00  0.00     0.133 A 
ATOM      3  C   UNL     1      23.557  14.917  31.257  1.00  0.00     0.088 A 
ATOM      4  C   UNL     1      23.728  14.793  29.873  1.00  0.00     0.115 A 
ATOM      5  C   UNL     1      24.697  15.567  31.689  1.00  0.00     0.034 A 
ATOM      6  C   UNL     1      22.798  14.132  28.907  1.00  0.00     0.088 C 
ATOM      7  O   UNL     1      24.867  15.347  29.501  1.00  0.00    -0.460 OA
ATOM      8  C   UNL     1      25.456  15.812  30.575  1.00  0.00     0.138 A 
ATOM      9  C   UNL     1      25.104  15.988  32.955  1.00  0.00     0.017 A 
ATOM     10  C   UNL     1      26.678  16.474  30.648  1.00  0.00     0.094 A 
ATOM     11  C   UNL     1      26.335  16.658  33.063  1.00  0.00     0.048 A 
BRANCH   3  12
ATOM     12  C   UNL     1      22.441  14.428  32.093  1.00  0.00     0.255 C 
ATOM     13  C   UNL     1      20.029  14.575  32.823  1.00  0.00     0.143 C 
ATOM     14  N   UNL     1      21.189  15.126  32.133  1.00  0.00    -0.355 N 
ATOM     15  H   UNL     1      21.108  16.074  31.705  1.00  0.00     0.163 HD
ATOM     16  O   UNL     1      22.603  13.393  32.795  1.00  0.00    -0.269 OA
ENDBRANCH   3  12
ENDBRANCH   1   2
BRANCH   1  17
ATOM     17  C   UNL     1      28.746  18.641  31.167  1.00  0.00     0.230 A 
ATOM     18  N   UNL     1      29.621  18.451  30.140  1.00  0.00    -0.201 NA
ATOM     19  C   UNL     1      28.195  19.917  31.373  1.00  0.00     0.067 A 
ATOM     20  C   UNL     1      29.987  19.471  29.323  1.00  0.00     0.226 A 
ATOM     21  C   UNL     1      28.589  20.960  30.513  1.00  0.00     0.081 A 
ATOM     22  C   UNL     1      27.279  20.177  32.404  1.00  0.00     0.066 A 
ATOM     23  N   UNL     1      29.474  20.713  29.511  1.00  0.00    -0.236 NA
ATOM     24  C   UNL     1      28.069  22.245  30.686  1.00  0.00     0.079 A 
ATOM     25  C   UNL     1      26.754  21.472  32.580  1.00  0.00     0.161 A 
ATOM     26  C   UNL     1      27.150  22.509  31.719  1.00  0.00     0.162 A 
BRANCH  25  27
ATOM     27  O   UNL     1      25.835  21.771  33.600  1.00  0.00    -0.493 OA
ATOM     28  C   UNL     1      26.184  21.981  34.965  1.00  0.00     0.278 C 
ENDBRANCH  25  27
BRANCH  26  29
ATOM     29  O   UNL     1      26.607  23.787  31.923  1.00  0.00    -0.493 OA
ATOM     30  C   UNL     1      26.367  24.737  30.890  1.00  0.00     0.278 C 
ENDBRANCH  26  29
ENDBRANCH   1  17
TORSDOF 5
ENDMDL
