MODEL 1
REMARK VINA RESULT:   -11.274      0.000      0.000
REMARK INTER + INTRA:         -17.642
REMARK INTER:                 -15.887
REMARK INTRA:                  -1.755
REMARK UNBOUND:                -1.755
REMARK SMILES CN1CCN(c2ccc(C(=O)Nc3n[nH]c4ccc(Cc5cc(F)cc(F)c5)cc34)c(NC3CCOCC3)c2)CC1
REMARK SMILES IDX 10 1 11 2 12 3 9 5 6 6 7 7 39 8 8 9 31 10 5 11 1 12 2 13
REMARK SMILES IDX 3 14 41 15 4 16 40 17 32 18 33 20 34 21 38 22 35 23 37 24
REMARK SMILES IDX 36 25 13 26 14 27 30 28 15 29 16 30 29 31 17 33 19 34 18 35
REMARK SMILES IDX 20 36 21 37 22 38 28 39 23 40 26 41 24 42 25 43 27 44
REMARK H PARENT 12 4 32 19 15 32
REMARK Flexibility Score: inf
ROOT
ATOM      1  C   UNL     1      21.974  33.425  12.575  1.00  0.00     0.258 C 
ATOM      2  O   UNL     1      21.571  34.565  12.210  1.00  0.00    -0.269 OA
ATOM      3  N   UNL     1      21.028  32.402  12.928  1.00  0.00    -0.304 N 
ATOM      4  H   UNL     1      21.380  31.434  13.099  1.00  0.00     0.171 HD
ENDROOT
BRANCH   1   5
ATOM      5  C   UNL     1      23.429  33.164  12.667  1.00  0.00     0.063 A 
ATOM      6  C   UNL     1      26.148  32.451  12.941  1.00  0.00     0.039 A 
ATOM      7  C   UNL     1      25.338  31.810  11.994  1.00  0.00     0.027 A 
ATOM      8  C   UNL     1      25.600  33.468  13.732  1.00  0.00     0.052 A 
ATOM      9  C   UNL     1      23.995  32.164  11.856  1.00  0.00     0.018 A 
ATOM     10  C   UNL     1      24.246  33.832  13.611  1.00  0.00     0.049 A 
BRANCH   6  11
ATOM     11  N   UNL     1      27.517  32.049  13.131  1.00  0.00    -0.369 N 
ATOM     12  C   UNL     1      31.126  29.979  13.827  1.00  0.00     0.105 C 
ATOM     13  N   UNL     1      29.734  30.463  13.777  1.00  0.00    -0.303 NA
ATOM     14  C   UNL     1      29.190  30.379  12.393  1.00  0.00     0.105 C 
ATOM     15  C   UNL     1      29.637  31.812  14.369  1.00  0.00     0.105 C 
ATOM     16  C   UNL     1      28.307  31.575  11.988  1.00  0.00     0.132 C 
ATOM     17  C   UNL     1      28.171  32.246  14.430  1.00  0.00     0.132 C 
ENDBRANCH   6  11
BRANCH  10  18
ATOM     18  N   UNL     1      23.713  34.902  14.414  1.00  0.00    -0.381 N 
ATOM     19  H   UNL     1      23.694  35.866  14.002  1.00  0.00     0.160 HD
BRANCH  18  20
ATOM     20  C   UNL     1      23.089  34.683  15.725  1.00  0.00     0.083 C 
ATOM     21  C   UNL     1      21.627  35.155  15.717  1.00  0.00     0.053 C 
ATOM     22  C   UNL     1      23.145  33.194  16.101  1.00  0.00     0.053 C 
ATOM     23  C   UNL     1      20.943  34.761  17.035  1.00  0.00     0.162 C 
ATOM     24  C   UNL     1      22.337  32.940  17.381  1.00  0.00     0.162 C 
ATOM     25  O   UNL     1      20.993  33.359  17.227  1.00  0.00    -0.381 OA
ENDBRANCH  18  20
ENDBRANCH  10  18
ENDBRANCH   1   5
BRANCH   3  26
ATOM     26  C   UNL     1      19.619  32.636  13.062  1.00  0.00     0.162 A 
ATOM     27  N   UNL     1      18.963  32.772  14.243  1.00  0.00    -0.156 NA
ATOM     28  C   UNL     1      18.714  32.744  12.027  1.00  0.00     0.044 A 
ATOM     29  N   UNL     1      17.676  32.968  13.975  1.00  0.00    -0.276 N 
ATOM     30  C   UNL     1      17.511  32.953  12.639  1.00  0.00     0.067 A 
ATOM     31  C   UNL     1      18.840  32.680  10.642  1.00  0.00     0.018 A 
ATOM     32  H   UNL     1      16.935  33.113  14.697  1.00  0.00     0.190 HD
ATOM     33  C   UNL     1      16.335  33.121  11.914  1.00  0.00     0.029 A 
ATOM     34  C   UNL     1      17.667  32.832   9.868  1.00  0.00    -0.043 A 
ATOM     35  C   UNL     1      16.420  33.060  10.510  1.00  0.00     0.006 A 
BRANCH  34  36
ATOM     36  C   UNL     1      17.752  32.814   8.366  1.00  0.00     0.071 C 
BRANCH  36  37
ATOM     37  C   UNL     1      17.019  31.615   7.824  1.00  0.00    -0.038 A 
ATOM     38  C   UNL     1      17.734  30.527   7.290  1.00  0.00     0.043 A 
ATOM     39  C   UNL     1      15.615  31.597   7.795  1.00  0.00     0.043 A 
ATOM     40  C   UNL     1      17.051  29.427   6.762  1.00  0.00     0.126 A 
ATOM     41  C   UNL     1      14.935  30.498   7.260  1.00  0.00     0.126 A 
ATOM     42  F   UNL     1      17.744  28.375   6.257  1.00  0.00    -0.207 F 
ATOM     43  C   UNL     1      15.652  29.413   6.748  1.00  0.00     0.078 A 
ATOM     44  F   UNL     1      13.578  30.488   7.232  1.00  0.00    -0.207 F 
ENDBRANCH  36  37
ENDBRANCH  34  36
ENDBRANCH   3  26
TORSDOF 7
ENDMDL
MODEL 2
REMARK VINA RESULT:   -11.259      0.115      1.303
REMARK INTER + INTRA:         -17.621
REMARK INTER:                 -15.926
REMARK INTRA:                  -1.696
REMARK UNBOUND:                -1.755
REMARK SMILES CN1CCN(c2ccc(C(=O)Nc3n[nH]c4ccc(Cc5cc(F)cc(F)c5)cc34)c(NC3CCOCC3)c2)CC1
REMARK SMILES IDX 10 1 11 2 12 3 9 5 6 6 7 7 39 8 8 9 31 10 5 11 1 12 2 13
REMARK SMILES IDX 3 14 41 15 4 16 40 17 32 18 33 20 34 21 38 22 35 23 37 24
REMARK SMILES IDX 36 25 13 26 14 27 30 28 15 29 16 30 29 31 17 33 19 34 18 35
REMARK SMILES IDX 20 36 21 37 22 38 28 39 23 40 26 41 24 42 25 43 27 44
REMARK H PARENT 12 4 32 19 15 32
REMARK Flexibility Score: inf
ROOT
ATOM      1  C   UNL     1      22.003  33.367  12.551  1.00  0.00     0.258 C 
ATOM      2  O   UNL     1      21.595  34.518  12.227  1.00  0.00    -0.269 OA
ATOM      3  N   UNL     1      21.062  32.326  12.860  1.00  0.00    -0.304 N 
ATOM      4  H   UNL     1      21.419  31.355  12.996  1.00  0.00     0.171 HD
ENDROOT
BRANCH   1   5
ATOM      5  C   UNL     1      23.460  33.112  12.640  1.00  0.00     0.063 A 
ATOM      6  C   UNL     1      26.182  32.410  12.912  1.00  0.00     0.039 A 
ATOM      7  C   UNL     1      25.371  31.759  11.972  1.00  0.00     0.027 A 
ATOM      8  C   UNL     1      25.633  33.432  13.695  1.00  0.00     0.052 A 
ATOM      9  C   UNL     1      24.026  32.107  11.836  1.00  0.00     0.018 A 
ATOM     10  C   UNL     1      24.278  33.791  13.575  1.00  0.00     0.049 A 
BRANCH   6  11
ATOM     11  N   UNL     1      27.553  32.014  13.101  1.00  0.00    -0.369 N 
ATOM     12  C   UNL     1      31.169  29.969  13.831  1.00  0.00     0.105 C 
ATOM     13  N   UNL     1      29.777  30.452  13.779  1.00  0.00    -0.303 NA
ATOM     14  C   UNL     1      29.217  30.317  12.405  1.00  0.00     0.105 C 
ATOM     15  C   UNL     1      29.687  31.822  14.321  1.00  0.00     0.105 C 
ATOM     16  C   UNL     1      28.330  31.498  11.967  1.00  0.00     0.132 C 
ATOM     17  C   UNL     1      28.222  32.259  14.384  1.00  0.00     0.132 C 
ENDBRANCH   6  11
BRANCH  10  18
ATOM     18  N   UNL     1      23.744  34.866  14.371  1.00  0.00    -0.381 N 
ATOM     19  H   UNL     1      23.672  35.816  13.933  1.00  0.00     0.160 HD
BRANCH  18  20
ATOM     20  C   UNL     1      23.186  34.665  15.714  1.00  0.00     0.083 C 
ATOM     21  C   UNL     1      21.693  35.027  15.744  1.00  0.00     0.053 C 
ATOM     22  C   UNL     1      23.369  33.205  16.156  1.00  0.00     0.053 C 
ATOM     23  C   UNL     1      21.089  34.648  17.104  1.00  0.00     0.162 C 
ATOM     24  C   UNL     1      22.630  32.954  17.478  1.00  0.00     0.162 C 
ATOM     25  O   UNL     1      21.253  33.265  17.359  1.00  0.00    -0.381 OA
ENDBRANCH  18  20
ENDBRANCH  10  18
ENDBRANCH   1   5
BRANCH   3  26
ATOM     26  C   UNL     1      19.651  32.547  12.995  1.00  0.00     0.162 A 
ATOM     27  N   UNL     1      18.991  32.651  14.177  1.00  0.00    -0.156 NA
ATOM     28  C   UNL     1      18.748  32.671  11.960  1.00  0.00     0.044 A 
ATOM     29  N   UNL     1      17.703  32.843  13.910  1.00  0.00    -0.276 N 
ATOM     30  C   UNL     1      17.542  32.857  12.574  1.00  0.00     0.067 A 
ATOM     31  C   UNL     1      18.877  32.638  10.575  1.00  0.00     0.018 A 
ATOM     32  H   UNL     1      16.960  32.966  14.634  1.00  0.00     0.190 HD
ATOM     33  C   UNL     1      16.366  33.032  11.850  1.00  0.00     0.029 A 
ATOM     34  C   UNL     1      17.705  32.799   9.801  1.00  0.00    -0.043 A 
ATOM     35  C   UNL     1      16.455  33.003  10.445  1.00  0.00     0.006 A 
BRANCH  34  36
ATOM     36  C   UNL     1      17.794  32.815   8.300  1.00  0.00     0.071 C 
BRANCH  36  37
ATOM     37  C   UNL     1      17.057  31.632   7.728  1.00  0.00    -0.038 A 
ATOM     38  C   UNL     1      15.650  31.600   7.737  1.00  0.00     0.043 A 
ATOM     39  C   UNL     1      17.768  30.527   7.232  1.00  0.00     0.043 A 
ATOM     40  C   UNL     1      14.969  30.488   7.231  1.00  0.00     0.126 A 
ATOM     41  C   UNL     1      17.083  29.415   6.732  1.00  0.00     0.126 A 
ATOM     42  F   UNL     1      13.612  30.465   7.233  1.00  0.00    -0.207 F 
ATOM     43  C   UNL     1      15.686  29.398   6.728  1.00  0.00     0.078 A 
ATOM     44  F   UNL     1      17.776  28.349   6.257  1.00  0.00    -0.207 F 
ENDBRANCH  36  37
ENDBRANCH  34  36
ENDBRANCH   3  26
TORSDOF 7
ENDMDL
MODEL 3
REMARK VINA RESULT:   -11.144      1.187      1.479
REMARK INTER + INTRA:         -17.460
REMARK INTER:                 -15.427
REMARK INTRA:                  -2.033
REMARK UNBOUND:                -1.755
REMARK SMILES CN1CCN(c2ccc(C(=O)Nc3n[nH]c4ccc(Cc5cc(F)cc(F)c5)cc34)c(NC3CCOCC3)c2)CC1
REMARK SMILES IDX 10 1 11 2 12 3 9 5 6 6 7 7 39 8 8 9 31 10 5 11 1 12 2 13
REMARK SMILES IDX 3 14 41 15 4 16 40 17 32 18 33 20 34 21 38 22 35 23 37 24
REMARK SMILES IDX 36 25 13 26 14 27 30 28 15 29 16 30 29 31 17 33 19 34 18 35
REMARK SMILES IDX 20 36 21 37 22 38 28 39 23 40 26 41 24 42 25 43 27 44
REMARK H PARENT 12 4 32 19 15 32
REMARK Flexibility Score: inf
ROOT
ATOM      1  C   UNL     1      22.474  33.450  12.747  1.00  0.00     0.258 C 
ATOM      2  O   UNL     1      22.093  34.611  13.068  1.00  0.00    -0.269 OA
ATOM      3  N   UNL     1      21.524  32.377  12.651  1.00  0.00    -0.304 N 
ATOM      4  H   UNL     1      21.840  31.463  12.259  1.00  0.00     0.171 HD
ENDROOT
BRANCH   1   5
ATOM      5  C   UNL     1      23.914  33.201  12.502  1.00  0.00     0.063 A 
ATOM      6  C   UNL     1      26.609  32.486  12.052  1.00  0.00     0.039 A 
ATOM      7  C   UNL     1      25.637  32.246  11.071  1.00  0.00     0.027 A 
ATOM      8  C   UNL     1      26.233  33.110  13.247  1.00  0.00     0.052 A 
ATOM      9  C   UNL     1      24.306  32.601  11.292  1.00  0.00     0.018 A 
ATOM     10  C   UNL     1      24.893  33.468  13.489  1.00  0.00     0.049 A 
BRANCH   6  11
ATOM     11  N   UNL     1      27.972  32.067  11.856  1.00  0.00    -0.369 N 
ATOM     12  C   UNL     1      31.857  30.459  12.189  1.00  0.00     0.105 C 
ATOM     13  N   UNL     1      30.519  31.039  12.406  1.00  0.00    -0.303 NA
ATOM     14  C   UNL     1      29.452  30.085  11.992  1.00  0.00     0.105 C 
ATOM     15  C   UNL     1      30.419  32.359  11.752  1.00  0.00     0.105 C 
ATOM     16  C   UNL     1      28.257  30.748  11.278  1.00  0.00     0.132 C 
ATOM     17  C   UNL     1      29.075  33.005  12.095  1.00  0.00     0.132 C 
ENDBRANCH   6  11
BRANCH  10  18
ATOM     18  N   UNL     1      24.536  34.136  14.713  1.00  0.00    -0.381 N 
ATOM     19  H   UNL     1      24.388  35.174  14.686  1.00  0.00     0.160 HD
BRANCH  18  20
ATOM     20  C   UNL     1      24.250  33.418  15.962  1.00  0.00     0.083 C 
ATOM     21  C   UNL     1      25.241  33.825  17.063  1.00  0.00     0.053 C 
ATOM     22  C   UNL     1      22.816  33.709  16.430  1.00  0.00     0.053 C 
ATOM     23  C   UNL     1      24.822  33.199  18.402  1.00  0.00     0.162 C 
ATOM     24  C   UNL     1      22.579  33.105  17.821  1.00  0.00     0.162 C 
ATOM     25  O   UNL     1      23.514  33.606  18.759  1.00  0.00    -0.381 OA
ENDBRANCH  18  20
ENDBRANCH  10  18
ENDBRANCH   1   5
BRANCH   3  26
ATOM     26  C   UNL     1      20.155  32.489  13.068  1.00  0.00     0.162 A 
ATOM     27  N   UNL     1      19.720  32.354  14.347  1.00  0.00    -0.156 NA
ATOM     28  C   UNL     1      19.076  32.734  12.246  1.00  0.00     0.044 A 
ATOM     29  N   UNL     1      18.400  32.513  14.348  1.00  0.00    -0.276 N 
ATOM     30  C   UNL     1      17.997  32.743  13.084  1.00  0.00     0.067 A 
ATOM     31  C   UNL     1      18.951  32.943  10.875  1.00  0.00     0.018 A 
ATOM     32  H   UNL     1      17.798  32.469  15.200  1.00  0.00     0.190 HD
ATOM     33  C   UNL     1      16.705  32.970  12.620  1.00  0.00     0.029 A 
ATOM     34  C   UNL     1      17.654  33.164  10.360  1.00  0.00    -0.043 A 
ATOM     35  C   UNL     1      16.537  33.184  11.238  1.00  0.00     0.006 A 
BRANCH  34  36
ATOM     36  C   UNL     1      17.466  33.438   8.893  1.00  0.00     0.071 C 
BRANCH  36  37
ATOM     37  C   UNL     1      17.014  32.186   8.188  1.00  0.00    -0.038 A 
ATOM     38  C   UNL     1      17.950  31.354   7.547  1.00  0.00     0.043 A 
ATOM     39  C   UNL     1      15.647  31.868   8.118  1.00  0.00     0.043 A 
ATOM     40  C   UNL     1      17.525  30.207   6.870  1.00  0.00     0.126 A 
ATOM     41  C   UNL     1      15.226  30.723   7.435  1.00  0.00     0.126 A 
ATOM     42  F   UNL     1      18.432  29.402   6.261  1.00  0.00    -0.207 F 
ATOM     43  C   UNL     1      16.163  29.892   6.815  1.00  0.00     0.078 A 
ATOM     44  F   UNL     1      13.903  30.422   7.367  1.00  0.00    -0.207 F 
ENDBRANCH  36  37
ENDBRANCH  34  36
ENDBRANCH   3  26
TORSDOF 7
ENDMDL
MODEL 4
REMARK VINA RESULT:   -10.998      1.424      1.557
REMARK INTER + INTRA:         -17.253
REMARK INTER:                 -15.378
REMARK INTRA:                  -1.875
REMARK UNBOUND:                -1.755
REMARK SMILES CN1CCN(c2ccc(C(=O)Nc3n[nH]c4ccc(Cc5cc(F)cc(F)c5)cc34)c(NC3CCOCC3)c2)CC1
REMARK SMILES IDX 10 1 11 2 12 3 9 5 6 6 7 7 39 8 8 9 31 10 5 11 1 12 2 13
REMARK SMILES IDX 3 14 41 15 4 16 40 17 32 18 33 20 34 21 38 22 35 23 37 24
REMARK SMILES IDX 36 25 13 26 14 27 30 28 15 29 16 30 29 31 17 33 19 34 18 35
REMARK SMILES IDX 20 36 21 37 22 38 28 39 23 40 26 41 24 42 25 43 27 44
REMARK H PARENT 12 4 32 19 15 32
REMARK Flexibility Score: inf
ROOT
ATOM      1  C   UNL     1      21.730  34.088  13.567  1.00  0.00     0.258 C 
ATOM      2  O   UNL     1      21.414  35.174  14.129  1.00  0.00    -0.269 OA
ATOM      3  N   UNL     1      20.709  33.191  13.100  1.00  0.00    -0.304 N 
ATOM      4  H   UNL     1      20.992  32.368  12.524  1.00  0.00     0.171 HD
ENDROOT
BRANCH   1   5
ATOM      5  C   UNL     1      23.161  33.735  13.423  1.00  0.00     0.063 A 
ATOM      6  C   UNL     1      25.820  32.884  12.994  1.00  0.00     0.039 A 
ATOM      7  C   UNL     1      25.115  33.550  11.982  1.00  0.00     0.027 A 
ATOM      8  C   UNL     1      25.200  32.671  14.230  1.00  0.00     0.052 A 
ATOM      9  C   UNL     1      23.802  33.972  12.194  1.00  0.00     0.018 A 
ATOM     10  C   UNL     1      23.874  33.084  14.459  1.00  0.00     0.049 A 
BRANCH   6  11
ATOM     11  N   UNL     1      27.152  32.391  12.761  1.00  0.00    -0.369 N 
ATOM     12  C   UNL     1      30.617  30.064  12.150  1.00  0.00     0.105 C 
ATOM     13  N   UNL     1      29.303  30.611  12.537  1.00  0.00    -0.303 NA
ATOM     14  C   UNL     1      28.443  30.827  11.340  1.00  0.00     0.105 C 
ATOM     15  C   UNL     1      29.473  31.819  13.368  1.00  0.00     0.105 C 
ATOM     16  C   UNL     1      27.604  32.119  11.391  1.00  0.00     0.132 C 
ATOM     17  C   UNL     1      28.109  32.298  13.870  1.00  0.00     0.132 C 
ENDBRANCH   6  11
BRANCH  10  18
ATOM     18  N   UNL     1      23.268  32.880  15.749  1.00  0.00    -0.381 N 
ATOM     19  H   UNL     1      22.783  31.967  15.928  1.00  0.00     0.160 HD
BRANCH  18  20
ATOM     20  C   UNL     1      23.403  33.834  16.856  1.00  0.00     0.083 C 
ATOM     21  C   UNL     1      22.057  34.036  17.569  1.00  0.00     0.053 C 
ATOM     22  C   UNL     1      24.448  33.336  17.866  1.00  0.00     0.053 C 
ATOM     23  C   UNL     1      22.254  34.898  18.825  1.00  0.00     0.162 C 
ATOM     24  C   UNL     1      24.460  34.240  19.107  1.00  0.00     0.162 C 
ATOM     25  O   UNL     1      23.179  34.293  19.709  1.00  0.00    -0.381 OA
ENDBRANCH  18  20
ENDBRANCH  10  18
ENDBRANCH   1   5
BRANCH   3  26
ATOM     26  C   UNL     1      19.312  33.363  13.382  1.00  0.00     0.162 A 
ATOM     27  N   UNL     1      18.759  33.316  14.621  1.00  0.00    -0.156 NA
ATOM     28  C   UNL     1      18.319  33.585  12.451  1.00  0.00     0.044 A 
ATOM     29  N   UNL     1      17.450  33.508  14.491  1.00  0.00    -0.276 N 
ATOM     30  C   UNL     1      17.170  33.671  13.185  1.00  0.00     0.067 A 
ATOM     31  C   UNL     1      18.326  33.715  11.065  1.00  0.00     0.018 A 
ATOM     32  H   UNL     1      16.772  33.530  15.286  1.00  0.00     0.190 HD
ATOM     33  C   UNL     1      15.933  33.902  12.591  1.00  0.00     0.029 A 
ATOM     34  C   UNL     1      17.088  33.937  10.420  1.00  0.00    -0.043 A 
ATOM     35  C   UNL     1      15.897  34.038  11.190  1.00  0.00     0.006 A 
BRANCH  34  36
ATOM     36  C   UNL     1      17.042  34.128   8.929  1.00  0.00     0.071 C 
BRANCH  36  37
ATOM     37  C   UNL     1      16.922  32.793   8.243  1.00  0.00    -0.038 A 
ATOM     38  C   UNL     1      18.060  32.168   7.699  1.00  0.00     0.043 A 
ATOM     39  C   UNL     1      15.664  32.186   8.090  1.00  0.00     0.043 A 
ATOM     40  C   UNL     1      17.941  30.942   7.038  1.00  0.00     0.126 A 
ATOM     41  C   UNL     1      15.549  30.963   7.423  1.00  0.00     0.126 A 
ATOM     42  F   UNL     1      19.042  30.338   6.523  1.00  0.00    -0.207 F 
ATOM     43  C   UNL     1      16.686  30.340   6.901  1.00  0.00     0.078 A 
ATOM     44  F   UNL     1      14.330  30.383   7.275  1.00  0.00    -0.207 F 
ENDBRANCH  36  37
ENDBRANCH  34  36
ENDBRANCH   3  26
TORSDOF 7
ENDMDL
MODEL 5
REMARK VINA RESULT:   -10.553      4.517      7.593
REMARK INTER + INTRA:         -16.626
REMARK INTER:                 -14.524
REMARK INTRA:                  -2.103
REMARK UNBOUND:                -1.755
REMARK SMILES CN1CCN(c2ccc(C(=O)Nc3n[nH]c4ccc(Cc5cc(F)cc(F)c5)cc34)c(NC3CCOCC3)c2)CC1
REMARK SMILES IDX 10 1 11 2 12 3 9 5 6 6 7 7 39 8 8 9 31 10 5 11 1 12 2 13
REMARK SMILES IDX 3 14 41 15 4 16 40 17 32 18 33 20 34 21 38 22 35 23 37 24
REMARK SMILES IDX 36 25 13 26 14 27 30 28 15 29 16 30 29 31 17 33 19 34 18 35
REMARK SMILES IDX 20 36 21 37 22 38 28 39 23 40 26 41 24 42 25 43 27 44
REMARK H PARENT 12 4 32 19 15 32
REMARK Flexibility Score: inf
ROOT
ATOM      1  C   UNL     1      17.801  35.360  18.510  1.00  0.00     0.258 C 
ATOM      2  O   UNL     1      17.786  34.097  18.540  1.00  0.00    -0.269 OA
ATOM      3  N   UNL     1      16.765  36.079  17.821  1.00  0.00    -0.304 N 
ATOM      4  H   UNL     1      16.727  37.118  17.921  1.00  0.00     0.171 HD
ENDROOT
BRANCH   1   5
ATOM      5  C   UNL     1      18.912  36.089  19.164  1.00  0.00     0.063 A 
ATOM      6  C   UNL     1      20.972  37.672  20.271  1.00  0.00     0.039 A 
ATOM      7  C   UNL     1      19.630  37.938  20.576  1.00  0.00     0.027 A 
ATOM      8  C   UNL     1      21.281  36.594  19.434  1.00  0.00     0.052 A 
ATOM      9  C   UNL     1      18.612  37.155  20.030  1.00  0.00     0.018 A 
ATOM     10  C   UNL     1      20.267  35.799  18.869  1.00  0.00     0.049 A 
BRANCH   6  11
ATOM     11  N   UNL     1      22.024  38.513  20.781  1.00  0.00    -0.369 N 
ATOM     12  C   UNL     1      25.075  41.367  21.364  1.00  0.00     0.105 C 
ATOM     13  N   UNL     1      24.107  40.385  20.841  1.00  0.00    -0.303 NA
ATOM     14  C   UNL     1      22.711  40.884  20.987  1.00  0.00     0.105 C 
ATOM     15  C   UNL     1      24.330  39.063  21.461  1.00  0.00     0.105 C 
ATOM     16  C   UNL     1      21.695  39.802  21.402  1.00  0.00     0.132 C 
ATOM     17  C   UNL     1      23.408  38.027  20.814  1.00  0.00     0.132 C 
ENDBRANCH   6  11
BRANCH  10  18
ATOM     18  N   UNL     1      20.611  34.678  18.034  1.00  0.00    -0.381 N 
ATOM     19  H   UNL     1      20.226  33.736  18.288  1.00  0.00     0.160 HD
BRANCH  18  20
ATOM     20  C   UNL     1      21.369  34.814  16.784  1.00  0.00     0.083 C 
ATOM     21  C   UNL     1      21.456  33.468  16.050  1.00  0.00     0.053 C 
ATOM     22  C   UNL     1      20.707  35.856  15.869  1.00  0.00     0.053 C 
ATOM     23  C   UNL     1      22.098  33.665  14.668  1.00  0.00     0.162 C 
ATOM     24  C   UNL     1      21.393  35.868  14.496  1.00  0.00     0.162 C 
ATOM     25  O   UNL     1      21.352  34.586  13.895  1.00  0.00    -0.381 OA
ENDBRANCH  18  20
ENDBRANCH  10  18
ENDBRANCH   1   5
BRANCH   3  26
ATOM     26  C   UNL     1      15.775  35.448  16.996  1.00  0.00     0.162 A 
ATOM     27  N   UNL     1      14.478  35.256  17.350  1.00  0.00    -0.156 NA
ATOM     28  C   UNL     1      15.981  34.930  15.735  1.00  0.00     0.044 A 
ATOM     29  N   UNL     1      13.868  34.638  16.344  1.00  0.00    -0.276 N 
ATOM     30  C   UNL     1      14.765  34.434  15.361  1.00  0.00     0.067 A 
ATOM     31  C   UNL     1      17.099  34.853  14.909  1.00  0.00     0.018 A 
ATOM     32  H   UNL     1      12.858  34.370  16.337  1.00  0.00     0.190 HD
ATOM     33  C   UNL     1      14.566  33.827  14.125  1.00  0.00     0.029 A 
ATOM     34  C   UNL     1      16.944  34.232  13.649  1.00  0.00    -0.043 A 
ATOM     35  C   UNL     1      15.673  33.728  13.261  1.00  0.00     0.006 A 
BRANCH  34  36
ATOM     36  C   UNL     1      18.108  34.160  12.699  1.00  0.00     0.071 C 
BRANCH  36  37
ATOM     37  C   UNL     1      17.620  33.848  11.309  1.00  0.00    -0.038 A 
ATOM     38  C   UNL     1      18.053  32.684  10.648  1.00  0.00     0.043 A 
ATOM     39  C   UNL     1      16.772  34.746  10.639  1.00  0.00     0.043 A 
ATOM     40  C   UNL     1      17.621  32.412   9.347  1.00  0.00     0.126 A 
ATOM     41  C   UNL     1      16.346  34.472   9.336  1.00  0.00     0.126 A 
ATOM     42  F   UNL     1      18.033  31.283   8.716  1.00  0.00    -0.207 F 
ATOM     43  C   UNL     1      16.767  33.306   8.692  1.00  0.00     0.078 A 
ATOM     44  F   UNL     1      15.529  35.345   8.691  1.00  0.00    -0.207 F 
ENDBRANCH  36  37
ENDBRANCH  34  36
ENDBRANCH   3  26
TORSDOF 7
ENDMDL
MODEL 6
REMARK VINA RESULT:   -10.540      2.414      3.529
REMARK INTER + INTRA:         -16.609
REMARK INTER:                 -14.591
REMARK INTRA:                  -2.018
REMARK UNBOUND:                -1.755
REMARK SMILES CN1CCN(c2ccc(C(=O)Nc3n[nH]c4ccc(Cc5cc(F)cc(F)c5)cc34)c(NC3CCOCC3)c2)CC1
REMARK SMILES IDX 10 1 11 2 12 3 9 5 6 6 7 7 39 8 8 9 31 10 5 11 1 12 2 13
REMARK SMILES IDX 3 14 41 15 4 16 40 17 32 18 33 20 34 21 38 22 35 23 37 24
REMARK SMILES IDX 36 25 13 26 14 27 30 28 15 29 16 30 29 31 17 33 19 34 18 35
REMARK SMILES IDX 20 36 21 37 22 38 28 39 23 40 26 41 24 42 25 43 27 44
REMARK H PARENT 12 4 32 19 15 32
REMARK Flexibility Score: inf
ROOT
ATOM      1  C   UNL     1      23.041  35.194  13.354  1.00  0.00     0.258 C 
ATOM      2  O   UNL     1      22.857  36.386  12.978  1.00  0.00    -0.269 OA
ATOM      3  N   UNL     1      22.043  34.521  14.139  1.00  0.00    -0.304 N 
ATOM      4  H   UNL     1      22.159  33.500  14.324  1.00  0.00     0.171 HD
ENDROOT
BRANCH   1   5
ATOM      5  C   UNL     1      24.308  34.511  13.005  1.00  0.00     0.063 A 
ATOM      6  C   UNL     1      26.621  33.000  12.418  1.00  0.00     0.039 A 
ATOM      7  C   UNL     1      25.465  32.863  11.636  1.00  0.00     0.027 A 
ATOM      8  C   UNL     1      26.624  33.916  13.476  1.00  0.00     0.052 A 
ATOM      9  C   UNL     1      24.323  33.611  11.925  1.00  0.00     0.018 A 
ATOM     10  C   UNL     1      25.479  34.673  13.786  1.00  0.00     0.049 A 
BRANCH   6  11
ATOM     11  N   UNL     1      27.782  32.188  12.164  1.00  0.00    -0.369 N 
ATOM     12  C   UNL     1      31.525  30.631  10.998  1.00  0.00     0.105 C 
ATOM     13  N   UNL     1      30.261  31.377  11.143  1.00  0.00    -0.303 NA
ATOM     14  C   UNL     1      30.246  32.158  12.411  1.00  0.00     0.105 C 
ATOM     15  C   UNL     1      29.107  30.467  10.996  1.00  0.00     0.105 C 
ATOM     16  C   UNL     1      28.884  32.162  13.133  1.00  0.00     0.132 C 
ATOM     17  C   UNL     1      27.807  31.273  11.016  1.00  0.00     0.132 C 
ENDBRANCH   6  11
BRANCH  10  18
ATOM     18  N   UNL     1      25.516  35.629  14.861  1.00  0.00    -0.381 N 
ATOM     19  H   UNL     1      25.615  36.644  14.616  1.00  0.00     0.160 HD
BRANCH  18  20
ATOM     20  C   UNL     1      25.301  35.262  16.266  1.00  0.00     0.083 C 
ATOM     21  C   UNL     1      24.287  36.209  16.927  1.00  0.00     0.053 C 
ATOM     22  C   UNL     1      24.794  33.816  16.368  1.00  0.00     0.053 C 
ATOM     23  C   UNL     1      23.944  35.706  18.338  1.00  0.00     0.162 C 
ATOM     24  C   UNL     1      24.399  33.492  17.816  1.00  0.00     0.162 C 
ATOM     25  O   UNL     1      23.415  34.394  18.289  1.00  0.00    -0.381 OA
ENDBRANCH  18  20
ENDBRANCH  10  18
ENDBRANCH   1   5
BRANCH   3  26
ATOM     26  C   UNL     1      20.890  35.174  14.686  1.00  0.00     0.162 A 
ATOM     27  N   UNL     1      20.927  36.235  15.533  1.00  0.00    -0.156 NA
ATOM     28  C   UNL     1      19.575  34.825  14.456  1.00  0.00     0.044 A 
ATOM     29  N   UNL     1      19.674  36.562  15.833  1.00  0.00    -0.276 N 
ATOM     30  C   UNL     1      18.846  35.718  15.190  1.00  0.00     0.067 A 
ATOM     31  C   UNL     1      18.975  33.831  13.689  1.00  0.00     0.018 A 
ATOM     32  H   UNL     1      19.401  37.351  16.462  1.00  0.00     0.190 HD
ATOM     33  C   UNL     1      17.455  35.693  15.209  1.00  0.00     0.029 A 
ATOM     34  C   UNL     1      17.563  33.762  13.691  1.00  0.00    -0.043 A 
ATOM     35  C   UNL     1      16.810  34.700  14.447  1.00  0.00     0.006 A 
BRANCH  34  36
ATOM     36  C   UNL     1      16.861  32.734  12.846  1.00  0.00     0.071 C 
BRANCH  36  37
ATOM     37  C   UNL     1      16.909  33.139  11.397  1.00  0.00    -0.038 A 
ATOM     38  C   UNL     1      16.183  34.257  10.947  1.00  0.00     0.043 A 
ATOM     39  C   UNL     1      17.635  32.371  10.470  1.00  0.00     0.043 A 
ATOM     40  C   UNL     1      16.207  34.615   9.595  1.00  0.00     0.126 A 
ATOM     41  C   UNL     1      17.652  32.729   9.119  1.00  0.00     0.126 A 
ATOM     42  F   UNL     1      15.513  35.700   9.167  1.00  0.00    -0.207 F 
ATOM     43  C   UNL     1      16.942  33.851   8.683  1.00  0.00     0.078 A 
ATOM     44  F   UNL     1      18.352  31.981   8.228  1.00  0.00    -0.207 F 
ENDBRANCH  36  37
ENDBRANCH  34  36
ENDBRANCH   3  26
TORSDOF 7
ENDMDL
MODEL 7
REMARK VINA RESULT:   -10.538      2.570      3.648
REMARK INTER + INTRA:         -16.605
REMARK INTER:                 -14.804
REMARK INTRA:                  -1.801
REMARK UNBOUND:                -1.755
REMARK SMILES CN1CCN(c2ccc(C(=O)Nc3n[nH]c4ccc(Cc5cc(F)cc(F)c5)cc34)c(NC3CCOCC3)c2)CC1
REMARK SMILES IDX 10 1 11 2 12 3 9 5 6 6 7 7 39 8 8 9 31 10 5 11 1 12 2 13
REMARK SMILES IDX 3 14 41 15 4 16 40 17 32 18 33 20 34 21 38 22 35 23 37 24
REMARK SMILES IDX 36 25 13 26 14 27 30 28 15 29 16 30 29 31 17 33 19 34 18 35
REMARK SMILES IDX 20 36 21 37 22 38 28 39 23 40 26 41 24 42 25 43 27 44
REMARK H PARENT 12 4 32 19 15 32
REMARK Flexibility Score: inf
ROOT
ATOM      1  C   UNL     1      22.648  34.326  14.773  1.00  0.00     0.258 C 
ATOM      2  O   UNL     1      22.195  33.551  15.660  1.00  0.00    -0.269 OA
ATOM      3  N   UNL     1      21.926  35.516  14.415  1.00  0.00    -0.304 N 
ATOM      4  H   UNL     1      22.383  36.205  13.776  1.00  0.00     0.171 HD
ENDROOT
BRANCH   1   5
ATOM      5  C   UNL     1      23.913  33.981  14.083  1.00  0.00     0.063 A 
ATOM      6  C   UNL     1      26.237  33.095  12.745  1.00  0.00     0.039 A 
ATOM      7  C   UNL     1      25.028  33.236  12.050  1.00  0.00     0.027 A 
ATOM      8  C   UNL     1      26.285  33.424  14.104  1.00  0.00     0.052 A 
ATOM      9  C   UNL     1      23.880  33.676  12.711  1.00  0.00     0.018 A 
ATOM     10  C   UNL     1      25.136  33.863  14.787  1.00  0.00     0.049 A 
BRANCH   6  11
ATOM     11  N   UNL     1      27.409  32.583  12.085  1.00  0.00    -0.369 N 
ATOM     12  C   UNL     1      30.817  30.410  10.876  1.00  0.00     0.105 C 
ATOM     13  N   UNL     1      29.709  31.058  11.603  1.00  0.00    -0.303 NA
ATOM     14  C   UNL     1      28.395  30.500  11.175  1.00  0.00     0.105 C 
ATOM     15  C   UNL     1      29.798  32.526  11.474  1.00  0.00     0.105 C 
ATOM     16  C   UNL     1      27.276  31.552  11.048  1.00  0.00     0.132 C 
ATOM     17  C   UNL     1      28.723  33.187  12.339  1.00  0.00     0.132 C 
ENDBRANCH   6  11
BRANCH  10  18
ATOM     18  N   UNL     1      25.217  34.224  16.178  1.00  0.00    -0.381 N 
ATOM     19  H   UNL     1      25.163  35.241  16.429  1.00  0.00     0.160 HD
BRANCH  18  20
ATOM     20  C   UNL     1      25.249  33.234  17.262  1.00  0.00     0.083 C 
ATOM     21  C   UNL     1      26.676  33.065  17.805  1.00  0.00     0.053 C 
ATOM     22  C   UNL     1      24.314  33.660  18.403  1.00  0.00     0.053 C 
ATOM     23  C   UNL     1      26.661  32.161  19.046  1.00  0.00     0.162 C 
ATOM     24  C   UNL     1      24.482  32.722  19.606  1.00  0.00     0.162 C 
ATOM     25  O   UNL     1      25.826  32.702  20.052  1.00  0.00    -0.381 OA
ENDBRANCH  18  20
ENDBRANCH  10  18
ENDBRANCH   1   5
BRANCH   3  26
ATOM     26  C   UNL     1      20.604  35.814  14.886  1.00  0.00     0.162 A 
ATOM     27  N   UNL     1      20.295  36.812  15.752  1.00  0.00    -0.156 NA
ATOM     28  C   UNL     1      19.452  35.133  14.550  1.00  0.00     0.044 A 
ATOM     29  N   UNL     1      18.983  36.779  15.962  1.00  0.00    -0.276 N 
ATOM     30  C   UNL     1      18.461  35.768  15.243  1.00  0.00     0.067 A 
ATOM     31  C   UNL     1      19.197  34.044  13.721  1.00  0.00     0.018 A 
ATOM     32  H   UNL     1      18.465  37.441  16.583  1.00  0.00     0.190 HD
ATOM     33  C   UNL     1      17.130  35.370  15.157  1.00  0.00     0.029 A 
ATOM     34  C   UNL     1      17.860  33.598  13.616  1.00  0.00    -0.043 A 
ATOM     35  C   UNL     1      16.831  34.270  14.330  1.00  0.00     0.006 A 
BRANCH  34  36
ATOM     36  C   UNL     1      17.522  32.453  12.701  1.00  0.00     0.071 C 
BRANCH  36  37
ATOM     37  C   UNL     1      17.253  32.965  11.311  1.00  0.00    -0.038 A 
ATOM     38  C   UNL     1      17.776  32.292  10.192  1.00  0.00     0.043 A 
ATOM     39  C   UNL     1      16.526  34.153  11.123  1.00  0.00     0.043 A 
ATOM     40  C   UNL     1      17.549  32.786   8.904  1.00  0.00     0.126 A 
ATOM     41  C   UNL     1      16.305  34.646   9.833  1.00  0.00     0.126 A 
ATOM     42  F   UNL     1      18.046  32.128   7.826  1.00  0.00    -0.207 F 
ATOM     43  C   UNL     1      16.813  33.962   8.726  1.00  0.00     0.078 A 
ATOM     44  F   UNL     1      15.604  35.796   9.658  1.00  0.00    -0.207 F 
ENDBRANCH  36  37
ENDBRANCH  34  36
ENDBRANCH   3  26
TORSDOF 7
ENDMDL
MODEL 8
REMARK VINA RESULT:   -10.516      4.586     10.038
REMARK INTER + INTRA:         -16.575
REMARK INTER:                 -13.565
REMARK INTRA:                  -3.009
REMARK UNBOUND:                -1.755
REMARK SMILES CN1CCN(c2ccc(C(=O)Nc3n[nH]c4ccc(Cc5cc(F)cc(F)c5)cc34)c(NC3CCOCC3)c2)CC1
REMARK SMILES IDX 10 1 11 2 12 3 9 5 6 6 7 7 39 8 8 9 31 10 5 11 1 12 2 13
REMARK SMILES IDX 3 14 41 15 4 16 40 17 32 18 33 20 34 21 38 22 35 23 37 24
REMARK SMILES IDX 36 25 13 26 14 27 30 28 15 29 16 30 29 31 17 33 19 34 18 35
REMARK SMILES IDX 20 36 21 37 22 38 28 39 23 40 26 41 24 42 25 43 27 44
REMARK H PARENT 12 4 32 19 15 32
REMARK Flexibility Score: inf
ROOT
ATOM      1  C   UNL     1      18.154  34.448  15.206  1.00  0.00     0.258 C 
ATOM      2  O   UNL     1      18.698  33.651  16.021  1.00  0.00    -0.269 OA
ATOM      3  N   UNL     1      17.677  35.728  15.654  1.00  0.00    -0.304 N 
ATOM      4  H   UNL     1      17.353  36.418  14.940  1.00  0.00     0.171 HD
ENDROOT
BRANCH   1   5
ATOM      5  C   UNL     1      17.984  34.038  13.792  1.00  0.00     0.063 A 
ATOM      6  C   UNL     1      17.540  33.059  11.181  1.00  0.00     0.039 A 
ATOM      7  C   UNL     1      16.478  33.574  11.936  1.00  0.00     0.027 A 
ATOM      8  C   UNL     1      18.829  33.060  11.726  1.00  0.00     0.052 A 
ATOM      9  C   UNL     1      16.698  34.060  13.226  1.00  0.00     0.018 A 
ATOM     10  C   UNL     1      19.067  33.540  13.027  1.00  0.00     0.049 A 
BRANCH   6  11
ATOM     11  N   UNL     1      17.311  32.499   9.874  1.00  0.00    -0.369 N 
ATOM     12  C   UNL     1      16.168  30.158   6.557  1.00  0.00     0.105 C 
ATOM     13  N   UNL     1      16.557  30.684   7.879  1.00  0.00    -0.303 NA
ATOM     14  C   UNL     1      15.522  31.617   8.406  1.00  0.00     0.105 C 
ATOM     15  C   UNL     1      17.909  31.274   7.819  1.00  0.00     0.105 C 
ATOM     16  C   UNL     1      16.096  32.851   9.129  1.00  0.00     0.132 C 
ATOM     17  C   UNL     1      18.352  31.695   9.222  1.00  0.00     0.132 C 
ENDBRANCH   6  11
BRANCH  10  18
ATOM     18  N   UNL     1      20.407  33.559  13.555  1.00  0.00    -0.381 N 
ATOM     19  H   UNL     1      20.689  32.793  14.215  1.00  0.00     0.160 HD
BRANCH  18  20
ATOM     20  C   UNL     1      21.424  34.523  13.119  1.00  0.00     0.083 C 
ATOM     21  C   UNL     1      21.562  35.667  14.135  1.00  0.00     0.053 C 
ATOM     22  C   UNL     1      22.782  33.825  12.947  1.00  0.00     0.053 C 
ATOM     23  C   UNL     1      22.746  36.568  13.753  1.00  0.00     0.162 C 
ATOM     24  C   UNL     1      23.880  34.861  12.667  1.00  0.00     0.162 C 
ATOM     25  O   UNL     1      23.948  35.823  13.704  1.00  0.00    -0.381 OA
ENDBRANCH  18  20
ENDBRANCH  10  18
ENDBRANCH   1   5
BRANCH   3  26
ATOM     26  C   UNL     1      17.620  36.114  17.034  1.00  0.00     0.162 A 
ATOM     27  N   UNL     1      16.485  36.177  17.776  1.00  0.00    -0.156 NA
ATOM     28  C   UNL     1      18.692  36.493  17.814  1.00  0.00     0.044 A 
ATOM     29  N   UNL     1      16.818  36.579  18.999  1.00  0.00    -0.276 N 
ATOM     30  C   UNL     1      18.149  36.774  19.036  1.00  0.00     0.067 A 
ATOM     31  C   UNL     1      20.056  36.612  17.565  1.00  0.00     0.018 A 
ATOM     32  H   UNL     1      16.142  36.708  19.785  1.00  0.00     0.190 HD
ATOM     33  C   UNL     1      18.928  37.190  20.111  1.00  0.00     0.029 A 
ATOM     34  C   UNL     1      20.883  37.045  18.626  1.00  0.00    -0.043 A 
ATOM     35  C   UNL     1      20.314  37.325  19.898  1.00  0.00     0.006 A 
BRANCH  34  36
ATOM     36  C   UNL     1      22.370  37.149  18.424  1.00  0.00     0.071 C 
BRANCH  36  37
ATOM     37  C   UNL     1      22.977  35.774  18.345  1.00  0.00    -0.038 A 
ATOM     38  C   UNL     1      23.080  34.975  19.499  1.00  0.00     0.043 A 
ATOM     39  C   UNL     1      23.497  35.298  17.130  1.00  0.00     0.043 A 
ATOM     40  C   UNL     1      23.670  33.709  19.429  1.00  0.00     0.126 A 
ATOM     41  C   UNL     1      24.091  34.034  17.064  1.00  0.00     0.126 A 
ATOM     42  F   UNL     1      23.759  32.938  20.542  1.00  0.00    -0.207 F 
ATOM     43  C   UNL     1      24.174  33.240  18.211  1.00  0.00     0.078 A 
ATOM     44  F   UNL     1      24.595  33.581  15.888  1.00  0.00    -0.207 F 
ENDBRANCH  36  37
ENDBRANCH  34  36
ENDBRANCH   3  26
TORSDOF 7
ENDMDL
MODEL 9
REMARK VINA RESULT:   -10.405      4.518      6.910
REMARK INTER + INTRA:         -16.418
REMARK INTER:                 -14.690
REMARK INTRA:                  -1.728
REMARK UNBOUND:                -1.755
REMARK SMILES CN1CCN(c2ccc(C(=O)Nc3n[nH]c4ccc(Cc5cc(F)cc(F)c5)cc34)c(NC3CCOCC3)c2)CC1
REMARK SMILES IDX 10 1 11 2 12 3 9 5 6 6 7 7 39 8 8 9 31 10 5 11 1 12 2 13
REMARK SMILES IDX 3 14 41 15 4 16 40 17 32 18 33 20 34 21 38 22 35 23 37 24
REMARK SMILES IDX 36 25 13 26 14 27 30 28 15 29 16 30 29 31 17 33 19 34 18 35
REMARK SMILES IDX 20 36 21 37 22 38 28 39 23 40 26 41 24 42 25 43 27 44
REMARK H PARENT 12 4 32 19 15 32
REMARK Flexibility Score: inf
ROOT
ATOM      1  C   UNL     1      21.205  33.432  14.114  1.00  0.00     0.258 C 
ATOM      2  O   UNL     1      20.922  34.567  13.637  1.00  0.00    -0.269 OA
ATOM      3  N   UNL     1      20.541  32.255  13.625  1.00  0.00    -0.304 N 
ATOM      4  H   UNL     1      20.883  31.321  13.941  1.00  0.00     0.171 HD
ENDROOT
BRANCH   1   5
ATOM      5  C   UNL     1      22.203  33.331  15.205  1.00  0.00     0.063 A 
ATOM      6  C   UNL     1      24.017  33.351  17.368  1.00  0.00     0.039 A 
ATOM      7  C   UNL     1      22.653  33.117  17.588  1.00  0.00     0.027 A 
ATOM      8  C   UNL     1      24.474  33.548  16.060  1.00  0.00     0.052 A 
ATOM      9  C   UNL     1      21.756  33.105  16.518  1.00  0.00     0.018 A 
ATOM     10  C   UNL     1      23.583  33.545  14.971  1.00  0.00     0.049 A 
BRANCH   6  11
ATOM     11  N   UNL     1      24.938  33.427  18.472  1.00  0.00    -0.369 N 
ATOM     12  C   UNL     1      27.971  32.795  21.335  1.00  0.00     0.105 C 
ATOM     13  N   UNL     1      26.913  32.682  20.314  1.00  0.00    -0.303 NA
ATOM     14  C   UNL     1      27.348  33.294  19.027  1.00  0.00     0.105 C 
ATOM     15  C   UNL     1      25.642  33.229  20.828  1.00  0.00     0.105 C 
ATOM     16  C   UNL     1      26.242  34.079  18.296  1.00  0.00     0.132 C 
ATOM     17  C   UNL     1      24.525  32.986  19.810  1.00  0.00     0.132 C 
ENDBRANCH   6  11
BRANCH  10  18
ATOM     18  N   UNL     1      24.081  33.720  13.632  1.00  0.00    -0.381 N 
ATOM     19  H   UNL     1      24.149  32.874  13.016  1.00  0.00     0.160 HD
BRANCH  18  20
ATOM     20  C   UNL     1      24.379  35.037  13.055  1.00  0.00     0.083 C 
ATOM     21  C   UNL     1      23.839  35.138  11.620  1.00  0.00     0.053 C 
ATOM     22  C   UNL     1      23.760  36.149  13.915  1.00  0.00     0.053 C 
ATOM     23  C   UNL     1      24.004  36.573  11.098  1.00  0.00     0.162 C 
ATOM     24  C   UNL     1      23.917  37.508  13.218  1.00  0.00     0.162 C 
ATOM     25  O   UNL     1      23.325  37.492  11.932  1.00  0.00    -0.381 OA
ENDBRANCH  18  20
ENDBRANCH  10  18
ENDBRANCH   1   5
BRANCH   3  26
ATOM     26  C   UNL     1      19.426  32.290  12.723  1.00  0.00     0.162 A 
ATOM     27  N   UNL     1      19.434  31.796  11.458  1.00  0.00    -0.156 NA
ATOM     28  C   UNL     1      18.187  32.837  12.987  1.00  0.00     0.044 A 
ATOM     29  N   UNL     1      18.235  32.014  10.927  1.00  0.00    -0.276 N 
ATOM     30  C   UNL     1      17.472  32.643  11.839  1.00  0.00     0.067 A 
ATOM     31  C   UNL     1      17.644  33.469  14.101  1.00  0.00     0.018 A 
ATOM     32  H   UNL     1      17.955  31.729   9.962  1.00  0.00     0.190 HD
ATOM     33  C   UNL     1      16.150  33.059  11.717  1.00  0.00     0.029 A 
ATOM     34  C   UNL     1      16.307  33.920  14.014  1.00  0.00    -0.043 A 
ATOM     35  C   UNL     1      15.564  33.705  12.822  1.00  0.00     0.006 A 
BRANCH  34  36
ATOM     36  C   UNL     1      15.656  34.571  15.204  1.00  0.00     0.071 C 
BRANCH  36  37
ATOM     37  C   UNL     1      16.705  35.181  16.095  1.00  0.00    -0.038 A 
ATOM     38  C   UNL     1      16.615  35.048  17.493  1.00  0.00     0.043 A 
ATOM     39  C   UNL     1      17.753  35.936  15.542  1.00  0.00     0.043 A 
ATOM     40  C   UNL     1      17.575  35.639  18.320  1.00  0.00     0.126 A 
ATOM     41  C   UNL     1      18.709  36.530  16.372  1.00  0.00     0.126 A 
ATOM     42  F   UNL     1      17.490  35.501  19.667  1.00  0.00    -0.207 F 
ATOM     43  C   UNL     1      18.621  36.379  17.759  1.00  0.00     0.078 A 
ATOM     44  F   UNL     1      19.717  37.261  15.832  1.00  0.00    -0.207 F 
ENDBRANCH  36  37
ENDBRANCH  34  36
ENDBRANCH   3  26
TORSDOF 7
ENDMDL
MODEL 10
REMARK VINA RESULT:   -10.364      4.317      6.235
REMARK INTER + INTRA:         -16.361
REMARK INTER:                 -14.110
REMARK INTRA:                  -2.250
REMARK UNBOUND:                -1.755
REMARK SMILES CN1CCN(c2ccc(C(=O)Nc3n[nH]c4ccc(Cc5cc(F)cc(F)c5)cc34)c(NC3CCOCC3)c2)CC1
REMARK SMILES IDX 10 1 11 2 12 3 9 5 6 6 7 7 39 8 8 9 31 10 5 11 1 12 2 13
REMARK SMILES IDX 3 14 41 15 4 16 40 17 32 18 33 20 34 21 38 22 35 23 37 24
REMARK SMILES IDX 36 25 13 26 14 27 30 28 15 29 16 30 29 31 17 33 19 34 18 35
REMARK SMILES IDX 20 36 21 37 22 38 28 39 23 40 26 41 24 42 25 43 27 44
REMARK H PARENT 12 4 32 19 15 32
REMARK Flexibility Score: inf
ROOT
ATOM      1  C   UNL     1      22.568  34.154  12.230  1.00  0.00     0.258 C 
ATOM      2  O   UNL     1      22.299  35.355  11.948  1.00  0.00    -0.269 OA
ATOM      3  N   UNL     1      21.515  33.180  12.325  1.00  0.00    -0.304 N 
ATOM      4  H   UNL     1      21.774  32.174  12.430  1.00  0.00     0.171 HD
ENDROOT
BRANCH   1   5
ATOM      5  C   UNL     1      23.974  33.767  12.494  1.00  0.00     0.063 A 
ATOM      6  C   UNL     1      26.572  32.801  13.034  1.00  0.00     0.039 A 
ATOM      7  C   UNL     1      25.917  32.451  11.846  1.00  0.00     0.027 A 
ATOM      8  C   UNL     1      25.934  33.658  13.938  1.00  0.00     0.052 A 
ATOM      9  C   UNL     1      24.633  32.929  11.578  1.00  0.00     0.018 A 
ATOM     10  C   UNL     1      24.638  34.145  13.687  1.00  0.00     0.049 A 
BRANCH   6  11
ATOM     11  N   UNL     1      27.870  32.262  13.346  1.00  0.00    -0.369 N 
ATOM     12  C   UNL     1      31.183  29.824  14.280  1.00  0.00     0.105 C 
ATOM     13  N   UNL     1      29.852  30.437  14.111  1.00  0.00    -0.303 NA
ATOM     14  C   UNL     1      29.474  30.500  12.671  1.00  0.00     0.105 C 
ATOM     15  C   UNL     1      29.798  31.745  14.794  1.00  0.00     0.105 C 
ATOM     16  C   UNL     1      28.750  31.798  12.266  1.00  0.00     0.132 C 
ATOM     17  C   UNL     1      28.377  32.307  14.723  1.00  0.00     0.132 C 
ENDBRANCH   6  11
BRANCH  10  18
ATOM     18  N   UNL     1      24.014  35.049  14.617  1.00  0.00    -0.381 N 
ATOM     19  H   UNL     1      23.699  35.984  14.262  1.00  0.00     0.160 HD
BRANCH  18  20
ATOM     20  C   UNL     1      23.690  34.676  16.000  1.00  0.00     0.083 C 
ATOM     21  C   UNL     1      22.810  35.747  16.662  1.00  0.00     0.053 C 
ATOM     22  C   UNL     1      22.963  33.323  16.032  1.00  0.00     0.053 C 
ATOM     23  C   UNL     1      22.340  35.260  18.041  1.00  0.00     0.162 C 
ATOM     24  C   UNL     1      22.468  33.020  17.453  1.00  0.00     0.162 C 
ATOM     25  O   UNL     1      21.617  34.049  17.926  1.00  0.00    -0.381 OA
ENDBRANCH  18  20
ENDBRANCH  10  18
ENDBRANCH   1   5
BRANCH   3  26
ATOM     26  C   UNL     1      20.120  33.513  12.286  1.00  0.00     0.162 A 
ATOM     27  N   UNL     1      19.400  33.708  11.152  1.00  0.00    -0.156 NA
ATOM     28  C   UNL     1      19.302  33.699  13.380  1.00  0.00     0.044 A 
ATOM     29  N   UNL     1      18.154  34.006  11.507  1.00  0.00    -0.276 N 
ATOM     30  C   UNL     1      18.080  34.005  12.850  1.00  0.00     0.067 A 
ATOM     31  C   UNL     1      19.517  33.630  14.754  1.00  0.00     0.018 A 
ATOM     32  H   UNL     1      17.377  34.199  10.835  1.00  0.00     0.190 HD
ATOM     33  C   UNL     1      16.972  34.258  13.652  1.00  0.00     0.029 A 
ATOM     34  C   UNL     1      18.420  33.894  15.605  1.00  0.00    -0.043 A 
ATOM     35  C   UNL     1      17.149  34.200  15.048  1.00  0.00     0.006 A 
BRANCH  34  36
ATOM     36  C   UNL     1      18.587  33.790  17.097  1.00  0.00     0.071 C 
BRANCH  36  37
ATOM     37  C   UNL     1      17.942  34.973  17.770  1.00  0.00    -0.038 A 
ATOM     38  C   UNL     1      18.734  36.010  18.297  1.00  0.00     0.043 A 
ATOM     39  C   UNL     1      16.546  35.023  17.928  1.00  0.00     0.043 A 
ATOM     40  C   UNL     1      18.134  37.093  18.947  1.00  0.00     0.126 A 
ATOM     41  C   UNL     1      15.951  36.106  18.583  1.00  0.00     0.126 A 
ATOM     42  F   UNL     1      18.900  38.096  19.445  1.00  0.00    -0.207 F 
ATOM     43  C   UNL     1      16.743  37.140  19.088  1.00  0.00     0.078 A 
ATOM     44  F   UNL     1      14.602  36.147  18.736  1.00  0.00    -0.207 F 
ENDBRANCH  36  37
ENDBRANCH  34  36
ENDBRANCH   3  26
TORSDOF 7
ENDMDL
MODEL 11
REMARK VINA RESULT:   -10.190      3.385      5.113
REMARK INTER + INTRA:         -16.115
REMARK INTER:                 -14.239
REMARK INTRA:                  -1.876
REMARK UNBOUND:                -1.755
REMARK SMILES CN1CCN(c2ccc(C(=O)Nc3n[nH]c4ccc(Cc5cc(F)cc(F)c5)cc34)c(NC3CCOCC3)c2)CC1
REMARK SMILES IDX 10 1 11 2 12 3 9 5 6 6 7 7 39 8 8 9 31 10 5 11 1 12 2 13
REMARK SMILES IDX 3 14 41 15 4 16 40 17 32 18 33 20 34 21 38 22 35 23 37 24
REMARK SMILES IDX 36 25 13 26 14 27 30 28 15 29 16 30 29 31 17 33 19 34 18 35
REMARK SMILES IDX 20 36 21 37 22 38 28 39 23 40 26 41 24 42 25 43 27 44
REMARK H PARENT 12 4 32 19 15 32
REMARK Flexibility Score: inf
ROOT
ATOM      1  C   UNL     1      20.284  34.236  16.593  1.00  0.00     0.258 C 
ATOM      2  O   UNL     1      19.715  33.228  17.097  1.00  0.00    -0.269 OA
ATOM      3  N   UNL     1      19.730  35.549  16.779  1.00  0.00    -0.304 N 
ATOM      4  H   UNL     1      20.287  36.375  16.466  1.00  0.00     0.171 HD
ENDROOT
BRANCH   1   5
ATOM      5  C   UNL     1      21.510  34.048  15.783  1.00  0.00     0.063 A 
ATOM      6  C   UNL     1      23.731  33.505  14.125  1.00  0.00     0.039 A 
ATOM      7  C   UNL     1      22.571  34.082  13.591  1.00  0.00     0.027 A 
ATOM      8  C   UNL     1      23.787  33.226  15.495  1.00  0.00     0.052 A 
ATOM      9  C   UNL     1      21.474  34.352  14.411  1.00  0.00     0.018 A 
ATOM     10  C   UNL     1      22.687  33.486  16.334  1.00  0.00     0.049 A 
BRANCH   6  11
ATOM     11  N   UNL     1      24.843  33.167  13.276  1.00  0.00    -0.369 N 
ATOM     12  C   UNL     1      27.804  31.249  10.964  1.00  0.00     0.105 C 
ATOM     13  N   UNL     1      26.775  31.635  11.947  1.00  0.00    -0.303 NA
ATOM     14  C   UNL     1      25.453  31.821  11.287  1.00  0.00     0.105 C 
ATOM     15  C   UNL     1      27.220  32.809  12.722  1.00  0.00     0.105 C 
ATOM     16  C   UNL     1      24.640  33.013  11.829  1.00  0.00     0.132 C 
ATOM     17  C   UNL     1      26.204  33.117  13.824  1.00  0.00     0.132 C 
ENDBRANCH   6  11
BRANCH  10  18
ATOM     18  N   UNL     1      22.779  33.217  17.746  1.00  0.00    -0.381 N 
ATOM     19  H   UNL     1      22.036  32.621  18.185  1.00  0.00     0.160 HD
BRANCH  18  20
ATOM     20  C   UNL     1      23.922  33.636  18.567  1.00  0.00     0.083 C 
ATOM     21  C   UNL     1      23.759  35.093  19.025  1.00  0.00     0.053 C 
ATOM     22  C   UNL     1      24.058  32.724  19.797  1.00  0.00     0.053 C 
ATOM     23  C   UNL     1      24.871  35.456  20.021  1.00  0.00     0.162 C 
ATOM     24  C   UNL     1      25.137  33.268  20.743  1.00  0.00     0.162 C 
ATOM     25  O   UNL     1      24.841  34.594  21.144  1.00  0.00    -0.381 OA
ENDBRANCH  18  20
ENDBRANCH  10  18
ENDBRANCH   1   5
BRANCH   3  26
ATOM     26  C   UNL     1      18.446  35.791  17.372  1.00  0.00     0.162 A 
ATOM     27  N   UNL     1      18.246  36.413  18.562  1.00  0.00    -0.156 NA
ATOM     28  C   UNL     1      17.227  35.424  16.842  1.00  0.00     0.044 A 
ATOM     29  N   UNL     1      16.936  36.450  18.788  1.00  0.00    -0.276 N 
ATOM     30  C   UNL     1      16.308  35.855  17.757  1.00  0.00     0.067 A 
ATOM     31  C   UNL     1      16.856  34.768  15.672  1.00  0.00     0.018 A 
ATOM     32  H   UNL     1      16.492  36.880  19.630  1.00  0.00     0.190 HD
ATOM     33  C   UNL     1      14.942  35.670  17.571  1.00  0.00     0.029 A 
ATOM     34  C   UNL     1      15.478  34.548  15.450  1.00  0.00    -0.043 A 
ATOM     35  C   UNL     1      14.526  35.009  16.400  1.00  0.00     0.006 A 
BRANCH  34  36
ATOM     36  C   UNL     1      15.019  33.882  14.182  1.00  0.00     0.071 C 
BRANCH  36  37
ATOM     37  C   UNL     1      16.185  33.693  13.248  1.00  0.00    -0.038 A 
ATOM     38  C   UNL     1      17.277  32.891  13.629  1.00  0.00     0.043 A 
ATOM     39  C   UNL     1      16.219  34.361  12.013  1.00  0.00     0.043 A 
ATOM     40  C   UNL     1      18.371  32.739  12.772  1.00  0.00     0.126 A 
ATOM     41  C   UNL     1      17.317  34.211  11.161  1.00  0.00     0.126 A 
ATOM     42  F   UNL     1      19.418  31.957  13.138  1.00  0.00    -0.207 F 
ATOM     43  C   UNL     1      18.390  33.399  11.538  1.00  0.00     0.078 A 
ATOM     44  F   UNL     1      17.346  34.862   9.969  1.00  0.00    -0.207 F 
ENDBRANCH  36  37
ENDBRANCH  34  36
ENDBRANCH   3  26
TORSDOF 7
ENDMDL
MODEL 12
REMARK VINA RESULT:   -10.185      4.208      7.127
REMARK INTER + INTRA:         -16.109
REMARK INTER:                 -14.492
REMARK INTRA:                  -1.617
REMARK UNBOUND:                -1.755
REMARK SMILES CN1CCN(c2ccc(C(=O)Nc3n[nH]c4ccc(Cc5cc(F)cc(F)c5)cc34)c(NC3CCOCC3)c2)CC1
REMARK SMILES IDX 10 1 11 2 12 3 9 5 6 6 7 7 39 8 8 9 31 10 5 11 1 12 2 13
REMARK SMILES IDX 3 14 41 15 4 16 40 17 32 18 33 20 34 21 38 22 35 23 37 24
REMARK SMILES IDX 36 25 13 26 14 27 30 28 15 29 16 30 29 31 17 33 19 34 18 35
REMARK SMILES IDX 20 36 21 37 22 38 28 39 23 40 26 41 24 42 25 43 27 44
REMARK H PARENT 12 4 32 19 15 32
REMARK Flexibility Score: inf
ROOT
ATOM      1  C   UNL     1      21.841  33.333  14.069  1.00  0.00     0.258 C 
ATOM      2  O   UNL     1      21.995  34.304  13.275  1.00  0.00    -0.269 OA
ATOM      3  N   UNL     1      20.875  32.310  13.781  1.00  0.00    -0.304 N 
ATOM      4  H   UNL     1      20.858  31.455  14.380  1.00  0.00     0.171 HD
ENDROOT
BRANCH   1   5
ATOM      5  C   UNL     1      22.643  33.278  15.313  1.00  0.00     0.063 A 
ATOM      6  C   UNL     1      24.064  33.382  17.752  1.00  0.00     0.039 A 
ATOM      7  C   UNL     1      22.692  33.094  17.740  1.00  0.00     0.027 A 
ATOM      8  C   UNL     1      24.727  33.591  16.537  1.00  0.00     0.052 A 
ATOM      9  C   UNL     1      21.991  33.040  16.535  1.00  0.00     0.018 A 
ATOM     10  C   UNL     1      24.034  33.548  15.314  1.00  0.00     0.049 A 
BRANCH   6  11
ATOM     11  N   UNL     1      24.781  33.500  18.994  1.00  0.00    -0.369 N 
ATOM     12  C   UNL     1      27.132  34.730  22.273  1.00  0.00     0.105 C 
ATOM     13  N   UNL     1      26.511  34.504  20.955  1.00  0.00    -0.303 NA
ATOM     14  C   UNL     1      25.109  35.006  20.933  1.00  0.00     0.105 C 
ATOM     15  C   UNL     1      26.638  33.086  20.564  1.00  0.00     0.105 C 
ATOM     16  C   UNL     1      24.127  34.101  20.164  1.00  0.00     0.132 C 
ATOM     17  C   UNL     1      26.109  32.893  19.141  1.00  0.00     0.132 C 
ENDBRANCH   6  11
BRANCH  10  18
ATOM     18  N   UNL     1      24.744  33.737  14.076  1.00  0.00    -0.381 N 
ATOM     19  H   UNL     1      24.863  34.715  13.718  1.00  0.00     0.160 HD
BRANCH  18  20
ATOM     20  C   UNL     1      25.409  32.640  13.360  1.00  0.00     0.083 C 
ATOM     21  C   UNL     1      25.059  32.674  11.865  1.00  0.00     0.053 C 
ATOM     22  C   UNL     1      26.933  32.738  13.531  1.00  0.00     0.053 C 
ATOM     23  C   UNL     1      25.896  31.633  11.107  1.00  0.00     0.162 C 
ATOM     24  C   UNL     1      27.634  31.703  12.641  1.00  0.00     0.162 C 
ATOM     25  O   UNL     1      27.279  31.878  11.281  1.00  0.00    -0.381 OA
ENDBRANCH  18  20
ENDBRANCH  10  18
ENDBRANCH   1   5
BRANCH   3  26
ATOM     26  C   UNL     1      19.923  32.395  12.710  1.00  0.00     0.162 A 
ATOM     27  N   UNL     1      20.163  32.024  11.427  1.00  0.00    -0.156 NA
ATOM     28  C   UNL     1      18.634  32.876  12.809  1.00  0.00     0.044 A 
ATOM     29  N   UNL     1      19.059  32.254  10.722  1.00  0.00    -0.276 N 
ATOM     30  C   UNL     1      18.127  32.769  11.545  1.00  0.00     0.067 A 
ATOM     31  C   UNL     1      17.885  33.382  13.868  1.00  0.00     0.018 A 
ATOM     32  H   UNL     1      18.955  32.053   9.702  1.00  0.00     0.190 HD
ATOM     33  C   UNL     1      16.825  33.153  11.239  1.00  0.00     0.029 A 
ATOM     34  C   UNL     1      16.562  33.797  13.597  1.00  0.00    -0.043 A 
ATOM     35  C   UNL     1      16.036  33.673  12.283  1.00  0.00     0.006 A 
BRANCH  34  36
ATOM     36  C   UNL     1      15.694  34.312  14.713  1.00  0.00     0.071 C 
BRANCH  36  37
ATOM     37  C   UNL     1      16.521  35.118  15.679  1.00  0.00    -0.038 A 
ATOM     38  C   UNL     1      17.651  35.825  15.228  1.00  0.00     0.043 A 
ATOM     39  C   UNL     1      16.205  35.126  17.047  1.00  0.00     0.043 A 
ATOM     40  C   UNL     1      18.434  36.550  16.131  1.00  0.00     0.126 A 
ATOM     41  C   UNL     1      16.993  35.848  17.948  1.00  0.00     0.126 A 
ATOM     42  F   UNL     1      19.518  37.239  15.691  1.00  0.00    -0.207 F 
ATOM     43  C   UNL     1      18.104  36.562  17.491  1.00  0.00     0.078 A 
ATOM     44  F   UNL     1      16.684  35.850  19.271  1.00  0.00    -0.207 F 
ENDBRANCH  36  37
ENDBRANCH  34  36
ENDBRANCH   3  26
TORSDOF 7
ENDMDL
MODEL 13
REMARK VINA RESULT:   -10.146      3.878      5.745
REMARK INTER + INTRA:         -16.053
REMARK INTER:                 -14.507
REMARK INTRA:                  -1.546
REMARK UNBOUND:                -1.755
REMARK SMILES CN1CCN(c2ccc(C(=O)Nc3n[nH]c4ccc(Cc5cc(F)cc(F)c5)cc34)c(NC3CCOCC3)c2)CC1
REMARK SMILES IDX 10 1 11 2 12 3 9 5 6 6 7 7 39 8 8 9 31 10 5 11 1 12 2 13
REMARK SMILES IDX 3 14 41 15 4 16 40 17 32 18 33 20 34 21 38 22 35 23 37 24
REMARK SMILES IDX 36 25 13 26 14 27 30 28 15 29 16 30 29 31 17 33 19 34 18 35
REMARK SMILES IDX 20 36 21 37 22 38 28 39 23 40 26 41 24 42 25 43 27 44
REMARK H PARENT 12 4 32 19 15 32
REMARK Flexibility Score: inf
ROOT
ATOM      1  C   UNL     1      18.580  34.417  17.331  1.00  0.00     0.258 C 
ATOM      2  O   UNL     1      17.878  33.522  17.880  1.00  0.00    -0.269 OA
ATOM      3  N   UNL     1      18.093  35.107  16.169  1.00  0.00    -0.304 N 
ATOM      4  H   UNL     1      18.631  35.929  15.814  1.00  0.00     0.171 HD
ENDROOT
BRANCH   1   5
ATOM      5  C   UNL     1      19.922  34.725  17.878  1.00  0.00     0.063 A 
ATOM      6  C   UNL     1      22.460  35.532  18.819  1.00  0.00     0.039 A 
ATOM      7  C   UNL     1      21.292  36.076  19.370  1.00  0.00     0.027 A 
ATOM      8  C   UNL     1      22.353  34.562  17.815  1.00  0.00     0.052 A 
ATOM      9  C   UNL     1      20.038  35.676  18.907  1.00  0.00     0.018 A 
ATOM     10  C   UNL     1      21.097  34.152  17.332  1.00  0.00     0.049 A 
BRANCH   6  11
ATOM     11  N   UNL     1      23.757  35.984  19.248  1.00  0.00    -0.369 N 
ATOM     12  C   UNL     1      27.458  37.943  19.752  1.00  0.00     0.105 C 
ATOM     13  N   UNL     1      26.204  37.347  19.256  1.00  0.00    -0.303 NA
ATOM     14  C   UNL     1      25.020  38.029  19.848  1.00  0.00     0.105 C 
ATOM     15  C   UNL     1      26.212  35.886  19.466  1.00  0.00     0.105 C 
ATOM     16  C   UNL     1      23.866  37.078  20.222  1.00  0.00     0.132 C 
ATOM     17  C   UNL     1      24.966  35.265  18.829  1.00  0.00     0.132 C 
ENDBRANCH   6  11
BRANCH  10  18
ATOM     18  N   UNL     1      21.011  33.132  16.320  1.00  0.00    -0.381 N 
ATOM     19  H   UNL     1      20.381  32.312  16.496  1.00  0.00     0.160 HD
BRANCH  18  20
ATOM     20  C   UNL     1      21.667  33.246  15.011  1.00  0.00     0.083 C 
ATOM     21  C   UNL     1      21.013  32.304  13.989  1.00  0.00     0.053 C 
ATOM     22  C   UNL     1      21.589  34.693  14.499  1.00  0.00     0.053 C 
ATOM     23  C   UNL     1      21.594  32.563  12.591  1.00  0.00     0.162 C 
ATOM     24  C   UNL     1      22.113  34.775  13.059  1.00  0.00     0.162 C 
ATOM     25  O   UNL     1      21.389  33.909  12.203  1.00  0.00    -0.381 OA
ENDBRANCH  18  20
ENDBRANCH  10  18
ENDBRANCH   1   5
BRANCH   3  26
ATOM     26  C   UNL     1      16.903  34.730  15.462  1.00  0.00     0.162 A 
ATOM     27  N   UNL     1      15.647  34.780  15.974  1.00  0.00    -0.156 NA
ATOM     28  C   UNL     1      16.846  34.247  14.172  1.00  0.00     0.044 A 
ATOM     29  N   UNL     1      14.806  34.349  15.039  1.00  0.00    -0.276 N 
ATOM     30  C   UNL     1      15.518  34.023  13.944  1.00  0.00     0.067 A 
ATOM     31  C   UNL     1      17.817  33.993  13.206  1.00  0.00     0.018 A 
ATOM     32  H   UNL     1      13.770  34.288  15.156  1.00  0.00     0.190 HD
ATOM     33  C   UNL     1      15.052  33.532  12.728  1.00  0.00     0.029 A 
ATOM     34  C   UNL     1      17.387  33.482  11.961  1.00  0.00    -0.043 A 
ATOM     35  C   UNL     1      16.003  33.261  11.726  1.00  0.00     0.006 A 
BRANCH  34  36
ATOM     36  C   UNL     1      18.389  33.230  10.868  1.00  0.00     0.071 C 
BRANCH  36  37
ATOM     37  C   UNL     1      17.678  32.854   9.595  1.00  0.00    -0.038 A 
ATOM     38  C   UNL     1      16.708  33.710   9.042  1.00  0.00     0.043 A 
ATOM     39  C   UNL     1      17.937  31.618   8.978  1.00  0.00     0.043 A 
ATOM     40  C   UNL     1      16.029  33.345   7.875  1.00  0.00     0.126 A 
ATOM     41  C   UNL     1      17.253  31.254   7.814  1.00  0.00     0.126 A 
ATOM     42  F   UNL     1      15.101  34.178   7.340  1.00  0.00    -0.207 F 
ATOM     43  C   UNL     1      16.303  32.118   7.262  1.00  0.00     0.078 A 
ATOM     44  F   UNL     1      17.505  30.057   7.225  1.00  0.00    -0.207 F 
ENDBRANCH  36  37
ENDBRANCH  34  36
ENDBRANCH   3  26
TORSDOF 7
ENDMDL
MODEL 14
REMARK VINA RESULT:   -10.118      3.730      9.652
REMARK INTER + INTRA:         -16.013
REMARK INTER:                 -13.908
REMARK INTRA:                  -2.105
REMARK UNBOUND:                -1.755
REMARK SMILES CN1CCN(c2ccc(C(=O)Nc3n[nH]c4ccc(Cc5cc(F)cc(F)c5)cc34)c(NC3CCOCC3)c2)CC1
REMARK SMILES IDX 10 1 11 2 12 3 9 5 6 6 7 7 39 8 8 9 31 10 5 11 1 12 2 13
REMARK SMILES IDX 3 14 41 15 4 16 40 17 32 18 33 20 34 21 38 22 35 23 37 24
REMARK SMILES IDX 36 25 13 26 14 27 30 28 15 29 16 30 29 31 17 33 19 34 18 35
REMARK SMILES IDX 20 36 21 37 22 38 28 39 23 40 26 41 24 42 25 43 27 44
REMARK H PARENT 12 4 32 19 15 32
REMARK Flexibility Score: inf
ROOT
ATOM      1  C   UNL     1      20.634  33.719  14.687  1.00  0.00     0.258 C 
ATOM      2  O   UNL     1      20.641  34.932  15.036  1.00  0.00    -0.269 OA
ATOM      3  N   UNL     1      21.460  32.764  15.373  1.00  0.00    -0.304 N 
ATOM      4  H   UNL     1      21.339  31.750  15.154  1.00  0.00     0.171 HD
ENDROOT
BRANCH   1   5
ATOM      5  C   UNL     1      19.791  33.297  13.544  1.00  0.00     0.063 A 
ATOM      6  C   UNL     1      18.343  32.608  11.219  1.00  0.00     0.039 A 
ATOM      7  C   UNL     1      19.583  32.012  11.486  1.00  0.00     0.027 A 
ATOM      8  C   UNL     1      17.818  33.529  12.133  1.00  0.00     0.052 A 
ATOM      9  C   UNL     1      20.298  32.350  12.636  1.00  0.00     0.018 A 
ATOM     10  C   UNL     1      18.528  33.887  13.293  1.00  0.00     0.049 A 
BRANCH   6  11
ATOM     11  N   UNL     1      17.629  32.310  10.005  1.00  0.00    -0.369 N 
ATOM     12  C   UNL     1      15.261  30.630   6.946  1.00  0.00     0.105 C 
ATOM     13  N   UNL     1      16.128  30.899   8.108  1.00  0.00    -0.303 NA
ATOM     14  C   UNL     1      15.394  31.666   9.153  1.00  0.00     0.105 C 
ATOM     15  C   UNL     1      17.384  31.543   7.674  1.00  0.00     0.105 C 
ATOM     16  C   UNL     1      16.238  32.754   9.846  1.00  0.00     0.132 C 
ATOM     17  C   UNL     1      18.327  31.695   8.870  1.00  0.00     0.132 C 
ENDBRANCH   6  11
BRANCH  10  18
ATOM     18  N   UNL     1      17.954  34.814  14.233  1.00  0.00    -0.381 N 
ATOM     19  H   UNL     1      18.198  35.830  14.137  1.00  0.00     0.160 HD
BRANCH  18  20
ATOM     20  C   UNL     1      16.956  34.422  15.235  1.00  0.00     0.083 C 
ATOM     21  C   UNL     1      17.087  35.282  16.502  1.00  0.00     0.053 C 
ATOM     22  C   UNL     1      15.538  34.568  14.662  1.00  0.00     0.053 C 
ATOM     23  C   UNL     1      15.929  34.977  17.464  1.00  0.00     0.162 C 
ATOM     24  C   UNL     1      14.493  34.330  15.761  1.00  0.00     0.162 C 
ATOM     25  O   UNL     1      14.682  35.225  16.843  1.00  0.00    -0.381 OA
ENDBRANCH  18  20
ENDBRANCH  10  18
ENDBRANCH   1   5
BRANCH   3  26
ATOM     26  C   UNL     1      22.450  33.125  16.347  1.00  0.00     0.162 A 
ATOM     27  N   UNL     1      22.275  33.060  17.692  1.00  0.00    -0.156 NA
ATOM     28  C   UNL     1      23.715  33.603  16.078  1.00  0.00     0.044 A 
ATOM     29  N   UNL     1      23.396  33.479  18.270  1.00  0.00    -0.276 N 
ATOM     30  C   UNL     1      24.275  33.811  17.306  1.00  0.00     0.067 A 
ATOM     31  C   UNL     1      24.401  33.866  14.896  1.00  0.00     0.018 A 
ATOM     32  H   UNL     1      23.548  33.528  19.302  1.00  0.00     0.190 HD
ATOM     33  C   UNL     1      25.572  34.293  17.452  1.00  0.00     0.029 A 
ATOM     34  C   UNL     1      25.718  34.370  14.999  1.00  0.00    -0.043 A 
ATOM     35  C   UNL     1      26.300  34.573  16.279  1.00  0.00     0.006 A 
BRANCH  34  36
ATOM     36  C   UNL     1      26.521  34.630  13.754  1.00  0.00     0.071 C 
BRANCH  36  37
ATOM     37  C   UNL     1      26.935  33.326  13.125  1.00  0.00    -0.038 A 
ATOM     38  C   UNL     1      28.023  32.601  13.644  1.00  0.00     0.043 A 
ATOM     39  C   UNL     1      26.274  32.851  11.980  1.00  0.00     0.043 A 
ATOM     40  C   UNL     1      28.423  31.404  13.042  1.00  0.00     0.126 A 
ATOM     41  C   UNL     1      26.680  31.656  11.377  1.00  0.00     0.126 A 
ATOM     42  F   UNL     1      29.467  30.702  13.551  1.00  0.00    -0.207 F 
ATOM     43  C   UNL     1      27.751  30.933  11.909  1.00  0.00     0.078 A 
ATOM     44  F   UNL     1      26.039  31.204  10.269  1.00  0.00    -0.207 F 
ENDBRANCH  36  37
ENDBRANCH  34  36
ENDBRANCH   3  26
TORSDOF 7
ENDMDL
