MODEL 1
REMARK VINA RESULT:   -11.140      0.000      0.000
REMARK INTER + INTRA:         -16.662
REMARK INTER:                 -15.698
REMARK INTRA:                  -0.964
REMARK UNBOUND:                -0.964
REMARK SMILES CN1CCN(c2ccc(C(=O)Nc3n[nH]c4ccc(Cc5cc(F)cc(F)c5)cc34)c(NC3CCOCC3)c2)CC1
REMARK SMILES IDX 10 1 11 2 12 3 9 5 6 6 7 7 39 8 8 9 31 10 5 11 1 12 2 13
REMARK SMILES IDX 3 14 41 15 4 16 40 17 32 18 33 20 34 21 38 22 35 23 37 24
REMARK SMILES IDX 36 25 13 26 14 27 30 28 15 29 16 30 29 31 17 33 19 34 18 35
REMARK SMILES IDX 20 36 21 37 22 38 28 39 23 40 26 41 24 42 25 43 27 44
REMARK H PARENT 12 4 32 19 15 32
REMARK Flexibility Score: inf
ROOT
ATOM      1  C   UNL     1      15.542  26.384  40.729  1.00  0.00     0.258 C 
ATOM      2  O   UNL     1      15.485  27.615  41.008  1.00  0.00    -0.269 OA
ATOM      3  N   UNL     1      16.814  25.746  40.528  1.00  0.00    -0.304 N 
ATOM      4  H   UNL     1      16.841  24.707  40.429  1.00  0.00     0.171 HD
ENDROOT
BRANCH   1   5
ATOM      5  C   UNL     1      14.285  25.614  40.580  1.00  0.00     0.063 A 
ATOM      6  C   UNL     1      11.861  24.254  40.079  1.00  0.00     0.039 A 
ATOM      7  C   UNL     1      13.020  23.927  39.363  1.00  0.00     0.027 A 
ATOM      8  C   UNL     1      11.925  25.245  41.066  1.00  0.00     0.052 A 
ATOM      9  C   UNL     1      14.219  24.598  39.612  1.00  0.00     0.018 A 
ATOM     10  C   UNL     1      13.124  25.935  41.325  1.00  0.00     0.049 A 
BRANCH   6  11
ATOM     11  N   UNL     1      10.608  23.611  39.785  1.00  0.00    -0.369 N 
ATOM     12  C   UNL     1       7.154  21.980  37.994  1.00  0.00     0.105 C 
ATOM     13  N   UNL     1       8.351  22.760  38.360  1.00  0.00    -0.303 NA
ATOM     14  C   UNL     1       9.575  21.913  38.306  1.00  0.00     0.105 C 
ATOM     15  C   UNL     1       8.151  23.427  39.661  1.00  0.00     0.105 C 
ATOM     16  C   UNL     1      10.579  22.183  39.444  1.00  0.00     0.132 C 
ATOM     17  C   UNL     1       9.344  24.336  39.965  1.00  0.00     0.132 C 
ENDBRANCH   6  11
BRANCH  10  18
ATOM     18  N   UNL     1      13.172  26.929  42.365  1.00  0.00    -0.381 N 
ATOM     19  H   UNL     1      14.021  26.958  42.982  1.00  0.00     0.160 HD
BRANCH  18  20
ATOM     20  C   UNL     1      12.153  27.974  42.522  1.00  0.00     0.083 C 
ATOM     21  C   UNL     1      12.384  28.771  43.815  1.00  0.00     0.053 C 
ATOM     22  C   UNL     1      12.177  28.929  41.319  1.00  0.00     0.053 C 
ATOM     23  C   UNL     1      11.417  29.964  43.874  1.00  0.00     0.162 C 
ATOM     24  C   UNL     1      11.238  30.118  41.566  1.00  0.00     0.162 C 
ATOM     25  O   UNL     1      11.593  30.808  42.751  1.00  0.00    -0.381 OA
ENDBRANCH  18  20
ENDBRANCH  10  18
ENDBRANCH   1   5
BRANCH   3  26
ATOM     26  C   UNL     1      18.056  26.460  40.452  1.00  0.00     0.162 A 
ATOM     27  N   UNL     1      18.244  27.738  40.869  1.00  0.00    -0.156 NA
ATOM     28  C   UNL     1      19.240  25.973  39.938  1.00  0.00     0.044 A 
ATOM     29  N   UNL     1      19.512  28.061  40.635  1.00  0.00    -0.276 N 
ATOM     30  C   UNL     1      20.126  27.004  40.072  1.00  0.00     0.067 A 
ATOM     31  C   UNL     1      19.604  24.750  39.381  1.00  0.00     0.018 A 
ATOM     32  H   UNL     1      19.940  28.987  40.865  1.00  0.00     0.190 HD
ATOM     33  C   UNL     1      21.451  26.893  39.666  1.00  0.00     0.029 A 
ATOM     34  C   UNL     1      20.939  24.600  38.943  1.00  0.00    -0.043 A 
ATOM     35  C   UNL     1      21.859  25.672  39.095  1.00  0.00     0.006 A 
BRANCH  34  36
ATOM     36  C   UNL     1      21.398  23.285  38.373  1.00  0.00     0.071 C 
BRANCH  36  37
ATOM     37  C   UNL     1      22.901  23.259  38.284  1.00  0.00    -0.038 A 
ATOM     38  C   UNL     1      23.539  23.238  37.030  1.00  0.00     0.043 A 
ATOM     39  C   UNL     1      23.678  23.197  39.453  1.00  0.00     0.043 A 
ATOM     40  C   UNL     1      24.934  23.185  36.951  1.00  0.00     0.126 A 
ATOM     41  C   UNL     1      25.072  23.139  39.370  1.00  0.00     0.126 A 
ATOM     42  F   UNL     1      25.546  23.175  35.740  1.00  0.00    -0.207 F 
ATOM     43  C   UNL     1      25.699  23.136  38.121  1.00  0.00     0.078 A 
ATOM     44  F   UNL     1      25.818  23.076  40.503  1.00  0.00    -0.207 F 
ENDBRANCH  36  37
ENDBRANCH  34  36
ENDBRANCH   3  26
TORSDOF 7
ENDMDL
MODEL 2
REMARK VINA RESULT:   -10.774      1.297      1.506
REMARK INTER + INTRA:         -16.146
REMARK INTER:                 -14.784
REMARK INTRA:                  -1.362
REMARK UNBOUND:                -0.964
REMARK SMILES CN1CCN(c2ccc(C(=O)Nc3n[nH]c4ccc(Cc5cc(F)cc(F)c5)cc34)c(NC3CCOCC3)c2)CC1
REMARK SMILES IDX 10 1 11 2 12 3 9 5 6 6 7 7 39 8 8 9 31 10 5 11 1 12 2 13
REMARK SMILES IDX 3 14 41 15 4 16 40 17 32 18 33 20 34 21 38 22 35 23 37 24
REMARK SMILES IDX 36 25 13 26 14 27 30 28 15 29 16 30 29 31 17 33 19 34 18 35
REMARK SMILES IDX 20 36 21 37 22 38 28 39 23 40 26 41 24 42 25 43 27 44
REMARK H PARENT 12 4 32 19 15 32
REMARK Flexibility Score: inf
ROOT
ATOM      1  C   UNL     1      15.305  25.854  39.723  1.00  0.00     0.258 C 
ATOM      2  O   UNL     1      15.677  26.159  38.555  1.00  0.00    -0.269 OA
ATOM      3  N   UNL     1      16.049  26.315  40.862  1.00  0.00    -0.304 N 
ATOM      4  H   UNL     1      15.650  26.161  41.815  1.00  0.00     0.171 HD
ENDROOT
BRANCH   1   5
ATOM      5  C   UNL     1      14.114  24.991  39.903  1.00  0.00     0.063 A 
ATOM      6  C   UNL     1      11.839  23.322  40.004  1.00  0.00     0.039 A 
ATOM      7  C   UNL     1      13.092  22.794  39.665  1.00  0.00     0.027 A 
ATOM      8  C   UNL     1      11.733  24.682  40.319  1.00  0.00     0.052 A 
ATOM      9  C   UNL     1      14.217  23.619  39.617  1.00  0.00     0.018 A 
ATOM     10  C   UNL     1      12.856  25.528  40.269  1.00  0.00     0.049 A 
BRANCH   6  11
ATOM     11  N   UNL     1      10.664  22.491  39.995  1.00  0.00    -0.369 N 
ATOM     12  C   UNL     1       7.667  19.632  39.197  1.00  0.00     0.105 C 
ATOM     13  N   UNL     1       8.776  20.602  39.149  1.00  0.00    -0.303 NA
ATOM     14  C   UNL     1       9.937  20.123  39.950  1.00  0.00     0.105 C 
ATOM     15  C   UNL     1       8.302  21.945  39.539  1.00  0.00     0.105 C 
ATOM     16  C   UNL     1      10.651  21.231  40.749  1.00  0.00     0.132 C 
ATOM     17  C   UNL     1       9.429  22.964  39.358  1.00  0.00     0.132 C 
ENDBRANCH   6  11
BRANCH  10  18
ATOM     18  N   UNL     1      12.728  26.917  40.626  1.00  0.00    -0.381 N 
ATOM     19  H   UNL     1      12.404  27.589  39.889  1.00  0.00     0.160 HD
BRANCH  18  20
ATOM     20  C   UNL     1      12.911  27.411  41.997  1.00  0.00     0.083 C 
ATOM     21  C   UNL     1      13.632  28.767  41.996  1.00  0.00     0.053 C 
ATOM     22  C   UNL     1      11.552  27.553  42.699  1.00  0.00     0.053 C 
ATOM     23  C   UNL     1      13.659  29.347  43.418  1.00  0.00     0.162 C 
ATOM     24  C   UNL     1      11.728  28.235  44.063  1.00  0.00     0.162 C 
ATOM     25  O   UNL     1      12.345  29.502  43.922  1.00  0.00    -0.381 OA
ENDBRANCH  18  20
ENDBRANCH  10  18
ENDBRANCH   1   5
BRANCH   3  26
ATOM     26  C   UNL     1      17.318  26.977  40.767  1.00  0.00     0.162 A 
ATOM     27  N   UNL     1      17.541  28.278  41.087  1.00  0.00    -0.156 NA
ATOM     28  C   UNL     1      18.496  26.411  40.327  1.00  0.00     0.044 A 
ATOM     29  N   UNL     1      18.826  28.538  40.865  1.00  0.00    -0.276 N 
ATOM     30  C   UNL     1      19.415  27.419  40.404  1.00  0.00     0.067 A 
ATOM     31  C   UNL     1      18.830  25.137  39.878  1.00  0.00     0.018 A 
ATOM     32  H   UNL     1      19.280  29.464  41.033  1.00  0.00     0.190 HD
ATOM     33  C   UNL     1      20.746  27.232  40.046  1.00  0.00     0.029 A 
ATOM     34  C   UNL     1      20.170  24.907  39.491  1.00  0.00    -0.043 A 
ATOM     35  C   UNL     1      21.124  25.956  39.585  1.00  0.00     0.006 A 
BRANCH  34  36
ATOM     36  C   UNL     1      20.596  23.537  39.039  1.00  0.00     0.071 C 
BRANCH  36  37
ATOM     37  C   UNL     1      22.077  23.520  38.768  1.00  0.00    -0.038 A 
ATOM     38  C   UNL     1      22.558  23.504  37.446  1.00  0.00     0.043 A 
ATOM     39  C   UNL     1      22.991  23.464  39.834  1.00  0.00     0.043 A 
ATOM     40  C   UNL     1      23.933  23.461  37.197  1.00  0.00     0.126 A 
ATOM     41  C   UNL     1      24.365  23.416  39.581  1.00  0.00     0.126 A 
ATOM     42  F   UNL     1      24.393  23.456  35.921  1.00  0.00    -0.207 F 
ATOM     43  C   UNL     1      24.835  23.418  38.265  1.00  0.00     0.078 A 
ATOM     44  F   UNL     1      25.243  23.358  40.615  1.00  0.00    -0.207 F 
ENDBRANCH  36  37
ENDBRANCH  34  36
ENDBRANCH   3  26
TORSDOF 7
ENDMDL
MODEL 3
REMARK VINA RESULT:   -10.718      1.285      2.013
REMARK INTER + INTRA:         -16.068
REMARK INTER:                 -14.694
REMARK INTRA:                  -1.374
REMARK UNBOUND:                -0.964
REMARK SMILES CN1CCN(c2ccc(C(=O)Nc3n[nH]c4ccc(Cc5cc(F)cc(F)c5)cc34)c(NC3CCOCC3)c2)CC1
REMARK SMILES IDX 10 1 11 2 12 3 9 5 6 6 7 7 39 8 8 9 31 10 5 11 1 12 2 13
REMARK SMILES IDX 3 14 41 15 4 16 40 17 32 18 33 20 34 21 38 22 35 23 37 24
REMARK SMILES IDX 36 25 13 26 14 27 30 28 15 29 16 30 29 31 17 33 19 34 18 35
REMARK SMILES IDX 20 36 21 37 22 38 28 39 23 40 26 41 24 42 25 43 27 44
REMARK H PARENT 12 4 32 19 15 32
REMARK Flexibility Score: inf
ROOT
ATOM      1  C   UNL     1      15.295  25.807  39.734  1.00  0.00     0.258 C 
ATOM      2  O   UNL     1      15.645  26.163  38.574  1.00  0.00    -0.269 OA
ATOM      3  N   UNL     1      16.065  26.211  40.878  1.00  0.00    -0.304 N 
ATOM      4  H   UNL     1      15.685  26.017  41.831  1.00  0.00     0.171 HD
ENDROOT
BRANCH   1   5
ATOM      5  C   UNL     1      14.102  24.944  39.900  1.00  0.00     0.063 A 
ATOM      6  C   UNL     1      11.826  23.275  39.974  1.00  0.00     0.039 A 
ATOM      7  C   UNL     1      13.082  22.748  39.646  1.00  0.00     0.027 A 
ATOM      8  C   UNL     1      11.717  24.634  40.291  1.00  0.00     0.052 A 
ATOM      9  C   UNL     1      14.208  23.573  39.612  1.00  0.00     0.018 A 
ATOM     10  C   UNL     1      12.840  25.481  40.255  1.00  0.00     0.049 A 
BRANCH   6  11
ATOM     11  N   UNL     1      10.650  22.445  39.951  1.00  0.00    -0.369 N 
ATOM     12  C   UNL     1       6.743  20.860  40.086  1.00  0.00     0.105 C 
ATOM     13  N   UNL     1       7.984  21.640  40.251  1.00  0.00    -0.303 NA
ATOM     14  C   UNL     1       8.382  22.283  38.968  1.00  0.00     0.105 C 
ATOM     15  C   UNL     1       9.043  20.801  40.845  1.00  0.00     0.105 C 
ATOM     16  C   UNL     1       9.900  22.270  38.701  1.00  0.00     0.132 C 
ATOM     17  C   UNL     1      10.280  21.656  41.132  1.00  0.00     0.132 C 
ENDBRANCH   6  11
BRANCH  10  18
ATOM     18  N   UNL     1      12.709  26.868  40.614  1.00  0.00    -0.381 N 
ATOM     19  H   UNL     1      12.434  27.549  39.865  1.00  0.00     0.160 HD
BRANCH  18  20
ATOM     20  C   UNL     1      12.821  27.351  41.997  1.00  0.00     0.083 C 
ATOM     21  C   UNL     1      13.608  28.669  42.052  1.00  0.00     0.053 C 
ATOM     22  C   UNL     1      11.426  27.561  42.604  1.00  0.00     0.053 C 
ATOM     23  C   UNL     1      13.566  29.245  43.475  1.00  0.00     0.162 C 
ATOM     24  C   UNL     1      11.542  28.232  43.980  1.00  0.00     0.162 C 
ATOM     25  O   UNL     1      12.230  29.466  43.888  1.00  0.00    -0.381 OA
ENDBRANCH  18  20
ENDBRANCH  10  18
ENDBRANCH   1   5
BRANCH   3  26
ATOM     26  C   UNL     1      17.337  26.870  40.786  1.00  0.00     0.162 A 
ATOM     27  N   UNL     1      17.565  28.166  41.118  1.00  0.00    -0.156 NA
ATOM     28  C   UNL     1      18.512  26.304  40.338  1.00  0.00     0.044 A 
ATOM     29  N   UNL     1      18.851  28.424  40.896  1.00  0.00    -0.276 N 
ATOM     30  C   UNL     1      19.434  27.307  40.423  1.00  0.00     0.067 A 
ATOM     31  C   UNL     1      18.840  25.032  39.876  1.00  0.00     0.018 A 
ATOM     32  H   UNL     1      19.309  29.346  41.072  1.00  0.00     0.190 HD
ATOM     33  C   UNL     1      20.764  27.118  40.060  1.00  0.00     0.029 A 
ATOM     34  C   UNL     1      20.178  24.801  39.484  1.00  0.00    -0.043 A 
ATOM     35  C   UNL     1      21.136  25.846  39.586  1.00  0.00     0.006 A 
BRANCH  34  36
ATOM     36  C   UNL     1      20.597  23.433  39.018  1.00  0.00     0.071 C 
BRANCH  36  37
ATOM     37  C   UNL     1      22.081  23.410  38.761  1.00  0.00    -0.038 A 
ATOM     38  C   UNL     1      22.989  23.410  39.835  1.00  0.00     0.043 A 
ATOM     39  C   UNL     1      22.572  23.444  37.444  1.00  0.00     0.043 A 
ATOM     40  C   UNL     1      24.366  23.416  39.594  1.00  0.00     0.126 A 
ATOM     41  C   UNL     1      23.950  23.455  37.207  1.00  0.00     0.126 A 
ATOM     42  F   UNL     1      25.239  23.406  40.633  1.00  0.00    -0.207 F 
ATOM     43  C   UNL     1      24.845  23.438  38.280  1.00  0.00     0.078 A 
ATOM     44  F   UNL     1      24.418  23.492  35.933  1.00  0.00    -0.207 F 
ENDBRANCH  36  37
ENDBRANCH  34  36
ENDBRANCH   3  26
TORSDOF 7
ENDMDL
MODEL 4
REMARK VINA RESULT:   -10.718      7.837     14.563
REMARK INTER + INTRA:         -16.068
REMARK INTER:                 -14.979
REMARK INTRA:                  -1.089
REMARK UNBOUND:                -0.964
REMARK SMILES CN1CCN(c2ccc(C(=O)Nc3n[nH]c4ccc(Cc5cc(F)cc(F)c5)cc34)c(NC3CCOCC3)c2)CC1
REMARK SMILES IDX 10 1 11 2 12 3 9 5 6 6 7 7 39 8 8 9 31 10 5 11 1 12 2 13
REMARK SMILES IDX 3 14 41 15 4 16 40 17 32 18 33 20 34 21 38 22 35 23 37 24
REMARK SMILES IDX 36 25 13 26 14 27 30 28 15 29 16 30 29 31 17 33 19 34 18 35
REMARK SMILES IDX 20 36 21 37 22 38 28 39 23 40 26 41 24 42 25 43 27 44
REMARK H PARENT 12 4 32 19 15 32
REMARK Flexibility Score: inf
ROOT
ATOM      1  C   UNL     1      26.233  22.760  36.019  1.00  0.00     0.258 C 
ATOM      2  O   UNL     1      26.480  23.990  36.162  1.00  0.00    -0.269 OA
ATOM      3  N   UNL     1      25.622  22.016  37.086  1.00  0.00    -0.304 N 
ATOM      4  H   UNL     1      25.309  21.038  36.898  1.00  0.00     0.171 HD
ENDROOT
BRANCH   1   5
ATOM      5  C   UNL     1      26.608  22.086  34.754  1.00  0.00     0.063 A 
ATOM      6  C   UNL     1      27.557  20.839  32.405  1.00  0.00     0.039 A 
ATOM      7  C   UNL     1      27.714  20.218  33.651  1.00  0.00     0.027 A 
ATOM      8  C   UNL     1      26.900  22.073  32.335  1.00  0.00     0.052 A 
ATOM      9  C   UNL     1      27.243  20.833  34.812  1.00  0.00     0.018 A 
ATOM     10  C   UNL     1      26.426  22.710  33.496  1.00  0.00     0.049 A 
BRANCH   6  11
ATOM     11  N   UNL     1      28.095  20.241  31.211  1.00  0.00    -0.369 N 
ATOM     12  C   UNL     1      30.502  18.448  28.247  1.00  0.00     0.105 C 
ATOM     13  N   UNL     1      29.951  19.202  29.388  1.00  0.00    -0.303 NA
ATOM     14  C   UNL     1      29.377  18.280  30.408  1.00  0.00     0.105 C 
ATOM     15  C   UNL     1      28.999  20.227  28.916  1.00  0.00     0.105 C 
ATOM     16  C   UNL     1      28.068  18.782  31.046  1.00  0.00     0.132 C 
ATOM     17  C   UNL     1      28.538  21.086  30.096  1.00  0.00     0.132 C 
ENDBRANCH   6  11
BRANCH  10  18
ATOM     18  N   UNL     1      25.726  23.964  33.396  1.00  0.00    -0.381 N 
ATOM     19  H   UNL     1      24.896  24.118  34.017  1.00  0.00     0.160 HD
BRANCH  18  20
ATOM     20  C   UNL     1      26.194  25.076  32.558  1.00  0.00     0.083 C 
ATOM     21  C   UNL     1      27.622  25.489  32.948  1.00  0.00     0.053 C 
ATOM     22  C   UNL     1      26.164  24.676  31.075  1.00  0.00     0.053 C 
ATOM     23  C   UNL     1      28.157  26.529  31.953  1.00  0.00     0.162 C 
ATOM     24  C   UNL     1      26.818  25.768  30.218  1.00  0.00     0.162 C 
ATOM     25  O   UNL     1      28.150  26.013  30.635  1.00  0.00    -0.381 OA
ENDBRANCH  18  20
ENDBRANCH  10  18
ENDBRANCH   1   5
BRANCH   3  26
ATOM     26  C   UNL     1      25.416  22.543  38.404  1.00  0.00     0.162 A 
ATOM     27  N   UNL     1      26.365  22.604  39.373  1.00  0.00    -0.156 NA
ATOM     28  C   UNL     1      24.233  23.053  38.898  1.00  0.00     0.044 A 
ATOM     29  N   UNL     1      25.811  23.141  40.455  1.00  0.00    -0.276 N 
ATOM     30  C   UNL     1      24.522  23.417  40.182  1.00  0.00     0.067 A 
ATOM     31  C   UNL     1      22.966  23.222  38.346  1.00  0.00     0.018 A 
ATOM     32  H   UNL     1      26.314  23.316  41.354  1.00  0.00     0.190 HD
ATOM     33  C   UNL     1      23.568  23.988  41.018  1.00  0.00     0.029 A 
ATOM     34  C   UNL     1      21.963  23.788  39.166  1.00  0.00    -0.043 A 
ATOM     35  C   UNL     1      22.273  24.175  40.498  1.00  0.00     0.006 A 
BRANCH  34  36
ATOM     36  C   UNL     1      20.588  24.033  38.608  1.00  0.00     0.071 C 
BRANCH  36  37
ATOM     37  C   UNL     1      19.934  25.177  39.335  1.00  0.00    -0.038 A 
ATOM     38  C   UNL     1      20.536  26.449  39.350  1.00  0.00     0.043 A 
ATOM     39  C   UNL     1      18.744  24.971  40.054  1.00  0.00     0.043 A 
ATOM     40  C   UNL     1      19.940  27.502  40.050  1.00  0.00     0.126 A 
ATOM     41  C   UNL     1      18.154  26.025  40.757  1.00  0.00     0.126 A 
ATOM     42  F   UNL     1      20.520  28.729  40.053  1.00  0.00    -0.207 F 
ATOM     43  C   UNL     1      18.750  27.290  40.752  1.00  0.00     0.078 A 
ATOM     44  F   UNL     1      17.006  25.819  41.453  1.00  0.00    -0.207 F 
ENDBRANCH  36  37
ENDBRANCH  34  36
ENDBRANCH   3  26
TORSDOF 7
ENDMDL
MODEL 5
REMARK VINA RESULT:   -10.663      2.351      3.048
REMARK INTER + INTRA:         -15.990
REMARK INTER:                 -14.362
REMARK INTRA:                  -1.628
REMARK UNBOUND:                -0.964
REMARK SMILES CN1CCN(c2ccc(C(=O)Nc3n[nH]c4ccc(Cc5cc(F)cc(F)c5)cc34)c(NC3CCOCC3)c2)CC1
REMARK SMILES IDX 10 1 11 2 12 3 9 5 6 6 7 7 39 8 8 9 31 10 5 11 1 12 2 13
REMARK SMILES IDX 3 14 41 15 4 16 40 17 32 18 33 20 34 21 38 22 35 23 37 24
REMARK SMILES IDX 36 25 13 26 14 27 30 28 15 29 16 30 29 31 17 33 19 34 18 35
REMARK SMILES IDX 20 36 21 37 22 38 28 39 23 40 26 41 24 42 25 43 27 44
REMARK H PARENT 12 4 32 19 15 32
REMARK Flexibility Score: inf
ROOT
ATOM      1  C   UNL     1      14.588  25.029  39.824  1.00  0.00     0.258 C 
ATOM      2  O   UNL     1      14.547  25.946  38.956  1.00  0.00    -0.269 OA
ATOM      3  N   UNL     1      15.506  25.118  40.926  1.00  0.00    -0.304 N 
ATOM      4  H   UNL     1      15.430  24.417  41.697  1.00  0.00     0.171 HD
ENDROOT
BRANCH   1   5
ATOM      5  C   UNL     1      13.706  23.848  39.676  1.00  0.00     0.063 A 
ATOM      6  C   UNL     1      12.050  21.621  39.152  1.00  0.00     0.039 A 
ATOM      7  C   UNL     1      13.432  21.546  38.931  1.00  0.00     0.027 A 
ATOM      8  C   UNL     1      11.504  22.805  39.661  1.00  0.00     0.052 A 
ATOM      9  C   UNL     1      14.251  22.646  39.192  1.00  0.00     0.018 A 
ATOM     10  C   UNL     1      12.314  23.925  39.923  1.00  0.00     0.049 A 
BRANCH   6  11
ATOM     11  N   UNL     1      11.192  20.512  38.827  1.00  0.00    -0.369 N 
ATOM     12  C   UNL     1       9.490  16.910  37.440  1.00  0.00     0.105 C 
ATOM     13  N   UNL     1      10.288  18.131  37.662  1.00  0.00    -0.303 NA
ATOM     14  C   UNL     1      11.054  18.042  38.936  1.00  0.00     0.105 C 
ATOM     15  C   UNL     1       9.430  19.329  37.571  1.00  0.00     0.105 C 
ATOM     16  C   UNL     1      11.108  19.360  39.733  1.00  0.00     0.132 C 
ATOM     17  C   UNL     1      10.290  20.590  37.671  1.00  0.00     0.132 C 
ENDBRANCH   6  11
BRANCH  10  18
ATOM     18  N   UNL     1      11.733  25.121  40.475  1.00  0.00    -0.381 N 
ATOM     19  H   UNL     1      12.167  25.529  41.338  1.00  0.00     0.160 HD
BRANCH  18  20
ATOM     20  C   UNL     1      10.646  25.859  39.819  1.00  0.00     0.083 C 
ATOM     21  C   UNL     1       9.762  26.566  40.858  1.00  0.00     0.053 C 
ATOM     22  C   UNL     1      11.218  26.897  38.842  1.00  0.00     0.053 C 
ATOM     23  C   UNL     1       8.741  27.468  40.149  1.00  0.00     0.162 C 
ATOM     24  C   UNL     1      10.094  27.785  38.292  1.00  0.00     0.162 C 
ATOM     25  O   UNL     1       9.395  28.430  39.342  1.00  0.00    -0.381 OA
ENDBRANCH  18  20
ENDBRANCH  10  18
ENDBRANCH   1   5
BRANCH   3  26
ATOM     26  C   UNL     1      16.528  26.119  41.030  1.00  0.00     0.162 A 
ATOM     27  N   UNL     1      16.406  27.284  41.716  1.00  0.00    -0.156 NA
ATOM     28  C   UNL     1      17.776  26.067  40.445  1.00  0.00     0.044 A 
ATOM     29  N   UNL     1      17.544  27.958  41.581  1.00  0.00    -0.276 N 
ATOM     30  C   UNL     1      18.381  27.234  40.814  1.00  0.00     0.067 A 
ATOM     31  C   UNL     1      18.412  25.123  39.644  1.00  0.00     0.018 A 
ATOM     32  H   UNL     1      17.736  28.890  42.012  1.00  0.00     0.190 HD
ATOM     33  C   UNL     1      19.677  27.550  40.418  1.00  0.00     0.029 A 
ATOM     34  C   UNL     1      19.726  25.410  39.208  1.00  0.00    -0.043 A 
ATOM     35  C   UNL     1      20.355  26.621  39.605  1.00  0.00     0.006 A 
BRANCH  34  36
ATOM     36  C   UNL     1      20.476  24.406  38.376  1.00  0.00     0.071 C 
BRANCH  36  37
ATOM     37  C   UNL     1      21.824  24.132  38.991  1.00  0.00    -0.038 A 
ATOM     38  C   UNL     1      22.924  23.808  38.176  1.00  0.00     0.043 A 
ATOM     39  C   UNL     1      21.980  24.142  40.387  1.00  0.00     0.043 A 
ATOM     40  C   UNL     1      24.167  23.527  38.751  1.00  0.00     0.126 A 
ATOM     41  C   UNL     1      23.223  23.855  40.959  1.00  0.00     0.126 A 
ATOM     42  F   UNL     1      25.229  23.225  37.961  1.00  0.00    -0.207 F 
ATOM     43  C   UNL     1      24.316  23.551  40.142  1.00  0.00     0.078 A 
ATOM     44  F   UNL     1      23.368  23.863  42.309  1.00  0.00    -0.207 F 
ENDBRANCH  36  37
ENDBRANCH  34  36
ENDBRANCH   3  26
TORSDOF 7
ENDMDL
MODEL 6
REMARK VINA RESULT:   -10.557     10.782     16.072
REMARK INTER + INTRA:         -15.841
REMARK INTER:                 -13.389
REMARK INTRA:                  -2.452
REMARK UNBOUND:                -0.964
REMARK SMILES CN1CCN(c2ccc(C(=O)Nc3n[nH]c4ccc(Cc5cc(F)cc(F)c5)cc34)c(NC3CCOCC3)c2)CC1
REMARK SMILES IDX 10 1 11 2 12 3 9 5 6 6 7 7 39 8 8 9 31 10 5 11 1 12 2 13
REMARK SMILES IDX 3 14 41 15 4 16 40 17 32 18 33 20 34 21 38 22 35 23 37 24
REMARK SMILES IDX 36 25 13 26 14 27 30 28 15 29 16 30 29 31 17 33 19 34 18 35
REMARK SMILES IDX 20 36 21 37 22 38 28 39 23 40 26 41 24 42 25 43 27 44
REMARK H PARENT 12 4 32 19 15 32
REMARK Flexibility Score: inf
ROOT
ATOM      1  C   UNL     1      27.248  21.222  31.392  1.00  0.00     0.258 C 
ATOM      2  O   UNL     1      26.480  21.047  30.404  1.00  0.00    -0.269 OA
ATOM      3  N   UNL     1      28.660  20.991  31.260  1.00  0.00    -0.304 N 
ATOM      4  H   UNL     1      29.287  21.267  32.048  1.00  0.00     0.171 HD
ENDROOT
BRANCH   1   5
ATOM      5  C   UNL     1      26.674  21.635  32.694  1.00  0.00     0.063 A 
ATOM      6  C   UNL     1      25.784  22.553  35.212  1.00  0.00     0.039 A 
ATOM      7  C   UNL     1      25.854  23.430  34.121  1.00  0.00     0.027 A 
ATOM      8  C   UNL     1      26.134  21.210  35.032  1.00  0.00     0.052 A 
ATOM      9  C   UNL     1      26.292  22.976  32.876  1.00  0.00     0.018 A 
ATOM     10  C   UNL     1      26.584  20.737  33.785  1.00  0.00     0.049 A 
BRANCH   6  11
ATOM     11  N   UNL     1      25.393  23.027  36.513  1.00  0.00    -0.369 N 
ATOM     12  C   UNL     1      24.139  23.453  40.518  1.00  0.00     0.105 C 
ATOM     13  N   UNL     1      24.397  23.023  39.132  1.00  0.00    -0.303 NA
ATOM     14  C   UNL     1      25.841  22.717  38.929  1.00  0.00     0.105 C 
ATOM     15  C   UNL     1      23.865  24.016  38.178  1.00  0.00     0.105 C 
ATOM     16  C   UNL     1      26.400  23.182  37.571  1.00  0.00     0.132 C 
ATOM     17  C   UNL     1      24.021  23.495  36.747  1.00  0.00     0.132 C 
ENDBRANCH   6  11
BRANCH  10  18
ATOM     18  N   UNL     1      26.909  19.345  33.617  1.00  0.00    -0.381 N 
ATOM     19  H   UNL     1      27.841  19.010  33.962  1.00  0.00     0.160 HD
BRANCH  18  20
ATOM     20  C   UNL     1      25.954  18.357  33.100  1.00  0.00     0.083 C 
ATOM     21  C   UNL     1      26.559  17.580  31.920  1.00  0.00     0.053 C 
ATOM     22  C   UNL     1      25.551  17.373  34.209  1.00  0.00     0.053 C 
ATOM     23  C   UNL     1      25.617  16.439  31.507  1.00  0.00     0.162 C 
ATOM     24  C   UNL     1      24.696  16.239  33.627  1.00  0.00     0.162 C 
ATOM     25  O   UNL     1      25.386  15.560  32.593  1.00  0.00    -0.381 OA
ENDBRANCH  18  20
ENDBRANCH  10  18
ENDBRANCH   1   5
BRANCH   3  26
ATOM     26  C   UNL     1      29.263  20.398  30.101  1.00  0.00     0.162 A 
ATOM     27  N   UNL     1      29.230  20.928  28.852  1.00  0.00    -0.156 NA
ATOM     28  C   UNL     1      29.950  19.203  30.068  1.00  0.00     0.044 A 
ATOM     29  N   UNL     1      29.882  20.101  28.040  1.00  0.00    -0.276 N 
ATOM     30  C   UNL     1      30.322  19.054  28.762  1.00  0.00     0.067 A 
ATOM     31  C   UNL     1      30.270  18.261  31.042  1.00  0.00     0.018 A 
ATOM     32  H   UNL     1      30.022  20.262  27.018  1.00  0.00     0.190 HD
ATOM     33  C   UNL     1      31.052  17.953  28.325  1.00  0.00     0.029 A 
ATOM     34  C   UNL     1      31.001  17.121  30.638  1.00  0.00    -0.043 A 
ATOM     35  C   UNL     1      31.395  16.977  29.280  1.00  0.00     0.006 A 
BRANCH  34  36
ATOM     36  C   UNL     1      31.411  16.093  31.657  1.00  0.00     0.071 C 
BRANCH  36  37
ATOM     37  C   UNL     1      30.192  15.413  32.222  1.00  0.00    -0.038 A 
ATOM     38  C   UNL     1      29.323  14.697  31.379  1.00  0.00     0.043 A 
ATOM     39  C   UNL     1      29.882  15.536  33.587  1.00  0.00     0.043 A 
ATOM     40  C   UNL     1      28.176  14.090  31.902  1.00  0.00     0.126 A 
ATOM     41  C   UNL     1      28.732  14.932  34.105  1.00  0.00     0.126 A 
ATOM     42  F   UNL     1      27.346  13.392  31.087  1.00  0.00    -0.207 F 
ATOM     43  C   UNL     1      27.882  14.207  33.264  1.00  0.00     0.078 A 
ATOM     44  F   UNL     1      28.435  15.056  35.424  1.00  0.00    -0.207 F 
ENDBRANCH  36  37
ENDBRANCH  34  36
ENDBRANCH   3  26
TORSDOF 7
ENDMDL
MODEL 7
REMARK VINA RESULT:   -10.539      1.800      2.500
REMARK INTER + INTRA:         -15.815
REMARK INTER:                 -14.689
REMARK INTRA:                  -1.126
REMARK UNBOUND:                -0.964
REMARK SMILES CN1CCN(c2ccc(C(=O)Nc3n[nH]c4ccc(Cc5cc(F)cc(F)c5)cc34)c(NC3CCOCC3)c2)CC1
REMARK SMILES IDX 10 1 11 2 12 3 9 5 6 6 7 7 39 8 8 9 31 10 5 11 1 12 2 13
REMARK SMILES IDX 3 14 41 15 4 16 40 17 32 18 33 20 34 21 38 22 35 23 37 24
REMARK SMILES IDX 36 25 13 26 14 27 30 28 15 29 16 30 29 31 17 33 19 34 18 35
REMARK SMILES IDX 20 36 21 37 22 38 28 39 23 40 26 41 24 42 25 43 27 44
REMARK H PARENT 12 4 32 19 15 32
REMARK Flexibility Score: inf
ROOT
ATOM      1  C   UNL     1      15.120  25.670  39.795  1.00  0.00     0.258 C 
ATOM      2  O   UNL     1      15.379  26.121  38.644  1.00  0.00    -0.269 OA
ATOM      3  N   UNL     1      15.954  26.016  40.912  1.00  0.00    -0.304 N 
ATOM      4  H   UNL     1      15.645  25.739  41.871  1.00  0.00     0.171 HD
ENDROOT
BRANCH   1   5
ATOM      5  C   UNL     1      13.968  24.755  39.973  1.00  0.00     0.063 A 
ATOM      6  C   UNL     1      11.755  23.004  40.070  1.00  0.00     0.039 A 
ATOM      7  C   UNL     1      13.006  22.544  39.635  1.00  0.00     0.027 A 
ATOM      8  C   UNL     1      11.622  24.334  40.483  1.00  0.00     0.052 A 
ATOM      9  C   UNL     1      14.100  23.410  39.589  1.00  0.00     0.018 A 
ATOM     10  C   UNL     1      12.713  25.221  40.437  1.00  0.00     0.049 A 
BRANCH   6  11
ATOM     11  N   UNL     1      10.608  22.134  40.062  1.00  0.00    -0.369 N 
ATOM     12  C   UNL     1       7.704  19.182  39.260  1.00  0.00     0.105 C 
ATOM     13  N   UNL     1       8.780  20.189  39.213  1.00  0.00    -0.303 NA
ATOM     14  C   UNL     1       9.960  19.744  40.006  1.00  0.00     0.105 C 
ATOM     15  C   UNL     1       8.264  21.512  39.613  1.00  0.00     0.105 C 
ATOM     16  C   UNL     1      10.641  20.870  40.809  1.00  0.00     0.132 C 
ATOM     17  C   UNL     1       9.355  22.570  39.433  1.00  0.00     0.132 C 
ENDBRANCH   6  11
BRANCH  10  18
ATOM     18  N   UNL     1      12.560  26.578  40.895  1.00  0.00    -0.381 N 
ATOM     19  H   UNL     1      13.202  26.920  41.650  1.00  0.00     0.160 HD
BRANCH  18  20
ATOM     20  C   UNL     1      11.634  27.532  40.272  1.00  0.00     0.083 C 
ATOM     21  C   UNL     1      11.200  27.042  38.882  1.00  0.00     0.053 C 
ATOM     22  C   UNL     1      10.394  27.728  41.157  1.00  0.00     0.053 C 
ATOM     23  C   UNL     1      10.104  27.961  38.322  1.00  0.00     0.162 C 
ATOM     24  C   UNL     1       9.350  28.584  40.425  1.00  0.00     0.162 C 
ATOM     25  O   UNL     1       8.985  27.995  39.189  1.00  0.00    -0.381 OA
ENDBRANCH  18  20
ENDBRANCH  10  18
ENDBRANCH   1   5
BRANCH   3  26
ATOM     26  C   UNL     1      17.195  26.724  40.787  1.00  0.00     0.162 A 
ATOM     27  N   UNL     1      17.370  28.040  41.069  1.00  0.00    -0.156 NA
ATOM     28  C   UNL     1      18.391  26.192  40.352  1.00  0.00     0.044 A 
ATOM     29  N   UNL     1      18.642  28.344  40.828  1.00  0.00    -0.276 N 
ATOM     30  C   UNL     1      19.270  27.236  40.393  1.00  0.00     0.067 A 
ATOM     31  C   UNL     1      18.771  24.919  39.935  1.00  0.00     0.018 A 
ATOM     32  H   UNL     1      19.062  29.291  40.966  1.00  0.00     0.190 HD
ATOM     33  C   UNL     1      20.605  27.090  40.028  1.00  0.00     0.029 A 
ATOM     34  C   UNL     1      20.115  24.730  39.542  1.00  0.00    -0.043 A 
ATOM     35  C   UNL     1      21.028  25.818  39.598  1.00  0.00     0.006 A 
BRANCH  34  36
ATOM     36  C   UNL     1      20.590  23.365  39.125  1.00  0.00     0.071 C 
BRANCH  36  37
ATOM     37  C   UNL     1      22.067  23.401  38.833  1.00  0.00    -0.038 A 
ATOM     38  C   UNL     1      22.998  23.437  39.887  1.00  0.00     0.043 A 
ATOM     39  C   UNL     1      22.526  23.454  37.506  1.00  0.00     0.043 A 
ATOM     40  C   UNL     1      24.368  23.499  39.614  1.00  0.00     0.126 A 
ATOM     41  C   UNL     1      23.896  23.520  37.237  1.00  0.00     0.126 A 
ATOM     42  F   UNL     1      25.264  23.524  40.633  1.00  0.00    -0.207 F 
ATOM     43  C   UNL     1      24.816  23.539  38.289  1.00  0.00     0.078 A 
ATOM     44  F   UNL     1      24.334  23.575  35.953  1.00  0.00    -0.207 F 
ENDBRANCH  36  37
ENDBRANCH  34  36
ENDBRANCH   3  26
TORSDOF 7
ENDMDL
MODEL 8
REMARK VINA RESULT:   -10.220      5.952      8.503
REMARK INTER + INTRA:         -15.366
REMARK INTER:                 -13.032
REMARK INTRA:                  -2.334
REMARK UNBOUND:                -0.964
REMARK SMILES CN1CCN(c2ccc(C(=O)Nc3n[nH]c4ccc(Cc5cc(F)cc(F)c5)cc34)c(NC3CCOCC3)c2)CC1
REMARK SMILES IDX 10 1 11 2 12 3 9 5 6 6 7 7 39 8 8 9 31 10 5 11 1 12 2 13
REMARK SMILES IDX 3 14 41 15 4 16 40 17 32 18 33 20 34 21 38 22 35 23 37 24
REMARK SMILES IDX 36 25 13 26 14 27 30 28 15 29 16 30 29 31 17 33 19 34 18 35
REMARK SMILES IDX 20 36 21 37 22 38 28 39 23 40 26 41 24 42 25 43 27 44
REMARK H PARENT 12 4 32 19 15 32
REMARK Flexibility Score: inf
ROOT
ATOM      1  C   UNL     1      13.882  24.087  39.240  1.00  0.00     0.258 C 
ATOM      2  O   UNL     1      13.529  25.090  38.559  1.00  0.00    -0.269 OA
ATOM      3  N   UNL     1      14.821  24.238  40.318  1.00  0.00    -0.304 N 
ATOM      4  H   UNL     1      14.996  23.422  40.946  1.00  0.00     0.171 HD
ENDROOT
BRANCH   1   5
ATOM      5  C   UNL     1      13.345  22.750  38.896  1.00  0.00     0.063 A 
ATOM      6  C   UNL     1      12.200  20.309  38.056  1.00  0.00     0.039 A 
ATOM      7  C   UNL     1      13.197  20.927  37.288  1.00  0.00     0.027 A 
ATOM      8  C   UNL     1      11.798  20.901  39.258  1.00  0.00     0.052 A 
ATOM      9  C   UNL     1      13.764  22.133  37.705  1.00  0.00     0.018 A 
ATOM     10  C   UNL     1      12.355  22.120  39.689  1.00  0.00     0.049 A 
BRANCH   6  11
ATOM     11  N   UNL     1      11.567  19.098  37.602  1.00  0.00    -0.369 N 
ATOM     12  C   UNL     1       8.901  15.971  36.651  1.00  0.00     0.105 C 
ATOM     13  N   UNL     1       9.618  17.121  37.232  1.00  0.00    -0.303 NA
ATOM     14  C   UNL     1       9.642  18.268  36.282  1.00  0.00     0.105 C 
ATOM     15  C   UNL     1      10.957  16.710  37.698  1.00  0.00     0.105 C 
ATOM     16  C   UNL     1      10.977  19.039  36.259  1.00  0.00     0.132 C 
ATOM     17  C   UNL     1      11.636  17.879  38.416  1.00  0.00     0.132 C 
ENDBRANCH   6  11
BRANCH  10  18
ATOM     18  N   UNL     1      11.946  22.695  40.944  1.00  0.00    -0.381 N 
ATOM     19  H   UNL     1      12.598  22.612  41.761  1.00  0.00     0.160 HD
BRANCH  18  20
ATOM     20  C   UNL     1      10.723  23.493  41.098  1.00  0.00     0.083 C 
ATOM     21  C   UNL     1      10.939  24.632  42.106  1.00  0.00     0.053 C 
ATOM     22  C   UNL     1      10.296  24.081  39.744  1.00  0.00     0.053 C 
ATOM     23  C   UNL     1       9.712  25.556  42.123  1.00  0.00     0.162 C 
ATOM     24  C   UNL     1       9.126  25.057  39.935  1.00  0.00     0.162 C 
ATOM     25  O   UNL     1       9.470  26.094  40.837  1.00  0.00    -0.381 OA
ENDBRANCH  18  20
ENDBRANCH  10  18
ENDBRANCH   1   5
BRANCH   3  26
ATOM     26  C   UNL     1      15.538  25.453  40.582  1.00  0.00     0.162 A 
ATOM     27  N   UNL     1      16.839  25.671  40.265  1.00  0.00    -0.156 NA
ATOM     28  C   UNL     1      15.030  26.573  41.206  1.00  0.00     0.044 A 
ATOM     29  N   UNL     1      17.158  26.897  40.667  1.00  0.00    -0.276 N 
ATOM     30  C   UNL     1      16.074  27.454  41.238  1.00  0.00     0.067 A 
ATOM     31  C   UNL     1      13.780  26.886  41.732  1.00  0.00     0.018 A 
ATOM     32  H   UNL     1      18.098  27.336  40.544  1.00  0.00     0.190 HD
ATOM     33  C   UNL     1      15.949  28.723  41.793  1.00  0.00     0.029 A 
ATOM     34  C   UNL     1      13.614  28.161  42.318  1.00  0.00    -0.043 A 
ATOM     35  C   UNL     1      14.700  29.077  42.338  1.00  0.00     0.006 A 
BRANCH  34  36
ATOM     36  C   UNL     1      12.272  28.567  42.863  1.00  0.00     0.071 C 
BRANCH  36  37
ATOM     37  C   UNL     1      12.235  28.353  44.353  1.00  0.00    -0.038 A 
ATOM     38  C   UNL     1      12.518  29.416  45.231  1.00  0.00     0.043 A 
ATOM     39  C   UNL     1      11.973  27.077  44.879  1.00  0.00     0.043 A 
ATOM     40  C   UNL     1      12.511  29.208  46.613  1.00  0.00     0.126 A 
ATOM     41  C   UNL     1      11.972  26.872  46.262  1.00  0.00     0.126 A 
ATOM     42  F   UNL     1      12.774  30.238  47.457  1.00  0.00    -0.207 F 
ATOM     43  C   UNL     1      12.237  27.936  47.127  1.00  0.00     0.078 A 
ATOM     44  F   UNL     1      11.722  25.635  46.764  1.00  0.00    -0.207 F 
ENDBRANCH  36  37
ENDBRANCH  34  36
ENDBRANCH   3  26
TORSDOF 7
ENDMDL
MODEL 9
REMARK VINA RESULT:   -10.117      5.196      9.967
REMARK INTER + INTRA:         -15.220
REMARK INTER:                 -13.644
REMARK INTRA:                  -1.577
REMARK UNBOUND:                -0.964
REMARK SMILES CN1CCN(c2ccc(C(=O)Nc3n[nH]c4ccc(Cc5cc(F)cc(F)c5)cc34)c(NC3CCOCC3)c2)CC1
REMARK SMILES IDX 10 1 11 2 12 3 9 5 6 6 7 7 39 8 8 9 31 10 5 11 1 12 2 13
REMARK SMILES IDX 3 14 41 15 4 16 40 17 32 18 33 20 34 21 38 22 35 23 37 24
REMARK SMILES IDX 36 25 13 26 14 27 30 28 15 29 16 30 29 31 17 33 19 34 18 35
REMARK SMILES IDX 20 36 21 37 22 38 28 39 23 40 26 41 24 42 25 43 27 44
REMARK H PARENT 12 4 32 19 15 32
REMARK Flexibility Score: inf
ROOT
ATOM      1  C   UNL     1      13.339  23.343  39.298  1.00  0.00     0.258 C 
ATOM      2  O   UNL     1      13.830  23.338  38.134  1.00  0.00    -0.269 OA
ATOM      3  N   UNL     1      13.299  22.133  40.072  1.00  0.00    -0.304 N 
ATOM      4  H   UNL     1      13.011  22.190  41.074  1.00  0.00     0.171 HD
ENDROOT
BRANCH   1   5
ATOM      5  C   UNL     1      12.777  24.601  39.844  1.00  0.00     0.063 A 
ATOM      6  C   UNL     1      11.702  27.083  40.655  1.00  0.00     0.039 A 
ATOM      7  C   UNL     1      10.915  26.166  39.944  1.00  0.00     0.027 A 
ATOM      8  C   UNL     1      13.019  26.742  40.982  1.00  0.00     0.052 A 
ATOM      9  C   UNL     1      11.446  24.939  39.545  1.00  0.00     0.018 A 
ATOM     10  C   UNL     1      13.572  25.512  40.582  1.00  0.00     0.049 A 
BRANCH   6  11
ATOM     11  N   UNL     1      11.181  28.376  41.016  1.00  0.00    -0.369 N 
ATOM     12  C   UNL     1       9.804  32.361  41.116  1.00  0.00     0.105 C 
ATOM     13  N   UNL     1      10.472  31.079  40.827  1.00  0.00    -0.303 NA
ATOM     14  C   UNL     1       9.490  30.062  40.357  1.00  0.00     0.105 C 
ATOM     15  C   UNL     1      11.267  30.640  41.991  1.00  0.00     0.105 C 
ATOM     16  C   UNL     1       9.741  28.643  40.904  1.00  0.00     0.132 C 
ATOM     17  C   UNL     1      12.057  29.380  41.631  1.00  0.00     0.132 C 
ENDBRANCH   6  11
BRANCH  10  18
ATOM     18  N   UNL     1      14.920  25.171  40.957  1.00  0.00    -0.381 N 
ATOM     19  H   UNL     1      15.074  24.284  41.495  1.00  0.00     0.160 HD
BRANCH  18  20
ATOM     20  C   UNL     1      16.091  25.940  40.516  1.00  0.00     0.083 C 
ATOM     21  C   UNL     1      16.137  27.309  41.210  1.00  0.00     0.053 C 
ATOM     22  C   UNL     1      17.383  25.166  40.822  1.00  0.00     0.053 C 
ATOM     23  C   UNL     1      17.453  28.024  40.872  1.00  0.00     0.162 C 
ATOM     24  C   UNL     1      18.608  26.042  40.526  1.00  0.00     0.162 C 
ATOM     25  O   UNL     1      18.565  27.245  41.273  1.00  0.00    -0.381 OA
ENDBRANCH  18  20
ENDBRANCH  10  18
ENDBRANCH   1   5
BRANCH   3  26
ATOM     26  C   UNL     1      13.633  20.842  39.543  1.00  0.00     0.162 A 
ATOM     27  N   UNL     1      14.831  20.224  39.701  1.00  0.00    -0.156 NA
ATOM     28  C   UNL     1      12.805  20.038  38.787  1.00  0.00     0.044 A 
ATOM     29  N   UNL     1      14.774  19.055  39.070  1.00  0.00    -0.276 N 
ATOM     30  C   UNL     1      13.556  18.930  38.513  1.00  0.00     0.067 A 
ATOM     31  C   UNL     1      11.498  20.180  38.330  1.00  0.00     0.018 A 
ATOM     32  H   UNL     1      15.556  18.364  39.033  1.00  0.00     0.190 HD
ATOM     33  C   UNL     1      13.056  17.869  37.764  1.00  0.00     0.029 A 
ATOM     34  C   UNL     1      10.956  19.130  37.554  1.00  0.00    -0.043 A 
ATOM     35  C   UNL     1      11.738  17.974  37.281  1.00  0.00     0.006 A 
BRANCH  34  36
ATOM     36  C   UNL     1       9.534  19.212  37.070  1.00  0.00     0.071 C 
BRANCH  36  37
ATOM     37  C   UNL     1       9.508  19.433  35.581  1.00  0.00    -0.038 A 
ATOM     38  C   UNL     1       9.017  18.433  34.722  1.00  0.00     0.043 A 
ATOM     39  C   UNL     1      10.027  20.618  35.033  1.00  0.00     0.043 A 
ATOM     40  C   UNL     1       9.020  18.630  33.338  1.00  0.00     0.126 A 
ATOM     41  C   UNL     1      10.033  20.809  33.648  1.00  0.00     0.126 A 
ATOM     42  F   UNL     1       8.536  17.667  32.513  1.00  0.00    -0.207 F 
ATOM     43  C   UNL     1       9.527  19.818  32.802  1.00  0.00     0.078 A 
ATOM     44  F   UNL     1      10.538  21.955  33.123  1.00  0.00    -0.207 F 
ENDBRANCH  36  37
ENDBRANCH  34  36
ENDBRANCH   3  26
TORSDOF 7
ENDMDL
MODEL 10
REMARK VINA RESULT:   -10.099      6.204      8.914
REMARK INTER + INTRA:         -15.196
REMARK INTER:                 -12.719
REMARK INTRA:                  -2.477
REMARK UNBOUND:                -0.964
REMARK SMILES CN1CCN(c2ccc(C(=O)Nc3n[nH]c4ccc(Cc5cc(F)cc(F)c5)cc34)c(NC3CCOCC3)c2)CC1
REMARK SMILES IDX 10 1 11 2 12 3 9 5 6 6 7 7 39 8 8 9 31 10 5 11 1 12 2 13
REMARK SMILES IDX 3 14 41 15 4 16 40 17 32 18 33 20 34 21 38 22 35 23 37 24
REMARK SMILES IDX 36 25 13 26 14 27 30 28 15 29 16 30 29 31 17 33 19 34 18 35
REMARK SMILES IDX 20 36 21 37 22 38 28 39 23 40 26 41 24 42 25 43 27 44
REMARK H PARENT 12 4 32 19 15 32
REMARK Flexibility Score: inf
ROOT
ATOM      1  C   UNL     1      13.819  24.045  39.293  1.00  0.00     0.258 C 
ATOM      2  O   UNL     1      13.495  25.010  38.544  1.00  0.00    -0.269 OA
ATOM      3  N   UNL     1      14.676  24.264  40.425  1.00  0.00    -0.304 N 
ATOM      4  H   UNL     1      14.823  23.481  41.100  1.00  0.00     0.171 HD
ENDROOT
BRANCH   1   5
ATOM      5  C   UNL     1      13.334  22.682  38.972  1.00  0.00     0.063 A 
ATOM      6  C   UNL     1      12.305  20.180  38.162  1.00  0.00     0.039 A 
ATOM      7  C   UNL     1      13.357  20.778  37.455  1.00  0.00     0.027 A 
ATOM      8  C   UNL     1      11.789  20.825  39.292  1.00  0.00     0.052 A 
ATOM      9  C   UNL     1      13.867  22.014  37.857  1.00  0.00     0.018 A 
ATOM     10  C   UNL     1      12.287  22.074  39.706  1.00  0.00     0.049 A 
BRANCH   6  11
ATOM     11  N   UNL     1      11.733  18.937  37.718  1.00  0.00    -0.369 N 
ATOM     12  C   UNL     1       9.333  15.533  37.046  1.00  0.00     0.105 C 
ATOM     13  N   UNL     1      10.028  16.718  37.582  1.00  0.00    -0.303 NA
ATOM     14  C   UNL     1       9.642  17.946  36.832  1.00  0.00     0.105 C 
ATOM     15  C   UNL     1      11.485  16.484  37.624  1.00  0.00     0.105 C 
ATOM     16  C   UNL     1      10.808  18.921  36.577  1.00  0.00     0.132 C 
ATOM     17  C   UNL     1      12.179  17.667  38.304  1.00  0.00     0.132 C 
ENDBRANCH   6  11
BRANCH  10  18
ATOM     18  N   UNL     1      11.759  22.704  40.889  1.00  0.00    -0.381 N 
ATOM     19  H   UNL     1      12.430  22.956  41.655  1.00  0.00     0.160 HD
BRANCH  18  20
ATOM     20  C   UNL     1      10.356  23.118  41.017  1.00  0.00     0.083 C 
ATOM     21  C   UNL     1      10.134  23.895  42.323  1.00  0.00     0.053 C 
ATOM     22  C   UNL     1       9.947  23.995  39.823  1.00  0.00     0.053 C 
ATOM     23  C   UNL     1       8.709  24.467  42.357  1.00  0.00     0.162 C 
ATOM     24  C   UNL     1       8.542  24.572  40.046  1.00  0.00     0.162 C 
ATOM     25  O   UNL     1       8.483  25.318  41.248  1.00  0.00    -0.381 OA
ENDBRANCH  18  20
ENDBRANCH  10  18
ENDBRANCH   1   5
BRANCH   3  26
ATOM     26  C   UNL     1      15.348  25.505  40.684  1.00  0.00     0.162 A 
ATOM     27  N   UNL     1      16.636  25.775  40.351  1.00  0.00    -0.156 NA
ATOM     28  C   UNL     1      14.805  26.604  41.316  1.00  0.00     0.044 A 
ATOM     29  N   UNL     1      16.911  27.012  40.753  1.00  0.00    -0.276 N 
ATOM     30  C   UNL     1      15.813  27.525  41.338  1.00  0.00     0.067 A 
ATOM     31  C   UNL     1      13.549  26.867  41.858  1.00  0.00     0.018 A 
ATOM     32  H   UNL     1      17.832  27.487  40.619  1.00  0.00     0.190 HD
ATOM     33  C   UNL     1      15.646  28.788  41.898  1.00  0.00     0.029 A 
ATOM     34  C   UNL     1      13.341  28.134  42.448  1.00  0.00    -0.043 A 
ATOM     35  C   UNL     1      14.391  29.092  42.458  1.00  0.00     0.006 A 
BRANCH  34  36
ATOM     36  C   UNL     1      11.991  28.486  43.010  1.00  0.00     0.071 C 
BRANCH  36  37
ATOM     37  C   UNL     1      11.116  29.060  41.927  1.00  0.00    -0.038 A 
ATOM     38  C   UNL     1      11.077  30.449  41.706  1.00  0.00     0.043 A 
ATOM     39  C   UNL     1      10.288  28.218  41.166  1.00  0.00     0.043 A 
ATOM     40  C   UNL     1      10.243  30.981  40.719  1.00  0.00     0.126 A 
ATOM     41  C   UNL     1       9.451  28.755  40.183  1.00  0.00     0.126 A 
ATOM     42  F   UNL     1      10.216  32.321  40.502  1.00  0.00    -0.207 F 
ATOM     43  C   UNL     1       9.431  30.134  39.958  1.00  0.00     0.078 A 
ATOM     44  F   UNL     1       8.650  27.937  39.452  1.00  0.00    -0.207 F 
ENDBRANCH  36  37
ENDBRANCH  34  36
ENDBRANCH   3  26
TORSDOF 7
ENDMDL
MODEL 11
REMARK VINA RESULT:   -10.098      3.130      6.180
REMARK INTER + INTRA:         -15.194
REMARK INTER:                 -14.998
REMARK INTRA:                  -0.195
REMARK UNBOUND:                -0.964
REMARK SMILES CN1CCN(c2ccc(C(=O)Nc3n[nH]c4ccc(Cc5cc(F)cc(F)c5)cc34)c(NC3CCOCC3)c2)CC1
REMARK SMILES IDX 10 1 11 2 12 3 9 5 6 6 7 7 39 8 8 9 31 10 5 11 1 12 2 13
REMARK SMILES IDX 3 14 41 15 4 16 40 17 32 18 33 20 34 21 38 22 35 23 37 24
REMARK SMILES IDX 36 25 13 26 14 27 30 28 15 29 16 30 29 31 17 33 19 34 18 35
REMARK SMILES IDX 20 36 21 37 22 38 28 39 23 40 26 41 24 42 25 43 27 44
REMARK H PARENT 12 4 32 19 15 32
REMARK Flexibility Score: inf
ROOT
ATOM      1  C   UNL     1      11.830  25.190  39.786  1.00  0.00     0.258 C 
ATOM      2  O   UNL     1      12.443  25.685  38.799  1.00  0.00    -0.269 OA
ATOM      3  N   UNL     1      11.916  25.813  41.078  1.00  0.00    -0.304 N 
ATOM      4  H   UNL     1      11.299  25.463  41.844  1.00  0.00     0.171 HD
ENDROOT
BRANCH   1   5
ATOM      5  C   UNL     1      11.050  23.943  39.606  1.00  0.00     0.063 A 
ATOM      6  C   UNL     1       9.456  21.616  39.476  1.00  0.00     0.039 A 
ATOM      7  C   UNL     1       8.879  22.882  39.311  1.00  0.00     0.027 A 
ATOM      8  C   UNL     1      10.837  21.516  39.678  1.00  0.00     0.052 A 
ATOM      9  C   UNL     1       9.667  24.032  39.373  1.00  0.00     0.018 A 
ATOM     10  C   UNL     1      11.645  22.666  39.750  1.00  0.00     0.049 A 
BRANCH   6  11
ATOM     11  N   UNL     1       8.641  20.429  39.475  1.00  0.00    -0.369 N 
ATOM     12  C   UNL     1       6.969  16.601  38.890  1.00  0.00     0.105 C 
ATOM     13  N   UNL     1       7.691  17.884  38.795  1.00  0.00    -0.303 NA
ATOM     14  C   UNL     1       8.740  17.983  39.848  1.00  0.00     0.105 C 
ATOM     15  C   UNL     1       6.738  19.012  38.802  1.00  0.00     0.105 C 
ATOM     16  C   UNL     1       8.869  19.383  40.479  1.00  0.00     0.132 C 
ATOM     17  C   UNL     1       7.490  20.325  38.570  1.00  0.00     0.132 C 
ENDBRANCH   6  11
BRANCH  10  18
ATOM     18  N   UNL     1      13.068  22.537  39.929  1.00  0.00    -0.381 N 
ATOM     19  H   UNL     1      13.489  22.897  40.820  1.00  0.00     0.160 HD
BRANCH  18  20
ATOM     20  C   UNL     1      13.932  21.820  38.982  1.00  0.00     0.083 C 
ATOM     21  C   UNL     1      13.895  20.308  39.248  1.00  0.00     0.053 C 
ATOM     22  C   UNL     1      13.486  22.097  37.538  1.00  0.00     0.053 C 
ATOM     23  C   UNL     1      14.662  19.563  38.146  1.00  0.00     0.162 C 
ATOM     24  C   UNL     1      14.271  21.211  36.561  1.00  0.00     0.162 C 
ATOM     25  O   UNL     1      14.106  19.839  36.873  1.00  0.00    -0.381 OA
ENDBRANCH  18  20
ENDBRANCH  10  18
ENDBRANCH   1   5
BRANCH   3  26
ATOM     26  C   UNL     1      12.808  26.897  41.379  1.00  0.00     0.162 A 
ATOM     27  N   UNL     1      12.418  28.155  41.706  1.00  0.00    -0.156 NA
ATOM     28  C   UNL     1      14.185  26.838  41.370  1.00  0.00     0.044 A 
ATOM     29  N   UNL     1      13.512  28.882  41.907  1.00  0.00    -0.276 N 
ATOM     30  C   UNL     1      14.588  28.099  41.706  1.00  0.00     0.067 A 
ATOM     31  C   UNL     1      15.093  25.817  41.102  1.00  0.00     0.018 A 
ATOM     32  H   UNL     1      13.512  29.891  42.180  1.00  0.00     0.190 HD
ATOM     33  C   UNL     1      15.933  28.440  41.811  1.00  0.00     0.029 A 
ATOM     34  C   UNL     1      16.470  26.124  41.184  1.00  0.00    -0.043 A 
ATOM     35  C   UNL     1      16.883  27.435  41.546  1.00  0.00     0.006 A 
BRANCH  34  36
ATOM     36  C   UNL     1      17.494  25.047  40.948  1.00  0.00     0.071 C 
BRANCH  36  37
ATOM     37  C   UNL     1      18.769  25.655  40.426  1.00  0.00    -0.038 A 
ATOM     38  C   UNL     1      19.848  24.832  40.053  1.00  0.00     0.043 A 
ATOM     39  C   UNL     1      18.913  27.051  40.362  1.00  0.00     0.043 A 
ATOM     40  C   UNL     1      21.041  25.400  39.596  1.00  0.00     0.126 A 
ATOM     41  C   UNL     1      20.110  27.615  39.909  1.00  0.00     0.126 A 
ATOM     42  F   UNL     1      22.076  24.603  39.227  1.00  0.00    -0.207 F 
ATOM     43  C   UNL     1      21.171  26.791  39.523  1.00  0.00     0.078 A 
ATOM     44  F   UNL     1      20.245  28.965  39.852  1.00  0.00    -0.207 F 
ENDBRANCH  36  37
ENDBRANCH  34  36
ENDBRANCH   3  26
TORSDOF 7
ENDMDL
MODEL 12
REMARK VINA RESULT:    -9.952     10.368     15.597
REMARK INTER + INTRA:         -14.988
REMARK INTER:                 -13.116
REMARK INTRA:                  -1.872
REMARK UNBOUND:                -0.964
REMARK SMILES CN1CCN(c2ccc(C(=O)Nc3n[nH]c4ccc(Cc5cc(F)cc(F)c5)cc34)c(NC3CCOCC3)c2)CC1
REMARK SMILES IDX 10 1 11 2 12 3 9 5 6 6 7 7 39 8 8 9 31 10 5 11 1 12 2 13
REMARK SMILES IDX 3 14 41 15 4 16 40 17 32 18 33 20 34 21 38 22 35 23 37 24
REMARK SMILES IDX 36 25 13 26 14 27 30 28 15 29 16 30 29 31 17 33 19 34 18 35
REMARK SMILES IDX 20 36 21 37 22 38 28 39 23 40 26 41 24 42 25 43 27 44
REMARK H PARENT 12 4 32 19 15 32
REMARK Flexibility Score: inf
ROOT
ATOM      1  C   UNL     1      27.347  21.123  31.678  1.00  0.00     0.258 C 
ATOM      2  O   UNL     1      26.501  20.678  30.852  1.00  0.00    -0.269 OA
ATOM      3  N   UNL     1      28.753  21.038  31.388  1.00  0.00    -0.304 N 
ATOM      4  H   UNL     1      29.423  21.528  32.022  1.00  0.00     0.171 HD
ENDROOT
BRANCH   1   5
ATOM      5  C   UNL     1      26.879  21.701  32.959  1.00  0.00     0.063 A 
ATOM      6  C   UNL     1      25.822  22.622  35.410  1.00  0.00     0.039 A 
ATOM      7  C   UNL     1      26.586  21.447  35.362  1.00  0.00     0.027 A 
ATOM      8  C   UNL     1      25.613  23.348  34.233  1.00  0.00     0.052 A 
ATOM      9  C   UNL     1      27.110  20.993  34.151  1.00  0.00     0.018 A 
ATOM     10  C   UNL     1      26.128  22.901  33.002  1.00  0.00     0.049 A 
BRANCH   6  11
ATOM     11  N   UNL     1      25.227  23.063  36.645  1.00  0.00    -0.369 N 
ATOM     12  C   UNL     1      23.416  23.385  40.440  1.00  0.00     0.105 C 
ATOM     13  N   UNL     1      23.888  22.980  39.103  1.00  0.00    -0.303 NA
ATOM     14  C   UNL     1      25.363  22.771  39.101  1.00  0.00     0.105 C 
ATOM     15  C   UNL     1      23.425  23.940  38.082  1.00  0.00     0.105 C 
ATOM     16  C   UNL     1      26.069  23.279  37.828  1.00  0.00     0.132 C 
ATOM     17  C   UNL     1      23.809  23.437  36.688  1.00  0.00     0.132 C 
ENDBRANCH   6  11
BRANCH  10  18
ATOM     18  N   UNL     1      25.925  23.681  31.809  1.00  0.00    -0.381 N 
ATOM     19  H   UNL     1      25.141  23.408  31.168  1.00  0.00     0.160 HD
BRANCH  18  20
ATOM     20  C   UNL     1      26.680  24.906  31.516  1.00  0.00     0.083 C 
ATOM     21  C   UNL     1      26.963  25.693  32.804  1.00  0.00     0.053 C 
ATOM     22  C   UNL     1      28.008  24.561  30.824  1.00  0.00     0.053 C 
ATOM     23  C   UNL     1      27.899  26.874  32.502  1.00  0.00     0.162 C 
ATOM     24  C   UNL     1      28.874  25.820  30.680  1.00  0.00     0.162 C 
ATOM     25  O   UNL     1      29.116  26.418  31.941  1.00  0.00    -0.381 OA
ENDBRANCH  18  20
ENDBRANCH  10  18
ENDBRANCH   1   5
BRANCH   3  26
ATOM     26  C   UNL     1      29.291  20.315  30.273  1.00  0.00     0.162 A 
ATOM     27  N   UNL     1      29.396  20.800  29.010  1.00  0.00    -0.156 NA
ATOM     28  C   UNL     1      29.770  19.021  30.302  1.00  0.00     0.044 A 
ATOM     29  N   UNL     1      29.931  19.850  28.250  1.00  0.00    -0.276 N 
ATOM     30  C   UNL     1      30.161  18.769  29.018  1.00  0.00     0.067 A 
ATOM     31  C   UNL     1      29.891  18.073  31.314  1.00  0.00     0.018 A 
ATOM     32  H   UNL     1      30.134  19.951  27.230  1.00  0.00     0.190 HD
ATOM     33  C   UNL     1      30.714  17.548  28.643  1.00  0.00     0.029 A 
ATOM     34  C   UNL     1      30.436  16.814  30.973  1.00  0.00    -0.043 A 
ATOM     35  C   UNL     1      30.852  16.561  29.638  1.00  0.00     0.006 A 
BRANCH  34  36
ATOM     36  C   UNL     1      30.629  15.768  32.036  1.00  0.00     0.071 C 
BRANCH  36  37
ATOM     37  C   UNL     1      29.306  15.424  32.667  1.00  0.00    -0.038 A 
ATOM     38  C   UNL     1      29.167  15.416  34.068  1.00  0.00     0.043 A 
ATOM     39  C   UNL     1      28.213  15.054  31.865  1.00  0.00     0.043 A 
ATOM     40  C   UNL     1      27.945  15.069  34.652  1.00  0.00     0.126 A 
ATOM     41  C   UNL     1      26.994  14.703  32.453  1.00  0.00     0.126 A 
ATOM     42  F   UNL     1      27.812  15.071  36.002  1.00  0.00    -0.207 F 
ATOM     43  C   UNL     1      26.860  14.713  33.844  1.00  0.00     0.078 A 
ATOM     44  F   UNL     1      25.944  14.343  31.672  1.00  0.00    -0.207 F 
ENDBRANCH  36  37
ENDBRANCH  34  36
ENDBRANCH   3  26
TORSDOF 7
ENDMDL
MODEL 13
REMARK VINA RESULT:    -9.910      3.157      5.589
REMARK INTER + INTRA:         -14.929
REMARK INTER:                 -14.449
REMARK INTRA:                  -0.480
REMARK UNBOUND:                -0.964
REMARK SMILES CN1CCN(c2ccc(C(=O)Nc3n[nH]c4ccc(Cc5cc(F)cc(F)c5)cc34)c(NC3CCOCC3)c2)CC1
REMARK SMILES IDX 10 1 11 2 12 3 9 5 6 6 7 7 39 8 8 9 31 10 5 11 1 12 2 13
REMARK SMILES IDX 3 14 41 15 4 16 40 17 32 18 33 20 34 21 38 22 35 23 37 24
REMARK SMILES IDX 36 25 13 26 14 27 30 28 15 29 16 30 29 31 17 33 19 34 18 35
REMARK SMILES IDX 20 36 21 37 22 38 28 39 23 40 26 41 24 42 25 43 27 44
REMARK H PARENT 12 4 32 19 15 32
REMARK Flexibility Score: inf
ROOT
ATOM      1  C   UNL     1      12.760  25.595  40.586  1.00  0.00     0.258 C 
ATOM      2  O   UNL     1      13.228  25.799  39.431  1.00  0.00    -0.269 OA
ATOM      3  N   UNL     1      13.194  26.398  41.696  1.00  0.00    -0.304 N 
ATOM      4  H   UNL     1      12.698  26.298  42.609  1.00  0.00     0.171 HD
ENDROOT
BRANCH   1   5
ATOM      5  C   UNL     1      11.784  24.499  40.791  1.00  0.00     0.063 A 
ATOM      6  C   UNL     1       9.987  22.412  41.416  1.00  0.00     0.039 A 
ATOM      7  C   UNL     1       9.733  23.721  41.847  1.00  0.00     0.027 A 
ATOM      8  C   UNL     1      11.128  22.156  40.647  1.00  0.00     0.052 A 
ATOM      9  C   UNL     1      10.620  24.753  41.537  1.00  0.00     0.018 A 
ATOM     10  C   UNL     1      12.036  23.183  40.331  1.00  0.00     0.049 A 
BRANCH   6  11
ATOM     11  N   UNL     1       9.109  21.332  41.785  1.00  0.00    -0.369 N 
ATOM     12  C   UNL     1       7.218  17.614  42.409  1.00  0.00     0.105 C 
ATOM     13  N   UNL     1       8.005  18.762  41.921  1.00  0.00    -0.303 NA
ATOM     14  C   UNL     1       9.087  19.112  42.882  1.00  0.00     0.105 C 
ATOM     15  C   UNL     1       7.115  19.894  41.595  1.00  0.00     0.105 C 
ATOM     16  C   UNL     1       9.310  20.627  43.057  1.00  0.00     0.132 C 
ATOM     17  C   UNL     1       7.929  21.027  40.967  1.00  0.00     0.132 C 
ENDBRANCH   6  11
BRANCH  10  18
ATOM     18  N   UNL     1      13.187  22.901  39.514  1.00  0.00    -0.381 N 
ATOM     19  H   UNL     1      14.040  23.498  39.639  1.00  0.00     0.160 HD
BRANCH  18  20
ATOM     20  C   UNL     1      13.262  21.747  38.609  1.00  0.00     0.083 C 
ATOM     21  C   UNL     1      13.783  22.172  37.227  1.00  0.00     0.053 C 
ATOM     22  C   UNL     1      14.185  20.668  39.195  1.00  0.00     0.053 C 
ATOM     23  C   UNL     1      14.019  20.931  36.353  1.00  0.00     0.162 C 
ATOM     24  C   UNL     1      14.405  19.545  38.172  1.00  0.00     0.162 C 
ATOM     25  O   UNL     1      14.946  20.054  36.966  1.00  0.00    -0.381 OA
ENDBRANCH  18  20
ENDBRANCH  10  18
ENDBRANCH   1   5
BRANCH   3  26
ATOM     26  C   UNL     1      14.278  27.335  41.621  1.00  0.00     0.162 A 
ATOM     27  N   UNL     1      14.154  28.678  41.775  1.00  0.00    -0.156 NA
ATOM     28  C   UNL     1      15.598  27.028  41.371  1.00  0.00     0.044 A 
ATOM     29  N   UNL     1      15.361  29.218  41.633  1.00  0.00    -0.276 N 
ATOM     30  C   UNL     1      16.243  28.232  41.387  1.00  0.00     0.067 A 
ATOM     31  C   UNL     1      16.269  25.831  41.136  1.00  0.00     0.018 A 
ATOM     32  H   UNL     1      15.566  30.239  41.709  1.00  0.00     0.190 HD
ATOM     33  C   UNL     1      17.615  28.335  41.178  1.00  0.00     0.029 A 
ATOM     34  C   UNL     1      17.662  25.892  40.905  1.00  0.00    -0.043 A 
ATOM     35  C   UNL     1      18.330  27.147  40.935  1.00  0.00     0.006 A 
BRANCH  34  36
ATOM     36  C   UNL     1      18.443  24.625  40.689  1.00  0.00     0.071 C 
BRANCH  36  37
ATOM     37  C   UNL     1      19.659  24.907  39.846  1.00  0.00    -0.038 A 
ATOM     38  C   UNL     1      20.185  23.911  39.003  1.00  0.00     0.043 A 
ATOM     39  C   UNL     1      20.311  26.148  39.936  1.00  0.00     0.043 A 
ATOM     40  C   UNL     1      21.330  24.166  38.242  1.00  0.00     0.126 A 
ATOM     41  C   UNL     1      21.459  26.397  39.178  1.00  0.00     0.126 A 
ATOM     42  F   UNL     1      21.829  23.206  37.422  1.00  0.00    -0.207 F 
ATOM     43  C   UNL     1      21.965  25.409  38.330  1.00  0.00     0.078 A 
ATOM     44  F   UNL     1      22.087  27.597  39.272  1.00  0.00    -0.207 F 
ENDBRANCH  36  37
ENDBRANCH  34  36
ENDBRANCH   3  26
TORSDOF 7
ENDMDL
MODEL 14
REMARK VINA RESULT:    -9.425      5.289     10.372
REMARK INTER + INTRA:         -14.246
REMARK INTER:                 -12.801
REMARK INTRA:                  -1.445
REMARK UNBOUND:                -0.964
REMARK SMILES CN1CCN(c2ccc(C(=O)Nc3n[nH]c4ccc(Cc5cc(F)cc(F)c5)cc34)c(NC3CCOCC3)c2)CC1
REMARK SMILES IDX 10 1 11 2 12 3 9 5 6 6 7 7 39 8 8 9 31 10 5 11 1 12 2 13
REMARK SMILES IDX 3 14 41 15 4 16 40 17 32 18 33 20 34 21 38 22 35 23 37 24
REMARK SMILES IDX 36 25 13 26 14 27 30 28 15 29 16 30 29 31 17 33 19 34 18 35
REMARK SMILES IDX 20 36 21 37 22 38 28 39 23 40 26 41 24 42 25 43 27 44
REMARK H PARENT 12 4 32 19 15 32
REMARK Flexibility Score: inf
ROOT
ATOM      1  C   UNL     1      13.492  23.562  39.369  1.00  0.00     0.258 C 
ATOM      2  O   UNL     1      13.838  23.777  38.174  1.00  0.00    -0.269 OA
ATOM      3  N   UNL     1      13.413  22.216  39.868  1.00  0.00    -0.304 N 
ATOM      4  H   UNL     1      13.253  22.071  40.890  1.00  0.00     0.171 HD
ENDROOT
BRANCH   1   5
ATOM      5  C   UNL     1      13.138  24.706  40.240  1.00  0.00     0.063 A 
ATOM      6  C   UNL     1      12.316  26.966  41.720  1.00  0.00     0.039 A 
ATOM      7  C   UNL     1      11.429  25.905  41.494  1.00  0.00     0.027 A 
ATOM      8  C   UNL     1      13.623  26.881  41.228  1.00  0.00     0.052 A 
ATOM      9  C   UNL     1      11.836  24.787  40.763  1.00  0.00     0.018 A 
ATOM     10  C   UNL     1      14.047  25.764  40.485  1.00  0.00     0.049 A 
BRANCH   6  11
ATOM     11  N   UNL     1      11.885  28.149  42.419  1.00  0.00    -0.369 N 
ATOM     12  C   UNL     1      11.378  32.034  43.983  1.00  0.00     0.105 C 
ATOM     13  N   UNL     1      11.875  30.769  43.411  1.00  0.00    -0.303 NA
ATOM     14  C   UNL     1      11.287  30.527  42.064  1.00  0.00     0.105 C 
ATOM     15  C   UNL     1      11.662  29.657  44.358  1.00  0.00     0.105 C 
ATOM     16  C   UNL     1      10.913  29.056  41.795  1.00  0.00     0.132 C 
ATOM     17  C   UNL     1      12.300  28.379  43.808  1.00  0.00     0.132 C 
ENDBRANCH   6  11
BRANCH  10  18
ATOM     18  N   UNL     1      15.406  25.685  40.014  1.00  0.00    -0.381 N 
ATOM     19  H   UNL     1      15.577  25.273  39.065  1.00  0.00     0.160 HD
BRANCH  18  20
ATOM     20  C   UNL     1      16.540  26.263  40.745  1.00  0.00     0.083 C 
ATOM     21  C   UNL     1      17.835  25.494  40.438  1.00  0.00     0.053 C 
ATOM     22  C   UNL     1      16.721  27.742  40.369  1.00  0.00     0.053 C 
ATOM     23  C   UNL     1      19.035  26.215  41.071  1.00  0.00     0.162 C 
ATOM     24  C   UNL     1      18.009  28.294  40.994  1.00  0.00     0.162 C 
ATOM     25  O   UNL     1      19.137  27.541  40.585  1.00  0.00    -0.381 OA
ENDBRANCH  18  20
ENDBRANCH  10  18
ENDBRANCH   1   5
BRANCH   3  26
ATOM     26  C   UNL     1      13.540  21.053  39.038  1.00  0.00     0.162 A 
ATOM     27  N   UNL     1      14.595  20.199  39.054  1.00  0.00    -0.156 NA
ATOM     28  C   UNL     1      12.630  20.629  38.092  1.00  0.00     0.044 A 
ATOM     29  N   UNL     1      14.368  19.251  38.150  1.00  0.00    -0.276 N 
ATOM     30  C   UNL     1      13.184  19.499  37.561  1.00  0.00     0.067 A 
ATOM     31  C   UNL     1      11.401  21.124  37.666  1.00  0.00     0.018 A 
ATOM     32  H   UNL     1      15.013  18.454  37.953  1.00  0.00     0.190 HD
ATOM     33  C   UNL     1      12.548  18.767  36.563  1.00  0.00     0.029 A 
ATOM     34  C   UNL     1      10.727  20.417  36.644  1.00  0.00    -0.043 A 
ATOM     35  C   UNL     1      11.303  19.235  36.103  1.00  0.00     0.006 A 
BRANCH  34  36
ATOM     36  C   UNL     1       9.376  20.883  36.175  1.00  0.00     0.071 C 
BRANCH  36  37
ATOM     37  C   UNL     1       9.119  20.392  34.775  1.00  0.00    -0.038 A 
ATOM     38  C   UNL     1       9.857  20.908  33.694  1.00  0.00     0.043 A 
ATOM     39  C   UNL     1       8.101  19.454  34.529  1.00  0.00     0.043 A 
ATOM     40  C   UNL     1       9.597  20.472  32.392  1.00  0.00     0.126 A 
ATOM     41  C   UNL     1       7.841  19.024  33.224  1.00  0.00     0.126 A 
ATOM     42  F   UNL     1      10.318  20.965  31.353  1.00  0.00    -0.207 F 
ATOM     43  C   UNL     1       8.590  19.529  32.158  1.00  0.00     0.078 A 
ATOM     44  F   UNL     1       6.855  18.121  32.992  1.00  0.00    -0.207 F 
ENDBRANCH  36  37
ENDBRANCH  34  36
ENDBRANCH   3  26
TORSDOF 7
ENDMDL
MODEL 15
REMARK VINA RESULT:    -9.424      5.507     10.041
REMARK INTER + INTRA:         -14.244
REMARK INTER:                 -12.965
REMARK INTRA:                  -1.278
REMARK UNBOUND:                -0.964
REMARK SMILES CN1CCN(c2ccc(C(=O)Nc3n[nH]c4ccc(Cc5cc(F)cc(F)c5)cc34)c(NC3CCOCC3)c2)CC1
REMARK SMILES IDX 10 1 11 2 12 3 9 5 6 6 7 7 39 8 8 9 31 10 5 11 1 12 2 13
REMARK SMILES IDX 3 14 41 15 4 16 40 17 32 18 33 20 34 21 38 22 35 23 37 24
REMARK SMILES IDX 36 25 13 26 14 27 30 28 15 29 16 30 29 31 17 33 19 34 18 35
REMARK SMILES IDX 20 36 21 37 22 38 28 39 23 40 26 41 24 42 25 43 27 44
REMARK H PARENT 12 4 32 19 15 32
REMARK Flexibility Score: inf
ROOT
ATOM      1  C   UNL     1      13.624  24.784  39.388  1.00  0.00     0.258 C 
ATOM      2  O   UNL     1      14.323  25.129  38.393  1.00  0.00    -0.269 OA
ATOM      3  N   UNL     1      13.275  23.404  39.582  1.00  0.00    -0.304 N 
ATOM      4  H   UNL     1      12.811  23.127  40.476  1.00  0.00     0.171 HD
ENDROOT
BRANCH   1   5
ATOM      5  C   UNL     1      13.143  25.820  40.331  1.00  0.00     0.063 A 
ATOM      6  C   UNL     1      12.211  27.946  41.939  1.00  0.00     0.039 A 
ATOM      7  C   UNL     1      11.352  27.315  41.029  1.00  0.00     0.027 A 
ATOM      8  C   UNL     1      13.530  27.492  42.061  1.00  0.00     0.052 A 
ATOM      9  C   UNL     1      11.812  26.262  40.236  1.00  0.00     0.018 A 
ATOM     10  C   UNL     1      14.011  26.437  41.264  1.00  0.00     0.049 A 
BRANCH   6  11
ATOM     11  N   UNL     1      11.763  29.072  42.715  1.00  0.00    -0.369 N 
ATOM     12  C   UNL     1      10.630  32.871  44.158  1.00  0.00     0.105 C 
ATOM     13  N   UNL     1      11.225  31.721  43.452  1.00  0.00    -0.303 NA
ATOM     14  C   UNL     1      10.194  30.989  42.664  1.00  0.00     0.105 C 
ATOM     15  C   UNL     1      11.964  30.863  44.400  1.00  0.00     0.105 C 
ATOM     16  C   UNL     1      10.345  29.455  42.699  1.00  0.00     0.132 C 
ATOM     17  C   UNL     1      12.684  29.749  43.636  1.00  0.00     0.132 C 
ENDBRANCH   6  11
BRANCH  10  18
ATOM     18  N   UNL     1      15.362  25.968  41.429  1.00  0.00    -0.381 N 
ATOM     19  H   UNL     1      15.523  25.127  42.034  1.00  0.00     0.160 HD
BRANCH  18  20
ATOM     20  C   UNL     1      16.501  26.534  40.694  1.00  0.00     0.083 C 
ATOM     21  C   UNL     1      16.912  27.890  41.288  1.00  0.00     0.053 C 
ATOM     22  C   UNL     1      17.697  25.571  40.738  1.00  0.00     0.053 C 
ATOM     23  C   UNL     1      18.206  28.383  40.622  1.00  0.00     0.162 C 
ATOM     24  C   UNL     1      18.937  26.238  40.127  1.00  0.00     0.162 C 
ATOM     25  O   UNL     1      19.250  27.444  40.800  1.00  0.00    -0.381 OA
ENDBRANCH  18  20
ENDBRANCH  10  18
ENDBRANCH   1   5
BRANCH   3  26
ATOM     26  C   UNL     1      13.527  22.377  38.613  1.00  0.00     0.162 A 
ATOM     27  N   UNL     1      13.935  22.597  37.337  1.00  0.00    -0.156 NA
ATOM     28  C   UNL     1      13.383  21.020  38.814  1.00  0.00     0.044 A 
ATOM     29  N   UNL     1      14.055  21.416  36.737  1.00  0.00    -0.276 N 
ATOM     30  C   UNL     1      13.724  20.454  37.618  1.00  0.00     0.067 A 
ATOM     31  C   UNL     1      12.993  20.256  39.911  1.00  0.00     0.018 A 
ATOM     32  H   UNL     1      14.363  21.283  35.748  1.00  0.00     0.190 HD
ATOM     33  C   UNL     1      13.710  19.077  37.424  1.00  0.00     0.029 A 
ATOM     34  C   UNL     1      12.952  18.852  39.753  1.00  0.00    -0.043 A 
ATOM     35  C   UNL     1      13.319  18.269  38.510  1.00  0.00     0.006 A 
BRANCH  34  36
ATOM     36  C   UNL     1      12.579  17.977  40.918  1.00  0.00     0.071 C 
BRANCH  36  37
ATOM     37  C   UNL     1      11.321  17.212  40.605  1.00  0.00    -0.038 A 
ATOM     38  C   UNL     1      11.326  15.805  40.601  1.00  0.00     0.043 A 
ATOM     39  C   UNL     1      10.143  17.897  40.259  1.00  0.00     0.043 A 
ATOM     40  C   UNL     1      10.163  15.097  40.283  1.00  0.00     0.126 A 
ATOM     41  C   UNL     1       8.984  17.185  39.936  1.00  0.00     0.126 A 
ATOM     42  F   UNL     1      10.171  13.740  40.290  1.00  0.00    -0.207 F 
ATOM     43  C   UNL     1       8.993  15.788  39.952  1.00  0.00     0.078 A 
ATOM     44  F   UNL     1       7.850  17.852  39.599  1.00  0.00    -0.207 F 
ENDBRANCH  36  37
ENDBRANCH  34  36
ENDBRANCH   3  26
TORSDOF 7
ENDMDL
