MODEL 1
REMARK VINA RESULT:    -8.012      0.000      0.000
REMARK INTER + INTRA:         -10.614
REMARK INTER:                 -10.120
REMARK INTRA:                  -0.494
REMARK UNBOUND:                -0.494
REMARK SMILES CN1[C@@H]2CC[C@H]1C[C@@H](OC(=O)C(O)c1ccccc1)C2
REMARK SMILES IDX 10 1 11 2 9 3 8 4 6 5 5 6 7 7 2 8 4 9 3 10 1 11 20 12 12 13
REMARK SMILES IDX 13 14 14 16 15 17 19 18 16 19 18 20 17 21
REMARK H PARENT 13 15
REMARK Flexibility Score: inf
ROOT
ATOM      1  C   UNL     1       9.820  75.552  -2.565  1.00  0.00     0.339 C 
ATOM      2  O   UNL     1       8.659  75.662  -3.046  1.00  0.00    -0.249 OA
ENDROOT
BRANCH   1   3
ATOM      3  O   UNL     1      10.647  76.673  -2.437  1.00  0.00    -0.460 OA
BRANCH   3   4
ATOM      4  C   UNL     1      10.580  77.597  -1.349  1.00  0.00     0.179 C 
ATOM      5  C   UNL     1      11.532  79.844  -2.238  1.00  0.00     0.060 C 
ATOM      6  C   UNL     1      12.332  79.129  -3.336  1.00  0.00     0.021 C 
ATOM      7  C   UNL     1      10.258  79.028  -1.877  1.00  0.00     0.064 C 
ATOM      8  N   UNL     1      12.477  79.880  -1.120  1.00  0.00    -0.300 NA
ATOM      9  C   UNL     1      13.307  78.226  -2.562  1.00  0.00     0.021 C 
ATOM     10  C   UNL     1      12.989  78.510  -1.086  1.00  0.00     0.060 C 
ATOM     11  C   UNL     1      11.984  80.434   0.152  1.00  0.00     0.105 C 
ATOM     12  C   UNL     1      11.911  77.524  -0.555  1.00  0.00     0.064 C 
ENDBRANCH   3   4
ENDBRANCH   1   3
BRANCH   1  13
ATOM     13  C   UNL     1      10.368  74.204  -2.191  1.00  0.00     0.254 C 
BRANCH  13  14
ATOM     14  O   UNL     1       9.688  73.638  -1.093  1.00  0.00    -0.377 OA
ATOM     15  H   UNL     1       9.905  72.668  -1.046  1.00  0.00     0.212 HD
ENDBRANCH  13  14
BRANCH  13  16
ATOM     16  C   UNL     1      10.367  73.280  -3.391  1.00  0.00    -0.008 A 
ATOM     17  C   UNL     1       9.485  72.180  -3.427  1.00  0.00     0.007 A 
ATOM     18  C   UNL     1      11.291  73.447  -4.444  1.00  0.00     0.007 A 
ATOM     19  C   UNL     1       9.493  71.302  -4.516  1.00  0.00     0.000 A 
ATOM     20  C   UNL     1      11.291  72.566  -5.531  1.00  0.00     0.000 A 
ATOM     21  C   UNL     1      10.387  71.502  -5.573  1.00  0.00     0.000 A 
ENDBRANCH  13  16
ENDBRANCH   1  13
TORSDOF 5
ENDMDL
MODEL 2
REMARK VINA RESULT:    -8.008      5.697      8.202
REMARK INTER + INTRA:         -10.608
REMARK INTER:                  -9.902
REMARK INTRA:                  -0.706
REMARK UNBOUND:                -0.494
REMARK SMILES CN1[C@@H]2CC[C@H]1C[C@@H](OC(=O)C(O)c1ccccc1)C2
REMARK SMILES IDX 10 1 11 2 9 3 8 4 6 5 5 6 7 7 2 8 4 9 3 10 1 11 20 12 12 13
REMARK SMILES IDX 13 14 14 16 15 17 19 18 16 19 18 20 17 21
REMARK H PARENT 13 15
REMARK Flexibility Score: inf
ROOT
ATOM      1  C   UNL     1      13.984  80.283  -5.223  1.00  0.00     0.339 C 
ATOM      2  O   UNL     1      13.135  81.203  -5.376  1.00  0.00    -0.249 OA
ENDROOT
BRANCH   1   3
ATOM      3  O   UNL     1      15.164  80.270  -5.976  1.00  0.00    -0.460 OA
BRANCH   3   4
ATOM      4  C   UNL     1      16.104  81.345  -6.006  1.00  0.00     0.179 C 
ATOM      5  C   UNL     1      17.924  80.674  -7.734  1.00  0.00     0.060 C 
ATOM      6  C   UNL     1      17.606  79.181  -7.566  1.00  0.00     0.021 C 
ATOM      7  C   UNL     1      16.659  81.533  -7.451  1.00  0.00     0.064 C 
ATOM      8  N   UNL     1      18.960  80.899  -6.723  1.00  0.00    -0.300 NA
ATOM      9  C   UNL     1      17.920  78.894  -6.088  1.00  0.00     0.021 C 
ATOM     10  C   UNL     1      18.403  80.246  -5.539  1.00  0.00     0.060 C 
ATOM     11  C   UNL     1      19.436  82.282  -6.554  1.00  0.00     0.105 C 
ATOM     12  C   UNL     1      17.214  81.061  -4.958  1.00  0.00     0.064 C 
ENDBRANCH   3   4
ENDBRANCH   1   3
BRANCH   1  13
ATOM     13  C   UNL     1      13.714  79.140  -4.285  1.00  0.00     0.254 C 
BRANCH  13  14
ATOM     14  O   UNL     1      14.586  78.054  -4.504  1.00  0.00    -0.377 OA
ATOM     15  H   UNL     1      15.468  78.406  -4.803  1.00  0.00     0.212 HD
ENDBRANCH  13  14
BRANCH  13  16
ATOM     16  C   UNL     1      13.754  79.615  -2.847  1.00  0.00    -0.008 A 
ATOM     17  C   UNL     1      14.973  79.598  -2.138  1.00  0.00     0.007 A 
ATOM     18  C   UNL     1      12.577  79.995  -2.170  1.00  0.00     0.007 A 
ATOM     19  C   UNL     1      15.019  80.005  -0.801  1.00  0.00     0.000 A 
ATOM     20  C   UNL     1      12.631  80.405  -0.833  1.00  0.00     0.000 A 
ATOM     21  C   UNL     1      13.851  80.421  -0.152  1.00  0.00     0.000 A 
ENDBRANCH  13  16
ENDBRANCH   1  13
TORSDOF 5
ENDMDL
MODEL 3
REMARK VINA RESULT:    -7.968      2.927      7.107
REMARK INTER + INTRA:         -10.558
REMARK INTER:                  -9.840
REMARK INTRA:                  -0.718
REMARK UNBOUND:                -0.494
REMARK SMILES CN1[C@@H]2CC[C@H]1C[C@@H](OC(=O)C(O)c1ccccc1)C2
REMARK SMILES IDX 10 1 11 2 9 3 8 4 6 5 5 6 7 7 2 8 4 9 3 10 1 11 20 12 12 13
REMARK SMILES IDX 13 14 14 16 15 17 19 18 16 19 18 20 17 21
REMARK H PARENT 13 15
REMARK Flexibility Score: inf
ROOT
ATOM      1  C   UNL     1       7.902  79.474  -2.053  1.00  0.00     0.339 C 
ATOM      2  O   UNL     1       6.782  80.044  -1.940  1.00  0.00    -0.249 OA
ENDROOT
BRANCH   1   3
ATOM      3  O   UNL     1       8.054  78.127  -1.707  1.00  0.00    -0.460 OA
BRANCH   3   4
ATOM      4  C   UNL     1       8.689  77.154  -2.539  1.00  0.00     0.179 C 
ATOM      5  C   UNL     1       7.404  74.927  -2.171  1.00  0.00     0.060 C 
ATOM      6  C   UNL     1       6.903  75.385  -0.794  1.00  0.00     0.021 C 
ATOM      7  C   UNL     1       7.633  76.154  -3.099  1.00  0.00     0.064 C 
ATOM      8  N   UNL     1       8.666  74.258  -1.850  1.00  0.00    -0.300 NA
ATOM      9  C   UNL     1       8.189  75.582   0.027  1.00  0.00     0.021 C 
ATOM     10  C   UNL     1       9.316  75.208  -0.948  1.00  0.00     0.060 C 
ATOM     11  C   UNL     1       9.468  73.767  -2.984  1.00  0.00     0.105 C 
ATOM     12  C   UNL     1       9.813  76.462  -1.722  1.00  0.00     0.064 C 
ENDBRANCH   3   4
ENDBRANCH   1   3
BRANCH   1  13
ATOM     13  C   UNL     1       9.114  80.248  -2.487  1.00  0.00     0.254 C 
BRANCH  13  14
ATOM     14  O   UNL     1       8.773  81.451  -3.139  1.00  0.00    -0.377 OA
ATOM     15  H   UNL     1       9.526  81.722  -3.730  1.00  0.00     0.212 HD
ENDBRANCH  13  14
BRANCH  13  16
ATOM     16  C   UNL     1      10.039  80.488  -1.311  1.00  0.00    -0.008 A 
ATOM     17  C   UNL     1      11.415  80.210  -1.435  1.00  0.00     0.007 A 
ATOM     18  C   UNL     1       9.538  80.906  -0.061  1.00  0.00     0.007 A 
ATOM     19  C   UNL     1      12.276  80.399  -0.348  1.00  0.00     0.000 A 
ATOM     20  C   UNL     1      10.405  81.097   1.021  1.00  0.00     0.000 A 
ATOM     21  C   UNL     1      11.773  80.854   0.875  1.00  0.00     0.000 A 
ENDBRANCH  13  16
ENDBRANCH   1  13
TORSDOF 5
ENDMDL
MODEL 4
REMARK VINA RESULT:    -7.920      4.985      7.249
REMARK INTER + INTRA:         -10.498
REMARK INTER:                  -9.857
REMARK INTRA:                  -0.641
REMARK UNBOUND:                -0.494
REMARK SMILES CN1[C@@H]2CC[C@H]1C[C@@H](OC(=O)C(O)c1ccccc1)C2
REMARK SMILES IDX 10 1 11 2 9 3 8 4 6 5 5 6 7 7 2 8 4 9 3 10 1 11 20 12 12 13
REMARK SMILES IDX 13 14 14 16 15 17 19 18 16 19 18 20 17 21
REMARK H PARENT 13 15
REMARK Flexibility Score: inf
ROOT
ATOM      1  C   UNL     1      13.901  80.312  -4.748  1.00  0.00     0.339 C 
ATOM      2  O   UNL     1      13.412  81.197  -5.504  1.00  0.00    -0.249 OA
ENDROOT
BRANCH   1   3
ATOM      3  O   UNL     1      13.665  80.344  -3.369  1.00  0.00    -0.460 OA
BRANCH   3   4
ATOM      4  C   UNL     1      14.127  79.347  -2.456  1.00  0.00     0.179 C 
ATOM      5  C   UNL     1      12.128  78.810  -0.887  1.00  0.00     0.060 C 
ATOM      6  C   UNL     1      11.482  80.176  -1.159  1.00  0.00     0.021 C 
ATOM      7  C   UNL     1      12.973  78.357  -2.111  1.00  0.00     0.064 C 
ATOM      8  N   UNL     1      12.976  79.079   0.277  1.00  0.00    -0.300 NA
ATOM      9  C   UNL     1      12.515  81.191  -0.638  1.00  0.00     0.021 C 
ATOM     10  C   UNL     1      13.659  80.317  -0.100  1.00  0.00     0.060 C 
ATOM     11  C   UNL     1      13.824  77.974   0.753  1.00  0.00     0.105 C 
ATOM     12  C   UNL     1      14.718  80.055  -1.208  1.00  0.00     0.064 C 
ENDBRANCH   3   4
ENDBRANCH   1   3
BRANCH   1  13
ATOM     13  C   UNL     1      14.810  79.251  -5.301  1.00  0.00     0.254 C 
BRANCH  13  14
ATOM     14  O   UNL     1      14.206  78.525  -6.348  1.00  0.00    -0.377 OA
ATOM     15  H   UNL     1      13.262  78.329  -6.100  1.00  0.00     0.212 HD
ENDBRANCH  13  14
BRANCH  13  16
ATOM     16  C   UNL     1      16.133  79.855  -5.724  1.00  0.00    -0.008 A 
ATOM     17  C   UNL     1      16.741  79.436  -6.925  1.00  0.00     0.007 A 
ATOM     18  C   UNL     1      16.816  80.771  -4.898  1.00  0.00     0.007 A 
ATOM     19  C   UNL     1      17.977  79.963  -7.313  1.00  0.00     0.000 A 
ATOM     20  C   UNL     1      18.050  81.298  -5.294  1.00  0.00     0.000 A 
ATOM     21  C   UNL     1      18.625  80.903  -6.505  1.00  0.00     0.000 A 
ENDBRANCH  13  16
ENDBRANCH   1  13
TORSDOF 5
ENDMDL
MODEL 5
REMARK VINA RESULT:    -7.846      2.937      5.847
REMARK INTER + INTRA:         -10.405
REMARK INTER:                  -9.787
REMARK INTRA:                  -0.618
REMARK UNBOUND:                -0.494
REMARK SMILES CN1[C@@H]2CC[C@H]1C[C@@H](OC(=O)C(O)c1ccccc1)C2
REMARK SMILES IDX 10 1 11 2 9 3 8 4 6 5 5 6 7 7 2 8 4 9 3 10 1 11 20 12 12 13
REMARK SMILES IDX 13 14 14 16 15 17 19 18 16 19 18 20 17 21
REMARK H PARENT 13 15
REMARK Flexibility Score: inf
ROOT
ATOM      1  C   UNL     1      10.310  78.880  -2.238  1.00  0.00     0.339 C 
ATOM      2  O   UNL     1       9.613  79.927  -2.139  1.00  0.00    -0.249 OA
ENDROOT
BRANCH   1   3
ATOM      3  O   UNL     1       9.711  77.653  -2.544  1.00  0.00    -0.460 OA
BRANCH   3   4
ATOM      4  C   UNL     1       8.373  77.304  -2.185  1.00  0.00     0.179 C 
ATOM      5  C   UNL     1       8.561  75.570  -0.261  1.00  0.00     0.060 C 
ATOM      6  C   UNL     1       9.976  75.164  -0.697  1.00  0.00     0.021 C 
ATOM      7  C   UNL     1       8.277  77.048  -0.650  1.00  0.00     0.064 C 
ATOM      8  N   UNL     1       7.712  74.646  -1.017  1.00  0.00    -0.300 NA
ATOM      9  C   UNL     1       9.785  74.601  -2.116  1.00  0.00     0.021 C 
ATOM     10  C   UNL     1       8.274  74.722  -2.366  1.00  0.00     0.060 C 
ATOM     11  C   UNL     1       6.256  74.828  -0.896  1.00  0.00     0.105 C 
ATOM     12  C   UNL     1       7.934  76.083  -3.037  1.00  0.00     0.064 C 
ENDBRANCH   3   4
ENDBRANCH   1   3
BRANCH   1  13
ATOM     13  C   UNL     1      11.785  78.912  -1.953  1.00  0.00     0.254 C 
BRANCH  13  14
ATOM     14  O   UNL     1      12.191  77.844  -1.126  1.00  0.00    -0.377 OA
ATOM     15  H   UNL     1      13.130  77.604  -1.349  1.00  0.00     0.212 HD
ENDBRANCH  13  14
BRANCH  13  16
ATOM     16  C   UNL     1      12.573  78.954  -3.246  1.00  0.00    -0.008 A 
ATOM     17  C   UNL     1      13.083  77.759  -3.794  1.00  0.00     0.007 A 
ATOM     18  C   UNL     1      12.882  80.178  -3.874  1.00  0.00     0.007 A 
ATOM     19  C   UNL     1      13.838  77.787  -4.971  1.00  0.00     0.000 A 
ATOM     20  C   UNL     1      13.634  80.198  -5.054  1.00  0.00     0.000 A 
ATOM     21  C   UNL     1      14.103  79.004  -5.608  1.00  0.00     0.000 A 
ENDBRANCH  13  16
ENDBRANCH   1  13
TORSDOF 5
ENDMDL
MODEL 6
REMARK VINA RESULT:    -7.828      4.885      7.969
REMARK INTER + INTRA:         -10.381
REMARK INTER:                  -9.957
REMARK INTRA:                  -0.424
REMARK UNBOUND:                -0.494
REMARK SMILES CN1[C@@H]2CC[C@H]1C[C@@H](OC(=O)C(O)c1ccccc1)C2
REMARK SMILES IDX 10 1 11 2 9 3 8 4 6 5 5 6 7 7 2 8 4 9 3 10 1 11 20 12 12 13
REMARK SMILES IDX 13 14 14 16 15 17 19 18 16 19 18 20 17 21
REMARK H PARENT 13 15
REMARK Flexibility Score: inf
ROOT
ATOM      1  C   UNL     1      14.668  80.829  -4.952  1.00  0.00     0.339 C 
ATOM      2  O   UNL     1      14.293  81.828  -5.625  1.00  0.00    -0.249 OA
ENDROOT
BRANCH   1   3
ATOM      3  O   UNL     1      14.151  80.598  -3.673  1.00  0.00    -0.460 OA
BRANCH   3   4
ATOM      4  C   UNL     1      13.398  79.438  -3.312  1.00  0.00     0.179 C 
ATOM      5  C   UNL     1      12.089  80.057  -1.156  1.00  0.00     0.060 C 
ATOM      6  C   UNL     1      13.095  81.160  -0.800  1.00  0.00     0.021 C 
ATOM      7  C   UNL     1      12.028  79.855  -2.697  1.00  0.00     0.064 C 
ATOM      8  N   UNL     1      12.647  78.881  -0.486  1.00  0.00    -0.300 NA
ATOM      9  C   UNL     1      14.424  80.409  -0.608  1.00  0.00     0.021 C 
ATOM     10  C   UNL     1      14.060  78.937  -0.858  1.00  0.00     0.060 C 
ATOM     11  C   UNL     1      11.955  77.599  -0.702  1.00  0.00     0.105 C 
ATOM     12  C   UNL     1      14.258  78.568  -2.356  1.00  0.00     0.064 C 
ENDBRANCH   3   4
ENDBRANCH   1   3
BRANCH   1  13
ATOM     13  C   UNL     1      15.735  79.910  -5.476  1.00  0.00     0.254 C 
BRANCH  13  14
ATOM     14  O   UNL     1      15.221  78.960  -6.383  1.00  0.00    -0.377 OA
ATOM     15  H   UNL     1      15.800  78.943  -7.192  1.00  0.00     0.212 HD
ENDBRANCH  13  14
BRANCH  13  16
ATOM     16  C   UNL     1      16.872  80.708  -6.081  1.00  0.00    -0.008 A 
ATOM     17  C   UNL     1      16.911  80.925  -7.473  1.00  0.00     0.007 A 
ATOM     18  C   UNL     1      17.943  81.170  -5.288  1.00  0.00     0.007 A 
ATOM     19  C   UNL     1      17.971  81.635  -8.048  1.00  0.00     0.000 A 
ATOM     20  C   UNL     1      18.997  81.883  -5.870  1.00  0.00     0.000 A 
ATOM     21  C   UNL     1      19.006  82.125  -7.246  1.00  0.00     0.000 A 
ENDBRANCH  13  16
ENDBRANCH   1  13
TORSDOF 5
ENDMDL
MODEL 7
REMARK VINA RESULT:    -7.802      3.403      6.643
REMARK INTER + INTRA:         -10.349
REMARK INTER:                  -9.738
REMARK INTRA:                  -0.611
REMARK UNBOUND:                -0.494
REMARK SMILES CN1[C@@H]2CC[C@H]1C[C@@H](OC(=O)C(O)c1ccccc1)C2
REMARK SMILES IDX 10 1 11 2 9 3 8 4 6 5 5 6 7 7 2 8 4 9 3 10 1 11 20 12 12 13
REMARK SMILES IDX 13 14 14 16 15 17 19 18 16 19 18 20 17 21
REMARK H PARENT 13 15
REMARK Flexibility Score: inf
ROOT
ATOM      1  C   UNL     1       7.600  74.467  -1.781  1.00  0.00     0.339 C 
ATOM      2  O   UNL     1       6.451  74.587  -2.288  1.00  0.00    -0.249 OA
ENDROOT
BRANCH   1   3
ATOM      3  O   UNL     1       8.525  73.564  -2.318  1.00  0.00    -0.460 OA
BRANCH   3   4
ATOM      4  C   UNL     1       9.309  73.823  -3.484  1.00  0.00     0.179 C 
ATOM      5  C   UNL     1       9.914  71.505  -4.487  1.00  0.00     0.060 C 
ATOM      6  C   UNL     1       9.725  70.811  -3.130  1.00  0.00     0.021 C 
ATOM      7  C   UNL     1       9.004  72.762  -4.585  1.00  0.00     0.064 C 
ATOM      8  N   UNL     1      11.331  71.872  -4.468  1.00  0.00    -0.300 NA
ATOM      9  C   UNL     1      10.781  71.467  -2.224  1.00  0.00     0.021 C 
ATOM     10  C   UNL     1      11.493  72.471  -3.144  1.00  0.00     0.060 C 
ATOM     11  C   UNL     1      11.833  72.651  -5.613  1.00  0.00     0.105 C 
ATOM     12  C   UNL     1      10.806  73.864  -3.074  1.00  0.00     0.064 C 
ENDBRANCH   3   4
ENDBRANCH   1   3
BRANCH   1  13
ATOM     13  C   UNL     1       7.974  75.232  -0.543  1.00  0.00     0.254 C 
BRANCH  13  14
ATOM     14  O   UNL     1       9.259  74.892  -0.075  1.00  0.00    -0.377 OA
ATOM     15  H   UNL     1       9.185  74.573   0.865  1.00  0.00     0.212 HD
ENDBRANCH  13  14
BRANCH  13  16
ATOM     16  C   UNL     1       7.837  76.722  -0.781  1.00  0.00    -0.008 A 
ATOM     17  C   UNL     1       7.063  77.503   0.101  1.00  0.00     0.007 A 
ATOM     18  C   UNL     1       8.401  77.336  -1.918  1.00  0.00     0.007 A 
ATOM     19  C   UNL     1       6.904  78.875  -0.122  1.00  0.00     0.000 A 
ATOM     20  C   UNL     1       8.241  78.709  -2.134  1.00  0.00     0.000 A 
ATOM     21  C   UNL     1       7.503  79.480  -1.232  1.00  0.00     0.000 A 
ENDBRANCH  13  16
ENDBRANCH   1  13
TORSDOF 5
ENDMDL
MODEL 8
REMARK VINA RESULT:    -7.737      2.704      6.268
REMARK INTER + INTRA:         -10.266
REMARK INTER:                  -9.313
REMARK INTRA:                  -0.954
REMARK UNBOUND:                -0.494
REMARK SMILES CN1[C@@H]2CC[C@H]1C[C@@H](OC(=O)C(O)c1ccccc1)C2
REMARK SMILES IDX 10 1 11 2 9 3 8 4 6 5 5 6 7 7 2 8 4 9 3 10 1 11 20 12 12 13
REMARK SMILES IDX 13 14 14 16 15 17 19 18 16 19 18 20 17 21
REMARK H PARENT 13 15
REMARK Flexibility Score: inf
ROOT
ATOM      1  C   UNL     1       8.574  79.563  -1.846  1.00  0.00     0.339 C 
ATOM      2  O   UNL     1       7.796  80.211  -2.599  1.00  0.00    -0.249 OA
ENDROOT
BRANCH   1   3
ATOM      3  O   UNL     1       8.412  78.184  -1.674  1.00  0.00    -0.460 OA
BRANCH   3   4
ATOM      4  C   UNL     1       8.762  77.209  -2.659  1.00  0.00     0.179 C 
ATOM      5  C   UNL     1       7.359  75.091  -2.122  1.00  0.00     0.060 C 
ATOM      6  C   UNL     1       7.198  75.508  -0.653  1.00  0.00     0.021 C 
ATOM      7  C   UNL     1       7.517  76.345  -3.027  1.00  0.00     0.064 C 
ATOM      8  N   UNL     1       8.585  74.290  -2.099  1.00  0.00    -0.300 NA
ATOM      9  C   UNL     1       8.638  75.536  -0.111  1.00  0.00     0.021 C 
ATOM     10  C   UNL     1       9.498  75.121  -1.314  1.00  0.00     0.060 C 
ATOM     11  C   UNL     1       9.084  73.798  -3.394  1.00  0.00     0.105 C 
ATOM     12  C   UNL     1       9.952  76.369  -2.124  1.00  0.00     0.064 C 
ENDBRANCH   3   4
ENDBRANCH   1   3
BRANCH   1  13
ATOM     13  C   UNL     1       9.641  80.268  -1.058  1.00  0.00     0.254 C 
BRANCH  13  14
ATOM     14  O   UNL     1       9.415  80.191   0.332  1.00  0.00    -0.377 OA
ATOM     15  H   UNL     1      10.250  79.882   0.777  1.00  0.00     0.212 HD
ENDBRANCH  13  14
BRANCH  13  16
ATOM     16  C   UNL     1      11.011  79.745  -1.435  1.00  0.00    -0.008 A 
ATOM     17  C   UNL     1      11.447  79.825  -2.773  1.00  0.00     0.007 A 
ATOM     18  C   UNL     1      11.834  79.099  -0.488  1.00  0.00     0.007 A 
ATOM     19  C   UNL     1      12.698  79.318  -3.141  1.00  0.00     0.000 A 
ATOM     20  C   UNL     1      13.085  78.599  -0.862  1.00  0.00     0.000 A 
ATOM     21  C   UNL     1      13.522  78.718  -2.184  1.00  0.00     0.000 A 
ENDBRANCH  13  16
ENDBRANCH   1  13
TORSDOF 5
ENDMDL
MODEL 9
REMARK VINA RESULT:    -7.671      3.465      6.250
REMARK INTER + INTRA:         -10.183
REMARK INTER:                  -8.926
REMARK INTRA:                  -1.257
REMARK UNBOUND:                -0.494
REMARK SMILES CN1[C@@H]2CC[C@H]1C[C@@H](OC(=O)C(O)c1ccccc1)C2
REMARK SMILES IDX 10 1 11 2 9 3 8 4 6 5 5 6 7 7 2 8 4 9 3 10 1 11 20 12 12 13
REMARK SMILES IDX 13 14 14 16 15 17 19 18 16 19 18 20 17 21
REMARK H PARENT 13 15
REMARK Flexibility Score: inf
ROOT
ATOM      1  C   UNL     1       8.869  80.022  -0.511  1.00  0.00     0.339 C 
ATOM      2  O   UNL     1       7.816  80.682  -0.727  1.00  0.00    -0.249 OA
ENDROOT
BRANCH   1   3
ATOM      3  O   UNL     1       8.818  78.634  -0.338  1.00  0.00    -0.460 OA
BRANCH   3   4
ATOM      4  C   UNL     1       7.748  77.811  -0.805  1.00  0.00     0.179 C 
ATOM      5  C   UNL     1       8.581  75.357  -0.622  1.00  0.00     0.060 C 
ATOM      6  C   UNL     1      10.050  75.798  -0.679  1.00  0.00     0.021 C 
ATOM      7  C   UNL     1       7.702  76.478   0.003  1.00  0.00     0.064 C 
ATOM      8  N   UNL     1       8.251  75.145  -2.032  1.00  0.00    -0.300 NA
ATOM      9  C   UNL     1      10.187  76.471  -2.055  1.00  0.00     0.021 C 
ATOM     10  C   UNL     1       8.785  76.347  -2.673  1.00  0.00     0.060 C 
ATOM     11  C   UNL     1       6.856  74.792  -2.346  1.00  0.00     0.105 C 
ATOM     12  C   UNL     1       7.920  77.593  -2.332  1.00  0.00     0.064 C 
ENDBRANCH   3   4
ENDBRANCH   1   3
BRANCH   1  13
ATOM     13  C   UNL     1      10.191  80.720  -0.356  1.00  0.00     0.254 C 
BRANCH  13  14
ATOM     14  O   UNL     1      10.518  80.947   0.997  1.00  0.00    -0.377 OA
ATOM     15  H   UNL     1       9.696  81.227   1.483  1.00  0.00     0.212 HD
ENDBRANCH  13  14
BRANCH  13  16
ATOM     16  C   UNL     1      11.281  79.954  -1.077  1.00  0.00    -0.008 A 
ATOM     17  C   UNL     1      12.299  79.320  -0.337  1.00  0.00     0.007 A 
ATOM     18  C   UNL     1      11.349  79.932  -2.486  1.00  0.00     0.007 A 
ATOM     19  C   UNL     1      13.329  78.635  -0.991  1.00  0.00     0.000 A 
ATOM     20  C   UNL     1      12.379  79.242  -3.134  1.00  0.00     0.000 A 
ATOM     21  C   UNL     1      13.362  78.585  -2.388  1.00  0.00     0.000 A 
ENDBRANCH  13  16
ENDBRANCH   1  13
TORSDOF 5
ENDMDL
MODEL 10
REMARK VINA RESULT:    -7.671      4.298      5.580
REMARK INTER + INTRA:         -10.183
REMARK INTER:                  -9.498
REMARK INTRA:                  -0.685
REMARK UNBOUND:                -0.494
REMARK SMILES CN1[C@@H]2CC[C@H]1C[C@@H](OC(=O)C(O)c1ccccc1)C2
REMARK SMILES IDX 10 1 11 2 9 3 8 4 6 5 5 6 7 7 2 8 4 9 3 10 1 11 20 12 12 13
REMARK SMILES IDX 13 14 14 16 15 17 19 18 16 19 18 20 17 21
REMARK H PARENT 13 15
REMARK Flexibility Score: inf
ROOT
ATOM      1  C   UNL     1       9.605  80.535  -0.116  1.00  0.00     0.339 C 
ATOM      2  O   UNL     1       9.649  80.814   1.114  1.00  0.00    -0.249 OA
ENDROOT
BRANCH   1   3
ATOM      3  O   UNL     1      10.771  80.539  -0.889  1.00  0.00    -0.460 OA
BRANCH   3   4
ATOM      4  C   UNL     1      12.081  80.327  -0.360  1.00  0.00     0.179 C 
ATOM      5  C   UNL     1      13.671  80.129  -2.405  1.00  0.00     0.060 C 
ATOM      6  C   UNL     1      12.517  79.708  -3.326  1.00  0.00     0.021 C 
ATOM      7  C   UNL     1      13.144  81.034  -1.255  1.00  0.00     0.064 C 
ATOM      8  N   UNL     1      14.162  78.848  -1.893  1.00  0.00    -0.300 NA
ATOM      9  C   UNL     1      12.012  78.389  -2.715  1.00  0.00     0.021 C 
ATOM     10  C   UNL     1      12.929  78.162  -1.503  1.00  0.00     0.060 C 
ATOM     11  C   UNL     1      15.237  78.899  -0.889  1.00  0.00     0.105 C 
ATOM     12  C   UNL     1      12.318  78.798  -0.223  1.00  0.00     0.064 C 
ENDBRANCH   3   4
ENDBRANCH   1   3
BRANCH   1  13
ATOM     13  C   UNL     1       8.291  80.268  -0.793  1.00  0.00     0.254 C 
BRANCH  13  14
ATOM     14  O   UNL     1       8.401  80.293  -2.198  1.00  0.00    -0.377 OA
ATOM     15  H   UNL     1       7.526  80.032  -2.594  1.00  0.00     0.212 HD
ENDBRANCH  13  14
BRANCH  13  16
ATOM     16  C   UNL     1       7.695  78.966  -0.299  1.00  0.00    -0.008 A 
ATOM     17  C   UNL     1       8.257  77.739  -0.706  1.00  0.00     0.007 A 
ATOM     18  C   UNL     1       6.531  78.950   0.498  1.00  0.00     0.007 A 
ATOM     19  C   UNL     1       7.699  76.529  -0.281  1.00  0.00     0.000 A 
ATOM     20  C   UNL     1       5.980  77.736   0.923  1.00  0.00     0.000 A 
ATOM     21  C   UNL     1       6.569  76.527   0.543  1.00  0.00     0.000 A 
ENDBRANCH  13  16
ENDBRANCH   1  13
TORSDOF 5
ENDMDL
MODEL 11
REMARK VINA RESULT:    -7.609      2.839      6.782
REMARK INTER + INTRA:         -10.105
REMARK INTER:                  -9.359
REMARK INTRA:                  -0.746
REMARK UNBOUND:                -0.494
REMARK SMILES CN1[C@@H]2CC[C@H]1C[C@@H](OC(=O)C(O)c1ccccc1)C2
REMARK SMILES IDX 10 1 11 2 9 3 8 4 6 5 5 6 7 7 2 8 4 9 3 10 1 11 20 12 12 13
REMARK SMILES IDX 13 14 14 16 15 17 19 18 16 19 18 20 17 21
REMARK H PARENT 13 15
REMARK Flexibility Score: inf
ROOT
ATOM      1  C   UNL     1       7.586  78.995  -1.068  1.00  0.00     0.339 C 
ATOM      2  O   UNL     1       6.472  79.446  -0.686  1.00  0.00    -0.249 OA
ENDROOT
BRANCH   1   3
ATOM      3  O   UNL     1       8.048  77.756  -0.610  1.00  0.00    -0.460 OA
BRANCH   3   4
ATOM      4  C   UNL     1       7.717  76.506  -1.218  1.00  0.00     0.179 C 
ATOM      5  C   UNL     1       9.701  74.904  -0.721  1.00  0.00     0.060 C 
ATOM      6  C   UNL     1      10.668  76.080  -0.526  1.00  0.00     0.021 C 
ATOM      7  C   UNL     1       8.251  75.327  -0.348  1.00  0.00     0.064 C 
ATOM      8  N   UNL     1       9.823  74.619  -2.152  1.00  0.00    -0.300 NA
ATOM      9  C   UNL     1      10.679  76.788  -1.892  1.00  0.00     0.021 C 
ATOM     10  C   UNL     1       9.726  75.947  -2.756  1.00  0.00     0.060 C 
ATOM     11  C   UNL     1       8.940  73.576  -2.701  1.00  0.00     0.105 C 
ATOM     12  C   UNL     1       8.274  76.496  -2.667  1.00  0.00     0.064 C 
ENDBRANCH   3   4
ENDBRANCH   1   3
BRANCH   1  13
ATOM     13  C   UNL     1       8.477  79.811  -1.961  1.00  0.00     0.254 C 
BRANCH  13  14
ATOM     14  O   UNL     1       7.786  80.880  -2.569  1.00  0.00    -0.377 OA
ATOM     15  H   UNL     1       6.873  80.571  -2.820  1.00  0.00     0.212 HD
ENDBRANCH  13  14
BRANCH  13  16
ATOM     16  C   UNL     1       9.696  80.290  -1.199  1.00  0.00    -0.008 A 
ATOM     17  C   UNL     1       9.543  80.852   0.084  1.00  0.00     0.007 A 
ATOM     18  C   UNL     1      10.979  80.263  -1.783  1.00  0.00     0.007 A 
ATOM     19  C   UNL     1      10.656  81.325   0.787  1.00  0.00     0.000 A 
ATOM     20  C   UNL     1      12.089  80.735  -1.073  1.00  0.00     0.000 A 
ATOM     21  C   UNL     1      11.930  81.255   0.214  1.00  0.00     0.000 A 
ENDBRANCH  13  16
ENDBRANCH   1  13
TORSDOF 5
ENDMDL
MODEL 12
REMARK VINA RESULT:    -7.568      3.217      4.401
REMARK INTER + INTRA:         -10.053
REMARK INTER:                  -9.122
REMARK INTRA:                  -0.932
REMARK UNBOUND:                -0.494
REMARK SMILES CN1[C@@H]2CC[C@H]1C[C@@H](OC(=O)C(O)c1ccccc1)C2
REMARK SMILES IDX 10 1 11 2 9 3 8 4 6 5 5 6 7 7 2 8 4 9 3 10 1 11 20 12 12 13
REMARK SMILES IDX 13 14 14 16 15 17 19 18 16 19 18 20 17 21
REMARK H PARENT 13 15
REMARK Flexibility Score: inf
ROOT
ATOM      1  C   UNL     1       8.970  80.033  -0.762  1.00  0.00     0.339 C 
ATOM      2  O   UNL     1       8.801  80.873   0.164  1.00  0.00    -0.249 OA
ENDROOT
BRANCH   1   3
ATOM      3  O   UNL     1      10.239  79.827  -1.314  1.00  0.00    -0.460 OA
BRANCH   3   4
ATOM      4  C   UNL     1      11.439  79.725  -0.545  1.00  0.00     0.179 C 
ATOM      5  C   UNL     1      13.401  80.179  -2.185  1.00  0.00     0.060 C 
ATOM      6  C   UNL     1      12.551  79.768  -3.396  1.00  0.00     0.021 C 
ATOM      7  C   UNL     1      12.496  80.751  -1.057  1.00  0.00     0.064 C 
ATOM      8  N   UNL     1      14.023  78.917  -1.783  1.00  0.00    -0.300 NA
ATOM      9  C   UNL     1      12.204  78.293  -3.127  1.00  0.00     0.021 C 
ATOM     10  C   UNL     1      12.897  77.984  -1.791  1.00  0.00     0.060 C 
ATOM     11  C   UNL     1      14.854  78.941  -0.567  1.00  0.00     0.105 C 
ATOM     12  C   UNL     1      11.938  78.256  -0.598  1.00  0.00     0.064 C 
ENDBRANCH   3   4
ENDBRANCH   1   3
BRANCH   1  13
ATOM     13  C   UNL     1       7.801  79.291  -1.345  1.00  0.00     0.254 C 
BRANCH  13  14
ATOM     14  O   UNL     1       7.417  79.803  -2.601  1.00  0.00    -0.377 OA
ATOM     15  H   UNL     1       7.408  80.797  -2.553  1.00  0.00     0.212 HD
ENDBRANCH  13  14
BRANCH  13  16
ATOM     16  C   UNL     1       8.095  77.806  -1.408  1.00  0.00    -0.008 A 
ATOM     17  C   UNL     1       8.475  77.219  -2.632  1.00  0.00     0.007 A 
ATOM     18  C   UNL     1       7.913  76.976  -0.282  1.00  0.00     0.007 A 
ATOM     19  C   UNL     1       8.721  75.844  -2.712  1.00  0.00     0.000 A 
ATOM     20  C   UNL     1       8.164  75.602  -0.368  1.00  0.00     0.000 A 
ATOM     21  C   UNL     1       8.578  75.038  -1.578  1.00  0.00     0.000 A 
ENDBRANCH  13  16
ENDBRANCH   1  13
TORSDOF 5
ENDMDL
MODEL 13
REMARK VINA RESULT:    -7.566      4.496      6.762
REMARK INTER + INTRA:         -10.051
REMARK INTER:                  -9.724
REMARK INTRA:                  -0.327
REMARK UNBOUND:                -0.494
REMARK SMILES CN1[C@@H]2CC[C@H]1C[C@@H](OC(=O)C(O)c1ccccc1)C2
REMARK SMILES IDX 10 1 11 2 9 3 8 4 6 5 5 6 7 7 2 8 4 9 3 10 1 11 20 12 12 13
REMARK SMILES IDX 13 14 14 16 15 17 19 18 16 19 18 20 17 21
REMARK H PARENT 13 15
REMARK Flexibility Score: inf
ROOT
ATOM      1  C   UNL     1      13.790  78.584  -4.292  1.00  0.00     0.339 C 
ATOM      2  O   UNL     1      13.337  77.422  -4.486  1.00  0.00    -0.249 OA
ENDROOT
BRANCH   1   3
ATOM      3  O   UNL     1      14.017  79.051  -2.993  1.00  0.00    -0.460 OA
BRANCH   3   4
ATOM      4  C   UNL     1      13.316  80.148  -2.404  1.00  0.00     0.179 C 
ATOM      5  C   UNL     1      13.308  79.720   0.158  1.00  0.00     0.060 C 
ATOM      6  C   UNL     1      13.500  78.210  -0.042  1.00  0.00     0.021 C 
ATOM      7  C   UNL     1      13.943  80.509  -1.022  1.00  0.00     0.064 C 
ATOM      8  N   UNL     1      11.850  79.861   0.172  1.00  0.00    -0.300 NA
ATOM      9  C   UNL     1      12.246  77.771  -0.818  1.00  0.00     0.021 C 
ATOM     10  C   UNL     1      11.437  79.067  -0.985  1.00  0.00     0.060 C 
ATOM     11  C   UNL     1      11.314  81.230   0.261  1.00  0.00     0.105 C 
ATOM     12  C   UNL     1      11.810  79.782  -2.315  1.00  0.00     0.064 C 
ENDBRANCH   3   4
ENDBRANCH   1   3
BRANCH   1  13
ATOM     13  C   UNL     1      14.023  79.517  -5.446  1.00  0.00     0.254 C 
BRANCH  13  14
ATOM     14  O   UNL     1      13.330  80.736  -5.293  1.00  0.00    -0.377 OA
ATOM     15  H   UNL     1      13.582  81.344  -6.040  1.00  0.00     0.212 HD
ENDBRANCH  13  14
BRANCH  13  16
ATOM     16  C   UNL     1      15.507  79.737  -5.659  1.00  0.00    -0.008 A 
ATOM     17  C   UNL     1      16.159  80.799  -5.001  1.00  0.00     0.007 A 
ATOM     18  C   UNL     1      16.239  78.948  -6.571  1.00  0.00     0.007 A 
ATOM     19  C   UNL     1      17.523  81.031  -5.212  1.00  0.00     0.000 A 
ATOM     20  C   UNL     1      17.603  79.183  -6.774  1.00  0.00     0.000 A 
ATOM     21  C   UNL     1      18.247  80.216  -6.087  1.00  0.00     0.000 A 
ENDBRANCH  13  16
ENDBRANCH   1  13
TORSDOF 5
ENDMDL
MODEL 14
REMARK VINA RESULT:    -7.493      1.275      2.360
REMARK INTER + INTRA:          -9.958
REMARK INTER:                  -9.848
REMARK INTRA:                  -0.110
REMARK UNBOUND:                -0.494
REMARK SMILES CN1[C@@H]2CC[C@H]1C[C@@H](OC(=O)C(O)c1ccccc1)C2
REMARK SMILES IDX 10 1 11 2 9 3 8 4 6 5 5 6 7 7 2 8 4 9 3 10 1 11 20 12 12 13
REMARK SMILES IDX 13 14 14 16 15 17 19 18 16 19 18 20 17 21
REMARK H PARENT 13 15
REMARK Flexibility Score: inf
ROOT
ATOM      1  C   UNL     1       9.919  75.423  -1.348  1.00  0.00     0.339 C 
ATOM      2  O   UNL     1      10.502  74.845  -0.389  1.00  0.00    -0.249 OA
ENDROOT
BRANCH   1   3
ATOM      3  O   UNL     1      10.302  76.709  -1.743  1.00  0.00    -0.460 OA
BRANCH   3   4
ATOM      4  C   UNL     1      11.656  77.161  -1.790  1.00  0.00     0.179 C 
ATOM      5  C   UNL     1      11.746  79.349  -0.394  1.00  0.00     0.060 C 
ATOM      6  C   UNL     1      10.245  79.602  -0.599  1.00  0.00     0.021 C 
ATOM      7  C   UNL     1      12.050  77.825  -0.435  1.00  0.00     0.064 C 
ATOM      8  N   UNL     1      12.349  80.045  -1.532  1.00  0.00    -0.300 NA
ATOM      9  C   UNL     1      10.096  79.761  -2.122  1.00  0.00     0.021 C 
ATOM     10  C   UNL     1      11.527  79.599  -2.657  1.00  0.00     0.060 C 
ATOM     11  C   UNL     1      13.808  79.924  -1.690  1.00  0.00     0.105 C 
ATOM     12  C   UNL     1      11.819  78.112  -3.006  1.00  0.00     0.064 C 
ENDBRANCH   3   4
ENDBRANCH   1   3
BRANCH   1  13
ATOM     13  C   UNL     1       8.751  74.774  -2.036  1.00  0.00     0.254 C 
BRANCH  13  14
ATOM     14  O   UNL     1       8.097  75.656  -2.920  1.00  0.00    -0.377 OA
ATOM     15  H   UNL     1       7.119  75.627  -2.737  1.00  0.00     0.212 HD
ENDBRANCH  13  14
BRANCH  13  16
ATOM     16  C   UNL     1       9.187  73.500  -2.731  1.00  0.00    -0.008 A 
ATOM     17  C   UNL     1       9.041  73.380  -4.128  1.00  0.00     0.007 A 
ATOM     18  C   UNL     1       9.660  72.392  -1.998  1.00  0.00     0.007 A 
ATOM     19  C   UNL     1       9.412  72.199  -4.779  1.00  0.00     0.000 A 
ATOM     20  C   UNL     1      10.033  71.215  -2.656  1.00  0.00     0.000 A 
ATOM     21  C   UNL     1       9.919  71.122  -4.045  1.00  0.00     0.000 A 
ENDBRANCH  13  16
ENDBRANCH   1  13
TORSDOF 5
ENDMDL
MODEL 15
REMARK VINA RESULT:    -7.419      2.995      5.850
REMARK INTER + INTRA:          -9.864
REMARK INTER:                  -9.131
REMARK INTRA:                  -0.733
REMARK UNBOUND:                -0.494
REMARK SMILES CN1[C@@H]2CC[C@H]1C[C@@H](OC(=O)C(O)c1ccccc1)C2
REMARK SMILES IDX 10 1 11 2 9 3 8 4 6 5 5 6 7 7 2 8 4 9 3 10 1 11 20 12 12 13
REMARK SMILES IDX 13 14 14 16 15 17 19 18 16 19 18 20 17 21
REMARK H PARENT 13 15
REMARK Flexibility Score: inf
ROOT
ATOM      1  C   UNL     1      11.331  79.137  -1.668  1.00  0.00     0.339 C 
ATOM      2  O   UNL     1      10.585  79.996  -2.212  1.00  0.00    -0.249 OA
ENDROOT
BRANCH   1   3
ATOM      3  O   UNL     1      10.783  78.075  -0.942  1.00  0.00    -0.460 OA
BRANCH   3   4
ATOM      4  C   UNL     1      10.655  76.744  -1.445  1.00  0.00     0.179 C 
ATOM      5  C   UNL     1       8.406  76.665  -2.742  1.00  0.00     0.060 C 
ATOM      6  C   UNL     1       7.846  77.850  -1.944  1.00  0.00     0.021 C 
ATOM      7  C   UNL     1       9.955  76.760  -2.838  1.00  0.00     0.064 C 
ATOM      8  N   UNL     1       7.991  75.511  -1.942  1.00  0.00    -0.300 NA
ATOM      9  C   UNL     1       7.821  77.346  -0.490  1.00  0.00     0.021 C 
ATOM     10  C   UNL     1       8.359  75.910  -0.583  1.00  0.00     0.060 C 
ATOM     11  C   UNL     1       8.454  74.187  -2.391  1.00  0.00     0.105 C 
ATOM     12  C   UNL     1       9.902  75.886  -0.393  1.00  0.00     0.064 C 
ENDBRANCH   3   4
ENDBRANCH   1   3
BRANCH   1  13
ATOM     13  C   UNL     1      12.826  79.279  -1.721  1.00  0.00     0.254 C 
BRANCH  13  14
ATOM     14  O   UNL     1      13.477  78.386  -0.846  1.00  0.00    -0.377 OA
ATOM     15  H   UNL     1      12.849  78.136  -0.116  1.00  0.00     0.212 HD
ENDBRANCH  13  14
BRANCH  13  16
ATOM     16  C   UNL     1      13.321  79.133  -3.146  1.00  0.00    -0.008 A 
ATOM     17  C   UNL     1      13.640  80.282  -3.897  1.00  0.00     0.007 A 
ATOM     18  C   UNL     1      13.391  77.869  -3.769  1.00  0.00     0.007 A 
ATOM     19  C   UNL     1      14.070  80.163  -5.223  1.00  0.00     0.000 A 
ATOM     20  C   UNL     1      13.826  77.758  -5.095  1.00  0.00     0.000 A 
ATOM     21  C   UNL     1      14.175  78.901  -5.817  1.00  0.00     0.000 A 
ENDBRANCH  13  16
ENDBRANCH   1  13
TORSDOF 5
ENDMDL
