MODEL 1
REMARK VINA RESULT:   -11.097      0.000      0.000
REMARK INTER + INTRA:         -17.093
REMARK INTER:                 -15.639
REMARK INTRA:                  -1.455
REMARK UNBOUND:                -1.455
REMARK SMILES CN1CCN(c2ccc(C(=O)Nc3n[nH]c4ccc(Cc5cc(F)cc(F)c5)cc34)c(NC3CCOCC3)c2)CC1
REMARK SMILES IDX 10 1 11 2 12 3 9 5 6 6 7 7 39 8 8 9 31 10 5 11 1 12 2 13
REMARK SMILES IDX 3 14 41 15 4 16 40 17 32 18 33 20 34 21 38 22 35 23 37 24
REMARK SMILES IDX 36 25 13 26 14 27 30 28 15 29 16 30 29 31 17 33 19 34 18 35
REMARK SMILES IDX 20 36 21 37 22 38 28 39 23 40 26 41 24 42 25 43 27 44
REMARK H PARENT 12 4 32 19 15 32
REMARK Flexibility Score: inf
ROOT
ATOM      1  C   UNL     1      28.738  12.647  10.749  1.00  0.00     0.258 C 
ATOM      2  O   UNL     1      28.535  12.047  11.842  1.00  0.00    -0.269 OA
ATOM      3  N   UNL     1      27.703  13.454  10.164  1.00  0.00    -0.304 N 
ATOM      4  H   UNL     1      27.938  14.043   9.334  1.00  0.00     0.171 HD
ENDROOT
BRANCH   1   5
ATOM      5  C   UNL     1      30.041  12.485  10.063  1.00  0.00     0.063 A 
ATOM      6  C   UNL     1      32.506  11.936   8.799  1.00  0.00     0.039 A 
ATOM      7  C   UNL     1      31.300  11.547   8.202  1.00  0.00     0.027 A 
ATOM      8  C   UNL     1      32.474  12.625  10.017  1.00  0.00     0.052 A 
ATOM      9  C   UNL     1      30.081  11.820   8.825  1.00  0.00     0.018 A 
ATOM     10  C   UNL     1      31.254  12.902  10.662  1.00  0.00     0.049 A 
BRANCH   6  11
ATOM     11  N   UNL     1      33.769  11.603   8.193  1.00  0.00    -0.369 N 
ATOM     12  C   UNL     1      37.085   9.717   6.394  1.00  0.00     0.105 C 
ATOM     13  N   UNL     1      35.873  10.074   7.155  1.00  0.00    -0.303 NA
ATOM     14  C   UNL     1      34.762  10.452   6.238  1.00  0.00     0.105 C 
ATOM     15  C   UNL     1      36.184  11.106   8.163  1.00  0.00     0.105 C 
ATOM     16  C   UNL     1      33.912  11.639   6.732  1.00  0.00     0.132 C 
ATOM     17  C   UNL     1      34.951  11.370   9.031  1.00  0.00     0.132 C 
ENDBRANCH   6  11
BRANCH  10  18
ATOM     18  N   UNL     1      31.245  13.638  11.900  1.00  0.00    -0.381 N 
ATOM     19  H   UNL     1      31.311  13.099  12.796  1.00  0.00     0.160 HD
BRANCH  18  20
ATOM     20  C   UNL     1      31.270  15.105  11.958  1.00  0.00     0.083 C 
ATOM     21  C   UNL     1      30.473  15.617  13.167  1.00  0.00     0.053 C 
ATOM     22  C   UNL     1      32.718  15.611  12.048  1.00  0.00     0.053 C 
ATOM     23  C   UNL     1      30.655  17.135  13.310  1.00  0.00     0.162 C 
ATOM     24  C   UNL     1      32.737  17.127  12.288  1.00  0.00     0.162 C 
ATOM     25  O   UNL     1      32.023  17.464  13.464  1.00  0.00    -0.381 OA
ENDBRANCH  18  20
ENDBRANCH  10  18
ENDBRANCH   1   5
BRANCH   3  26
ATOM     26  C   UNL     1      26.356  13.498  10.657  1.00  0.00     0.162 A 
ATOM     27  N   UNL     1      25.734  14.613  11.117  1.00  0.00    -0.156 NA
ATOM     28  C   UNL     1      25.495  12.426  10.755  1.00  0.00     0.044 A 
ATOM     29  N   UNL     1      24.506  14.270  11.494  1.00  0.00    -0.276 N 
ATOM     30  C   UNL     1      24.348  12.950  11.281  1.00  0.00     0.067 A 
ATOM     31  C   UNL     1      25.615  11.076  10.437  1.00  0.00     0.018 A 
ATOM     32  H   UNL     1      23.798  14.932  11.882  1.00  0.00     0.190 HD
ATOM     33  C   UNL     1      23.225  12.167  11.526  1.00  0.00     0.029 A 
ATOM     34  C   UNL     1      24.501  10.242  10.682  1.00  0.00    -0.043 A 
ATOM     35  C   UNL     1      23.307  10.795  11.219  1.00  0.00     0.006 A 
BRANCH  34  36
ATOM     36  C   UNL     1      24.561   8.784  10.317  1.00  0.00     0.071 C 
BRANCH  36  37
ATOM     37  C   UNL     1      25.968   8.406   9.935  1.00  0.00    -0.038 A 
ATOM     38  C   UNL     1      27.065   8.996  10.589  1.00  0.00     0.043 A 
ATOM     39  C   UNL     1      26.198   7.503   8.883  1.00  0.00     0.043 A 
ATOM     40  C   UNL     1      28.370   8.665  10.214  1.00  0.00     0.126 A 
ATOM     41  C   UNL     1      27.504   7.178   8.507  1.00  0.00     0.126 A 
ATOM     42  F   UNL     1      29.425   9.229  10.854  1.00  0.00    -0.207 F 
ATOM     43  C   UNL     1      28.589   7.756   9.174  1.00  0.00     0.078 A 
ATOM     44  F   UNL     1      27.720   6.307   7.488  1.00  0.00    -0.207 F 
ENDBRANCH  36  37
ENDBRANCH  34  36
ENDBRANCH   3  26
TORSDOF 7
ENDMDL
MODEL 2
REMARK VINA RESULT:   -11.092      3.471      6.359
REMARK INTER + INTRA:         -17.085
REMARK INTER:                 -15.598
REMARK INTRA:                  -1.487
REMARK UNBOUND:                -1.455
REMARK SMILES CN1CCN(c2ccc(C(=O)Nc3n[nH]c4ccc(Cc5cc(F)cc(F)c5)cc34)c(NC3CCOCC3)c2)CC1
REMARK SMILES IDX 10 1 11 2 12 3 9 5 6 6 7 7 39 8 8 9 31 10 5 11 1 12 2 13
REMARK SMILES IDX 3 14 41 15 4 16 40 17 32 18 33 20 34 21 38 22 35 23 37 24
REMARK SMILES IDX 36 25 13 26 14 27 30 28 15 29 16 30 29 31 17 33 19 34 18 35
REMARK SMILES IDX 20 36 21 37 22 38 28 39 23 40 26 41 24 42 25 43 27 44
REMARK H PARENT 12 4 32 19 15 32
REMARK Flexibility Score: inf
ROOT
ATOM      1  C   UNL     1      32.691  10.150  10.142  1.00  0.00     0.258 C 
ATOM      2  O   UNL     1      32.831  10.154  11.398  1.00  0.00    -0.269 OA
ATOM      3  N   UNL     1      31.955  11.199   9.493  1.00  0.00    -0.304 N 
ATOM      4  H   UNL     1      31.964  11.245   8.450  1.00  0.00     0.171 HD
ENDROOT
BRANCH   1   5
ATOM      5  C   UNL     1      33.264   9.036   9.351  1.00  0.00     0.063 A 
ATOM      6  C   UNL     1      34.298   7.039   7.643  1.00  0.00     0.039 A 
ATOM      7  C   UNL     1      34.956   8.269   7.777  1.00  0.00     0.027 A 
ATOM      8  C   UNL     1      33.137   6.801   8.387  1.00  0.00     0.052 A 
ATOM      9  C   UNL     1      34.447   9.255   8.623  1.00  0.00     0.018 A 
ATOM     10  C   UNL     1      32.606   7.787   9.239  1.00  0.00     0.049 A 
BRANCH   6  11
ATOM     11  N   UNL     1      34.783   6.041   6.726  1.00  0.00    -0.369 N 
ATOM     12  C   UNL     1      35.393   3.359   3.528  1.00  0.00     0.105 C 
ATOM     13  N   UNL     1      34.858   4.259   4.566  1.00  0.00    -0.303 NA
ATOM     14  C   UNL     1      35.299   5.662   4.333  1.00  0.00     0.105 C 
ATOM     15  C   UNL     1      35.193   3.749   5.911  1.00  0.00     0.105 C 
ATOM     16  C   UNL     1      35.665   6.430   5.619  1.00  0.00     0.132 C 
ATOM     17  C   UNL     1      34.520   4.619   6.976  1.00  0.00     0.132 C 
ENDBRANCH   6  11
BRANCH  10  18
ATOM     18  N   UNL     1      31.427   7.509  10.017  1.00  0.00    -0.381 N 
ATOM     19  H   UNL     1      31.522   6.879  10.851  1.00  0.00     0.160 HD
BRANCH  18  20
ATOM     20  C   UNL     1      30.134   8.159   9.770  1.00  0.00     0.083 C 
ATOM     21  C   UNL     1      29.475   7.600   8.500  1.00  0.00     0.053 C 
ATOM     22  C   UNL     1      29.194   7.952  10.968  1.00  0.00     0.053 C 
ATOM     23  C   UNL     1      28.054   8.163   8.355  1.00  0.00     0.162 C 
ATOM     24  C   UNL     1      27.789   8.475  10.638  1.00  0.00     0.162 C 
ATOM     25  O   UNL     1      27.267   7.838   9.486  1.00  0.00    -0.381 OA
ENDBRANCH  18  20
ENDBRANCH  10  18
ENDBRANCH   1   5
BRANCH   3  26
ATOM     26  C   UNL     1      31.201  12.195  10.199  1.00  0.00     0.162 A 
ATOM     27  N   UNL     1      31.733  13.125  11.032  1.00  0.00    -0.156 NA
ATOM     28  C   UNL     1      29.832  12.354  10.158  1.00  0.00     0.044 A 
ATOM     29  N   UNL     1      30.736  13.865  11.508  1.00  0.00    -0.276 N 
ATOM     30  C   UNL     1      29.581  13.410  10.988  1.00  0.00     0.067 A 
ATOM     31  C   UNL     1      28.815  11.684   9.484  1.00  0.00     0.018 A 
ATOM     32  H   UNL     1      30.855  14.665  12.169  1.00  0.00     0.190 HD
ATOM     33  C   UNL     1      28.292  13.886  11.206  1.00  0.00     0.029 A 
ATOM     34  C   UNL     1      27.488  12.127   9.687  1.00  0.00    -0.043 A 
ATOM     35  C   UNL     1      27.235  13.233  10.543  1.00  0.00     0.006 A 
BRANCH  34  36
ATOM     36  C   UNL     1      26.356  11.467   8.950  1.00  0.00     0.071 C 
BRANCH  36  37
ATOM     37  C   UNL     1      25.222  11.180   9.898  1.00  0.00    -0.038 A 
ATOM     38  C   UNL     1      24.677   9.885   9.984  1.00  0.00     0.043 A 
ATOM     39  C   UNL     1      24.660  12.215  10.664  1.00  0.00     0.043 A 
ATOM     40  C   UNL     1      23.606   9.628  10.845  1.00  0.00     0.126 A 
ATOM     41  C   UNL     1      23.586  11.955  11.520  1.00  0.00     0.126 A 
ATOM     42  F   UNL     1      23.090   8.376  10.932  1.00  0.00    -0.207 F 
ATOM     43  C   UNL     1      23.062  10.663  11.612  1.00  0.00     0.078 A 
ATOM     44  F   UNL     1      23.045  12.961  12.255  1.00  0.00    -0.207 F 
ENDBRANCH  36  37
ENDBRANCH  34  36
ENDBRANCH   3  26
TORSDOF 7
ENDMDL
MODEL 3
REMARK VINA RESULT:   -11.063      3.342      6.583
REMARK INTER + INTRA:         -17.045
REMARK INTER:                 -15.338
REMARK INTRA:                  -1.706
REMARK UNBOUND:                -1.455
REMARK SMILES CN1CCN(c2ccc(C(=O)Nc3n[nH]c4ccc(Cc5cc(F)cc(F)c5)cc34)c(NC3CCOCC3)c2)CC1
REMARK SMILES IDX 10 1 11 2 12 3 9 5 6 6 7 7 39 8 8 9 31 10 5 11 1 12 2 13
REMARK SMILES IDX 3 14 41 15 4 16 40 17 32 18 33 20 34 21 38 22 35 23 37 24
REMARK SMILES IDX 36 25 13 26 14 27 30 28 15 29 16 30 29 31 17 33 19 34 18 35
REMARK SMILES IDX 20 36 21 37 22 38 28 39 23 40 26 41 24 42 25 43 27 44
REMARK H PARENT 12 4 32 19 15 32
REMARK Flexibility Score: inf
ROOT
ATOM      1  C   UNL     1      33.113  10.436  10.486  1.00  0.00     0.258 C 
ATOM      2  O   UNL     1      32.805  10.185  11.685  1.00  0.00    -0.269 OA
ATOM      3  N   UNL     1      32.966  11.767   9.965  1.00  0.00    -0.304 N 
ATOM      4  H   UNL     1      33.349  11.978   9.017  1.00  0.00     0.171 HD
ENDROOT
BRANCH   1   5
ATOM      5  C   UNL     1      33.596   9.339   9.615  1.00  0.00     0.063 A 
ATOM      6  C   UNL     1      34.496   7.403   7.766  1.00  0.00     0.039 A 
ATOM      7  C   UNL     1      35.308   8.495   8.104  1.00  0.00     0.027 A 
ATOM      8  C   UNL     1      33.245   7.269   8.378  1.00  0.00     0.052 A 
ATOM      9  C   UNL     1      34.864   9.450   9.019  1.00  0.00     0.018 A 
ATOM     10  C   UNL     1      32.779   8.227   9.297  1.00  0.00     0.049 A 
BRANCH   6  11
ATOM     11  N   UNL     1      34.921   6.447   6.778  1.00  0.00    -0.369 N 
ATOM     12  C   UNL     1      35.384   3.988   3.382  1.00  0.00     0.105 C 
ATOM     13  N   UNL     1      34.900   4.840   4.483  1.00  0.00    -0.303 NA
ATOM     14  C   UNL     1      35.446   6.221   4.367  1.00  0.00     0.105 C 
ATOM     15  C   UNL     1      35.175   4.203   5.786  1.00  0.00     0.105 C 
ATOM     16  C   UNL     1      35.847   6.856   5.713  1.00  0.00     0.132 C 
ATOM     17  C   UNL     1      34.551   5.033   6.910  1.00  0.00     0.132 C 
ENDBRANCH   6  11
BRANCH  10  18
ATOM     18  N   UNL     1      31.501   8.052   9.936  1.00  0.00    -0.381 N 
ATOM     19  H   UNL     1      31.475   7.995  10.983  1.00  0.00     0.160 HD
BRANCH  18  20
ATOM     20  C   UNL     1      30.230   8.072   9.200  1.00  0.00     0.083 C 
ATOM     21  C   UNL     1      29.039   8.003  10.168  1.00  0.00     0.053 C 
ATOM     22  C   UNL     1      30.126   9.347   8.350  1.00  0.00     0.053 C 
ATOM     23  C   UNL     1      27.725   8.201   9.397  1.00  0.00     0.162 C 
ATOM     24  C   UNL     1      28.728   9.455   7.724  1.00  0.00     0.162 C 
ATOM     25  O   UNL     1      27.722   9.444   8.721  1.00  0.00    -0.381 OA
ENDBRANCH  18  20
ENDBRANCH  10  18
ENDBRANCH   1   5
BRANCH   3  26
ATOM     26  C   UNL     1      32.318  12.831  10.677  1.00  0.00     0.162 A 
ATOM     27  N   UNL     1      32.951  13.731  11.472  1.00  0.00    -0.156 NA
ATOM     28  C   UNL     1      30.965  13.097  10.679  1.00  0.00     0.044 A 
ATOM     29  N   UNL     1      32.032  14.555  11.967  1.00  0.00    -0.276 N 
ATOM     30  C   UNL     1      30.827  14.183  11.496  1.00  0.00     0.067 A 
ATOM     31  C   UNL     1      29.875  12.497  10.054  1.00  0.00     0.018 A 
ATOM     32  H   UNL     1      32.237  15.355  12.607  1.00  0.00     0.190 HD
ATOM     33  C   UNL     1      29.588  14.763  11.748  1.00  0.00     0.029 A 
ATOM     34  C   UNL     1      28.596  13.047  10.293  1.00  0.00    -0.043 A 
ATOM     35  C   UNL     1      28.460  14.184  11.135  1.00  0.00     0.006 A 
BRANCH  34  36
ATOM     36  C   UNL     1      27.389  12.465   9.609  1.00  0.00     0.071 C 
BRANCH  36  37
ATOM     37  C   UNL     1      26.163  12.677  10.458  1.00  0.00    -0.038 A 
ATOM     38  C   UNL     1      25.382  11.580  10.864  1.00  0.00     0.043 A 
ATOM     39  C   UNL     1      25.758  13.977  10.804  1.00  0.00     0.043 A 
ATOM     40  C   UNL     1      24.228  11.782  11.628  1.00  0.00     0.126 A 
ATOM     41  C   UNL     1      24.601  14.175  11.564  1.00  0.00     0.126 A 
ATOM     42  F   UNL     1      23.483  10.720  12.027  1.00  0.00    -0.207 F 
ATOM     43  C   UNL     1      23.840  13.079  11.978  1.00  0.00     0.078 A 
ATOM     44  F   UNL     1      24.213  15.434  11.892  1.00  0.00    -0.207 F 
ENDBRANCH  36  37
ENDBRANCH  34  36
ENDBRANCH   3  26
TORSDOF 7
ENDMDL
MODEL 4
REMARK VINA RESULT:   -11.020      3.410      6.062
REMARK INTER + INTRA:         -16.984
REMARK INTER:                 -16.840
REMARK INTRA:                  -0.144
REMARK UNBOUND:                -1.455
REMARK SMILES CN1CCN(c2ccc(C(=O)Nc3n[nH]c4ccc(Cc5cc(F)cc(F)c5)cc34)c(NC3CCOCC3)c2)CC1
REMARK SMILES IDX 10 1 11 2 12 3 9 5 6 6 7 7 39 8 8 9 31 10 5 11 1 12 2 13
REMARK SMILES IDX 3 14 41 15 4 16 40 17 32 18 33 20 34 21 38 22 35 23 37 24
REMARK SMILES IDX 36 25 13 26 14 27 30 28 15 29 16 30 29 31 17 33 19 34 18 35
REMARK SMILES IDX 20 36 21 37 22 38 28 39 23 40 26 41 24 42 25 43 27 44
REMARK H PARENT 12 4 32 19 15 32
REMARK Flexibility Score: inf
ROOT
ATOM      1  C   UNL     1      29.795  10.185  10.628  1.00  0.00     0.258 C 
ATOM      2  O   UNL     1      29.382   9.735  11.733  1.00  0.00    -0.269 OA
ATOM      3  N   UNL     1      29.129   9.826   9.406  1.00  0.00    -0.304 N 
ATOM      4  H   UNL     1      29.406  10.312   8.525  1.00  0.00     0.171 HD
ENDROOT
BRANCH   1   5
ATOM      5  C   UNL     1      30.990  11.060  10.601  1.00  0.00     0.063 A 
ATOM      6  C   UNL     1      33.196  12.803  10.328  1.00  0.00     0.039 A 
ATOM      7  C   UNL     1      31.907  13.315  10.530  1.00  0.00     0.027 A 
ATOM      8  C   UNL     1      33.382  11.416  10.291  1.00  0.00     0.052 A 
ATOM      9  C   UNL     1      30.817  12.454  10.667  1.00  0.00     0.018 A 
ATOM     10  C   UNL     1      32.293  10.534  10.421  1.00  0.00     0.049 A 
BRANCH   6  11
ATOM     11  N   UNL     1      34.315  13.685  10.125  1.00  0.00    -0.369 N 
ATOM     12  C   UNL     1      38.117  15.489   9.835  1.00  0.00     0.105 C 
ATOM     13  N   UNL     1      36.935  14.675  10.174  1.00  0.00    -0.303 NA
ATOM     14  C   UNL     1      36.530  13.820   9.023  1.00  0.00     0.105 C 
ATOM     15  C   UNL     1      35.848  15.535  10.683  1.00  0.00     0.105 C 
ATOM     16  C   UNL     1      35.005  13.706   8.829  1.00  0.00     0.132 C 
ATOM     17  C   UNL     1      34.679  14.666  11.154  1.00  0.00     0.132 C 
ENDBRANCH   6  11
BRANCH  10  18
ATOM     18  N   UNL     1      32.513   9.111  10.409  1.00  0.00    -0.381 N 
ATOM     19  H   UNL     1      32.389   8.585  11.308  1.00  0.00     0.160 HD
BRANCH  18  20
ATOM     20  C   UNL     1      32.779   8.353   9.180  1.00  0.00     0.083 C 
ATOM     21  C   UNL     1      34.266   8.433   8.802  1.00  0.00     0.053 C 
ATOM     22  C   UNL     1      32.376   6.882   9.362  1.00  0.00     0.053 C 
ATOM     23  C   UNL     1      34.558   7.497   7.620  1.00  0.00     0.162 C 
ATOM     24  C   UNL     1      32.818   6.056   8.146  1.00  0.00     0.162 C 
ATOM     25  O   UNL     1      34.216   6.161   7.941  1.00  0.00    -0.381 OA
ENDBRANCH  18  20
ENDBRANCH  10  18
ENDBRANCH   1   5
BRANCH   3  26
ATOM     26  C   UNL     1      28.100   8.830   9.327  1.00  0.00     0.162 A 
ATOM     27  N   UNL     1      28.280   7.560   8.881  1.00  0.00    -0.156 NA
ATOM     28  C   UNL     1      26.776   9.004   9.672  1.00  0.00     0.044 A 
ATOM     29  N   UNL     1      27.108   6.935   8.944  1.00  0.00    -0.276 N 
ATOM     30  C   UNL     1      26.190   7.796   9.419  1.00  0.00     0.067 A 
ATOM     31  C   UNL     1      26.057  10.087  10.171  1.00  0.00     0.018 A 
ATOM     32  H   UNL     1      26.953   5.939   8.669  1.00  0.00     0.190 HD
ATOM     33  C   UNL     1      24.837   7.571   9.652  1.00  0.00     0.029 A 
ATOM     34  C   UNL     1      24.676   9.905  10.410  1.00  0.00    -0.043 A 
ATOM     35  C   UNL     1      24.074   8.642  10.155  1.00  0.00     0.006 A 
BRANCH  34  36
ATOM     36  C   UNL     1      23.860  11.028  10.989  1.00  0.00     0.071 C 
BRANCH  36  37
ATOM     37  C   UNL     1      24.674  12.294  11.017  1.00  0.00    -0.038 A 
ATOM     38  C   UNL     1      24.126  13.480  11.541  1.00  0.00     0.043 A 
ATOM     39  C   UNL     1      25.967  12.317  10.468  1.00  0.00     0.043 A 
ATOM     40  C   UNL     1      24.874  14.661  11.540  1.00  0.00     0.126 A 
ATOM     41  C   UNL     1      26.710  13.502  10.464  1.00  0.00     0.126 A 
ATOM     42  F   UNL     1      24.346  15.800  12.056  1.00  0.00    -0.207 F 
ATOM     43  C   UNL     1      26.165  14.671  11.002  1.00  0.00     0.078 A 
ATOM     44  F   UNL     1      27.958  13.518   9.929  1.00  0.00    -0.207 F 
ENDBRANCH  36  37
ENDBRANCH  34  36
ENDBRANCH   3  26
TORSDOF 7
ENDMDL
MODEL 5
REMARK VINA RESULT:   -11.018      3.412      6.109
REMARK INTER + INTRA:         -16.982
REMARK INTER:                 -16.859
REMARK INTRA:                  -0.123
REMARK UNBOUND:                -1.455
REMARK SMILES CN1CCN(c2ccc(C(=O)Nc3n[nH]c4ccc(Cc5cc(F)cc(F)c5)cc34)c(NC3CCOCC3)c2)CC1
REMARK SMILES IDX 10 1 11 2 12 3 9 5 6 6 7 7 39 8 8 9 31 10 5 11 1 12 2 13
REMARK SMILES IDX 3 14 41 15 4 16 40 17 32 18 33 20 34 21 38 22 35 23 37 24
REMARK SMILES IDX 36 25 13 26 14 27 30 28 15 29 16 30 29 31 17 33 19 34 18 35
REMARK SMILES IDX 20 36 21 37 22 38 28 39 23 40 26 41 24 42 25 43 27 44
REMARK H PARENT 12 4 32 19 15 32
REMARK Flexibility Score: inf
ROOT
ATOM      1  C   UNL     1      29.799  10.177  10.619  1.00  0.00     0.258 C 
ATOM      2  O   UNL     1      29.380   9.736  11.726  1.00  0.00    -0.269 OA
ATOM      3  N   UNL     1      29.138   9.810   9.397  1.00  0.00    -0.304 N 
ATOM      4  H   UNL     1      29.420  10.289   8.513  1.00  0.00     0.171 HD
ENDROOT
BRANCH   1   5
ATOM      5  C   UNL     1      30.997  11.048  10.591  1.00  0.00     0.063 A 
ATOM      6  C   UNL     1      33.209  12.782  10.316  1.00  0.00     0.039 A 
ATOM      7  C   UNL     1      31.921  13.299  10.510  1.00  0.00     0.027 A 
ATOM      8  C   UNL     1      33.390  11.395  10.287  1.00  0.00     0.052 A 
ATOM      9  C   UNL     1      30.828  12.442  10.648  1.00  0.00     0.018 A 
ATOM     10  C   UNL     1      32.299  10.517  10.418  1.00  0.00     0.049 A 
BRANCH   6  11
ATOM     11  N   UNL     1      34.331  13.660  10.110  1.00  0.00    -0.369 N 
ATOM     12  C   UNL     1      38.139  15.452   9.823  1.00  0.00     0.105 C 
ATOM     13  N   UNL     1      36.953  14.644  10.163  1.00  0.00    -0.303 NA
ATOM     14  C   UNL     1      36.550  13.783   9.016  1.00  0.00     0.105 C 
ATOM     15  C   UNL     1      35.867  15.509  10.663  1.00  0.00     0.105 C 
ATOM     16  C   UNL     1      35.025  13.672   8.817  1.00  0.00     0.132 C 
ATOM     17  C   UNL     1      34.694  14.647  11.135  1.00  0.00     0.132 C 
ENDBRANCH   6  11
BRANCH  10  18
ATOM     18  N   UNL     1      32.515   9.093  10.415  1.00  0.00    -0.381 N 
ATOM     19  H   UNL     1      32.388   8.572  11.317  1.00  0.00     0.160 HD
BRANCH  18  20
ATOM     20  C   UNL     1      32.781   8.327   9.191  1.00  0.00     0.083 C 
ATOM     21  C   UNL     1      34.269   8.400   8.816  1.00  0.00     0.053 C 
ATOM     22  C   UNL     1      32.372   6.858   9.381  1.00  0.00     0.053 C 
ATOM     23  C   UNL     1      34.559   7.456   7.639  1.00  0.00     0.162 C 
ATOM     24  C   UNL     1      32.814   6.024   8.171  1.00  0.00     0.162 C 
ATOM     25  O   UNL     1      34.213   6.124   7.967  1.00  0.00    -0.381 OA
ENDBRANCH  18  20
ENDBRANCH  10  18
ENDBRANCH   1   5
BRANCH   3  26
ATOM     26  C   UNL     1      28.106   8.816   9.321  1.00  0.00     0.162 A 
ATOM     27  N   UNL     1      28.279   7.550   8.862  1.00  0.00    -0.156 NA
ATOM     28  C   UNL     1      26.786   8.990   9.682  1.00  0.00     0.044 A 
ATOM     29  N   UNL     1      27.108   6.926   8.932  1.00  0.00    -0.276 N 
ATOM     30  C   UNL     1      26.196   7.785   9.425  1.00  0.00     0.067 A 
ATOM     31  C   UNL     1      26.074  10.069  10.198  1.00  0.00     0.018 A 
ATOM     32  H   UNL     1      26.947   5.933   8.651  1.00  0.00     0.190 HD
ATOM     33  C   UNL     1      24.845   7.559   9.671  1.00  0.00     0.029 A 
ATOM     34  C   UNL     1      24.696   9.887  10.450  1.00  0.00    -0.043 A 
ATOM     35  C   UNL     1      24.089   8.627  10.192  1.00  0.00     0.006 A 
BRANCH  34  36
ATOM     36  C   UNL     1      23.888  11.006  11.048  1.00  0.00     0.071 C 
BRANCH  36  37
ATOM     37  C   UNL     1      24.677  12.288  11.009  1.00  0.00    -0.038 A 
ATOM     38  C   UNL     1      25.990  12.299  10.504  1.00  0.00     0.043 A 
ATOM     39  C   UNL     1      24.129  13.473  11.530  1.00  0.00     0.043 A 
ATOM     40  C   UNL     1      26.731  13.485  10.495  1.00  0.00     0.126 A 
ATOM     41  C   UNL     1      24.875  14.655  11.524  1.00  0.00     0.126 A 
ATOM     42  F   UNL     1      27.994  13.494   9.998  1.00  0.00    -0.207 F 
ATOM     43  C   UNL     1      26.173  14.662  11.005  1.00  0.00     0.078 A 
ATOM     44  F   UNL     1      24.342  15.796  12.032  1.00  0.00    -0.207 F 
ENDBRANCH  36  37
ENDBRANCH  34  36
ENDBRANCH   3  26
TORSDOF 7
ENDMDL
MODEL 6
REMARK VINA RESULT:   -10.987      2.708      3.682
REMARK INTER + INTRA:         -16.937
REMARK INTER:                 -16.460
REMARK INTRA:                  -0.477
REMARK UNBOUND:                -1.455
REMARK SMILES CN1CCN(c2ccc(C(=O)Nc3n[nH]c4ccc(Cc5cc(F)cc(F)c5)cc34)c(NC3CCOCC3)c2)CC1
REMARK SMILES IDX 10 1 11 2 12 3 9 5 6 6 7 7 39 8 8 9 31 10 5 11 1 12 2 13
REMARK SMILES IDX 3 14 41 15 4 16 40 17 32 18 33 20 34 21 38 22 35 23 37 24
REMARK SMILES IDX 36 25 13 26 14 27 30 28 15 29 16 30 29 31 17 33 19 34 18 35
REMARK SMILES IDX 20 36 21 37 22 38 28 39 23 40 26 41 24 42 25 43 27 44
REMARK H PARENT 12 4 32 19 15 32
REMARK Flexibility Score: inf
ROOT
ATOM      1  C   UNL     1      30.301  12.869  10.719  1.00  0.00     0.258 C 
ATOM      2  O   UNL     1      30.518  13.227  11.910  1.00  0.00    -0.269 OA
ATOM      3  N   UNL     1      29.341  13.575   9.915  1.00  0.00    -0.304 N 
ATOM      4  H   UNL     1      29.275  13.345   8.899  1.00  0.00     0.171 HD
ENDROOT
BRANCH   1   5
ATOM      5  C   UNL     1      31.020  11.696  10.170  1.00  0.00     0.063 A 
ATOM      6  C   UNL     1      32.251   9.321   9.266  1.00  0.00     0.039 A 
ATOM      7  C   UNL     1      30.937   9.629   8.886  1.00  0.00     0.027 A 
ATOM      8  C   UNL     1      32.956  10.218  10.076  1.00  0.00     0.052 A 
ATOM      9  C   UNL     1      30.330  10.804   9.331  1.00  0.00     0.018 A 
ATOM     10  C   UNL     1      32.356  11.404  10.539  1.00  0.00     0.049 A 
BRANCH   6  11
ATOM     11  N   UNL     1      32.862   8.082   8.862  1.00  0.00    -0.369 N 
ATOM     12  C   UNL     1      34.456   4.784   6.769  1.00  0.00     0.105 C 
ATOM     13  N   UNL     1      33.703   5.965   7.232  1.00  0.00    -0.303 NA
ATOM     14  C   UNL     1      34.596   7.150   7.358  1.00  0.00     0.105 C 
ATOM     15  C   UNL     1      32.961   5.649   8.469  1.00  0.00     0.105 C 
ATOM     16  C   UNL     1      34.304   8.031   8.588  1.00  0.00     0.132 C 
ATOM     17  C   UNL     1      32.083   6.838   8.863  1.00  0.00     0.132 C 
ENDBRANCH   6  11
BRANCH  10  18
ATOM     18  N   UNL     1      33.111  12.326  11.347  1.00  0.00    -0.381 N 
ATOM     19  H   UNL     1      33.141  12.165  12.383  1.00  0.00     0.160 HD
BRANCH  18  20
ATOM     20  C   UNL     1      33.934  13.400  10.777  1.00  0.00     0.083 C 
ATOM     21  C   UNL     1      34.377  14.385  11.870  1.00  0.00     0.053 C 
ATOM     22  C   UNL     1      35.172  12.814  10.083  1.00  0.00     0.053 C 
ATOM     23  C   UNL     1      35.375  15.398  11.288  1.00  0.00     0.162 C 
ATOM     24  C   UNL     1      36.119  13.940   9.646  1.00  0.00     0.162 C 
ATOM     25  O   UNL     1      36.505  14.738  10.750  1.00  0.00    -0.381 OA
ENDBRANCH  18  20
ENDBRANCH  10  18
ENDBRANCH   1   5
BRANCH   3  26
ATOM     26  C   UNL     1      28.462  14.584  10.432  1.00  0.00     0.162 A 
ATOM     27  N   UNL     1      28.815  15.873  10.673  1.00  0.00    -0.156 NA
ATOM     28  C   UNL     1      27.138  14.405  10.776  1.00  0.00     0.044 A 
ATOM     29  N   UNL     1      27.748  16.505  11.152  1.00  0.00    -0.276 N 
ATOM     30  C   UNL     1      26.728  15.630  11.221  1.00  0.00     0.067 A 
ATOM     31  C   UNL     1      26.285  13.306  10.739  1.00  0.00     0.018 A 
ATOM     32  H   UNL     1      27.728  17.515  11.419  1.00  0.00     0.190 HD
ATOM     33  C   UNL     1      25.427  15.857  11.658  1.00  0.00     0.029 A 
ATOM     34  C   UNL     1      24.957  13.490  11.187  1.00  0.00    -0.043 A 
ATOM     35  C   UNL     1      24.533  14.769  11.638  1.00  0.00     0.006 A 
BRANCH  34  36
ATOM     36  C   UNL     1      23.981  12.347  11.128  1.00  0.00     0.071 C 
BRANCH  36  37
ATOM     37  C   UNL     1      24.663  11.114  10.599  1.00  0.00    -0.038 A 
ATOM     38  C   UNL     1      25.794  11.228   9.769  1.00  0.00     0.043 A 
ATOM     39  C   UNL     1      24.143   9.839  10.883  1.00  0.00     0.043 A 
ATOM     40  C   UNL     1      26.409  10.082   9.255  1.00  0.00     0.126 A 
ATOM     41  C   UNL     1      24.758   8.696  10.363  1.00  0.00     0.126 A 
ATOM     42  F   UNL     1      27.505  10.195   8.463  1.00  0.00    -0.207 F 
ATOM     43  C   UNL     1      25.891   8.817   9.554  1.00  0.00     0.078 A 
ATOM     44  F   UNL     1      24.249   7.468  10.639  1.00  0.00    -0.207 F 
ENDBRANCH  36  37
ENDBRANCH  34  36
ENDBRANCH   3  26
TORSDOF 7
ENDMDL
MODEL 7
REMARK VINA RESULT:   -10.963      5.144      8.386
REMARK INTER + INTRA:         -16.904
REMARK INTER:                 -15.329
REMARK INTRA:                  -1.575
REMARK UNBOUND:                -1.455
REMARK SMILES CN1CCN(c2ccc(C(=O)Nc3n[nH]c4ccc(Cc5cc(F)cc(F)c5)cc34)c(NC3CCOCC3)c2)CC1
REMARK SMILES IDX 10 1 11 2 12 3 9 5 6 6 7 7 39 8 8 9 31 10 5 11 1 12 2 13
REMARK SMILES IDX 3 14 41 15 4 16 40 17 32 18 33 20 34 21 38 22 35 23 37 24
REMARK SMILES IDX 36 25 13 26 14 27 30 28 15 29 16 30 29 31 17 33 19 34 18 35
REMARK SMILES IDX 20 36 21 37 22 38 28 39 23 40 26 41 24 42 25 43 27 44
REMARK H PARENT 12 4 32 19 15 32
REMARK Flexibility Score: inf
ROOT
ATOM      1  C   UNL     1      34.041   7.894   7.667  1.00  0.00     0.258 C 
ATOM      2  O   UNL     1      35.009   8.608   8.056  1.00  0.00    -0.269 OA
ATOM      3  N   UNL     1      32.713   8.152   8.149  1.00  0.00    -0.304 N 
ATOM      4  H   UNL     1      31.915   7.637   7.715  1.00  0.00     0.171 HD
ENDROOT
BRANCH   1   5
ATOM      5  C   UNL     1      34.296   6.771   6.735  1.00  0.00     0.063 A 
ATOM      6  C   UNL     1      34.991   4.591   5.080  1.00  0.00     0.039 A 
ATOM      7  C   UNL     1      34.609   4.378   6.411  1.00  0.00     0.027 A 
ATOM      8  C   UNL     1      34.997   5.895   4.572  1.00  0.00     0.052 A 
ATOM      9  C   UNL     1      34.264   5.455   7.229  1.00  0.00     0.018 A 
ATOM     10  C   UNL     1      34.658   6.993   5.384  1.00  0.00     0.049 A 
BRANCH   6  11
ATOM     11  N   UNL     1      35.408   3.492   4.249  1.00  0.00    -0.369 N 
ATOM     12  C   UNL     1      35.662   0.190   1.636  1.00  0.00     0.105 C 
ATOM     13  N   UNL     1      35.270   1.221   2.615  1.00  0.00    -0.303 NA
ATOM     14  C   UNL     1      35.168   2.559   1.967  1.00  0.00     0.105 C 
ATOM     15  C   UNL     1      36.176   1.196   3.779  1.00  0.00     0.105 C 
ATOM     16  C   UNL     1      35.704   3.719   2.828  1.00  0.00     0.132 C 
ATOM     17  C   UNL     1      35.680   2.178   4.843  1.00  0.00     0.132 C 
ENDBRANCH   6  11
BRANCH  10  18
ATOM     18  N   UNL     1      34.643   8.322   4.831  1.00  0.00    -0.381 N 
ATOM     19  H   UNL     1      33.718   8.808   4.738  1.00  0.00     0.160 HD
BRANCH  18  20
ATOM     20  C   UNL     1      35.866   9.068   4.509  1.00  0.00     0.083 C 
ATOM     21  C   UNL     1      36.069   9.151   2.988  1.00  0.00     0.053 C 
ATOM     22  C   UNL     1      35.796  10.487   5.095  1.00  0.00     0.053 C 
ATOM     23  C   UNL     1      37.251  10.079   2.667  1.00  0.00     0.162 C 
ATOM     24  C   UNL     1      36.989  11.321   4.608  1.00  0.00     0.162 C 
ATOM     25  O   UNL     1      37.030  11.374   3.193  1.00  0.00    -0.381 OA
ENDBRANCH  18  20
ENDBRANCH  10  18
ENDBRANCH   1   5
BRANCH   3  26
ATOM     26  C   UNL     1      32.416   9.082   9.201  1.00  0.00     0.162 A 
ATOM     27  N   UNL     1      33.254   9.390  10.224  1.00  0.00    -0.156 NA
ATOM     28  C   UNL     1      31.243   9.792   9.348  1.00  0.00     0.044 A 
ATOM     29  N   UNL     1      32.640  10.276  11.002  1.00  0.00    -0.276 N 
ATOM     30  C   UNL     1      31.423  10.528  10.484  1.00  0.00     0.067 A 
ATOM     31  C   UNL     1      30.068   9.853   8.603  1.00  0.00     0.018 A 
ATOM     32  H   UNL     1      33.055  10.697  11.863  1.00  0.00     0.190 HD
ATOM     33  C   UNL     1      30.444  11.391  10.966  1.00  0.00     0.029 A 
ATOM     34  C   UNL     1      29.042  10.709   9.065  1.00  0.00    -0.043 A 
ATOM     35  C   UNL     1      29.240  11.480  10.242  1.00  0.00     0.006 A 
BRANCH  34  36
ATOM     36  C   UNL     1      27.769  10.846   8.276  1.00  0.00     0.071 C 
BRANCH  36  37
ATOM     37  C   UNL     1      26.587  10.497   9.141  1.00  0.00    -0.038 A 
ATOM     38  C   UNL     1      26.311   9.154   9.460  1.00  0.00     0.043 A 
ATOM     39  C   UNL     1      25.717  11.504   9.591  1.00  0.00     0.043 A 
ATOM     40  C   UNL     1      25.197   8.830  10.240  1.00  0.00     0.126 A 
ATOM     41  C   UNL     1      24.600  11.176  10.367  1.00  0.00     0.126 A 
ATOM     42  F   UNL     1      24.940   7.535  10.553  1.00  0.00    -0.207 F 
ATOM     43  C   UNL     1      24.343   9.841  10.693  1.00  0.00     0.078 A 
ATOM     44  F   UNL     1      23.761  12.153  10.796  1.00  0.00    -0.207 F 
ENDBRANCH  36  37
ENDBRANCH  34  36
ENDBRANCH   3  26
TORSDOF 7
ENDMDL
MODEL 8
REMARK VINA RESULT:   -10.913      2.698      3.739
REMARK INTER + INTRA:         -16.834
REMARK INTER:                 -16.229
REMARK INTRA:                  -0.605
REMARK UNBOUND:                -1.455
REMARK SMILES CN1CCN(c2ccc(C(=O)Nc3n[nH]c4ccc(Cc5cc(F)cc(F)c5)cc34)c(NC3CCOCC3)c2)CC1
REMARK SMILES IDX 10 1 11 2 12 3 9 5 6 6 7 7 39 8 8 9 31 10 5 11 1 12 2 13
REMARK SMILES IDX 3 14 41 15 4 16 40 17 32 18 33 20 34 21 38 22 35 23 37 24
REMARK SMILES IDX 36 25 13 26 14 27 30 28 15 29 16 30 29 31 17 33 19 34 18 35
REMARK SMILES IDX 20 36 21 37 22 38 28 39 23 40 26 41 24 42 25 43 27 44
REMARK H PARENT 12 4 32 19 15 32
REMARK Flexibility Score: inf
ROOT
ATOM      1  C   UNL     1      30.289  12.962  10.747  1.00  0.00     0.258 C 
ATOM      2  O   UNL     1      30.514  13.331  11.934  1.00  0.00    -0.269 OA
ATOM      3  N   UNL     1      29.331  13.666   9.940  1.00  0.00    -0.304 N 
ATOM      4  H   UNL     1      29.258  13.425   8.926  1.00  0.00     0.171 HD
ENDROOT
BRANCH   1   5
ATOM      5  C   UNL     1      30.997  11.777  10.208  1.00  0.00     0.063 A 
ATOM      6  C   UNL     1      32.206   9.383   9.325  1.00  0.00     0.039 A 
ATOM      7  C   UNL     1      30.894   9.698   8.945  1.00  0.00     0.027 A 
ATOM      8  C   UNL     1      32.920  10.282  10.125  1.00  0.00     0.052 A 
ATOM      9  C   UNL     1      30.297  10.883   9.380  1.00  0.00     0.018 A 
ATOM     10  C   UNL     1      32.331  11.477  10.577  1.00  0.00     0.049 A 
BRANCH   6  11
ATOM     11  N   UNL     1      32.806   8.135   8.932  1.00  0.00    -0.369 N 
ATOM     12  C   UNL     1      34.435   4.837   6.868  1.00  0.00     0.105 C 
ATOM     13  N   UNL     1      33.688   6.029   7.309  1.00  0.00    -0.303 NA
ATOM     14  C   UNL     1      34.606   7.183   7.521  1.00  0.00     0.105 C 
ATOM     15  C   UNL     1      32.859   5.709   8.487  1.00  0.00     0.105 C 
ATOM     16  C   UNL     1      34.260   8.046   8.751  1.00  0.00     0.132 C 
ATOM     17  C   UNL     1      31.991   6.916   8.852  1.00  0.00     0.132 C 
ENDBRANCH   6  11
BRANCH  10  18
ATOM     18  N   UNL     1      33.096  12.401  11.374  1.00  0.00    -0.381 N 
ATOM     19  H   UNL     1      32.900  12.445  12.404  1.00  0.00     0.160 HD
BRANCH  18  20
ATOM     20  C   UNL     1      34.213  13.187  10.836  1.00  0.00     0.083 C 
ATOM     21  C   UNL     1      33.844  13.798   9.476  1.00  0.00     0.053 C 
ATOM     22  C   UNL     1      34.597  14.308  11.814  1.00  0.00     0.053 C 
ATOM     23  C   UNL     1      34.953  14.754   9.013  1.00  0.00     0.162 C 
ATOM     24  C   UNL     1      35.639  15.236  11.176  1.00  0.00     0.162 C 
ATOM     25  O   UNL     1      35.157  15.785   9.962  1.00  0.00    -0.381 OA
ENDBRANCH  18  20
ENDBRANCH  10  18
ENDBRANCH   1   5
BRANCH   3  26
ATOM     26  C   UNL     1      28.461  14.687  10.450  1.00  0.00     0.162 A 
ATOM     27  N   UNL     1      28.822  15.977  10.666  1.00  0.00    -0.156 NA
ATOM     28  C   UNL     1      27.140  14.520  10.810  1.00  0.00     0.044 A 
ATOM     29  N   UNL     1      27.763  16.622  11.146  1.00  0.00    -0.276 N 
ATOM     30  C   UNL     1      26.740  15.753  11.239  1.00  0.00     0.067 A 
ATOM     31  C   UNL     1      26.282  13.424  10.799  1.00  0.00     0.018 A 
ATOM     32  H   UNL     1      27.751  17.636  11.397  1.00  0.00     0.190 HD
ATOM     33  C   UNL     1      25.444  15.993  11.686  1.00  0.00     0.029 A 
ATOM     34  C   UNL     1      24.959  13.621  11.257  1.00  0.00    -0.043 A 
ATOM     35  C   UNL     1      24.545  14.909  11.692  1.00  0.00     0.006 A 
BRANCH  34  36
ATOM     36  C   UNL     1      23.977  12.482  11.226  1.00  0.00     0.071 C 
BRANCH  36  37
ATOM     37  C   UNL     1      24.620  11.264  10.618  1.00  0.00    -0.038 A 
ATOM     38  C   UNL     1      24.131   9.978  10.914  1.00  0.00     0.043 A 
ATOM     39  C   UNL     1      25.750  11.397   9.794  1.00  0.00     0.043 A 
ATOM     40  C   UNL     1      24.747   8.847  10.370  1.00  0.00     0.126 A 
ATOM     41  C   UNL     1      26.367  10.263   9.256  1.00  0.00     0.126 A 
ATOM     42  F   UNL     1      24.266   7.610  10.651  1.00  0.00    -0.207 F 
ATOM     43  C   UNL     1      25.864   8.991   9.541  1.00  0.00     0.078 A 
ATOM     44  F   UNL     1      27.461  10.398   8.462  1.00  0.00    -0.207 F 
ENDBRANCH  36  37
ENDBRANCH  34  36
ENDBRANCH   3  26
TORSDOF 7
ENDMDL
MODEL 9
REMARK VINA RESULT:   -10.718      3.931      6.449
REMARK INTER + INTRA:         -16.559
REMARK INTER:                 -14.997
REMARK INTRA:                  -1.562
REMARK UNBOUND:                -1.455
REMARK SMILES CN1CCN(c2ccc(C(=O)Nc3n[nH]c4ccc(Cc5cc(F)cc(F)c5)cc34)c(NC3CCOCC3)c2)CC1
REMARK SMILES IDX 10 1 11 2 12 3 9 5 6 6 7 7 39 8 8 9 31 10 5 11 1 12 2 13
REMARK SMILES IDX 3 14 41 15 4 16 40 17 32 18 33 20 34 21 38 22 35 23 37 24
REMARK SMILES IDX 36 25 13 26 14 27 30 28 15 29 16 30 29 31 17 33 19 34 18 35
REMARK SMILES IDX 20 36 21 37 22 38 28 39 23 40 26 41 24 42 25 43 27 44
REMARK H PARENT 12 4 32 19 15 32
REMARK Flexibility Score: inf
ROOT
ATOM      1  C   UNL     1      32.930   9.735   9.736  1.00  0.00     0.258 C 
ATOM      2  O   UNL     1      33.080   9.616  10.984  1.00  0.00    -0.269 OA
ATOM      3  N   UNL     1      32.254  10.882   9.195  1.00  0.00    -0.304 N 
ATOM      4  H   UNL     1      32.258  11.022   8.160  1.00  0.00     0.171 HD
ENDROOT
BRANCH   1   5
ATOM      5  C   UNL     1      33.428   8.666   8.839  1.00  0.00     0.063 A 
ATOM      6  C   UNL     1      34.406   6.489   7.330  1.00  0.00     0.039 A 
ATOM      7  C   UNL     1      33.136   6.431   7.920  1.00  0.00     0.027 A 
ATOM      8  C   UNL     1      35.173   7.651   7.474  1.00  0.00     0.052 A 
ATOM      9  C   UNL     1      32.652   7.507   8.664  1.00  0.00     0.018 A 
ATOM     10  C   UNL     1      34.702   8.743   8.227  1.00  0.00     0.049 A 
BRANCH   6  11
ATOM     11  N   UNL     1      34.938   5.360   6.613  1.00  0.00    -0.369 N 
ATOM     12  C   UNL     1      35.575   1.991   4.156  1.00  0.00     0.105 C 
ATOM     13  N   UNL     1      35.038   3.056   5.023  1.00  0.00    -0.303 NA
ATOM     14  C   UNL     1      35.104   4.380   4.344  1.00  0.00     0.105 C 
ATOM     15  C   UNL     1      35.706   3.032   6.339  1.00  0.00     0.105 C 
ATOM     16  C   UNL     1      35.504   5.544   5.271  1.00  0.00     0.132 C 
ATOM     17  C   UNL     1      35.049   4.053   7.271  1.00  0.00     0.132 C 
ENDBRANCH   6  11
BRANCH  10  18
ATOM     18  N   UNL     1      35.497   9.939   8.337  1.00  0.00    -0.381 N 
ATOM     19  H   UNL     1      35.006  10.864   8.290  1.00  0.00     0.160 HD
BRANCH  18  20
ATOM     20  C   UNL     1      36.935   9.919   8.633  1.00  0.00     0.083 C 
ATOM     21  C   UNL     1      37.506  11.345   8.654  1.00  0.00     0.053 C 
ATOM     22  C   UNL     1      37.192   9.243   9.988  1.00  0.00     0.053 C 
ATOM     23  C   UNL     1      38.965  11.317   9.134  1.00  0.00     0.162 C 
ATOM     24  C   UNL     1      38.670   9.382  10.378  1.00  0.00     0.162 C 
ATOM     25  O   UNL     1      39.058  10.743  10.425  1.00  0.00    -0.381 OA
ENDBRANCH  18  20
ENDBRANCH  10  18
ENDBRANCH   1   5
BRANCH   3  26
ATOM     26  C   UNL     1      31.568  11.852   9.999  1.00  0.00     0.162 A 
ATOM     27  N   UNL     1      32.157  12.639  10.936  1.00  0.00    -0.156 NA
ATOM     28  C   UNL     1      30.217  12.127   9.961  1.00  0.00     0.044 A 
ATOM     29  N   UNL     1      31.213  13.402  11.480  1.00  0.00    -0.276 N 
ATOM     30  C   UNL     1      30.036  13.102  10.900  1.00  0.00     0.067 A 
ATOM     31  C   UNL     1      29.164  11.620   9.205  1.00  0.00     0.018 A 
ATOM     32  H   UNL     1      31.382  14.112  12.227  1.00  0.00     0.190 HD
ATOM     33  C   UNL     1      28.785  13.655  11.155  1.00  0.00     0.029 A 
ATOM     34  C   UNL     1      27.873  12.146   9.442  1.00  0.00    -0.043 A 
ATOM     35  C   UNL     1      27.692  13.168  10.413  1.00  0.00     0.006 A 
BRANCH  34  36
ATOM     36  C   UNL     1      26.706  11.665   8.624  1.00  0.00     0.071 C 
BRANCH  36  37
ATOM     37  C   UNL     1      25.766  10.866   9.488  1.00  0.00    -0.038 A 
ATOM     38  C   UNL     1      25.948   9.479   9.642  1.00  0.00     0.043 A 
ATOM     39  C   UNL     1      24.666  11.488  10.101  1.00  0.00     0.043 A 
ATOM     40  C   UNL     1      25.058   8.735  10.422  1.00  0.00     0.126 A 
ATOM     41  C   UNL     1      23.775  10.740  10.876  1.00  0.00     0.126 A 
ATOM     42  F   UNL     1      25.242   7.399  10.576  1.00  0.00    -0.207 F 
ATOM     43  C   UNL     1      23.973   9.366  11.039  1.00  0.00     0.078 A 
ATOM     44  F   UNL     1      22.712  11.346  11.464  1.00  0.00    -0.207 F 
ENDBRANCH  36  37
ENDBRANCH  34  36
ENDBRANCH   3  26
TORSDOF 7
ENDMDL
MODEL 10
REMARK VINA RESULT:   -10.660      3.194      6.245
REMARK INTER + INTRA:         -16.477
REMARK INTER:                 -15.599
REMARK INTRA:                  -0.879
REMARK UNBOUND:                -1.455
REMARK SMILES CN1CCN(c2ccc(C(=O)Nc3n[nH]c4ccc(Cc5cc(F)cc(F)c5)cc34)c(NC3CCOCC3)c2)CC1
REMARK SMILES IDX 10 1 11 2 12 3 9 5 6 6 7 7 39 8 8 9 31 10 5 11 1 12 2 13
REMARK SMILES IDX 3 14 41 15 4 16 40 17 32 18 33 20 34 21 38 22 35 23 37 24
REMARK SMILES IDX 36 25 13 26 14 27 30 28 15 29 16 30 29 31 17 33 19 34 18 35
REMARK SMILES IDX 20 36 21 37 22 38 28 39 23 40 26 41 24 42 25 43 27 44
REMARK H PARENT 12 4 32 19 15 32
REMARK Flexibility Score: inf
ROOT
ATOM      1  C   UNL     1      29.542  10.508   9.390  1.00  0.00     0.258 C 
ATOM      2  O   UNL     1      29.243  10.451   8.165  1.00  0.00    -0.269 OA
ATOM      3  N   UNL     1      28.899   9.635  10.333  1.00  0.00    -0.304 N 
ATOM      4  H   UNL     1      29.255   9.610  11.314  1.00  0.00     0.171 HD
ENDROOT
BRANCH   1   5
ATOM      5  C   UNL     1      30.536  11.506   9.850  1.00  0.00     0.063 A 
ATOM      6  C   UNL     1      32.300  13.577  10.609  1.00  0.00     0.039 A 
ATOM      7  C   UNL     1      31.019  13.493  11.172  1.00  0.00     0.027 A 
ATOM      8  C   UNL     1      32.705  12.605   9.686  1.00  0.00     0.052 A 
ATOM      9  C   UNL     1      30.148  12.468  10.798  1.00  0.00     0.018 A 
ATOM     10  C   UNL     1      31.837  11.570   9.294  1.00  0.00     0.049 A 
BRANCH   6  11
ATOM     11  N   UNL     1      33.181  14.665  10.942  1.00  0.00    -0.369 N 
ATOM     12  C   UNL     1      36.165  17.190  12.528  1.00  0.00     0.105 C 
ATOM     13  N   UNL     1      35.148  16.154  12.269  1.00  0.00    -0.303 NA
ATOM     14  C   UNL     1      35.577  15.250  11.166  1.00  0.00     0.105 C 
ATOM     15  C   UNL     1      33.828  16.775  12.044  1.00  0.00     0.105 C 
ATOM     16  C   UNL     1      34.441  14.839  10.209  1.00  0.00     0.132 C 
ATOM     17  C   UNL     1      32.760  15.686  11.909  1.00  0.00     0.132 C 
ENDBRANCH   6  11
BRANCH  10  18
ATOM     18  N   UNL     1      32.287  10.565   8.365  1.00  0.00    -0.381 N 
ATOM     19  H   UNL     1      32.145  10.740   7.341  1.00  0.00     0.160 HD
BRANCH  18  20
ATOM     20  C   UNL     1      33.039   9.374   8.779  1.00  0.00     0.083 C 
ATOM     21  C   UNL     1      32.153   8.121   8.716  1.00  0.00     0.053 C 
ATOM     22  C   UNL     1      34.268   9.179   7.877  1.00  0.00     0.053 C 
ATOM     23  C   UNL     1      33.000   6.867   8.982  1.00  0.00     0.162 C 
ATOM     24  C   UNL     1      34.951   7.841   8.193  1.00  0.00     0.162 C 
ATOM     25  O   UNL     1      34.049   6.760   8.038  1.00  0.00    -0.381 OA
ENDBRANCH  18  20
ENDBRANCH  10  18
ENDBRANCH   1   5
BRANCH   3  26
ATOM     26  C   UNL     1      27.788   8.790  10.002  1.00  0.00     0.162 A 
ATOM     27  N   UNL     1      27.890   7.551   9.456  1.00  0.00    -0.156 NA
ATOM     28  C   UNL     1      26.455   9.102  10.169  1.00  0.00     0.044 A 
ATOM     29  N   UNL     1      26.659   7.079   9.284  1.00  0.00    -0.276 N 
ATOM     30  C   UNL     1      25.782   8.006   9.710  1.00  0.00     0.067 A 
ATOM     31  C   UNL     1      25.795  10.221  10.671  1.00  0.00     0.018 A 
ATOM     32  H   UNL     1      26.436   6.138   8.886  1.00  0.00     0.190 HD
ATOM     33  C   UNL     1      24.393   7.937   9.720  1.00  0.00     0.029 A 
ATOM     34  C   UNL     1      24.382  10.197  10.687  1.00  0.00    -0.043 A 
ATOM     35  C   UNL     1      23.688   9.049  10.218  1.00  0.00     0.006 A 
BRANCH  34  36
ATOM     36  C   UNL     1      23.619  11.362  11.258  1.00  0.00     0.071 C 
BRANCH  36  37
ATOM     37  C   UNL     1      24.465  12.606  11.206  1.00  0.00    -0.038 A 
ATOM     38  C   UNL     1      24.006  13.802  11.789  1.00  0.00     0.043 A 
ATOM     39  C   UNL     1      25.694  12.599  10.526  1.00  0.00     0.043 A 
ATOM     40  C   UNL     1      24.781  14.964  11.714  1.00  0.00     0.126 A 
ATOM     41  C   UNL     1      26.463  13.764  10.449  1.00  0.00     0.126 A 
ATOM     42  F   UNL     1      24.339  16.113  12.287  1.00  0.00    -0.207 F 
ATOM     43  C   UNL     1      26.009  14.944  11.045  1.00  0.00     0.078 A 
ATOM     44  F   UNL     1      27.649  13.752   9.787  1.00  0.00    -0.207 F 
ENDBRANCH  36  37
ENDBRANCH  34  36
ENDBRANCH   3  26
TORSDOF 7
ENDMDL
MODEL 11
REMARK VINA RESULT:   -10.621      3.365      5.961
REMARK INTER + INTRA:         -16.422
REMARK INTER:                 -13.921
REMARK INTRA:                  -2.501
REMARK UNBOUND:                -1.455
REMARK SMILES CN1CCN(c2ccc(C(=O)Nc3n[nH]c4ccc(Cc5cc(F)cc(F)c5)cc34)c(NC3CCOCC3)c2)CC1
REMARK SMILES IDX 10 1 11 2 12 3 9 5 6 6 7 7 39 8 8 9 31 10 5 11 1 12 2 13
REMARK SMILES IDX 3 14 41 15 4 16 40 17 32 18 33 20 34 21 38 22 35 23 37 24
REMARK SMILES IDX 36 25 13 26 14 27 30 28 15 29 16 30 29 31 17 33 19 34 18 35
REMARK SMILES IDX 20 36 21 37 22 38 28 39 23 40 26 41 24 42 25 43 27 44
REMARK H PARENT 12 4 32 19 15 32
REMARK Flexibility Score: inf
ROOT
ATOM      1  C   UNL     1      28.802  10.880  10.449  1.00  0.00     0.258 C 
ATOM      2  O   UNL     1      29.060  11.400  11.571  1.00  0.00    -0.269 OA
ATOM      3  N   UNL     1      27.558  11.166   9.788  1.00  0.00    -0.304 N 
ATOM      4  H   UNL     1      27.425  10.831   8.808  1.00  0.00     0.171 HD
ENDROOT
BRANCH   1   5
ATOM      5  C   UNL     1      29.778   9.948   9.839  1.00  0.00     0.063 A 
ATOM      6  C   UNL     1      31.674   8.077   8.899  1.00  0.00     0.039 A 
ATOM      7  C   UNL     1      30.402   7.655   9.308  1.00  0.00     0.027 A 
ATOM      8  C   UNL     1      31.985   9.441   8.936  1.00  0.00     0.052 A 
ATOM      9  C   UNL     1      29.464   8.580   9.770  1.00  0.00     0.018 A 
ATOM     10  C   UNL     1      31.054  10.386   9.406  1.00  0.00     0.049 A 
BRANCH   6  11
ATOM     11  N   UNL     1      32.667   7.123   8.480  1.00  0.00    -0.369 N 
ATOM     12  C   UNL     1      35.225   4.533   6.350  1.00  0.00     0.105 C 
ATOM     13  N   UNL     1      34.124   5.384   6.838  1.00  0.00    -0.303 NA
ATOM     14  C   UNL     1      34.538   6.814   6.886  1.00  0.00     0.105 C 
ATOM     15  C   UNL     1      33.611   4.872   8.124  1.00  0.00     0.105 C 
ATOM     16  C   UNL     1      34.015   7.580   8.117  1.00  0.00     0.132 C 
ATOM     17  C   UNL     1      32.386   5.685   8.551  1.00  0.00     0.132 C 
ENDBRANCH   6  11
BRANCH  10  18
ATOM     18  N   UNL     1      31.386  11.787   9.407  1.00  0.00    -0.381 N 
ATOM     19  H   UNL     1      30.888  12.414   8.730  1.00  0.00     0.160 HD
BRANCH  18  20
ATOM     20  C   UNL     1      32.294  12.393  10.389  1.00  0.00     0.083 C 
ATOM     21  C   UNL     1      33.716  12.506   9.820  1.00  0.00     0.053 C 
ATOM     22  C   UNL     1      31.791  13.788  10.792  1.00  0.00     0.053 C 
ATOM     23  C   UNL     1      34.607  13.297  10.789  1.00  0.00     0.162 C 
ATOM     24  C   UNL     1      32.829  14.491  11.678  1.00  0.00     0.162 C 
ATOM     25  O   UNL     1      34.078  14.589  11.018  1.00  0.00    -0.381 OA
ENDBRANCH  18  20
ENDBRANCH  10  18
ENDBRANCH   1   5
BRANCH   3  26
ATOM     26  C   UNL     1      26.481  11.889  10.400  1.00  0.00     0.162 A 
ATOM     27  N   UNL     1      25.312  11.337  10.815  1.00  0.00    -0.156 NA
ATOM     28  C   UNL     1      26.455  13.245  10.649  1.00  0.00     0.044 A 
ATOM     29  N   UNL     1      24.559  12.309  11.321  1.00  0.00    -0.276 N 
ATOM     30  C   UNL     1      25.237  13.468  11.227  1.00  0.00     0.067 A 
ATOM     31  C   UNL     1      27.368  14.272  10.426  1.00  0.00     0.018 A 
ATOM     32  H   UNL     1      23.606  12.170  11.725  1.00  0.00     0.190 HD
ATOM     33  C   UNL     1      24.836  14.736  11.635  1.00  0.00     0.029 A 
ATOM     34  C   UNL     1      26.995  15.579  10.813  1.00  0.00    -0.043 A 
ATOM     35  C   UNL     1      25.731  15.803  11.424  1.00  0.00     0.006 A 
BRANCH  34  36
ATOM     36  C   UNL     1      27.960  16.719  10.633  1.00  0.00     0.071 C 
BRANCH  36  37
ATOM     37  C   UNL     1      28.689  16.984  11.924  1.00  0.00    -0.038 A 
ATOM     38  C   UNL     1      28.669  18.267  12.501  1.00  0.00     0.043 A 
ATOM     39  C   UNL     1      29.444  15.967  12.532  1.00  0.00     0.043 A 
ATOM     40  C   UNL     1      29.371  18.517  13.684  1.00  0.00     0.126 A 
ATOM     41  C   UNL     1      30.148  16.222  13.713  1.00  0.00     0.126 A 
ATOM     42  F   UNL     1      29.341  19.754  14.244  1.00  0.00    -0.207 F 
ATOM     43  C   UNL     1      30.109  17.495  14.289  1.00  0.00     0.078 A 
ATOM     44  F   UNL     1      30.878  15.236  14.294  1.00  0.00    -0.207 F 
ENDBRANCH  36  37
ENDBRANCH  34  36
ENDBRANCH   3  26
TORSDOF 7
ENDMDL
MODEL 12
REMARK VINA RESULT:   -10.564      3.387      9.037
REMARK INTER + INTRA:         -16.341
REMARK INTER:                 -14.527
REMARK INTRA:                  -1.814
REMARK UNBOUND:                -1.455
REMARK SMILES CN1CCN(c2ccc(C(=O)Nc3n[nH]c4ccc(Cc5cc(F)cc(F)c5)cc34)c(NC3CCOCC3)c2)CC1
REMARK SMILES IDX 10 1 11 2 12 3 9 5 6 6 7 7 39 8 8 9 31 10 5 11 1 12 2 13
REMARK SMILES IDX 3 14 41 15 4 16 40 17 32 18 33 20 34 21 38 22 35 23 37 24
REMARK SMILES IDX 36 25 13 26 14 27 30 28 15 29 16 30 29 31 17 33 19 34 18 35
REMARK SMILES IDX 20 36 21 37 22 38 28 39 23 40 26 41 24 42 25 43 27 44
REMARK H PARENT 12 4 32 19 15 32
REMARK Flexibility Score: inf
ROOT
ATOM      1  C   UNL     1      29.383  11.709   9.626  1.00  0.00     0.258 C 
ATOM      2  O   UNL     1      29.826  11.692   8.443  1.00  0.00    -0.269 OA
ATOM      3  N   UNL     1      29.524  10.552  10.466  1.00  0.00    -0.304 N 
ATOM      4  H   UNL     1      29.270  10.634  11.476  1.00  0.00     0.171 HD
ENDROOT
BRANCH   1   5
ATOM      5  C   UNL     1      28.691  12.919  10.125  1.00  0.00     0.063 A 
ATOM      6  C   UNL     1      27.434  15.157  11.304  1.00  0.00     0.039 A 
ATOM      7  C   UNL     1      28.832  15.061  11.274  1.00  0.00     0.027 A 
ATOM      8  C   UNL     1      26.668  14.143  10.717  1.00  0.00     0.052 A 
ATOM      9  C   UNL     1      29.453  13.956  10.690  1.00  0.00     0.018 A 
ATOM     10  C   UNL     1      27.278  13.019  10.130  1.00  0.00     0.049 A 
BRANCH   6  11
ATOM     11  N   UNL     1      26.785  16.262  11.959  1.00  0.00    -0.369 N 
ATOM     12  C   UNL     1      24.953  19.920  12.985  1.00  0.00     0.105 C 
ATOM     13  N   UNL     1      25.750  18.828  12.398  1.00  0.00    -0.303 NA
ATOM     14  C   UNL     1      24.871  17.820  11.743  1.00  0.00     0.105 C 
ATOM     15  C   UNL     1      26.658  18.252  13.410  1.00  0.00     0.105 C 
ATOM     16  C   UNL     1      25.320  16.360  11.953  1.00  0.00     0.132 C 
ATOM     17  C   UNL     1      27.570  17.213  12.755  1.00  0.00     0.132 C 
ENDBRANCH   6  11
BRANCH  10  18
ATOM     18  N   UNL     1      26.470  12.004   9.506  1.00  0.00    -0.381 N 
ATOM     19  H   UNL     1      26.461  11.953   8.459  1.00  0.00     0.160 HD
BRANCH  18  20
ATOM     20  C   UNL     1      25.762  10.967  10.267  1.00  0.00     0.083 C 
ATOM     21  C   UNL     1      24.260  11.281  10.349  1.00  0.00     0.053 C 
ATOM     22  C   UNL     1      25.962   9.592   9.610  1.00  0.00     0.053 C 
ATOM     23  C   UNL     1      23.513  10.104  10.993  1.00  0.00     0.162 C 
ATOM     24  C   UNL     1      25.080   8.542  10.298  1.00  0.00     0.162 C 
ATOM     25  O   UNL     1      23.714   8.915  10.252  1.00  0.00    -0.381 OA
ENDBRANCH  18  20
ENDBRANCH  10  18
ENDBRANCH   1   5
BRANCH   3  26
ATOM     26  C   UNL     1      29.995   9.281   9.996  1.00  0.00     0.162 A 
ATOM     27  N   UNL     1      29.214   8.188   9.801  1.00  0.00    -0.156 NA
ATOM     28  C   UNL     1      31.301   8.966   9.685  1.00  0.00     0.044 A 
ATOM     29  N   UNL     1      29.994   7.201   9.371  1.00  0.00    -0.276 N 
ATOM     30  C   UNL     1      31.258   7.657   9.297  1.00  0.00     0.067 A 
ATOM     31  C   UNL     1      32.487   9.694   9.708  1.00  0.00     0.018 A 
ATOM     32  H   UNL     1      29.658   6.241   9.132  1.00  0.00     0.190 HD
ATOM     33  C   UNL     1      32.399   6.971   8.893  1.00  0.00     0.029 A 
ATOM     34  C   UNL     1      33.673   9.031   9.317  1.00  0.00    -0.043 A 
ATOM     35  C   UNL     1      33.620   7.672   8.904  1.00  0.00     0.006 A 
BRANCH  34  36
ATOM     36  C   UNL     1      34.976   9.782   9.283  1.00  0.00     0.071 C 
BRANCH  36  37
ATOM     37  C   UNL     1      34.763  11.203   9.734  1.00  0.00    -0.038 A 
ATOM     38  C   UNL     1      34.877  11.541  11.095  1.00  0.00     0.043 A 
ATOM     39  C   UNL     1      34.393  12.192   8.807  1.00  0.00     0.043 A 
ATOM     40  C   UNL     1      34.652  12.855  11.515  1.00  0.00     0.126 A 
ATOM     41  C   UNL     1      34.164  13.505   9.232  1.00  0.00     0.126 A 
ATOM     42  F   UNL     1      34.773  13.180  12.827  1.00  0.00    -0.207 F 
ATOM     43  C   UNL     1      34.296  13.836  10.583  1.00  0.00     0.078 A 
ATOM     44  F   UNL     1      33.803  14.456   8.333  1.00  0.00    -0.207 F 
ENDBRANCH  36  37
ENDBRANCH  34  36
ENDBRANCH   3  26
TORSDOF 7
ENDMDL
MODEL 13
REMARK VINA RESULT:   -10.350      3.033      6.442
REMARK INTER + INTRA:         -16.040
REMARK INTER:                 -15.166
REMARK INTRA:                  -0.874
REMARK UNBOUND:                -1.455
REMARK SMILES CN1CCN(c2ccc(C(=O)Nc3n[nH]c4ccc(Cc5cc(F)cc(F)c5)cc34)c(NC3CCOCC3)c2)CC1
REMARK SMILES IDX 10 1 11 2 12 3 9 5 6 6 7 7 39 8 8 9 31 10 5 11 1 12 2 13
REMARK SMILES IDX 3 14 41 15 4 16 40 17 32 18 33 20 34 21 38 22 35 23 37 24
REMARK SMILES IDX 36 25 13 26 14 27 30 28 15 29 16 30 29 31 17 33 19 34 18 35
REMARK SMILES IDX 20 36 21 37 22 38 28 39 23 40 26 41 24 42 25 43 27 44
REMARK H PARENT 12 4 32 19 15 32
REMARK Flexibility Score: inf
ROOT
ATOM      1  C   UNL     1      30.479  11.200   9.633  1.00  0.00     0.258 C 
ATOM      2  O   UNL     1      30.280  11.157   8.387  1.00  0.00    -0.269 OA
ATOM      3  N   UNL     1      29.981  10.153  10.482  1.00  0.00    -0.304 N 
ATOM      4  H   UNL     1      30.269  10.144  11.486  1.00  0.00     0.171 HD
ENDROOT
BRANCH   1   5
ATOM      5  C   UNL     1      31.201  12.356  10.214  1.00  0.00     0.063 A 
ATOM      6  C   UNL     1      32.420  14.703  11.203  1.00  0.00     0.039 A 
ATOM      7  C   UNL     1      31.158  14.310  11.666  1.00  0.00     0.027 A 
ATOM      8  C   UNL     1      33.083  13.904  10.264  1.00  0.00     0.052 A 
ATOM      9  C   UNL     1      30.556  13.149  11.179  1.00  0.00     0.018 A 
ATOM     10  C   UNL     1      32.488  12.734   9.758  1.00  0.00     0.049 A 
BRANCH   6  11
ATOM     11  N   UNL     1      33.020  15.932  11.654  1.00  0.00    -0.369 N 
ATOM     12  C   UNL     1      35.300  18.927  13.558  1.00  0.00     0.105 C 
ATOM     13  N   UNL     1      34.553  17.714  13.178  1.00  0.00    -0.303 NA
ATOM     14  C   UNL     1      35.213  17.017  12.039  1.00  0.00     0.105 C 
ATOM     15  C   UNL     1      33.135  18.040  12.929  1.00  0.00     0.105 C 
ATOM     16  C   UNL     1      34.233  16.438  11.000  1.00  0.00     0.132 C 
ATOM     17  C   UNL     1      32.347  16.755  12.665  1.00  0.00     0.132 C 
ENDBRANCH   6  11
BRANCH  10  18
ATOM     18  N   UNL     1      33.201  11.912   8.815  1.00  0.00    -0.381 N 
ATOM     19  H   UNL     1      33.208  12.206   7.809  1.00  0.00     0.160 HD
BRANCH  18  20
ATOM     20  C   UNL     1      34.015  10.757   9.217  1.00  0.00     0.083 C 
ATOM     21  C   UNL     1      33.456   9.460   8.611  1.00  0.00     0.053 C 
ATOM     22  C   UNL     1      35.471  10.948   8.766  1.00  0.00     0.053 C 
ATOM     23  C   UNL     1      34.414   8.294   8.897  1.00  0.00     0.162 C 
ATOM     24  C   UNL     1      36.278   9.668   9.025  1.00  0.00     0.162 C 
ATOM     25  O   UNL     1      35.699   8.558   8.364  1.00  0.00    -0.381 OA
ENDBRANCH  18  20
ENDBRANCH  10  18
ENDBRANCH   1   5
BRANCH   3  26
ATOM     26  C   UNL     1      29.103   9.113  10.028  1.00  0.00     0.162 A 
ATOM     27  N   UNL     1      29.508   7.932   9.495  1.00  0.00    -0.156 NA
ATOM     28  C   UNL     1      27.724   9.152  10.046  1.00  0.00     0.044 A 
ATOM     29  N   UNL     1      28.422   7.230   9.185  1.00  0.00    -0.276 N 
ATOM     30  C   UNL     1      27.337   7.956   9.512  1.00  0.00     0.067 A 
ATOM     31  C   UNL     1      26.804  10.106  10.472  1.00  0.00     0.018 A 
ATOM     32  H   UNL     1      28.435   6.274   8.764  1.00  0.00     0.190 HD
ATOM     33  C   UNL     1      25.996   7.613   9.368  1.00  0.00     0.029 A 
ATOM     34  C   UNL     1      25.431   9.803  10.331  1.00  0.00    -0.043 A 
ATOM     35  C   UNL     1      25.034   8.552   9.785  1.00  0.00     0.006 A 
BRANCH  34  36
ATOM     36  C   UNL     1      24.394  10.779  10.815  1.00  0.00     0.071 C 
BRANCH  36  37
ATOM     37  C   UNL     1      24.972  12.170  10.849  1.00  0.00    -0.038 A 
ATOM     38  C   UNL     1      26.251  12.421  10.320  1.00  0.00     0.043 A 
ATOM     39  C   UNL     1      24.262  13.217  11.460  1.00  0.00     0.043 A 
ATOM     40  C   UNL     1      26.797  13.706  10.378  1.00  0.00     0.126 A 
ATOM     41  C   UNL     1      24.813  14.500  11.521  1.00  0.00     0.126 A 
ATOM     42  F   UNL     1      28.027  13.947   9.858  1.00  0.00    -0.207 F 
ATOM     43  C   UNL     1      26.077  14.745  10.978  1.00  0.00     0.078 A 
ATOM     44  F   UNL     1      24.124  15.507  12.116  1.00  0.00    -0.207 F 
ENDBRANCH  36  37
ENDBRANCH  34  36
ENDBRANCH   3  26
TORSDOF 7
ENDMDL
MODEL 14
REMARK VINA RESULT:   -10.330      3.358      6.834
REMARK INTER + INTRA:         -16.011
REMARK INTER:                 -13.499
REMARK INTRA:                  -2.512
REMARK UNBOUND:                -1.455
REMARK SMILES CN1CCN(c2ccc(C(=O)Nc3n[nH]c4ccc(Cc5cc(F)cc(F)c5)cc34)c(NC3CCOCC3)c2)CC1
REMARK SMILES IDX 10 1 11 2 12 3 9 5 6 6 7 7 39 8 8 9 31 10 5 11 1 12 2 13
REMARK SMILES IDX 3 14 41 15 4 16 40 17 32 18 33 20 34 21 38 22 35 23 37 24
REMARK SMILES IDX 36 25 13 26 14 27 30 28 15 29 16 30 29 31 17 33 19 34 18 35
REMARK SMILES IDX 20 36 21 37 22 38 28 39 23 40 26 41 24 42 25 43 27 44
REMARK H PARENT 12 4 32 19 15 32
REMARK Flexibility Score: inf
ROOT
ATOM      1  C   UNL     1      31.509  13.980  11.169  1.00  0.00     0.258 C 
ATOM      2  O   UNL     1      30.611  13.712  12.015  1.00  0.00    -0.269 OA
ATOM      3  N   UNL     1      31.967  12.970  10.255  1.00  0.00    -0.304 N 
ATOM      4  H   UNL     1      32.611  13.249   9.483  1.00  0.00     0.171 HD
ENDROOT
BRANCH   1   5
ATOM      5  C   UNL     1      32.108  15.335  11.150  1.00  0.00     0.063 A 
ATOM      6  C   UNL     1      33.248  17.910  11.358  1.00  0.00     0.039 A 
ATOM      7  C   UNL     1      33.998  16.773  11.686  1.00  0.00     0.027 A 
ATOM      8  C   UNL     1      31.935  17.753  10.899  1.00  0.00     0.052 A 
ATOM      9  C   UNL     1      33.436  15.500  11.581  1.00  0.00     0.018 A 
ATOM     10  C   UNL     1      31.350  16.477  10.794  1.00  0.00     0.049 A 
BRANCH   6  11
ATOM     11  N   UNL     1      33.801  19.229  11.522  1.00  0.00    -0.369 N 
ATOM     12  C   UNL     1      35.320  22.890  12.965  1.00  0.00     0.105 C 
ATOM     13  N   UNL     1      34.617  21.612  12.747  1.00  0.00    -0.303 NA
ATOM     14  C   UNL     1      35.579  20.475  12.714  1.00  0.00     0.105 C 
ATOM     15  C   UNL     1      33.758  21.695  11.550  1.00  0.00     0.105 C 
ATOM     16  C   UNL     1      35.253  19.404  11.654  1.00  0.00     0.132 C 
ATOM     17  C   UNL     1      32.937  20.411  11.412  1.00  0.00     0.132 C 
ENDBRANCH   6  11
BRANCH  10  18
ATOM     18  N   UNL     1      30.008  16.339  10.291  1.00  0.00    -0.381 N 
ATOM     19  H   UNL     1      29.844  15.674   9.497  1.00  0.00     0.160 HD
BRANCH  18  20
ATOM     20  C   UNL     1      28.849  16.988  10.916  1.00  0.00     0.083 C 
ATOM     21  C   UNL     1      27.540  16.338  10.444  1.00  0.00     0.053 C 
ATOM     22  C   UNL     1      28.945  16.894  12.447  1.00  0.00     0.053 C 
ATOM     23  C   UNL     1      26.355  16.911  11.236  1.00  0.00     0.162 C 
ATOM     24  C   UNL     1      27.652  17.411  13.092  1.00  0.00     0.162 C 
ATOM     25  O   UNL     1      26.526  16.692  12.624  1.00  0.00    -0.381 OA
ENDBRANCH  18  20
ENDBRANCH  10  18
ENDBRANCH   1   5
BRANCH   3  26
ATOM     26  C   UNL     1      31.587  11.589  10.343  1.00  0.00     0.162 A 
ATOM     27  N   UNL     1      32.384  10.593  10.807  1.00  0.00    -0.156 NA
ATOM     28  C   UNL     1      30.374  11.056   9.962  1.00  0.00     0.044 A 
ATOM     29  N   UNL     1      31.701   9.455  10.732  1.00  0.00    -0.276 N 
ATOM     30  C   UNL     1      30.484   9.720  10.222  1.00  0.00     0.067 A 
ATOM     31  C   UNL     1      29.216  11.613   9.425  1.00  0.00     0.018 A 
ATOM     32  H   UNL     1      32.068   8.523  11.031  1.00  0.00     0.190 HD
ATOM     33  C   UNL     1      29.443   8.832   9.973  1.00  0.00     0.029 A 
ATOM     34  C   UNL     1      28.138  10.744   9.144  1.00  0.00    -0.043 A 
ATOM     35  C   UNL     1      28.255   9.356   9.428  1.00  0.00     0.006 A 
BRANCH  34  36
ATOM     36  C   UNL     1      26.848  11.299   8.603  1.00  0.00     0.071 C 
BRANCH  36  37
ATOM     37  C   UNL     1      25.863  11.498   9.724  1.00  0.00    -0.038 A 
ATOM     38  C   UNL     1      24.946  10.484  10.054  1.00  0.00     0.043 A 
ATOM     39  C   UNL     1      25.814  12.722  10.414  1.00  0.00     0.043 A 
ATOM     40  C   UNL     1      24.014  10.682  11.076  1.00  0.00     0.126 A 
ATOM     41  C   UNL     1      24.876  12.919  11.432  1.00  0.00     0.126 A 
ATOM     42  F   UNL     1      23.137   9.697  11.398  1.00  0.00    -0.207 F 
ATOM     43  C   UNL     1      23.980  11.899  11.765  1.00  0.00     0.078 A 
ATOM     44  F   UNL     1      24.831  14.104  12.093  1.00  0.00    -0.207 F 
ENDBRANCH  36  37
ENDBRANCH  34  36
ENDBRANCH   3  26
TORSDOF 7
ENDMDL
MODEL 15
REMARK VINA RESULT:   -10.281      3.096      6.251
REMARK INTER + INTRA:         -15.943
REMARK INTER:                 -14.695
REMARK INTRA:                  -1.248
REMARK UNBOUND:                -1.455
REMARK SMILES CN1CCN(c2ccc(C(=O)Nc3n[nH]c4ccc(Cc5cc(F)cc(F)c5)cc34)c(NC3CCOCC3)c2)CC1
REMARK SMILES IDX 10 1 11 2 12 3 9 5 6 6 7 7 39 8 8 9 31 10 5 11 1 12 2 13
REMARK SMILES IDX 3 14 41 15 4 16 40 17 32 18 33 20 34 21 38 22 35 23 37 24
REMARK SMILES IDX 36 25 13 26 14 27 30 28 15 29 16 30 29 31 17 33 19 34 18 35
REMARK SMILES IDX 20 36 21 37 22 38 28 39 23 40 26 41 24 42 25 43 27 44
REMARK H PARENT 12 4 32 19 15 32
REMARK Flexibility Score: inf
ROOT
ATOM      1  C   UNL     1      32.897  12.134   9.787  1.00  0.00     0.258 C 
ATOM      2  O   UNL     1      32.846  11.990   8.533  1.00  0.00    -0.269 OA
ATOM      3  N   UNL     1      32.440  11.085  10.655  1.00  0.00    -0.304 N 
ATOM      4  H   UNL     1      32.613  11.174  11.681  1.00  0.00     0.171 HD
ENDROOT
BRANCH   1   5
ATOM      5  C   UNL     1      33.403  13.407  10.351  1.00  0.00     0.063 A 
ATOM      6  C   UNL     1      34.507  15.700  11.575  1.00  0.00     0.039 A 
ATOM      7  C   UNL     1      35.286  14.906  10.722  1.00  0.00     0.027 A 
ATOM      8  C   UNL     1      33.167  15.359  11.791  1.00  0.00     0.052 A 
ATOM      9  C   UNL     1      34.739  13.774  10.116  1.00  0.00     0.018 A 
ATOM     10  C   UNL     1      32.602  14.218  11.192  1.00  0.00     0.049 A 
BRANCH   6  11
ATOM     11  N   UNL     1      35.080  16.833  12.253  1.00  0.00    -0.369 N 
ATOM     12  C   UNL     1      36.966  19.485  14.937  1.00  0.00     0.105 C 
ATOM     13  N   UNL     1      36.233  18.389  14.277  1.00  0.00    -0.303 NA
ATOM     14  C   UNL     1      37.139  17.597  13.399  1.00  0.00     0.105 C 
ATOM     15  C   UNL     1      35.042  18.912  13.580  1.00  0.00     0.105 C 
ATOM     16  C   UNL     1      36.500  17.158  12.067  1.00  0.00     0.132 C 
ATOM     17  C   UNL     1      34.223  17.751  13.013  1.00  0.00     0.132 C 
ENDBRANCH   6  11
BRANCH  10  18
ATOM     18  N   UNL     1      31.214  13.904  11.406  1.00  0.00    -0.381 N 
ATOM     19  H   UNL     1      30.979  12.999  11.881  1.00  0.00     0.160 HD
BRANCH  18  20
ATOM     20  C   UNL     1      30.126  14.842  11.101  1.00  0.00     0.083 C 
ATOM     21  C   UNL     1      28.832  14.085  10.765  1.00  0.00     0.053 C 
ATOM     22  C   UNL     1      29.877  15.777  12.294  1.00  0.00     0.053 C 
ATOM     23  C   UNL     1      27.668  15.077  10.620  1.00  0.00     0.162 C 
ATOM     24  C   UNL     1      28.628  16.634  12.045  1.00  0.00     0.162 C 
ATOM     25  O   UNL     1      27.492  15.822  11.811  1.00  0.00    -0.381 OA
ENDBRANCH  18  20
ENDBRANCH  10  18
ENDBRANCH   1   5
BRANCH   3  26
ATOM     26  C   UNL     1      31.752   9.914  10.192  1.00  0.00     0.162 A 
ATOM     27  N   UNL     1      32.290   8.669  10.137  1.00  0.00    -0.156 NA
ATOM     28  C   UNL     1      30.457   9.869   9.720  1.00  0.00     0.044 A 
ATOM     29  N   UNL     1      31.366   7.846   9.650  1.00  0.00    -0.276 N 
ATOM     30  C   UNL     1      30.253   8.558   9.393  1.00  0.00     0.067 A 
ATOM     31  C   UNL     1      29.470  10.836   9.554  1.00  0.00     0.018 A 
ATOM     32  H   UNL     1      31.502   6.820   9.506  1.00  0.00     0.190 HD
ATOM     33  C   UNL     1      29.042   8.107   8.879  1.00  0.00     0.029 A 
ATOM     34  C   UNL     1      28.227  10.423   9.022  1.00  0.00    -0.043 A 
ATOM     35  C   UNL     1      28.017   9.056   8.695  1.00  0.00     0.006 A 
BRANCH  34  36
ATOM     36  C   UNL     1      27.111  11.419   8.862  1.00  0.00     0.071 C 
BRANCH  36  37
ATOM     37  C   UNL     1      25.925  11.000   9.690  1.00  0.00    -0.038 A 
ATOM     38  C   UNL     1      25.477   9.667   9.668  1.00  0.00     0.043 A 
ATOM     39  C   UNL     1      25.221  11.950  10.449  1.00  0.00     0.043 A 
ATOM     40  C   UNL     1      24.359   9.287  10.416  1.00  0.00     0.126 A 
ATOM     41  C   UNL     1      24.100  11.568  11.192  1.00  0.00     0.126 A 
ATOM     42  F   UNL     1      23.936   7.998  10.399  1.00  0.00    -0.207 F 
ATOM     43  C   UNL     1      23.672  10.238  11.178  1.00  0.00     0.078 A 
ATOM     44  F   UNL     1      23.422  12.491  11.921  1.00  0.00    -0.207 F 
ENDBRANCH  36  37
ENDBRANCH  34  36
ENDBRANCH   3  26
TORSDOF 7
ENDMDL
