MODEL 1
REMARK VINA RESULT:    -9.382      0.000      0.000
REMARK INTER + INTRA:         -13.620
REMARK INTER:                 -13.222
REMARK INTRA:                  -0.399
REMARK UNBOUND:                -0.399
REMARK SMILES N#CCNC(=O)c1ccc(-c2ccnc(Nc3ccc(N4CCOCC4)cc3)n2)cc1
REMARK SMILES IDX 7 1 8 2 9 3 10 4 30 5 31 6 5 7 6 8 4 9 3 11 2 12 1 13 11 14
REMARK SMILES IDX 12 15 29 16 13 17 15 18 14 19 16 20 17 22 18 23 28 24 19 25
REMARK SMILES IDX 27 26 20 27 21 28 22 29 26 30 23 31 25 32 24 33
REMARK H PARENT 4 10 16 21
REMARK Flexibility Score: inf
ROOT
ATOM      1  C   UNL     1      19.755  25.640  39.898  1.00  0.00     0.039 A 
ATOM      2  C   UNL     1      19.834  24.262  39.636  1.00  0.00     0.014 A 
ATOM      3  C   UNL     1      21.016  23.695  39.151  1.00  0.00     0.011 A 
ATOM      4  C   UNL     1      22.150  24.494  38.918  1.00  0.00     0.000 A 
ATOM      5  C   UNL     1      22.076  25.869  39.204  1.00  0.00     0.011 A 
ATOM      6  C   UNL     1      20.894  26.436  39.685  1.00  0.00     0.014 A 
ENDROOT
BRANCH   1   7
ATOM      7  C   UNL     1      18.499  26.226  40.422  1.00  0.00     0.252 C 
ATOM      8  O   UNL     1      18.443  27.464  40.652  1.00  0.00    -0.269 OA
ATOM      9  N   UNL     1      17.350  25.403  40.682  1.00  0.00    -0.339 N 
ATOM     10  H   UNL     1      17.454  24.363  40.716  1.00  0.00     0.164 HD
BRANCH   9  11
ATOM     11  C   UNL     1      16.046  25.968  41.020  1.00  0.00     0.237 C 
BRANCH  11  12
ATOM     12  C   UNL     1      15.083  25.686  39.951  1.00  0.00     0.084 C 
ATOM     13  N   UNL     1      14.322  25.463  39.107  1.00  0.00    -0.196 NA
ENDBRANCH  11  12
ENDBRANCH   9  11
ENDBRANCH   1   7
BRANCH   4  14
ATOM     14  C   UNL     1      23.422  23.912  38.416  1.00  0.00     0.076 A 
ATOM     15  C   UNL     1      24.341  23.281  39.269  1.00  0.00     0.049 A 
ATOM     16  N   UNL     1      23.702  23.973  37.085  1.00  0.00    -0.213 NA
ATOM     17  C   UNL     1      25.509  22.749  38.723  1.00  0.00     0.117 A 
ATOM     18  C   UNL     1      24.850  23.461  36.567  1.00  0.00     0.227 A 
ATOM     19  N   UNL     1      25.739  22.845  37.389  1.00  0.00    -0.221 NA
BRANCH  18  20
ATOM     20  N   UNL     1      25.104  23.515  35.157  1.00  0.00    -0.324 N 
ATOM     21  H   UNL     1      24.798  24.372  34.642  1.00  0.00     0.170 HD
BRANCH  20  22
ATOM     22  C   UNL     1      25.863  22.526  34.440  1.00  0.00     0.041 A 
ATOM     23  C   UNL     1      26.588  22.906  33.302  1.00  0.00     0.028 A 
ATOM     24  C   UNL     1      25.851  21.175  34.825  1.00  0.00     0.028 A 
ATOM     25  C   UNL     1      27.321  21.959  32.581  1.00  0.00     0.028 A 
ATOM     26  C   UNL     1      26.581  20.228  34.103  1.00  0.00     0.028 A 
ATOM     27  C   UNL     1      27.323  20.611  32.973  1.00  0.00     0.037 A 
BRANCH  27  28
ATOM     28  N   UNL     1      28.078  19.638  32.224  1.00  0.00    -0.367 N 
ATOM     29  C   UNL     1      28.752  20.022  30.980  1.00  0.00     0.145 C 
ATOM     30  C   UNL     1      28.500  18.388  32.865  1.00  0.00     0.145 C 
ATOM     31  C   UNL     1      28.890  18.800  30.067  1.00  0.00     0.181 C 
ATOM     32  C   UNL     1      28.650  17.291  31.807  1.00  0.00     0.181 C 
ATOM     33  O   UNL     1      29.494  17.722  30.756  1.00  0.00    -0.378 OA
ENDBRANCH  27  28
ENDBRANCH  20  22
ENDBRANCH  18  20
ENDBRANCH   4  14
TORSDOF 7
ENDMDL
MODEL 2
REMARK VINA RESULT:    -9.352      3.413     13.402
REMARK INTER + INTRA:         -13.577
REMARK INTER:                 -13.115
REMARK INTRA:                  -0.462
REMARK UNBOUND:                -0.399
REMARK SMILES N#CCNC(=O)c1ccc(-c2ccnc(Nc3ccc(N4CCOCC4)cc3)n2)cc1
REMARK SMILES IDX 7 1 8 2 9 3 10 4 30 5 31 6 5 7 6 8 4 9 3 11 2 12 1 13 11 14
REMARK SMILES IDX 12 15 29 16 13 17 15 18 14 19 16 20 17 22 18 23 28 24 19 25
REMARK SMILES IDX 27 26 20 27 21 28 22 29 26 30 23 31 25 32 24 33
REMARK H PARENT 4 10 16 21
REMARK Flexibility Score: inf
ROOT
ATOM      1  C   UNL     1      23.601  23.779  38.255  1.00  0.00     0.039 A 
ATOM      2  C   UNL     1      23.218  23.598  39.594  1.00  0.00     0.014 A 
ATOM      3  C   UNL     1      22.123  24.289  40.122  1.00  0.00     0.011 A 
ATOM      4  C   UNL     1      21.383  25.177  39.320  1.00  0.00     0.000 A 
ATOM      5  C   UNL     1      21.754  25.338  37.974  1.00  0.00     0.011 A 
ATOM      6  C   UNL     1      22.850  24.650  37.447  1.00  0.00     0.014 A 
ENDROOT
BRANCH   1   7
ATOM      7  C   UNL     1      24.757  23.033  37.705  1.00  0.00     0.252 C 
ATOM      8  O   UNL     1      25.544  22.441  38.492  1.00  0.00    -0.269 OA
ATOM      9  N   UNL     1      25.001  22.984  36.289  1.00  0.00    -0.339 N 
ATOM     10  H   UNL     1      24.502  23.648  35.654  1.00  0.00     0.164 HD
BRANCH   9  11
ATOM     11  C   UNL     1      26.014  22.111  35.701  1.00  0.00     0.237 C 
BRANCH  11  12
ATOM     12  C   UNL     1      25.998  22.233  34.240  1.00  0.00     0.084 C 
ATOM     13  N   UNL     1      25.986  22.329  33.087  1.00  0.00    -0.196 NA
ENDBRANCH  11  12
ENDBRANCH   9  11
ENDBRANCH   1   7
BRANCH   4  14
ATOM     14  C   UNL     1      20.207  25.911  39.855  1.00  0.00     0.076 A 
ATOM     15  C   UNL     1      20.220  27.302  40.045  1.00  0.00     0.049 A 
ATOM     16  N   UNL     1      19.072  25.222  40.152  1.00  0.00    -0.213 NA
ATOM     17  C   UNL     1      19.074  27.922  40.541  1.00  0.00     0.117 A 
ATOM     18  C   UNL     1      17.965  25.837  40.646  1.00  0.00     0.227 A 
ATOM     19  N   UNL     1      17.972  27.184  40.827  1.00  0.00    -0.221 NA
BRANCH  18  20
ATOM     20  N   UNL     1      16.773  25.089  40.924  1.00  0.00    -0.324 N 
ATOM     21  H   UNL     1      16.884  24.156  41.384  1.00  0.00     0.170 HD
BRANCH  20  22
ATOM     22  C   UNL     1      15.443  25.597  40.728  1.00  0.00     0.041 A 
ATOM     23  C   UNL     1      14.942  26.574  41.599  1.00  0.00     0.028 A 
ATOM     24  C   UNL     1      14.612  25.096  39.711  1.00  0.00     0.028 A 
ATOM     25  C   UNL     1      13.646  27.072  41.436  1.00  0.00     0.028 A 
ATOM     26  C   UNL     1      13.315  25.591  39.550  1.00  0.00     0.028 A 
ATOM     27  C   UNL     1      12.820  26.585  40.412  1.00  0.00     0.037 A 
BRANCH  27  28
ATOM     28  N   UNL     1      11.483  27.099  40.250  1.00  0.00    -0.367 N 
ATOM     29  C   UNL     1      10.720  26.805  39.033  1.00  0.00     0.145 C 
ATOM     30  C   UNL     1      10.738  27.577  41.420  1.00  0.00     0.145 C 
ATOM     31  C   UNL     1       9.699  27.920  38.781  1.00  0.00     0.181 C 
ATOM     32  C   UNL     1       9.721  28.636  40.983  1.00  0.00     0.181 C 
ATOM     33  O   UNL     1       8.908  28.148  39.932  1.00  0.00    -0.378 OA
ENDBRANCH  27  28
ENDBRANCH  20  22
ENDBRANCH  18  20
ENDBRANCH   4  14
TORSDOF 7
ENDMDL
MODEL 3
REMARK VINA RESULT:    -9.166      6.631     12.286
REMARK INTER + INTRA:         -13.316
REMARK INTER:                 -13.013
REMARK INTRA:                  -0.302
REMARK UNBOUND:                -0.399
REMARK SMILES N#CCNC(=O)c1ccc(-c2ccnc(Nc3ccc(N4CCOCC4)cc3)n2)cc1
REMARK SMILES IDX 7 1 8 2 9 3 10 4 30 5 31 6 5 7 6 8 4 9 3 11 2 12 1 13 11 14
REMARK SMILES IDX 12 15 29 16 13 17 15 18 14 19 16 20 17 22 18 23 28 24 19 25
REMARK SMILES IDX 27 26 20 27 21 28 22 29 26 30 23 31 25 32 24 33
REMARK H PARENT 4 10 16 21
REMARK Flexibility Score: inf
ROOT
ATOM      1  C   UNL     1      19.416  26.367  40.184  1.00  0.00     0.039 A 
ATOM      2  C   UNL     1      19.092  27.719  40.382  1.00  0.00     0.014 A 
ATOM      3  C   UNL     1      17.801  28.094  40.768  1.00  0.00     0.011 A 
ATOM      4  C   UNL     1      16.804  27.123  40.967  1.00  0.00     0.000 A 
ATOM      5  C   UNL     1      17.137  25.768  40.793  1.00  0.00     0.011 A 
ATOM      6  C   UNL     1      18.426  25.394  40.404  1.00  0.00     0.014 A 
ENDROOT
BRANCH   1   7
ATOM      7  C   UNL     1      20.790  25.982  39.786  1.00  0.00     0.252 C 
ATOM      8  O   UNL     1      21.678  26.872  39.684  1.00  0.00    -0.269 OA
ATOM      9  N   UNL     1      21.123  24.613  39.501  1.00  0.00    -0.339 N 
ATOM     10  H   UNL     1      20.360  23.913  39.357  1.00  0.00     0.164 HD
BRANCH   9  11
ATOM     11  C   UNL     1      22.500  24.172  39.288  1.00  0.00     0.237 C 
BRANCH  11  12
ATOM     12  C   UNL     1      23.117  23.811  40.568  1.00  0.00     0.084 C 
ATOM     13  N   UNL     1      23.604  23.526  41.579  1.00  0.00    -0.196 NA
ENDBRANCH  11  12
ENDBRANCH   9  11
ENDBRANCH   1   7
BRANCH   4  14
ATOM     14  C   UNL     1      15.429  27.495  41.391  1.00  0.00     0.076 A 
ATOM     15  C   UNL     1      15.146  28.724  42.010  1.00  0.00     0.049 A 
ATOM     16  N   UNL     1      14.404  26.631  41.157  1.00  0.00    -0.213 NA
ATOM     17  C   UNL     1      13.830  29.007  42.370  1.00  0.00     0.117 A 
ATOM     18  C   UNL     1      13.126  26.914  41.524  1.00  0.00     0.227 A 
ATOM     19  N   UNL     1      12.848  28.104  42.118  1.00  0.00    -0.221 NA
BRANCH  18  20
ATOM     20  N   UNL     1      12.061  25.996  41.239  1.00  0.00    -0.324 N 
ATOM     21  H   UNL     1      11.088  26.295  41.476  1.00  0.00     0.170 HD
BRANCH  20  22
ATOM     22  C   UNL     1      12.239  24.755  40.535  1.00  0.00     0.041 A 
ATOM     23  C   UNL     1      13.283  24.632  39.608  1.00  0.00     0.028 A 
ATOM     24  C   UNL     1      11.355  23.678  40.718  1.00  0.00     0.028 A 
ATOM     25  C   UNL     1      13.466  23.439  38.902  1.00  0.00     0.028 A 
ATOM     26  C   UNL     1      11.536  22.487  40.010  1.00  0.00     0.028 A 
ATOM     27  C   UNL     1      12.594  22.357  39.095  1.00  0.00     0.037 A 
BRANCH  27  28
ATOM     28  N   UNL     1      12.785  21.131  38.361  1.00  0.00    -0.367 N 
ATOM     29  C   UNL     1      11.641  20.267  38.053  1.00  0.00     0.145 C 
ATOM     30  C   UNL     1      14.018  20.922  37.594  1.00  0.00     0.145 C 
ATOM     31  C   UNL     1      12.112  18.817  37.903  1.00  0.00     0.181 C 
ATOM     32  C   UNL     1      14.308  19.422  37.485  1.00  0.00     0.181 C 
ATOM     33  O   UNL     1      13.182  18.729  36.981  1.00  0.00    -0.378 OA
ENDBRANCH  27  28
ENDBRANCH  20  22
ENDBRANCH  18  20
ENDBRANCH   4  14
TORSDOF 7
ENDMDL
MODEL 4
REMARK VINA RESULT:    -9.090      6.172     10.340
REMARK INTER + INTRA:         -13.209
REMARK INTER:                 -12.971
REMARK INTRA:                  -0.238
REMARK UNBOUND:                -0.399
REMARK SMILES N#CCNC(=O)c1ccc(-c2ccnc(Nc3ccc(N4CCOCC4)cc3)n2)cc1
REMARK SMILES IDX 7 1 8 2 9 3 10 4 30 5 31 6 5 7 6 8 4 9 3 11 2 12 1 13 11 14
REMARK SMILES IDX 12 15 29 16 13 17 15 18 14 19 16 20 17 22 18 23 28 24 19 25
REMARK SMILES IDX 27 26 20 27 21 28 22 29 26 30 23 31 25 32 24 33
REMARK H PARENT 4 10 16 21
REMARK Flexibility Score: inf
ROOT
ATOM      1  C   UNL     1      12.405  23.232  39.322  1.00  0.00     0.039 A 
ATOM      2  C   UNL     1      11.567  24.047  40.101  1.00  0.00     0.014 A 
ATOM      3  C   UNL     1      12.060  25.208  40.702  1.00  0.00     0.011 A 
ATOM      4  C   UNL     1      13.405  25.584  40.535  1.00  0.00     0.000 A 
ATOM      5  C   UNL     1      14.236  24.780  39.735  1.00  0.00     0.011 A 
ATOM      6  C   UNL     1      13.744  23.617  39.137  1.00  0.00     0.014 A 
ENDROOT
BRANCH   1   7
ATOM      7  C   UNL     1      11.867  22.009  38.681  1.00  0.00     0.252 C 
ATOM      8  O   UNL     1      10.780  22.070  38.044  1.00  0.00    -0.269 OA
ATOM      9  N   UNL     1      12.558  20.752  38.786  1.00  0.00    -0.339 N 
ATOM     10  H   UNL     1      13.321  20.638  39.491  1.00  0.00     0.164 HD
BRANCH   9  11
ATOM     11  C   UNL     1      12.158  19.575  38.018  1.00  0.00     0.237 C 
BRANCH  11  12
ATOM     12  C   UNL     1      12.656  19.679  36.643  1.00  0.00     0.084 C 
ATOM     13  N   UNL     1      13.048  19.760  35.557  1.00  0.00    -0.196 NA
ENDBRANCH  11  12
ENDBRANCH   9  11
ENDBRANCH   1   7
BRANCH   4  14
ATOM     14  C   UNL     1      13.949  26.822  41.152  1.00  0.00     0.076 A 
ATOM     15  C   UNL     1      13.139  27.715  41.871  1.00  0.00     0.049 A 
ATOM     16  N   UNL     1      15.278  27.093  41.037  1.00  0.00    -0.213 NA
ATOM     17  C   UNL     1      13.724  28.851  42.431  1.00  0.00     0.117 A 
ATOM     18  C   UNL     1      15.833  28.210  41.578  1.00  0.00     0.227 A 
ATOM     19  N   UNL     1      15.053  29.075  42.278  1.00  0.00    -0.221 NA
BRANCH  18  20
ATOM     20  N   UNL     1      17.242  28.456  41.464  1.00  0.00    -0.324 N 
ATOM     21  H   UNL     1      17.619  29.324  41.910  1.00  0.00     0.170 HD
BRANCH  20  22
ATOM     22  C   UNL     1      18.175  27.525  40.892  1.00  0.00     0.041 A 
ATOM     23  C   UNL     1      17.862  26.159  40.873  1.00  0.00     0.028 A 
ATOM     24  C   UNL     1      19.421  27.949  40.397  1.00  0.00     0.028 A 
ATOM     25  C   UNL     1      18.761  25.234  40.334  1.00  0.00     0.028 A 
ATOM     26  C   UNL     1      20.320  27.024  39.862  1.00  0.00     0.028 A 
ATOM     27  C   UNL     1      19.999  25.656  39.825  1.00  0.00     0.037 A 
BRANCH  27  28
ATOM     28  N   UNL     1      20.923  24.698  39.274  1.00  0.00    -0.367 N 
ATOM     29  C   UNL     1      20.682  24.112  37.953  1.00  0.00     0.145 C 
ATOM     30  C   UNL     1      22.277  24.587  39.828  1.00  0.00     0.145 C 
ATOM     31  C   UNL     1      21.340  22.731  37.870  1.00  0.00     0.181 C 
ATOM     32  C   UNL     1      22.809  23.168  39.606  1.00  0.00     0.181 C 
ATOM     33  O   UNL     1      22.703  22.799  38.244  1.00  0.00    -0.378 OA
ENDBRANCH  27  28
ENDBRANCH  20  22
ENDBRANCH  18  20
ENDBRANCH   4  14
TORSDOF 7
ENDMDL
MODEL 5
REMARK VINA RESULT:    -9.076      5.763     12.253
REMARK INTER + INTRA:         -13.189
REMARK INTER:                 -12.891
REMARK INTRA:                  -0.297
REMARK UNBOUND:                -0.399
REMARK SMILES N#CCNC(=O)c1ccc(-c2ccnc(Nc3ccc(N4CCOCC4)cc3)n2)cc1
REMARK SMILES IDX 7 1 8 2 9 3 10 4 30 5 31 6 5 7 6 8 4 9 3 11 2 12 1 13 11 14
REMARK SMILES IDX 12 15 29 16 13 17 15 18 14 19 16 20 17 22 18 23 28 24 19 25
REMARK SMILES IDX 27 26 20 27 21 28 22 29 26 30 23 31 25 32 24 33
REMARK H PARENT 4 10 16 21
REMARK Flexibility Score: inf
ROOT
ATOM      1  C   UNL     1      19.562  26.318  40.206  1.00  0.00     0.039 A 
ATOM      2  C   UNL     1      19.263  27.669  40.450  1.00  0.00     0.014 A 
ATOM      3  C   UNL     1      17.976  28.055  40.838  1.00  0.00     0.011 A 
ATOM      4  C   UNL     1      16.958  27.098  40.992  1.00  0.00     0.000 A 
ATOM      5  C   UNL     1      17.266  25.744  40.770  1.00  0.00     0.011 A 
ATOM      6  C   UNL     1      18.550  25.358  40.380  1.00  0.00     0.014 A 
ENDROOT
BRANCH   1   7
ATOM      7  C   UNL     1      20.932  25.921  39.806  1.00  0.00     0.252 C 
ATOM      8  O   UNL     1      21.758  26.808  39.458  1.00  0.00    -0.269 OA
ATOM      9  N   UNL     1      21.330  24.539  39.798  1.00  0.00    -0.339 N 
ATOM     10  H   UNL     1      20.604  23.791  39.859  1.00  0.00     0.164 HD
BRANCH   9  11
ATOM     11  C   UNL     1      22.717  24.128  39.591  1.00  0.00     0.237 C 
BRANCH  11  12
ATOM     12  C   UNL     1      22.898  23.640  38.221  1.00  0.00     0.084 C 
ATOM     13  N   UNL     1      23.042  23.254  37.139  1.00  0.00    -0.196 NA
ENDBRANCH  11  12
ENDBRANCH   9  11
ENDBRANCH   1   7
BRANCH   4  14
ATOM     14  C   UNL     1      15.587  27.482  41.417  1.00  0.00     0.076 A 
ATOM     15  C   UNL     1      15.315  28.714  42.035  1.00  0.00     0.049 A 
ATOM     16  N   UNL     1      14.554  26.626  41.183  1.00  0.00    -0.213 NA
ATOM     17  C   UNL     1      14.000  29.008  42.395  1.00  0.00     0.117 A 
ATOM     18  C   UNL     1      13.279  26.921  41.551  1.00  0.00     0.227 A 
ATOM     19  N   UNL     1      13.011  28.113  42.145  1.00  0.00    -0.221 NA
BRANCH  18  20
ATOM     20  N   UNL     1      12.206  26.012  41.267  1.00  0.00    -0.324 N 
ATOM     21  H   UNL     1      11.241  26.299  41.548  1.00  0.00     0.170 HD
BRANCH  20  22
ATOM     22  C   UNL     1      12.361  24.799  40.512  1.00  0.00     0.041 A 
ATOM     23  C   UNL     1      11.439  23.758  40.683  1.00  0.00     0.028 A 
ATOM     24  C   UNL     1      13.449  24.613  39.641  1.00  0.00     0.028 A 
ATOM     25  C   UNL     1      11.578  22.563  39.970  1.00  0.00     0.028 A 
ATOM     26  C   UNL     1      13.590  23.418  38.931  1.00  0.00     0.028 A 
ATOM     27  C   UNL     1      12.655  22.381  39.089  1.00  0.00     0.037 A 
BRANCH  27  28
ATOM     28  N   UNL     1      12.796  21.146  38.359  1.00  0.00    -0.367 N 
ATOM     29  C   UNL     1      11.628  20.295  38.114  1.00  0.00     0.145 C 
ATOM     30  C   UNL     1      13.988  20.915  37.537  1.00  0.00     0.145 C 
ATOM     31  C   UNL     1      12.075  18.838  37.955  1.00  0.00     0.181 C 
ATOM     32  C   UNL     1      14.255  19.411  37.429  1.00  0.00     0.181 C 
ATOM     33  O   UNL     1      13.099  18.727  36.985  1.00  0.00    -0.378 OA
ENDBRANCH  27  28
ENDBRANCH  20  22
ENDBRANCH  18  20
ENDBRANCH   4  14
TORSDOF 7
ENDMDL
MODEL 6
REMARK VINA RESULT:    -8.778      4.764     14.434
REMARK INTER + INTRA:         -12.769
REMARK INTER:                 -12.352
REMARK INTRA:                  -0.417
REMARK UNBOUND:                -0.399
REMARK SMILES N#CCNC(=O)c1ccc(-c2ccnc(Nc3ccc(N4CCOCC4)cc3)n2)cc1
REMARK SMILES IDX 7 1 8 2 9 3 10 4 30 5 31 6 5 7 6 8 4 9 3 11 2 12 1 13 11 14
REMARK SMILES IDX 12 15 29 16 13 17 15 18 14 19 16 20 17 22 18 23 28 24 19 25
REMARK SMILES IDX 27 26 20 27 21 28 22 29 26 30 23 31 25 32 24 33
REMARK H PARENT 4 10 16 21
REMARK Flexibility Score: inf
ROOT
ATOM      1  C   UNL     1      21.704  24.501  38.895  1.00  0.00     0.039 A 
ATOM      2  C   UNL     1      21.841  25.878  39.142  1.00  0.00     0.014 A 
ATOM      3  C   UNL     1      20.787  26.611  39.696  1.00  0.00     0.011 A 
ATOM      4  C   UNL     1      19.570  25.983  40.019  1.00  0.00     0.000 A 
ATOM      5  C   UNL     1      19.445  24.601  39.794  1.00  0.00     0.011 A 
ATOM      6  C   UNL     1      20.496  23.869  39.237  1.00  0.00     0.014 A 
ENDROOT
BRANCH   1   7
ATOM      7  C   UNL     1      22.832  23.734  38.318  1.00  0.00     0.252 C 
ATOM      8  O   UNL     1      22.627  22.572  37.872  1.00  0.00    -0.269 OA
ATOM      9  N   UNL     1      24.157  24.289  38.270  1.00  0.00    -0.339 N 
ATOM     10  H   UNL     1      24.384  25.138  38.834  1.00  0.00     0.164 HD
BRANCH   9  11
ATOM     11  C   UNL     1      25.248  23.642  37.545  1.00  0.00     0.237 C 
BRANCH  11  12
ATOM     12  C   UNL     1      26.149  22.969  38.485  1.00  0.00     0.084 C 
ATOM     13  N   UNL     1      26.860  22.437  39.228  1.00  0.00    -0.196 NA
ENDBRANCH  11  12
ENDBRANCH   9  11
ENDBRANCH   1   7
BRANCH   4  14
ATOM     14  C   UNL     1      18.442  26.738  40.622  1.00  0.00     0.076 A 
ATOM     15  C   UNL     1      18.584  28.061  41.070  1.00  0.00     0.049 A 
ATOM     16  N   UNL     1      17.223  26.141  40.727  1.00  0.00    -0.213 NA
ATOM     17  C   UNL     1      17.476  28.708  41.615  1.00  0.00     0.117 A 
ATOM     18  C   UNL     1      16.153  26.779  41.271  1.00  0.00     0.227 A 
ATOM     19  N   UNL     1      16.286  28.061  41.702  1.00  0.00    -0.221 NA
BRANCH  18  20
ATOM     20  N   UNL     1      14.874  26.134  41.344  1.00  0.00    -0.324 N 
ATOM     21  H   UNL     1      14.840  25.170  41.749  1.00  0.00     0.170 HD
BRANCH  20  22
ATOM     22  C   UNL     1      13.632  26.777  41.014  1.00  0.00     0.041 A 
ATOM     23  C   UNL     1      12.830  26.245  39.994  1.00  0.00     0.028 A 
ATOM     24  C   UNL     1      13.226  27.959  41.656  1.00  0.00     0.028 A 
ATOM     25  C   UNL     1      11.625  26.861  39.646  1.00  0.00     0.028 A 
ATOM     26  C   UNL     1      12.023  28.577  41.306  1.00  0.00     0.028 A 
ATOM     27  C   UNL     1      11.210  28.033  40.297  1.00  0.00     0.037 A 
BRANCH  27  28
ATOM     28  N   UNL     1       9.968  28.667  39.932  1.00  0.00    -0.367 N 
ATOM     29  C   UNL     1       9.114  28.078  38.896  1.00  0.00     0.145 C 
ATOM     30  C   UNL     1       9.363  29.660  40.826  1.00  0.00     0.145 C 
ATOM     31  C   UNL     1       8.277  29.175  38.230  1.00  0.00     0.181 C 
ATOM     32  C   UNL     1       8.513  30.637  40.010  1.00  0.00     0.181 C 
ATOM     33  O   UNL     1       7.586  29.940  39.200  1.00  0.00    -0.378 OA
ENDBRANCH  27  28
ENDBRANCH  20  22
ENDBRANCH  18  20
ENDBRANCH   4  14
TORSDOF 7
ENDMDL
MODEL 7
REMARK VINA RESULT:    -8.681      6.828     14.856
REMARK INTER + INTRA:         -12.632
REMARK INTER:                 -11.855
REMARK INTRA:                  -0.777
REMARK UNBOUND:                -0.399
REMARK SMILES N#CCNC(=O)c1ccc(-c2ccnc(Nc3ccc(N4CCOCC4)cc3)n2)cc1
REMARK SMILES IDX 7 1 8 2 9 3 10 4 30 5 31 6 5 7 6 8 4 9 3 11 2 12 1 13 11 14
REMARK SMILES IDX 12 15 29 16 13 17 15 18 14 19 16 20 17 22 18 23 28 24 19 25
REMARK SMILES IDX 27 26 20 27 21 28 22 29 26 30 23 31 25 32 24 33
REMARK H PARENT 4 10 16 21
REMARK Flexibility Score: inf
ROOT
ATOM      1  C   UNL     1      19.112  26.408  40.340  1.00  0.00     0.039 A 
ATOM      2  C   UNL     1      18.026  25.522  40.439  1.00  0.00     0.014 A 
ATOM      3  C   UNL     1      16.771  25.976  40.854  1.00  0.00     0.011 A 
ATOM      4  C   UNL     1      16.571  27.330  41.178  1.00  0.00     0.000 A 
ATOM      5  C   UNL     1      17.653  28.219  41.055  1.00  0.00     0.011 A 
ATOM      6  C   UNL     1      18.908  27.765  40.644  1.00  0.00     0.014 A 
ENDROOT
BRANCH   1   7
ATOM      7  C   UNL     1      20.435  25.916  39.888  1.00  0.00     0.252 C 
ATOM      8  O   UNL     1      21.362  26.742  39.673  1.00  0.00    -0.269 OA
ATOM      9  N   UNL     1      20.671  24.513  39.681  1.00  0.00    -0.339 N 
ATOM     10  H   UNL     1      19.863  23.853  39.632  1.00  0.00     0.164 HD
BRANCH   9  11
ATOM     11  C   UNL     1      22.005  23.977  39.418  1.00  0.00     0.237 C 
BRANCH  11  12
ATOM     12  C   UNL     1      22.755  23.855  40.672  1.00  0.00     0.084 C 
ATOM     13  N   UNL     1      23.346  23.758  41.662  1.00  0.00    -0.196 NA
ENDBRANCH  11  12
ENDBRANCH   9  11
ENDBRANCH   1   7
BRANCH   4  14
ATOM     14  C   UNL     1      15.243  27.839  41.608  1.00  0.00     0.076 A 
ATOM     15  C   UNL     1      15.060  29.153  42.066  1.00  0.00     0.049 A 
ATOM     16  N   UNL     1      14.161  27.015  41.538  1.00  0.00    -0.213 NA
ATOM     17  C   UNL     1      13.781  29.562  42.442  1.00  0.00     0.117 A 
ATOM     18  C   UNL     1      12.921  27.423  41.919  1.00  0.00     0.227 A 
ATOM     19  N   UNL     1      12.739  28.695  42.359  1.00  0.00    -0.221 NA
BRANCH  18  20
ATOM     20  N   UNL     1      11.794  26.542  41.808  1.00  0.00    -0.324 N 
ATOM     21  H   UNL     1      11.141  26.690  41.005  1.00  0.00     0.170 HD
BRANCH  20  22
ATOM     22  C   UNL     1      11.583  25.399  42.654  1.00  0.00     0.041 A 
ATOM     23  C   UNL     1      10.937  24.268  42.135  1.00  0.00     0.028 A 
ATOM     24  C   UNL     1      11.964  25.409  44.007  1.00  0.00     0.028 A 
ATOM     25  C   UNL     1      10.708  23.150  42.943  1.00  0.00     0.028 A 
ATOM     26  C   UNL     1      11.732  24.294  44.815  1.00  0.00     0.028 A 
ATOM     27  C   UNL     1      11.102  23.153  44.290  1.00  0.00     0.037 A 
BRANCH  27  28
ATOM     28  N   UNL     1      10.860  21.999  45.120  1.00  0.00    -0.367 N 
ATOM     29  C   UNL     1       9.494  21.652  45.524  1.00  0.00     0.145 C 
ATOM     30  C   UNL     1      11.889  20.963  45.249  1.00  0.00     0.145 C 
ATOM     31  C   UNL     1       9.525  20.884  46.849  1.00  0.00     0.181 C 
ATOM     32  C   UNL     1      11.739  20.253  46.598  1.00  0.00     0.181 C 
ATOM     33  O   UNL     1      10.415  19.786  46.775  1.00  0.00    -0.378 OA
ENDBRANCH  27  28
ENDBRANCH  20  22
ENDBRANCH  18  20
ENDBRANCH   4  14
TORSDOF 7
ENDMDL
MODEL 8
REMARK VINA RESULT:    -8.426      6.937     16.598
REMARK INTER + INTRA:         -12.272
REMARK INTER:                 -11.475
REMARK INTRA:                  -0.797
REMARK UNBOUND:                -0.399
REMARK SMILES N#CCNC(=O)c1ccc(-c2ccnc(Nc3ccc(N4CCOCC4)cc3)n2)cc1
REMARK SMILES IDX 7 1 8 2 9 3 10 4 30 5 31 6 5 7 6 8 4 9 3 11 2 12 1 13 11 14
REMARK SMILES IDX 12 15 29 16 13 17 15 18 14 19 16 20 17 22 18 23 28 24 19 25
REMARK SMILES IDX 27 26 20 27 21 28 22 29 26 30 23 31 25 32 24 33
REMARK H PARENT 4 10 16 21
REMARK Flexibility Score: inf
ROOT
ATOM      1  C   UNL     1      18.974  26.408  40.363  1.00  0.00     0.039 A 
ATOM      2  C   UNL     1      18.625  27.720  40.723  1.00  0.00     0.014 A 
ATOM      3  C   UNL     1      17.318  28.029  41.113  1.00  0.00     0.011 A 
ATOM      4  C   UNL     1      16.329  27.030  41.154  1.00  0.00     0.000 A 
ATOM      5  C   UNL     1      16.686  25.713  40.816  1.00  0.00     0.011 A 
ATOM      6  C   UNL     1      17.991  25.405  40.424  1.00  0.00     0.014 A 
ENDROOT
BRANCH   1   7
ATOM      7  C   UNL     1      20.365  26.091  39.962  1.00  0.00     0.252 C 
ATOM      8  O   UNL     1      21.198  27.028  39.826  1.00  0.00    -0.269 OA
ATOM      9  N   UNL     1      20.774  24.736  39.714  1.00  0.00    -0.339 N 
ATOM     10  H   UNL     1      20.052  23.989  39.598  1.00  0.00     0.164 HD
BRANCH   9  11
ATOM     11  C   UNL     1      22.172  24.369  39.500  1.00  0.00     0.237 C 
BRANCH  11  12
ATOM     12  C   UNL     1      22.806  24.033  40.779  1.00  0.00     0.084 C 
ATOM     13  N   UNL     1      23.306  23.767  41.788  1.00  0.00    -0.196 NA
ENDBRANCH  11  12
ENDBRANCH   9  11
ENDBRANCH   1   7
BRANCH   4  14
ATOM     14  C   UNL     1      14.937  27.331  41.579  1.00  0.00     0.076 A 
ATOM     15  C   UNL     1      13.944  26.340  41.637  1.00  0.00     0.049 A 
ATOM     16  N   UNL     1      14.613  28.602  41.943  1.00  0.00    -0.213 NA
ATOM     17  C   UNL     1      12.663  26.697  42.056  1.00  0.00     0.117 A 
ATOM     18  C   UNL     1      13.357  28.940  42.338  1.00  0.00     0.227 A 
ATOM     19  N   UNL     1      12.395  27.982  42.401  1.00  0.00    -0.221 NA
BRANCH  18  20
ATOM     20  N   UNL     1      13.052  30.281  42.743  1.00  0.00    -0.324 N 
ATOM     21  H   UNL     1      12.652  30.925  42.022  1.00  0.00     0.170 HD
BRANCH  20  22
ATOM     22  C   UNL     1      13.143  30.751  44.098  1.00  0.00     0.041 A 
ATOM     23  C   UNL     1      13.072  32.127  44.357  1.00  0.00     0.028 A 
ATOM     24  C   UNL     1      13.355  29.863  45.167  1.00  0.00     0.028 A 
ATOM     25  C   UNL     1      13.172  32.608  45.666  1.00  0.00     0.028 A 
ATOM     26  C   UNL     1      13.459  30.344  46.475  1.00  0.00     0.028 A 
ATOM     27  C   UNL     1      13.368  31.722  46.737  1.00  0.00     0.037 A 
BRANCH  27  28
ATOM     28  N   UNL     1      13.475  32.223  48.084  1.00  0.00    -0.367 N 
ATOM     29  C   UNL     1      13.501  33.667  48.336  1.00  0.00     0.145 C 
ATOM     30  C   UNL     1      13.176  31.341  49.218  1.00  0.00     0.145 C 
ATOM     31  C   UNL     1      14.256  33.951  49.638  1.00  0.00     0.181 C 
ATOM     32  C   UNL     1      13.961  31.802  50.449  1.00  0.00     0.181 C 
ATOM     33  O   UNL     1      13.736  33.176  50.702  1.00  0.00    -0.378 OA
ENDBRANCH  27  28
ENDBRANCH  20  22
ENDBRANCH  18  20
ENDBRANCH   4  14
TORSDOF 7
ENDMDL
MODEL 9
REMARK VINA RESULT:    -8.331      8.569     14.733
REMARK INTER + INTRA:         -12.139
REMARK INTER:                 -11.431
REMARK INTRA:                  -0.708
REMARK UNBOUND:                -0.399
REMARK SMILES N#CCNC(=O)c1ccc(-c2ccnc(Nc3ccc(N4CCOCC4)cc3)n2)cc1
REMARK SMILES IDX 7 1 8 2 9 3 10 4 30 5 31 6 5 7 6 8 4 9 3 11 2 12 1 13 11 14
REMARK SMILES IDX 12 15 29 16 13 17 15 18 14 19 16 20 17 22 18 23 28 24 19 25
REMARK SMILES IDX 27 26 20 27 21 28 22 29 26 30 23 31 25 32 24 33
REMARK H PARENT 4 10 16 21
REMARK Flexibility Score: inf
ROOT
ATOM      1  C   UNL     1       8.198  33.298  39.919  1.00  0.00     0.039 A 
ATOM      2  C   UNL     1       9.219  33.008  40.840  1.00  0.00     0.014 A 
ATOM      3  C   UNL     1       9.792  31.733  40.890  1.00  0.00     0.011 A 
ATOM      4  C   UNL     1       9.358  30.719  40.018  1.00  0.00     0.000 A 
ATOM      5  C   UNL     1       8.354  31.019  39.081  1.00  0.00     0.011 A 
ATOM      6  C   UNL     1       7.779  32.291  39.032  1.00  0.00     0.014 A 
ENDROOT
BRANCH   1   7
ATOM      7  C   UNL     1       7.607  34.656  39.868  1.00  0.00     0.252 C 
ATOM      8  O   UNL     1       7.520  35.334  40.928  1.00  0.00    -0.269 OA
ATOM      9  N   UNL     1       7.121  35.206  38.632  1.00  0.00    -0.339 N 
ATOM     10  H   UNL     1       6.976  34.580  37.808  1.00  0.00     0.164 HD
BRANCH   9  11
ATOM     11  C   UNL     1       6.705  36.601  38.509  1.00  0.00     0.237 C 
BRANCH  11  12
ATOM     12  C   UNL     1       7.141  37.145  37.219  1.00  0.00     0.084 C 
ATOM     13  N   UNL     1       7.485  37.574  36.200  1.00  0.00    -0.196 NA
ENDBRANCH  11  12
ENDBRANCH   9  11
ENDBRANCH   1   7
BRANCH   4  14
ATOM     14  C   UNL     1       9.962  29.361  40.043  1.00  0.00     0.076 A 
ATOM     15  C   UNL     1       9.585  28.360  39.134  1.00  0.00     0.049 A 
ATOM     16  N   UNL     1      10.925  29.079  40.963  1.00  0.00    -0.213 NA
ATOM     17  C   UNL     1      10.204  27.114  39.213  1.00  0.00     0.117 A 
ATOM     18  C   UNL     1      11.512  27.855  41.037  1.00  0.00     0.227 A 
ATOM     19  N   UNL     1      11.154  26.885  40.155  1.00  0.00    -0.221 NA
BRANCH  18  20
ATOM     20  N   UNL     1      12.545  27.595  41.998  1.00  0.00    -0.324 N 
ATOM     21  H   UNL     1      12.251  27.382  42.979  1.00  0.00     0.170 HD
BRANCH  20  22
ATOM     22  C   UNL     1      13.940  27.486  41.667  1.00  0.00     0.041 A 
ATOM     23  C   UNL     1      14.432  26.279  41.150  1.00  0.00     0.028 A 
ATOM     24  C   UNL     1      14.832  28.546  41.900  1.00  0.00     0.028 A 
ATOM     25  C   UNL     1      15.788  26.145  40.835  1.00  0.00     0.028 A 
ATOM     26  C   UNL     1      16.187  28.410  41.589  1.00  0.00     0.028 A 
ATOM     27  C   UNL     1      16.678  27.208  41.053  1.00  0.00     0.037 A 
BRANCH  27  28
ATOM     28  N   UNL     1      18.075  27.063  40.730  1.00  0.00    -0.367 N 
ATOM     29  C   UNL     1      19.004  28.177  40.945  1.00  0.00     0.145 C 
ATOM     30  C   UNL     1      18.651  25.724  40.557  1.00  0.00     0.145 C 
ATOM     31  C   UNL     1      20.183  28.062  39.974  1.00  0.00     0.181 C 
ATOM     32  C   UNL     1      19.852  25.799  39.611  1.00  0.00     0.181 C 
ATOM     33  O   UNL     1      20.775  26.779  40.048  1.00  0.00    -0.378 OA
ENDBRANCH  27  28
ENDBRANCH  20  22
ENDBRANCH  18  20
ENDBRANCH   4  14
TORSDOF 7
ENDMDL
MODEL 10
REMARK VINA RESULT:    -8.191      6.284     10.953
REMARK INTER + INTRA:         -11.941
REMARK INTER:                 -11.576
REMARK INTRA:                  -0.365
REMARK UNBOUND:                -0.399
REMARK SMILES N#CCNC(=O)c1ccc(-c2ccnc(Nc3ccc(N4CCOCC4)cc3)n2)cc1
REMARK SMILES IDX 7 1 8 2 9 3 10 4 30 5 31 6 5 7 6 8 4 9 3 11 2 12 1 13 11 14
REMARK SMILES IDX 12 15 29 16 13 17 15 18 14 19 16 20 17 22 18 23 28 24 19 25
REMARK SMILES IDX 27 26 20 27 21 28 22 29 26 30 23 31 25 32 24 33
REMARK H PARENT 4 10 16 21
REMARK Flexibility Score: inf
ROOT
ATOM      1  C   UNL     1      12.464  21.747  38.549  1.00  0.00     0.039 A 
ATOM      2  C   UNL     1      13.651  22.470  38.340  1.00  0.00     0.014 A 
ATOM      3  C   UNL     1      13.867  23.688  38.990  1.00  0.00     0.011 A 
ATOM      4  C   UNL     1      12.900  24.214  39.867  1.00  0.00     0.000 A 
ATOM      5  C   UNL     1      11.724  23.477  40.092  1.00  0.00     0.011 A 
ATOM      6  C   UNL     1      11.506  22.261  39.440  1.00  0.00     0.014 A 
ENDROOT
BRANCH   1   7
ATOM      7  C   UNL     1      12.252  20.451  37.862  1.00  0.00     0.252 C 
ATOM      8  O   UNL     1      12.918  20.183  36.826  1.00  0.00    -0.269 OA
ATOM      9  N   UNL     1      11.290  19.502  38.353  1.00  0.00    -0.339 N 
ATOM     10  H   UNL     1      10.580  19.802  39.059  1.00  0.00     0.164 HD
BRANCH   9  11
ATOM     11  C   UNL     1      11.186  18.148  37.816  1.00  0.00     0.237 C 
BRANCH  11  12
ATOM     12  C   UNL     1      12.201  17.284  38.428  1.00  0.00     0.084 C 
ATOM     13  N   UNL     1      13.002  16.603  38.912  1.00  0.00    -0.196 NA
ENDBRANCH  11  12
ENDBRANCH   9  11
ENDBRANCH   1   7
BRANCH   4  14
ATOM     14  C   UNL     1      13.114  25.500  40.579  1.00  0.00     0.076 A 
ATOM     15  C   UNL     1      12.049  26.238  41.121  1.00  0.00     0.049 A 
ATOM     16  N   UNL     1      14.381  25.973  40.732  1.00  0.00    -0.213 NA
ATOM     17  C   UNL     1      12.329  27.431  41.786  1.00  0.00     0.117 A 
ATOM     18  C   UNL     1      14.639  27.144  41.373  1.00  0.00     0.227 A 
ATOM     19  N   UNL     1      13.612  27.858  41.903  1.00  0.00    -0.221 NA
BRANCH  18  20
ATOM     20  N   UNL     1      15.987  27.603  41.543  1.00  0.00    -0.324 N 
ATOM     21  H   UNL     1      16.143  28.420  42.178  1.00  0.00     0.170 HD
BRANCH  20  22
ATOM     22  C   UNL     1      17.138  26.935  41.000  1.00  0.00     0.041 A 
ATOM     23  C   UNL     1      17.207  25.536  41.047  1.00  0.00     0.028 A 
ATOM     24  C   UNL     1      18.220  27.657  40.469  1.00  0.00     0.028 A 
ATOM     25  C   UNL     1      18.323  24.864  40.538  1.00  0.00     0.028 A 
ATOM     26  C   UNL     1      19.337  26.986  39.964  1.00  0.00     0.028 A 
ATOM     27  C   UNL     1      19.399  25.583  39.993  1.00  0.00     0.037 A 
BRANCH  27  28
ATOM     28  N   UNL     1      20.548  24.886  39.473  1.00  0.00    -0.367 N 
ATOM     29  C   UNL     1      20.604  24.503  38.059  1.00  0.00     0.145 C 
ATOM     30  C   UNL     1      21.809  24.893  40.224  1.00  0.00     0.145 C 
ATOM     31  C   UNL     1      21.504  23.274  37.891  1.00  0.00     0.181 C 
ATOM     32  C   UNL     1      22.611  23.631  39.893  1.00  0.00     0.181 C 
ATOM     33  O   UNL     1      22.766  23.488  38.494  1.00  0.00    -0.378 OA
ENDBRANCH  27  28
ENDBRANCH  20  22
ENDBRANCH  18  20
ENDBRANCH   4  14
TORSDOF 7
ENDMDL
MODEL 11
REMARK VINA RESULT:    -8.158      6.901     12.929
REMARK INTER + INTRA:         -11.895
REMARK INTER:                 -11.315
REMARK INTRA:                  -0.580
REMARK UNBOUND:                -0.399
REMARK SMILES N#CCNC(=O)c1ccc(-c2ccnc(Nc3ccc(N4CCOCC4)cc3)n2)cc1
REMARK SMILES IDX 7 1 8 2 9 3 10 4 30 5 31 6 5 7 6 8 4 9 3 11 2 12 1 13 11 14
REMARK SMILES IDX 12 15 29 16 13 17 15 18 14 19 16 20 17 22 18 23 28 24 19 25
REMARK SMILES IDX 27 26 20 27 21 28 22 29 26 30 23 31 25 32 24 33
REMARK H PARENT 4 10 16 21
REMARK Flexibility Score: inf
ROOT
ATOM      1  C   UNL     1      17.821  27.307  40.780  1.00  0.00     0.039 A 
ATOM      2  C   UNL     1      17.298  28.401  41.490  1.00  0.00     0.014 A 
ATOM      3  C   UNL     1      15.951  28.431  41.862  1.00  0.00     0.011 A 
ATOM      4  C   UNL     1      15.093  27.365  41.535  1.00  0.00     0.000 A 
ATOM      5  C   UNL     1      15.625  26.260  40.846  1.00  0.00     0.011 A 
ATOM      6  C   UNL     1      16.970  26.231  40.471  1.00  0.00     0.014 A 
ENDROOT
BRANCH   1   7
ATOM      7  C   UNL     1      19.253  27.282  40.401  1.00  0.00     0.252 C 
ATOM      8  O   UNL     1      19.938  28.336  40.499  1.00  0.00    -0.269 OA
ATOM      9  N   UNL     1      19.869  26.078  39.913  1.00  0.00    -0.339 N 
ATOM     10  H   UNL     1      19.272  25.275  39.613  1.00  0.00     0.164 HD
BRANCH   9  11
ATOM     11  C   UNL     1      21.311  25.968  39.708  1.00  0.00     0.237 C 
BRANCH  11  12
ATOM     12  C   UNL     1      21.596  25.008  38.637  1.00  0.00     0.084 C 
ATOM     13  N   UNL     1      21.821  24.249  37.792  1.00  0.00    -0.196 NA
ENDBRANCH  11  12
ENDBRANCH   9  11
ENDBRANCH   1   7
BRANCH   4  14
ATOM     14  C   UNL     1      13.662  27.368  41.932  1.00  0.00     0.076 A 
ATOM     15  C   UNL     1      13.101  28.406  42.693  1.00  0.00     0.049 A 
ATOM     16  N   UNL     1      12.859  26.344  41.531  1.00  0.00    -0.213 NA
ATOM     17  C   UNL     1      11.746  28.344  43.017  1.00  0.00     0.117 A 
ATOM     18  C   UNL     1      11.542  26.290  41.865  1.00  0.00     0.227 A 
ATOM     19  N   UNL     1      10.994  27.296  42.597  1.00  0.00    -0.221 NA
BRANCH  18  20
ATOM     20  N   UNL     1      10.713  25.214  41.405  1.00  0.00    -0.324 N 
ATOM     21  H   UNL     1       9.684  25.388  41.342  1.00  0.00     0.170 HD
BRANCH  20  22
ATOM     22  C   UNL     1      11.223  23.965  40.909  1.00  0.00     0.041 A 
ATOM     23  C   UNL     1      10.887  22.773  41.567  1.00  0.00     0.028 A 
ATOM     24  C   UNL     1      12.095  23.915  39.808  1.00  0.00     0.028 A 
ATOM     25  C   UNL     1      11.382  21.548  41.112  1.00  0.00     0.028 A 
ATOM     26  C   UNL     1      12.593  22.691  39.355  1.00  0.00     0.028 A 
ATOM     27  C   UNL     1      12.241  21.495  40.003  1.00  0.00     0.037 A 
BRANCH  27  28
ATOM     28  N   UNL     1      12.753  20.230  39.540  1.00  0.00    -0.367 N 
ATOM     29  C   UNL     1      12.286  18.978  40.143  1.00  0.00     0.145 C 
ATOM     30  C   UNL     1      13.428  20.146  38.240  1.00  0.00     0.145 C 
ATOM     31  C   UNL     1      13.369  17.903  40.006  1.00  0.00     0.181 C 
ATOM     32  C   UNL     1      14.426  18.985  38.253  1.00  0.00     0.181 C 
ATOM     33  O   UNL     1      13.796  17.786  38.662  1.00  0.00    -0.378 OA
ENDBRANCH  27  28
ENDBRANCH  20  22
ENDBRANCH  18  20
ENDBRANCH   4  14
TORSDOF 7
ENDMDL
MODEL 12
REMARK VINA RESULT:    -8.149     11.905     16.280
REMARK INTER + INTRA:         -11.882
REMARK INTER:                 -11.090
REMARK INTRA:                  -0.793
REMARK UNBOUND:                -0.399
REMARK SMILES N#CCNC(=O)c1ccc(-c2ccnc(Nc3ccc(N4CCOCC4)cc3)n2)cc1
REMARK SMILES IDX 7 1 8 2 9 3 10 4 30 5 31 6 5 7 6 8 4 9 3 11 2 12 1 13 11 14
REMARK SMILES IDX 12 15 29 16 13 17 15 18 14 19 16 20 17 22 18 23 28 24 19 25
REMARK SMILES IDX 27 26 20 27 21 28 22 29 26 30 23 31 25 32 24 33
REMARK H PARENT 4 10 16 21
REMARK Flexibility Score: inf
ROOT
ATOM      1  C   UNL     1       9.432  20.158  32.813  1.00  0.00     0.039 A 
ATOM      2  C   UNL     1      10.067  18.967  33.205  1.00  0.00     0.014 A 
ATOM      3  C   UNL     1      11.063  18.980  34.186  1.00  0.00     0.011 A 
ATOM      4  C   UNL     1      11.447  20.185  34.801  1.00  0.00     0.000 A 
ATOM      5  C   UNL     1      10.794  21.372  34.424  1.00  0.00     0.011 A 
ATOM      6  C   UNL     1       9.801  21.360  33.442  1.00  0.00     0.014 A 
ENDROOT
BRANCH   1   7
ATOM      7  C   UNL     1       8.371  20.130  31.780  1.00  0.00     0.252 C 
ATOM      8  O   UNL     1       7.205  20.506  32.080  1.00  0.00    -0.269 OA
ATOM      9  N   UNL     1       8.647  19.669  30.447  1.00  0.00    -0.339 N 
ATOM     10  H   UNL     1       9.531  19.147  30.252  1.00  0.00     0.164 HD
BRANCH   9  11
ATOM     11  C   UNL     1       7.680  19.801  29.359  1.00  0.00     0.237 C 
BRANCH  11  12
ATOM     12  C   UNL     1       7.761  21.142  28.774  1.00  0.00     0.084 C 
ATOM     13  N   UNL     1       7.825  22.201  28.310  1.00  0.00    -0.196 NA
ENDBRANCH  11  12
ENDBRANCH   9  11
ENDBRANCH   1   7
BRANCH   4  14
ATOM     14  C   UNL     1      12.493  20.221  35.856  1.00  0.00     0.076 A 
ATOM     15  C   UNL     1      13.272  21.365  36.094  1.00  0.00     0.049 A 
ATOM     16  N   UNL     1      12.693  19.121  36.631  1.00  0.00    -0.213 NA
ATOM     17  C   UNL     1      14.227  21.326  37.110  1.00  0.00     0.117 A 
ATOM     18  C   UNL     1      13.636  19.093  37.610  1.00  0.00     0.227 A 
ATOM     19  N   UNL     1      14.389  20.199  37.848  1.00  0.00    -0.221 NA
BRANCH  18  20
ATOM     20  N   UNL     1      13.805  17.928  38.431  1.00  0.00    -0.324 N 
ATOM     21  H   UNL     1      14.780  17.665  38.702  1.00  0.00     0.170 HD
BRANCH  20  22
ATOM     22  C   UNL     1      12.716  17.185  39.003  1.00  0.00     0.041 A 
ATOM     23  C   UNL     1      12.245  17.524  40.278  1.00  0.00     0.028 A 
ATOM     24  C   UNL     1      12.147  16.089  38.332  1.00  0.00     0.028 A 
ATOM     25  C   UNL     1      11.197  16.806  40.861  1.00  0.00     0.028 A 
ATOM     26  C   UNL     1      11.101  15.369  38.915  1.00  0.00     0.028 A 
ATOM     27  C   UNL     1      10.616  15.721  40.186  1.00  0.00     0.037 A 
BRANCH  27  28
ATOM     28  N   UNL     1       9.538  14.980  40.792  1.00  0.00    -0.367 N 
ATOM     29  C   UNL     1       9.541  14.717  42.234  1.00  0.00     0.145 C 
ATOM     30  C   UNL     1       8.267  14.821  40.077  1.00  0.00     0.145 C 
ATOM     31  C   UNL     1       8.749  13.438  42.528  1.00  0.00     0.181 C 
ATOM     32  C   UNL     1       7.578  13.532  40.533  1.00  0.00     0.181 C 
ATOM     33  O   UNL     1       7.462  13.497  41.943  1.00  0.00    -0.378 OA
ENDBRANCH  27  28
ENDBRANCH  20  22
ENDBRANCH  18  20
ENDBRANCH   4  14
TORSDOF 7
ENDMDL
MODEL 13
REMARK VINA RESULT:    -8.058      6.501     13.540
REMARK INTER + INTRA:         -11.754
REMARK INTER:                 -11.164
REMARK INTRA:                  -0.590
REMARK UNBOUND:                -0.399
REMARK SMILES N#CCNC(=O)c1ccc(-c2ccnc(Nc3ccc(N4CCOCC4)cc3)n2)cc1
REMARK SMILES IDX 7 1 8 2 9 3 10 4 30 5 31 6 5 7 6 8 4 9 3 11 2 12 1 13 11 14
REMARK SMILES IDX 12 15 29 16 13 17 15 18 14 19 16 20 17 22 18 23 28 24 19 25
REMARK SMILES IDX 27 26 20 27 21 28 22 29 26 30 23 31 25 32 24 33
REMARK H PARENT 4 10 16 21
REMARK Flexibility Score: inf
ROOT
ATOM      1  C   UNL     1      18.337  26.608  40.581  1.00  0.00     0.039 A 
ATOM      2  C   UNL     1      17.246  25.726  40.501  1.00  0.00     0.014 A 
ATOM      3  C   UNL     1      15.965  26.141  40.874  1.00  0.00     0.011 A 
ATOM      4  C   UNL     1      15.743  27.452  41.334  1.00  0.00     0.000 A 
ATOM      5  C   UNL     1      16.832  28.340  41.390  1.00  0.00     0.011 A 
ATOM      6  C   UNL     1      18.113  27.924  41.020  1.00  0.00     0.014 A 
ENDROOT
BRANCH   1   7
ATOM      7  C   UNL     1      19.688  26.158  40.172  1.00  0.00     0.252 C 
ATOM      8  O   UNL     1      20.638  26.987  40.152  1.00  0.00    -0.269 OA
ATOM      9  N   UNL     1      19.930  24.794  39.788  1.00  0.00    -0.339 N 
ATOM     10  H   UNL     1      19.123  24.163  39.580  1.00  0.00     0.164 HD
BRANCH   9  11
ATOM     11  C   UNL     1      21.276  24.274  39.560  1.00  0.00     0.237 C 
BRANCH  11  12
ATOM     12  C   UNL     1      21.292  23.419  38.369  1.00  0.00     0.084 C 
ATOM     13  N   UNL     1      21.304  22.744  37.429  1.00  0.00    -0.196 NA
ENDBRANCH  11  12
ENDBRANCH   9  11
ENDBRANCH   1   7
BRANCH   4  14
ATOM     14  C   UNL     1      14.388  27.921  41.722  1.00  0.00     0.076 A 
ATOM     15  C   UNL     1      14.123  29.266  42.028  1.00  0.00     0.049 A 
ATOM     16  N   UNL     1      13.362  27.027  41.766  1.00  0.00    -0.213 NA
ATOM     17  C   UNL     1      12.823  29.632  42.374  1.00  0.00     0.117 A 
ATOM     18  C   UNL     1      12.101  27.396  42.116  1.00  0.00     0.227 A 
ATOM     19  N   UNL     1      11.840  28.697  42.408  1.00  0.00    -0.221 NA
BRANCH  18  20
ATOM     20  N   UNL     1      11.034  26.438  42.126  1.00  0.00    -0.324 N 
ATOM     21  H   UNL     1      10.253  26.590  42.804  1.00  0.00     0.170 HD
BRANCH  20  22
ATOM     22  C   UNL     1      10.913  25.362  41.180  1.00  0.00     0.041 A 
ATOM     23  C   UNL     1      11.889  24.356  41.152  1.00  0.00     0.028 A 
ATOM     24  C   UNL     1       9.864  25.324  40.245  1.00  0.00     0.028 A 
ATOM     25  C   UNL     1      11.800  23.308  40.231  1.00  0.00     0.028 A 
ATOM     26  C   UNL     1       9.777  24.278  39.323  1.00  0.00     0.028 A 
ATOM     27  C   UNL     1      10.744  23.260  39.307  1.00  0.00     0.037 A 
BRANCH  27  28
ATOM     28  N   UNL     1      10.659  22.179  38.357  1.00  0.00    -0.367 N 
ATOM     29  C   UNL     1      11.845  21.377  38.041  1.00  0.00     0.145 C 
ATOM     30  C   UNL     1       9.350  21.626  37.995  1.00  0.00     0.145 C 
ATOM     31  C   UNL     1      11.717  20.799  36.628  1.00  0.00     0.181 C 
ATOM     32  C   UNL     1       9.414  21.035  36.584  1.00  0.00     0.181 C 
ATOM     33  O   UNL     1      10.486  20.118  36.472  1.00  0.00    -0.378 OA
ENDBRANCH  27  28
ENDBRANCH  20  22
ENDBRANCH  18  20
ENDBRANCH   4  14
TORSDOF 7
ENDMDL
MODEL 14
REMARK VINA RESULT:    -7.920     10.634     14.905
REMARK INTER + INTRA:         -11.560
REMARK INTER:                 -11.153
REMARK INTRA:                  -0.407
REMARK UNBOUND:                -0.399
REMARK SMILES N#CCNC(=O)c1ccc(-c2ccnc(Nc3ccc(N4CCOCC4)cc3)n2)cc1
REMARK SMILES IDX 7 1 8 2 9 3 10 4 30 5 31 6 5 7 6 8 4 9 3 11 2 12 1 13 11 14
REMARK SMILES IDX 12 15 29 16 13 17 15 18 14 19 16 20 17 22 18 23 28 24 19 25
REMARK SMILES IDX 27 26 20 27 21 28 22 29 26 30 23 31 25 32 24 33
REMARK H PARENT 4 10 16 21
REMARK Flexibility Score: inf
ROOT
ATOM      1  C   UNL     1      13.387  22.800  39.009  1.00  0.00     0.039 A 
ATOM      2  C   UNL     1      13.828  22.142  37.848  1.00  0.00     0.014 A 
ATOM      3  C   UNL     1      13.414  20.837  37.568  1.00  0.00     0.011 A 
ATOM      4  C   UNL     1      12.547  20.157  38.442  1.00  0.00     0.000 A 
ATOM      5  C   UNL     1      12.087  20.826  39.590  1.00  0.00     0.011 A 
ATOM      6  C   UNL     1      12.503  22.129  39.872  1.00  0.00     0.014 A 
ENDROOT
BRANCH   1   7
ATOM      7  C   UNL     1      13.824  24.187  39.289  1.00  0.00     0.252 C 
ATOM      8  O   UNL     1      13.436  25.123  38.538  1.00  0.00    -0.269 OA
ATOM      9  N   UNL     1      14.693  24.480  40.397  1.00  0.00    -0.339 N 
ATOM     10  H   UNL     1      15.199  23.703  40.878  1.00  0.00     0.164 HD
BRANCH   9  11
ATOM     11  C   UNL     1      14.992  25.849  40.812  1.00  0.00     0.237 C 
BRANCH  11  12
ATOM     12  C   UNL     1      16.425  26.119  40.660  1.00  0.00     0.084 C 
ATOM     13  N   UNL     1      17.556  26.333  40.540  1.00  0.00    -0.196 NA
ENDBRANCH  11  12
ENDBRANCH   9  11
ENDBRANCH   1   7
BRANCH   4  14
ATOM     14  C   UNL     1      12.082  18.775  38.158  1.00  0.00     0.076 A 
ATOM     15  C   UNL     1      12.820  17.645  38.547  1.00  0.00     0.049 A 
ATOM     16  N   UNL     1      10.894  18.591  37.518  1.00  0.00    -0.213 NA
ATOM     17  C   UNL     1      12.313  16.379  38.254  1.00  0.00     0.117 A 
ATOM     18  C   UNL     1      10.418  17.351  37.228  1.00  0.00     0.227 A 
ATOM     19  N   UNL     1      11.127  16.255  37.607  1.00  0.00    -0.221 NA
BRANCH  18  20
ATOM     20  N   UNL     1       9.150  17.187  36.578  1.00  0.00    -0.324 N 
ATOM     21  H   UNL     1       8.401  16.677  37.100  1.00  0.00     0.170 HD
BRANCH  20  22
ATOM     22  C   UNL     1       8.811  17.788  35.317  1.00  0.00     0.041 A 
ATOM     23  C   UNL     1       9.623  18.807  34.799  1.00  0.00     0.028 A 
ATOM     24  C   UNL     1       7.653  17.412  34.615  1.00  0.00     0.028 A 
ATOM     25  C   UNL     1       9.305  19.416  33.582  1.00  0.00     0.028 A 
ATOM     26  C   UNL     1       7.333  18.024  33.400  1.00  0.00     0.028 A 
ATOM     27  C   UNL     1       8.157  19.032  32.872  1.00  0.00     0.037 A 
BRANCH  27  28
ATOM     28  N   UNL     1       7.831  19.666  31.619  1.00  0.00    -0.367 N 
ATOM     29  C   UNL     1       6.433  19.803  31.200  1.00  0.00     0.145 C 
ATOM     30  C   UNL     1       8.826  20.507  30.945  1.00  0.00     0.145 C 
ATOM     31  C   UNL     1       6.353  19.860  29.672  1.00  0.00     0.181 C 
ATOM     32  C   UNL     1       8.565  20.504  29.436  1.00  0.00     0.181 C 
ATOM     33  O   UNL     1       7.222  20.853  29.159  1.00  0.00    -0.378 OA
ENDBRANCH  27  28
ENDBRANCH  20  22
ENDBRANCH  18  20
ENDBRANCH   4  14
TORSDOF 7
ENDMDL
MODEL 15
REMARK VINA RESULT:    -7.875      9.857     14.675
REMARK INTER + INTRA:         -11.497
REMARK INTER:                 -10.739
REMARK INTRA:                  -0.757
REMARK UNBOUND:                -0.399
REMARK SMILES N#CCNC(=O)c1ccc(-c2ccnc(Nc3ccc(N4CCOCC4)cc3)n2)cc1
REMARK SMILES IDX 7 1 8 2 9 3 10 4 30 5 31 6 5 7 6 8 4 9 3 11 2 12 1 13 11 14
REMARK SMILES IDX 12 15 29 16 13 17 15 18 14 19 16 20 17 22 18 23 28 24 19 25
REMARK SMILES IDX 27 26 20 27 21 28 22 29 26 30 23 31 25 32 24 33
REMARK H PARENT 4 10 16 21
REMARK Flexibility Score: inf
ROOT
ATOM      1  C   UNL     1       9.166  19.514  34.106  1.00  0.00     0.039 A 
ATOM      2  C   UNL     1       9.745  20.790  34.215  1.00  0.00     0.014 A 
ATOM      3  C   UNL     1      10.278  21.229  35.431  1.00  0.00     0.011 A 
ATOM      4  C   UNL     1      10.246  20.401  36.567  1.00  0.00     0.000 A 
ATOM      5  C   UNL     1       9.688  19.116  36.449  1.00  0.00     0.011 A 
ATOM      6  C   UNL     1       9.152  18.678  35.236  1.00  0.00     0.014 A 
ENDROOT
BRANCH   1   7
ATOM      7  C   UNL     1       8.614  19.057  32.810  1.00  0.00     0.252 C 
ATOM      8  O   UNL     1       8.245  17.857  32.682  1.00  0.00    -0.269 OA
ATOM      9  N   UNL     1       8.505  19.955  31.693  1.00  0.00    -0.339 N 
ATOM     10  H   UNL     1       9.011  20.869  31.712  1.00  0.00     0.164 HD
BRANCH   9  11
ATOM     11  C   UNL     1       7.800  19.593  30.466  1.00  0.00     0.237 C 
BRANCH  11  12
ATOM     12  C   UNL     1       7.854  20.701  29.507  1.00  0.00     0.084 C 
ATOM     13  N   UNL     1       7.896  21.576  28.750  1.00  0.00    -0.196 NA
ENDBRANCH  11  12
ENDBRANCH   9  11
ENDBRANCH   1   7
BRANCH   4  14
ATOM     14  C   UNL     1      10.819  20.841  37.866  1.00  0.00     0.076 A 
ATOM     15  C   UNL     1      11.306  19.927  38.814  1.00  0.00     0.049 A 
ATOM     16  N   UNL     1      10.894  22.171  38.143  1.00  0.00    -0.213 NA
ATOM     17  C   UNL     1      11.839  20.416  40.006  1.00  0.00     0.117 A 
ATOM     18  C   UNL     1      11.405  22.634  39.315  1.00  0.00     0.227 A 
ATOM     19  N   UNL     1      11.882  21.753  40.232  1.00  0.00    -0.221 NA
BRANCH  18  20
ATOM     20  N   UNL     1      11.498  24.043  39.567  1.00  0.00    -0.324 N 
ATOM     21  H   UNL     1      10.607  24.590  39.593  1.00  0.00     0.170 HD
BRANCH  20  22
ATOM     22  C   UNL     1      12.720  24.718  39.911  1.00  0.00     0.041 A 
ATOM     23  C   UNL     1      13.824  24.624  39.052  1.00  0.00     0.028 A 
ATOM     24  C   UNL     1      12.849  25.429  41.116  1.00  0.00     0.028 A 
ATOM     25  C   UNL     1      15.027  25.260  39.372  1.00  0.00     0.028 A 
ATOM     26  C   UNL     1      14.052  26.061  41.438  1.00  0.00     0.028 A 
ATOM     27  C   UNL     1      15.153  25.983  40.568  1.00  0.00     0.037 A 
BRANCH  27  28
ATOM     28  N   UNL     1      16.397  26.634  40.896  1.00  0.00    -0.367 N 
ATOM     29  C   UNL     1      16.396  27.929  41.583  1.00  0.00     0.145 C 
ATOM     30  C   UNL     1      17.645  25.864  40.903  1.00  0.00     0.145 C 
ATOM     31  C   UNL     1      17.674  28.700  41.237  1.00  0.00     0.181 C 
ATOM     32  C   UNL     1      18.825  26.793  40.604  1.00  0.00     0.181 C 
ATOM     33  O   UNL     1      18.821  27.906  41.477  1.00  0.00    -0.378 OA
ENDBRANCH  27  28
ENDBRANCH  20  22
ENDBRANCH  18  20
ENDBRANCH   4  14
TORSDOF 7
ENDMDL
