MODEL 1
REMARK VINA RESULT:    -6.220      0.000      0.000
REMARK INTER + INTRA:          -9.937
REMARK INTER:                  -9.129
REMARK INTRA:                  -0.807
REMARK UNBOUND:                -0.807
REMARK SMILES Clc1ccc(CCCOCCCN2CCCCC2)cc1
REMARK SMILES IDX 9 1 8 2 7 3 6 4 5 5 1 6 2 7 3 8 20 9 4 10 19 11 10 12 11 13
REMARK SMILES IDX 12 14 13 15 14 16 18 17 15 18 17 19 16 20
REMARK H PARENT
REMARK Flexibility Score: inf
ROOT
ATOM      1  O   UNL     1      28.864  24.807   7.085  1.00  0.00    -0.381 OA
ENDROOT
BRANCH   1   2
ATOM      2  C   UNL     1      29.845  25.433   6.276  1.00  0.00     0.160 C 
BRANCH   2   3
ATOM      3  C   UNL     1      31.090  25.751   7.108  1.00  0.00     0.033 C 
BRANCH   3   4
ATOM      4  C   UNL     1      31.857  24.473   7.466  1.00  0.00     0.038 C 
BRANCH   4   5
ATOM      5  C   UNL     1      32.572  23.928   6.259  1.00  0.00    -0.048 A 
ATOM      6  Cl  UNL     1      34.821  22.223   2.675  1.00  0.00    -0.084 Cl
ATOM      7  C   UNL     1      33.958  22.878   4.055  1.00  0.00     0.041 A 
ATOM      8  C   UNL     1      34.302  24.134   4.565  1.00  0.00     0.021 A 
ATOM      9  C   UNL     1      32.927  22.141   4.649  1.00  0.00     0.021 A 
ATOM     10  C   UNL     1      33.617  24.656   5.666  1.00  0.00     0.005 A 
ATOM     11  C   UNL     1      32.240  22.662   5.751  1.00  0.00     0.005 A 
ENDBRANCH   4   5
ENDBRANCH   3   4
ENDBRANCH   2   3
ENDBRANCH   1   2
BRANCH   1  12
ATOM     12  C   UNL     1      28.493  23.543   6.564  1.00  0.00     0.161 C 
BRANCH  12  13
ATOM     13  C   UNL     1      27.934  22.637   7.668  1.00  0.00     0.044 C 
BRANCH  13  14
ATOM     14  C   UNL     1      29.026  21.755   8.293  1.00  0.00     0.087 C 
BRANCH  14  15
ATOM     15  N   UNL     1      28.516  20.385   8.523  1.00  0.00    -0.303 NA
ATOM     16  C   UNL     1      28.851  19.920   9.887  1.00  0.00     0.084 C 
ATOM     17  C   UNL     1      27.052  20.338   8.319  1.00  0.00     0.084 C 
ATOM     18  C   UNL     1      28.406  18.467  10.082  1.00  0.00     0.016 C 
ATOM     19  C   UNL     1      26.534  18.903   8.462  1.00  0.00     0.016 C 
ATOM     20  C   UNL     1      26.903  18.330   9.832  1.00  0.00     0.003 C 
ENDBRANCH  14  15
ENDBRANCH  13  14
ENDBRANCH  12  13
ENDBRANCH   1  12
TORSDOF 8
ENDMDL
MODEL 2
REMARK VINA RESULT:    -6.048      1.124      1.721
REMARK INTER + INTRA:          -9.684
REMARK INTER:                  -8.802
REMARK INTRA:                  -0.882
REMARK UNBOUND:                -0.807
REMARK SMILES Clc1ccc(CCCOCCCN2CCCCC2)cc1
REMARK SMILES IDX 9 1 8 2 7 3 6 4 5 5 1 6 2 7 3 8 20 9 4 10 19 11 10 12 11 13
REMARK SMILES IDX 12 14 13 15 14 16 18 17 15 18 17 19 16 20
REMARK H PARENT
REMARK Flexibility Score: inf
ROOT
ATOM      1  O   UNL     1      30.422  24.815   9.459  1.00  0.00    -0.381 OA
ENDROOT
BRANCH   1   2
ATOM      2  C   UNL     1      29.914  25.520   8.341  1.00  0.00     0.160 C 
BRANCH   2   3
ATOM      3  C   UNL     1      30.695  25.142   7.079  1.00  0.00     0.033 C 
BRANCH   3   4
ATOM      4  C   UNL     1      32.060  24.542   7.433  1.00  0.00     0.038 C 
BRANCH   4   5
ATOM      5  C   UNL     1      32.707  23.941   6.213  1.00  0.00    -0.048 A 
ATOM      6  Cl  UNL     1      34.602  22.202   2.446  1.00  0.00    -0.084 Cl
ATOM      7  C   UNL     1      33.872  22.873   3.894  1.00  0.00     0.041 A 
ATOM      8  C   UNL     1      32.669  22.348   4.379  1.00  0.00     0.021 A 
ATOM      9  C   UNL     1      34.489  23.936   4.560  1.00  0.00     0.021 A 
ATOM     10  C   UNL     1      32.085  22.883   5.530  1.00  0.00     0.005 A 
ATOM     11  C   UNL     1      33.907  24.473   5.713  1.00  0.00     0.005 A 
ENDBRANCH   4   5
ENDBRANCH   3   4
ENDBRANCH   2   3
ENDBRANCH   1   2
BRANCH   1  12
ATOM     12  C   UNL     1      29.451  23.937  10.002  1.00  0.00     0.161 C 
BRANCH  12  13
ATOM     13  C   UNL     1      29.904  22.477   9.885  1.00  0.00     0.044 C 
BRANCH  13  14
ATOM     14  C   UNL     1      29.550  21.875   8.517  1.00  0.00     0.087 C 
BRANCH  14  15
ATOM     15  N   UNL     1      28.925  20.544   8.684  1.00  0.00    -0.303 NA
ATOM     16  C   UNL     1      29.175  20.010  10.041  1.00  0.00     0.084 C 
ATOM     17  C   UNL     1      27.470  20.621   8.431  1.00  0.00     0.084 C 
ATOM     18  C   UNL     1      28.609  18.592  10.171  1.00  0.00     0.016 C 
ATOM     19  C   UNL     1      26.835  19.229   8.508  1.00  0.00     0.016 C 
ATOM     20  C   UNL     1      27.110  18.585   9.869  1.00  0.00     0.003 C 
ENDBRANCH  14  15
ENDBRANCH  13  14
ENDBRANCH  12  13
ENDBRANCH   1  12
TORSDOF 8
ENDMDL
MODEL 3
REMARK VINA RESULT:    -6.007      0.833      1.789
REMARK INTER + INTRA:          -9.624
REMARK INTER:                  -8.875
REMARK INTRA:                  -0.749
REMARK UNBOUND:                -0.807
REMARK SMILES Clc1ccc(CCCOCCCN2CCCCC2)cc1
REMARK SMILES IDX 9 1 8 2 7 3 6 4 5 5 1 6 2 7 3 8 20 9 4 10 19 11 10 12 11 13
REMARK SMILES IDX 12 14 13 15 14 16 18 17 15 18 17 19 16 20
REMARK H PARENT
REMARK Flexibility Score: inf
ROOT
ATOM      1  O   UNL     1      29.523  24.370   7.145  1.00  0.00    -0.381 OA
ENDROOT
BRANCH   1   2
ATOM      2  C   UNL     1      29.987  25.689   7.370  1.00  0.00     0.160 C 
BRANCH   2   3
ATOM      3  C   UNL     1      31.468  25.798   6.996  1.00  0.00     0.033 C 
BRANCH   3   4
ATOM      4  C   UNL     1      32.225  24.515   7.356  1.00  0.00     0.038 C 
BRANCH   4   5
ATOM      5  C   UNL     1      32.887  23.931   6.136  1.00  0.00    -0.048 A 
ATOM      6  Cl  UNL     1      34.809  22.220   2.369  1.00  0.00    -0.084 Cl
ATOM      7  C   UNL     1      34.067  22.879   3.817  1.00  0.00     0.041 A 
ATOM      8  C   UNL     1      33.024  22.191   4.445  1.00  0.00     0.021 A 
ATOM      9  C   UNL     1      34.517  24.096   4.341  1.00  0.00     0.021 A 
ATOM     10  C   UNL     1      32.431  22.717   5.596  1.00  0.00     0.005 A 
ATOM     11  C   UNL     1      33.925  24.623   5.493  1.00  0.00     0.005 A 
ENDBRANCH   4   5
ENDBRANCH   3   4
ENDBRANCH   2   3
ENDBRANCH   1   2
BRANCH   1  12
ATOM     12  C   UNL     1      28.693  23.926   8.204  1.00  0.00     0.161 C 
BRANCH  12  13
ATOM     13  C   UNL     1      29.132  22.544   8.703  1.00  0.00     0.044 C 
BRANCH  13  14
ATOM     14  C   UNL     1      28.283  22.067   9.890  1.00  0.00     0.087 C 
BRANCH  14  15
ATOM     15  N   UNL     1      27.739  20.715   9.627  1.00  0.00    -0.303 NA
ATOM     16  C   UNL     1      27.292  20.591   8.222  1.00  0.00     0.084 C 
ATOM     17  C   UNL     1      28.754  19.683   9.928  1.00  0.00     0.084 C 
ATOM     18  C   UNL     1      26.641  19.224   7.986  1.00  0.00     0.016 C 
ATOM     19  C   UNL     1      28.164  18.280   9.749  1.00  0.00     0.016 C 
ATOM     20  C   UNL     1      27.619  18.100   8.330  1.00  0.00     0.003 C 
ENDBRANCH  14  15
ENDBRANCH  13  14
ENDBRANCH  12  13
ENDBRANCH   1  12
TORSDOF 8
ENDMDL
MODEL 4
REMARK VINA RESULT:    -5.955      1.186      1.720
REMARK INTER + INTRA:          -9.548
REMARK INTER:                  -8.790
REMARK INTRA:                  -0.757
REMARK UNBOUND:                -0.807
REMARK SMILES Clc1ccc(CCCOCCCN2CCCCC2)cc1
REMARK SMILES IDX 9 1 8 2 7 3 6 4 5 5 1 6 2 7 3 8 20 9 4 10 19 11 10 12 11 13
REMARK SMILES IDX 12 14 13 15 14 16 18 17 15 18 17 19 16 20
REMARK H PARENT
REMARK Flexibility Score: inf
ROOT
ATOM      1  O   UNL     1      29.291  24.114   7.808  1.00  0.00    -0.381 OA
ENDROOT
BRANCH   1   2
ATOM      2  C   UNL     1      29.105  24.271   6.413  1.00  0.00     0.160 C 
BRANCH   2   3
ATOM      3  C   UNL     1      29.789  23.128   5.657  1.00  0.00     0.033 C 
BRANCH   3   4
ATOM      4  C   UNL     1      31.079  22.694   6.360  1.00  0.00     0.038 C 
BRANCH   4   5
ATOM      5  C   UNL     1      32.285  23.142   5.578  1.00  0.00    -0.048 A 
ATOM      6  Cl  UNL     1      35.866  24.580   3.145  1.00  0.00    -0.084 Cl
ATOM      7  C   UNL     1      34.487  24.028   4.080  1.00  0.00     0.041 A 
ATOM      8  C   UNL     1      33.714  22.957   3.621  1.00  0.00     0.021 A 
ATOM      9  C   UNL     1      34.157  24.664   5.282  1.00  0.00     0.021 A 
ATOM     10  C   UNL     1      32.613  22.518   4.363  1.00  0.00     0.005 A 
ATOM     11  C   UNL     1      33.056  24.226   6.026  1.00  0.00     0.005 A 
ENDBRANCH   4   5
ENDBRANCH   3   4
ENDBRANCH   2   3
ENDBRANCH   1   2
BRANCH   1  12
ATOM     12  C   UNL     1      28.058  24.154   8.503  1.00  0.00     0.161 C 
BRANCH  12  13
ATOM     13  C   UNL     1      27.769  22.811   9.186  1.00  0.00     0.044 C 
BRANCH  13  14
ATOM     14  C   UNL     1      28.950  21.838   9.059  1.00  0.00     0.087 C 
BRANCH  14  15
ATOM     15  N   UNL     1      28.466  20.476   8.737  1.00  0.00    -0.303 NA
ATOM     16  C   UNL     1      28.513  19.604   9.932  1.00  0.00     0.084 C 
ATOM     17  C   UNL     1      27.088  20.530   8.204  1.00  0.00     0.084 C 
ATOM     18  C   UNL     1      28.104  18.174   9.567  1.00  0.00     0.016 C 
ATOM     19  C   UNL     1      26.619  19.134   7.781  1.00  0.00     0.016 C 
ATOM     20  C   UNL     1      26.702  18.157   8.956  1.00  0.00     0.003 C 
ENDBRANCH  14  15
ENDBRANCH  13  14
ENDBRANCH  12  13
ENDBRANCH   1  12
TORSDOF 8
ENDMDL
MODEL 5
REMARK VINA RESULT:    -5.942      1.471      2.057
REMARK INTER + INTRA:          -9.528
REMARK INTER:                  -8.832
REMARK INTRA:                  -0.696
REMARK UNBOUND:                -0.807
REMARK SMILES Clc1ccc(CCCOCCCN2CCCCC2)cc1
REMARK SMILES IDX 9 1 8 2 7 3 6 4 5 5 1 6 2 7 3 8 20 9 4 10 19 11 10 12 11 13
REMARK SMILES IDX 12 14 13 15 14 16 18 17 15 18 17 19 16 20
REMARK H PARENT
REMARK Flexibility Score: inf
ROOT
ATOM      1  O   UNL     1      27.484  25.060   6.993  1.00  0.00    -0.381 OA
ENDROOT
BRANCH   1   2
ATOM      2  C   UNL     1      28.825  25.245   6.576  1.00  0.00     0.160 C 
BRANCH   2   3
ATOM      3  C   UNL     1      29.290  24.043   5.748  1.00  0.00     0.033 C 
BRANCH   3   4
ATOM      4  C   UNL     1      30.435  23.302   6.446  1.00  0.00     0.038 C 
BRANCH   4   5
ATOM      5  C   UNL     1      31.561  23.038   5.481  1.00  0.00    -0.048 A 
ATOM      6  Cl  UNL     1      34.943  22.348   2.499  1.00  0.00    -0.084 Cl
ATOM      7  C   UNL     1      33.641  22.616   3.644  1.00  0.00     0.041 A 
ATOM      8  C   UNL     1      32.360  22.123   3.376  1.00  0.00     0.021 A 
ATOM      9  C   UNL     1      33.884  23.326   4.825  1.00  0.00     0.021 A 
ATOM     10  C   UNL     1      31.321  22.339   4.287  1.00  0.00     0.005 A 
ATOM     11  C   UNL     1      32.846  23.542   5.738  1.00  0.00     0.005 A 
ENDBRANCH   4   5
ENDBRANCH   3   4
ENDBRANCH   2   3
ENDBRANCH   1   2
BRANCH   1  12
ATOM     12  C   UNL     1      27.417  24.570   8.321  1.00  0.00     0.161 C 
BRANCH  12  13
ATOM     13  C   UNL     1      26.467  23.370   8.416  1.00  0.00     0.044 C 
BRANCH  13  14
ATOM     14  C   UNL     1      27.160  22.057   8.026  1.00  0.00     0.087 C 
BRANCH  14  15
ATOM     15  N   UNL     1      26.436  20.899   8.597  1.00  0.00    -0.303 NA
ATOM     16  C   UNL     1      27.052  19.625   8.163  1.00  0.00     0.084 C 
ATOM     17  C   UNL     1      26.423  20.976  10.074  1.00  0.00     0.084 C 
ATOM     18  C   UNL     1      26.239  18.434   8.679  1.00  0.00     0.016 C 
ATOM     19  C   UNL     1      25.592  19.832  10.666  1.00  0.00     0.016 C 
ATOM     20  C   UNL     1      26.135  18.477  10.204  1.00  0.00     0.003 C 
ENDBRANCH  14  15
ENDBRANCH  13  14
ENDBRANCH  12  13
ENDBRANCH   1  12
TORSDOF 8
ENDMDL
MODEL 6
REMARK VINA RESULT:    -5.903      3.185      4.721
REMARK INTER + INTRA:          -9.471
REMARK INTER:                  -8.245
REMARK INTRA:                  -1.227
REMARK UNBOUND:                -0.807
REMARK SMILES Clc1ccc(CCCOCCCN2CCCCC2)cc1
REMARK SMILES IDX 9 1 8 2 7 3 6 4 5 5 1 6 2 7 3 8 20 9 4 10 19 11 10 12 11 13
REMARK SMILES IDX 12 14 13 15 14 16 18 17 15 18 17 19 16 20
REMARK H PARENT
REMARK Flexibility Score: inf
ROOT
ATOM      1  O   UNL     1      32.956  27.832   4.822  1.00  0.00    -0.381 OA
ENDROOT
BRANCH   1   2
ATOM      2  C   UNL     1      34.364  27.723   4.923  1.00  0.00     0.160 C 
BRANCH   2   3
ATOM      3  C   UNL     1      34.878  26.633   3.977  1.00  0.00     0.033 C 
BRANCH   3   4
ATOM      4  C   UNL     1      35.257  25.365   4.749  1.00  0.00     0.038 C 
BRANCH   4   5
ATOM      5  C   UNL     1      34.412  24.201   4.302  1.00  0.00    -0.048 A 
ATOM      6  Cl  UNL     1      31.768  20.758   2.901  1.00  0.00    -0.084 Cl
ATOM      7  C   UNL     1      32.783  22.084   3.439  1.00  0.00     0.041 A 
ATOM      8  C   UNL     1      32.605  22.630   4.714  1.00  0.00     0.021 A 
ATOM      9  C   UNL     1      33.768  22.600   2.590  1.00  0.00     0.021 A 
ATOM     10  C   UNL     1      33.411  23.688   5.143  1.00  0.00     0.005 A 
ATOM     11  C   UNL     1      34.576  23.659   3.017  1.00  0.00     0.005 A 
ENDBRANCH   4   5
ENDBRANCH   3   4
ENDBRANCH   2   3
ENDBRANCH   1   2
BRANCH   1  12
ATOM     12  C   UNL     1      32.342  27.822   6.099  1.00  0.00     0.161 C 
BRANCH  12  13
ATOM     13  C   UNL     1      31.051  26.994   6.081  1.00  0.00     0.044 C 
BRANCH  13  14
ATOM     14  C   UNL     1      30.525  26.721   7.498  1.00  0.00     0.087 C 
BRANCH  14  15
ATOM     15  N   UNL     1      29.964  25.355   7.588  1.00  0.00    -0.303 NA
ATOM     16  C   UNL     1      29.362  24.946   6.299  1.00  0.00     0.084 C 
ATOM     17  C   UNL     1      31.012  24.391   7.985  1.00  0.00     0.084 C 
ATOM     18  C   UNL     1      28.698  23.572   6.430  1.00  0.00     0.016 C 
ATOM     19  C   UNL     1      30.415  22.992   8.172  1.00  0.00     0.016 C 
ATOM     20  C   UNL     1      29.715  22.528   6.893  1.00  0.00     0.003 C 
ENDBRANCH  14  15
ENDBRANCH  13  14
ENDBRANCH  12  13
ENDBRANCH   1  12
TORSDOF 8
ENDMDL
MODEL 7
REMARK VINA RESULT:    -5.882      3.234      7.500
REMARK INTER + INTRA:          -9.440
REMARK INTER:                  -8.504
REMARK INTRA:                  -0.936
REMARK UNBOUND:                -0.807
REMARK SMILES Clc1ccc(CCCOCCCN2CCCCC2)cc1
REMARK SMILES IDX 9 1 8 2 7 3 6 4 5 5 1 6 2 7 3 8 20 9 4 10 19 11 10 12 11 13
REMARK SMILES IDX 12 14 13 15 14 16 18 17 15 18 17 19 16 20
REMARK H PARENT
REMARK Flexibility Score: inf
ROOT
ATOM      1  O   UNL     1      30.315  24.100   6.288  1.00  0.00    -0.381 OA
ENDROOT
BRANCH   1   2
ATOM      2  C   UNL     1      30.914  24.163   7.570  1.00  0.00     0.160 C 
BRANCH   2   3
ATOM      3  C   UNL     1      29.876  23.850   8.652  1.00  0.00     0.033 C 
BRANCH   3   4
ATOM      4  C   UNL     1      30.273  22.607   9.455  1.00  0.00     0.038 C 
BRANCH   4   5
ATOM      5  C   UNL     1      29.270  21.503   9.250  1.00  0.00    -0.048 A 
ATOM      6  Cl  UNL     1      26.158  18.209   8.716  1.00  0.00    -0.084 Cl
ATOM      7  C   UNL     1      27.354  19.477   8.924  1.00  0.00     0.041 A 
ATOM      8  C   UNL     1      28.380  19.325   9.861  1.00  0.00     0.021 A 
ATOM      9  C   UNL     1      27.277  20.643   8.154  1.00  0.00     0.021 A 
ATOM     10  C   UNL     1      29.332  20.336  10.029  1.00  0.00     0.005 A 
ATOM     11  C   UNL     1      28.228  21.655   8.320  1.00  0.00     0.005 A 
ENDBRANCH   4   5
ENDBRANCH   3   4
ENDBRANCH   2   3
ENDBRANCH   1   2
BRANCH   1  12
ATOM     12  C   UNL     1      30.513  22.834   5.685  1.00  0.00     0.161 C 
BRANCH  12  13
ATOM     13  C   UNL     1      31.912  22.289   6.000  1.00  0.00     0.044 C 
BRANCH  13  14
ATOM     14  C   UNL     1      32.683  21.918   4.725  1.00  0.00     0.087 C 
BRANCH  14  15
ATOM     15  N   UNL     1      33.297  23.122   4.123  1.00  0.00    -0.303 NA
ATOM     16  C   UNL     1      34.074  23.878   5.131  1.00  0.00     0.084 C 
ATOM     17  C   UNL     1      34.172  22.744   2.991  1.00  0.00     0.084 C 
ATOM     18  C   UNL     1      34.623  25.172   4.522  1.00  0.00     0.016 C 
ATOM     19  C   UNL     1      34.733  23.994   2.305  1.00  0.00     0.016 C 
ATOM     20  C   UNL     1      35.498  24.862   3.306  1.00  0.00     0.003 C 
ENDBRANCH  14  15
ENDBRANCH  13  14
ENDBRANCH  12  13
ENDBRANCH   1  12
TORSDOF 8
ENDMDL
MODEL 8
REMARK VINA RESULT:    -5.784      1.636      2.351
REMARK INTER + INTRA:          -9.297
REMARK INTER:                  -8.069
REMARK INTRA:                  -1.227
REMARK UNBOUND:                -0.807
REMARK SMILES Clc1ccc(CCCOCCCN2CCCCC2)cc1
REMARK SMILES IDX 9 1 8 2 7 3 6 4 5 5 1 6 2 7 3 8 20 9 4 10 19 11 10 12 11 13
REMARK SMILES IDX 12 14 13 15 14 16 18 17 15 18 17 19 16 20
REMARK H PARENT
REMARK Flexibility Score: inf
ROOT
ATOM      1  O   UNL     1      28.939  24.269   9.737  1.00  0.00    -0.381 OA
ENDROOT
BRANCH   1   2
ATOM      2  C   UNL     1      29.020  25.452   8.963  1.00  0.00     0.160 C 
BRANCH   2   3
ATOM      3  C   UNL     1      28.278  25.266   7.636  1.00  0.00     0.033 C 
BRANCH   3   4
ATOM      4  C   UNL     1      29.148  25.695   6.451  1.00  0.00     0.038 C 
BRANCH   4   5
ATOM      5  C   UNL     1      30.220  24.672   6.184  1.00  0.00    -0.048 A 
ATOM      6  Cl  UNL     1      33.450  21.526   5.489  1.00  0.00    -0.084 Cl
ATOM      7  C   UNL     1      32.207  22.735   5.759  1.00  0.00     0.041 A 
ATOM      8  C   UNL     1      32.546  23.979   6.302  1.00  0.00     0.021 A 
ATOM      9  C   UNL     1      30.875  22.454   5.435  1.00  0.00     0.021 A 
ATOM     10  C   UNL     1      31.557  24.942   6.520  1.00  0.00     0.005 A 
ATOM     11  C   UNL     1      29.884  23.417   5.652  1.00  0.00     0.005 A 
ENDBRANCH   4   5
ENDBRANCH   3   4
ENDBRANCH   2   3
ENDBRANCH   1   2
BRANCH   1  12
ATOM     12  C   UNL     1      30.210  23.663   9.892  1.00  0.00     0.161 C 
BRANCH  12  13
ATOM     13  C   UNL     1      30.258  22.299   9.193  1.00  0.00     0.044 C 
BRANCH  13  14
ATOM     14  C   UNL     1      29.764  21.169  10.107  1.00  0.00     0.087 C 
BRANCH  14  15
ATOM     15  N   UNL     1      28.955  20.197   9.338  1.00  0.00    -0.303 NA
ATOM     16  C   UNL     1      28.690  18.981  10.139  1.00  0.00     0.084 C 
ATOM     17  C   UNL     1      27.678  20.810   8.911  1.00  0.00     0.084 C 
ATOM     18  C   UNL     1      27.937  17.942   9.302  1.00  0.00     0.016 C 
ATOM     19  C   UNL     1      26.881  19.839   8.034  1.00  0.00     0.016 C 
ATOM     20  C   UNL     1      26.624  18.526   8.778  1.00  0.00     0.003 C 
ENDBRANCH  14  15
ENDBRANCH  13  14
ENDBRANCH  12  13
ENDBRANCH   1  12
TORSDOF 8
ENDMDL
MODEL 9
REMARK VINA RESULT:    -5.764      2.328      3.160
REMARK INTER + INTRA:          -9.267
REMARK INTER:                  -8.648
REMARK INTRA:                  -0.618
REMARK UNBOUND:                -0.807
REMARK SMILES Clc1ccc(CCCOCCCN2CCCCC2)cc1
REMARK SMILES IDX 9 1 8 2 7 3 6 4 5 5 1 6 2 7 3 8 20 9 4 10 19 11 10 12 11 13
REMARK SMILES IDX 12 14 13 15 14 16 18 17 15 18 17 19 16 20
REMARK H PARENT
REMARK Flexibility Score: inf
ROOT
ATOM      1  O   UNL     1      30.158  21.805   7.351  1.00  0.00    -0.381 OA
ENDROOT
BRANCH   1   2
ATOM      2  C   UNL     1      30.825  22.363   6.233  1.00  0.00     0.160 C 
BRANCH   2   3
ATOM      3  C   UNL     1      31.883  23.369   6.697  1.00  0.00     0.033 C 
BRANCH   3   4
ATOM      4  C   UNL     1      33.014  23.495   5.672  1.00  0.00     0.038 C 
BRANCH   4   5
ATOM      5  C   UNL     1      33.362  24.942   5.443  1.00  0.00    -0.048 A 
ATOM      6  Cl  UNL     1      34.355  29.321   4.639  1.00  0.00    -0.084 Cl
ATOM      7  C   UNL     1      33.972  27.636   4.945  1.00  0.00     0.041 A 
ATOM      8  C   UNL     1      34.837  26.630   4.504  1.00  0.00     0.021 A 
ATOM      9  C   UNL     1      32.799  27.299   5.628  1.00  0.00     0.021 A 
ATOM     10  C   UNL     1      34.532  25.287   4.745  1.00  0.00     0.005 A 
ATOM     11  C   UNL     1      32.491  25.956   5.871  1.00  0.00     0.005 A 
ENDBRANCH   4   5
ENDBRANCH   3   4
ENDBRANCH   2   3
ENDBRANCH   1   2
BRANCH   1  12
ATOM     12  C   UNL     1      29.716  22.811   8.245  1.00  0.00     0.161 C 
BRANCH  12  13
ATOM     13  C   UNL     1      28.210  22.688   8.509  1.00  0.00     0.044 C 
BRANCH  13  14
ATOM     14  C   UNL     1      27.917  21.973   9.836  1.00  0.00     0.087 C 
BRANCH  14  15
ATOM     15  N   UNL     1      27.483  20.580   9.589  1.00  0.00    -0.303 NA
ATOM     16  C   UNL     1      27.003  20.416   8.199  1.00  0.00     0.084 C 
ATOM     17  C   UNL     1      28.593  19.638   9.855  1.00  0.00     0.084 C 
ATOM     18  C   UNL     1      26.465  18.998   7.983  1.00  0.00     0.016 C 
ATOM     19  C   UNL     1      28.120  18.190   9.693  1.00  0.00     0.016 C 
ATOM     20  C   UNL     1      27.547  17.962   8.293  1.00  0.00     0.003 C 
ENDBRANCH  14  15
ENDBRANCH  13  14
ENDBRANCH  12  13
ENDBRANCH   1  12
TORSDOF 8
ENDMDL
MODEL 10
REMARK VINA RESULT:    -5.487      3.762      7.906
REMARK INTER + INTRA:          -8.860
REMARK INTER:                  -8.213
REMARK INTRA:                  -0.647
REMARK UNBOUND:                -0.807
REMARK SMILES Clc1ccc(CCCOCCCN2CCCCC2)cc1
REMARK SMILES IDX 9 1 8 2 7 3 6 4 5 5 1 6 2 7 3 8 20 9 4 10 19 11 10 12 11 13
REMARK SMILES IDX 12 14 13 15 14 16 18 17 15 18 17 19 16 20
REMARK H PARENT
REMARK Flexibility Score: inf
ROOT
ATOM      1  O   UNL     1      29.854  21.777   7.205  1.00  0.00    -0.381 OA
ENDROOT
BRANCH   1   2
ATOM      2  C   UNL     1      29.803  22.204   8.555  1.00  0.00     0.160 C 
BRANCH   2   3
ATOM      3  C   UNL     1      28.454  21.830   9.176  1.00  0.00     0.033 C 
BRANCH   3   4
ATOM      4  C   UNL     1      27.302  22.112   8.207  1.00  0.00     0.038 C 
BRANCH   4   5
ATOM      5  C   UNL     1      26.905  23.563   8.263  1.00  0.00    -0.048 A 
ATOM      6  Cl  UNL     1      25.809  27.985   8.495  1.00  0.00    -0.084 Cl
ATOM      7  C   UNL     1      26.233  26.285   8.407  1.00  0.00     0.041 A 
ATOM      8  C   UNL     1      25.834  25.410   9.423  1.00  0.00     0.021 A 
ATOM      9  C   UNL     1      26.974  25.804   7.322  1.00  0.00     0.021 A 
ATOM     10  C   UNL     1      26.174  24.056   9.356  1.00  0.00     0.005 A 
ATOM     11  C   UNL     1      27.314  24.449   7.253  1.00  0.00     0.005 A 
ENDBRANCH   4   5
ENDBRANCH   3   4
ENDBRANCH   2   3
ENDBRANCH   1   2
BRANCH   1  12
ATOM     12  C   UNL     1      30.432  22.764   6.370  1.00  0.00     0.161 C 
BRANCH  12  13
ATOM     13  C   UNL     1      31.859  22.375   5.966  1.00  0.00     0.044 C 
BRANCH  13  14
ATOM     14  C   UNL     1      32.848  23.533   6.165  1.00  0.00     0.087 C 
BRANCH  14  15
ATOM     15  N   UNL     1      33.880  23.520   5.104  1.00  0.00    -0.303 NA
ATOM     16  C   UNL     1      33.387  22.821   3.896  1.00  0.00     0.084 C 
ATOM     17  C   UNL     1      34.282  24.901   4.758  1.00  0.00     0.084 C 
ATOM     18  C   UNL     1      34.494  22.727   2.842  1.00  0.00     0.016 C 
ATOM     19  C   UNL     1      35.418  24.890   3.730  1.00  0.00     0.016 C 
ATOM     20  C   UNL     1      35.001  24.122   2.473  1.00  0.00     0.003 C 
ENDBRANCH  14  15
ENDBRANCH  13  14
ENDBRANCH  12  13
ENDBRANCH   1  12
TORSDOF 8
ENDMDL
MODEL 11
REMARK VINA RESULT:    -5.418      7.433     11.778
REMARK INTER + INTRA:          -8.759
REMARK INTER:                  -8.219
REMARK INTRA:                  -0.540
REMARK UNBOUND:                -0.807
REMARK SMILES Clc1ccc(CCCOCCCN2CCCCC2)cc1
REMARK SMILES IDX 9 1 8 2 7 3 6 4 5 5 1 6 2 7 3 8 20 9 4 10 19 11 10 12 11 13
REMARK SMILES IDX 12 14 13 15 14 16 18 17 15 18 17 19 16 20
REMARK H PARENT
REMARK Flexibility Score: inf
ROOT
ATOM      1  O   UNL     1      23.517  20.465  10.741  1.00  0.00    -0.381 OA
ENDROOT
BRANCH   1   2
ATOM      2  C   UNL     1      22.508  20.912  11.629  1.00  0.00     0.160 C 
BRANCH   2   3
ATOM      3  C   UNL     1      21.932  19.729  12.412  1.00  0.00     0.033 C 
BRANCH   3   4
ATOM      4  C   UNL     1      21.909  20.020  13.916  1.00  0.00     0.038 C 
BRANCH   4   5
ATOM      5  C   UNL     1      21.568  18.774  14.691  1.00  0.00    -0.048 A 
ATOM      6  Cl  UNL     1      20.460  15.069  17.111  1.00  0.00    -0.084 Cl
ATOM      7  C   UNL     1      20.885  16.496  16.182  1.00  0.00     0.041 A 
ATOM      8  C   UNL     1      21.971  17.286  16.570  1.00  0.00     0.021 A 
ATOM      9  C   UNL     1      20.133  16.846  15.054  1.00  0.00     0.021 A 
ATOM     10  C   UNL     1      22.309  18.425  15.832  1.00  0.00     0.005 A 
ATOM     11  C   UNL     1      20.470  17.984  14.315  1.00  0.00     0.005 A 
ENDBRANCH   4   5
ENDBRANCH   3   4
ENDBRANCH   2   3
ENDBRANCH   1   2
BRANCH   1  12
ATOM     12  C   UNL     1      24.765  20.334  11.399  1.00  0.00     0.161 C 
BRANCH  12  13
ATOM     13  C   UNL     1      25.591  21.620  11.269  1.00  0.00     0.044 C 
BRANCH  13  14
ATOM     14  C   UNL     1      26.820  21.423  10.370  1.00  0.00     0.087 C 
BRANCH  14  15
ATOM     15  N   UNL     1      26.804  20.075   9.759  1.00  0.00    -0.303 NA
ATOM     16  C   UNL     1      26.534  20.158   8.306  1.00  0.00     0.084 C 
ATOM     17  C   UNL     1      28.091  19.386   9.995  1.00  0.00     0.084 C 
ATOM     18  C   UNL     1      26.422  18.755   7.702  1.00  0.00     0.016 C 
ATOM     19  C   UNL     1      28.044  17.956   9.448  1.00  0.00     0.016 C 
ATOM     20  C   UNL     1      27.704  17.959   7.956  1.00  0.00     0.003 C 
ENDBRANCH  14  15
ENDBRANCH  13  14
ENDBRANCH  12  13
ENDBRANCH   1  12
TORSDOF 8
ENDMDL
MODEL 12
REMARK VINA RESULT:    -5.253      3.083      6.689
REMARK INTER + INTRA:          -8.517
REMARK INTER:                  -7.640
REMARK INTRA:                  -0.877
REMARK UNBOUND:                -0.807
REMARK SMILES Clc1ccc(CCCOCCCN2CCCCC2)cc1
REMARK SMILES IDX 9 1 8 2 7 3 6 4 5 5 1 6 2 7 3 8 20 9 4 10 19 11 10 12 11 13
REMARK SMILES IDX 12 14 13 15 14 16 18 17 15 18 17 19 16 20
REMARK H PARENT
REMARK Flexibility Score: inf
ROOT
ATOM      1  O   UNL     1      29.032  24.629   7.060  1.00  0.00    -0.381 OA
ENDROOT
BRANCH   1   2
ATOM      2  C   UNL     1      28.176  25.541   7.724  1.00  0.00     0.160 C 
BRANCH   2   3
ATOM      3  C   UNL     1      27.666  24.928   9.032  1.00  0.00     0.033 C 
BRANCH   3   4
ATOM      4  C   UNL     1      28.797  24.229   9.793  1.00  0.00     0.038 C 
BRANCH   4   5
ATOM      5  C   UNL     1      28.565  22.742   9.838  1.00  0.00    -0.048 A 
ATOM      6  Cl  UNL     1      27.870  18.234   9.848  1.00  0.00    -0.084 Cl
ATOM      7  C   UNL     1      28.137  19.968   9.841  1.00  0.00     0.041 A 
ATOM      8  C   UNL     1      27.051  20.843   9.749  1.00  0.00     0.021 A 
ATOM      9  C   UNL     1      29.439  20.476   9.924  1.00  0.00     0.021 A 
ATOM     10  C   UNL     1      27.262  22.225   9.740  1.00  0.00     0.005 A 
ATOM     11  C   UNL     1      29.652  21.858   9.916  1.00  0.00     0.005 A 
ENDBRANCH   4   5
ENDBRANCH   3   4
ENDBRANCH   2   3
ENDBRANCH   1   2
BRANCH   1  12
ATOM     12  C   UNL     1      29.926  25.299   6.188  1.00  0.00     0.161 C 
BRANCH  12  13
ATOM     13  C   UNL     1      31.334  24.699   6.278  1.00  0.00     0.044 C 
BRANCH  13  14
ATOM     14  C   UNL     1      31.298  23.192   6.569  1.00  0.00     0.087 C 
BRANCH  14  15
ATOM     15  N   UNL     1      32.069  22.448   5.548  1.00  0.00    -0.303 NA
ATOM     16  C   UNL     1      31.263  22.244   4.323  1.00  0.00     0.084 C 
ATOM     17  C   UNL     1      33.317  23.170   5.217  1.00  0.00     0.084 C 
ATOM     18  C   UNL     1      32.034  21.390   3.311  1.00  0.00     0.016 C 
ATOM     19  C   UNL     1      34.164  22.357   4.233  1.00  0.00     0.016 C 
ATOM     20  C   UNL     1      33.369  22.050   2.961  1.00  0.00     0.003 C 
ENDBRANCH  14  15
ENDBRANCH  13  14
ENDBRANCH  12  13
ENDBRANCH   1  12
TORSDOF 8
ENDMDL
MODEL 13
REMARK VINA RESULT:    -5.238      3.223      7.055
REMARK INTER + INTRA:          -8.495
REMARK INTER:                  -7.410
REMARK INTRA:                  -1.084
REMARK UNBOUND:                -0.807
REMARK SMILES Clc1ccc(CCCOCCCN2CCCCC2)cc1
REMARK SMILES IDX 9 1 8 2 7 3 6 4 5 5 1 6 2 7 3 8 20 9 4 10 19 11 10 12 11 13
REMARK SMILES IDX 12 14 13 15 14 16 18 17 15 18 17 19 16 20
REMARK H PARENT
REMARK Flexibility Score: inf
ROOT
ATOM      1  O   UNL     1      31.266  25.971   8.450  1.00  0.00    -0.381 OA
ENDROOT
BRANCH   1   2
ATOM      2  C   UNL     1      30.502  26.463   7.364  1.00  0.00     0.160 C 
BRANCH   2   3
ATOM      3  C   UNL     1      29.040  26.639   7.784  1.00  0.00     0.033 C 
BRANCH   3   4
ATOM      4  C   UNL     1      28.152  25.556   7.164  1.00  0.00     0.038 C 
BRANCH   4   5
ATOM      5  C   UNL     1      28.391  24.228   7.833  1.00  0.00    -0.048 A 
ATOM      6  Cl  UNL     1      28.994  20.177   9.841  1.00  0.00    -0.084 Cl
ATOM      7  C   UNL     1      28.760  21.735   9.068  1.00  0.00     0.041 A 
ATOM      8  C   UNL     1      28.358  22.839   9.827  1.00  0.00     0.021 A 
ATOM      9  C   UNL     1      28.970  21.872   7.692  1.00  0.00     0.021 A 
ATOM     10  C   UNL     1      28.168  24.080   9.212  1.00  0.00     0.005 A 
ATOM     11  C   UNL     1      28.780  23.112   7.075  1.00  0.00     0.005 A 
ENDBRANCH   4   5
ENDBRANCH   3   4
ENDBRANCH   2   3
ENDBRANCH   1   2
BRANCH   1  12
ATOM     12  C   UNL     1      31.918  24.758   8.116  1.00  0.00     0.161 C 
BRANCH  12  13
ATOM     13  C   UNL     1      32.357  24.757   6.646  1.00  0.00     0.044 C 
BRANCH  13  14
ATOM     14  C   UNL     1      32.713  23.346   6.155  1.00  0.00     0.087 C 
BRANCH  14  15
ATOM     15  N   UNL     1      33.813  23.404   5.167  1.00  0.00    -0.303 NA
ATOM     16  C   UNL     1      33.397  22.807   3.879  1.00  0.00     0.084 C 
ATOM     17  C   UNL     1      34.248  24.802   4.960  1.00  0.00     0.084 C 
ATOM     18  C   UNL     1      34.571  22.783   2.895  1.00  0.00     0.016 C 
ATOM     19  C   UNL     1      35.450  24.857   4.011  1.00  0.00     0.016 C 
ATOM     20  C   UNL     1      35.112  24.196   2.673  1.00  0.00     0.003 C 
ENDBRANCH  14  15
ENDBRANCH  13  14
ENDBRANCH  12  13
ENDBRANCH   1  12
TORSDOF 8
ENDMDL
MODEL 14
REMARK VINA RESULT:    -5.213      2.867      3.543
REMARK INTER + INTRA:          -8.459
REMARK INTER:                  -8.137
REMARK INTRA:                  -0.322
REMARK UNBOUND:                -0.807
REMARK SMILES Clc1ccc(CCCOCCCN2CCCCC2)cc1
REMARK SMILES IDX 9 1 8 2 7 3 6 4 5 5 1 6 2 7 3 8 20 9 4 10 19 11 10 12 11 13
REMARK SMILES IDX 12 14 13 15 14 16 18 17 15 18 17 19 16 20
REMARK H PARENT
REMARK Flexibility Score: inf
ROOT
ATOM      1  O   UNL     1      28.404  22.026   7.855  1.00  0.00    -0.381 OA
ENDROOT
BRANCH   1   2
ATOM      2  C   UNL     1      29.784  22.344   7.858  1.00  0.00     0.160 C 
BRANCH   2   3
ATOM      3  C   UNL     1      30.047  23.563   6.969  1.00  0.00     0.033 C 
BRANCH   3   4
ATOM      4  C   UNL     1      31.492  24.051   7.114  1.00  0.00     0.038 C 
BRANCH   4   5
ATOM      5  C   UNL     1      32.324  23.599   5.943  1.00  0.00    -0.048 A 
ATOM      6  Cl  UNL     1      34.794  22.320   2.328  1.00  0.00    -0.084 Cl
ATOM      7  C   UNL     1      33.843  22.814   3.717  1.00  0.00     0.041 A 
ATOM      8  C   UNL     1      32.572  22.268   3.925  1.00  0.00     0.021 A 
ATOM      9  C   UNL     1      34.353  23.758   4.615  1.00  0.00     0.021 A 
ATOM     10  C   UNL     1      31.812  22.663   5.030  1.00  0.00     0.005 A 
ATOM     11  C   UNL     1      33.595  24.153   5.721  1.00  0.00     0.005 A 
ENDBRANCH   4   5
ENDBRANCH   3   4
ENDBRANCH   2   3
ENDBRANCH   1   2
BRANCH   1  12
ATOM     12  C   UNL     1      28.064  21.184   8.942  1.00  0.00     0.161 C 
BRANCH  12  13
ATOM     13  C   UNL     1      26.667  21.519   9.480  1.00  0.00     0.044 C 
BRANCH  13  14
ATOM     14  C   UNL     1      26.038  20.330  10.221  1.00  0.00     0.087 C 
BRANCH  14  15
ATOM     15  N   UNL     1      24.661  20.658  10.652  1.00  0.00    -0.303 NA
ATOM     16  C   UNL     1      24.277  19.865  11.841  1.00  0.00     0.084 C 
ATOM     17  C   UNL     1      24.544  22.102  10.950  1.00  0.00     0.084 C 
ATOM     18  C   UNL     1      22.818  20.139  12.220  1.00  0.00     0.016 C 
ATOM     19  C   UNL     1      23.097  22.464  11.304  1.00  0.00     0.016 C 
ATOM     20  C   UNL     1      22.608  21.630  12.490  1.00  0.00     0.003 C 
ENDBRANCH  14  15
ENDBRANCH  13  14
ENDBRANCH  12  13
ENDBRANCH   1  12
TORSDOF 8
ENDMDL
MODEL 15
REMARK VINA RESULT:    -5.176      2.215      3.350
REMARK INTER + INTRA:          -8.404
REMARK INTER:                  -7.159
REMARK INTRA:                  -1.245
REMARK UNBOUND:                -0.807
REMARK SMILES Clc1ccc(CCCOCCCN2CCCCC2)cc1
REMARK SMILES IDX 9 1 8 2 7 3 6 4 5 5 1 6 2 7 3 8 20 9 4 10 19 11 10 12 11 13
REMARK SMILES IDX 12 14 13 15 14 16 18 17 15 18 17 19 16 20
REMARK H PARENT
REMARK Flexibility Score: inf
ROOT
ATOM      1  O   UNL     1      30.851  26.884   9.239  1.00  0.00    -0.381 OA
ENDROOT
BRANCH   1   2
ATOM      2  C   UNL     1      31.609  25.737   8.898  1.00  0.00     0.160 C 
BRANCH   2   3
ATOM      3  C   UNL     1      31.362  25.357   7.436  1.00  0.00     0.033 C 
BRANCH   3   4
ATOM      4  C   UNL     1      31.369  23.836   7.251  1.00  0.00     0.038 C 
BRANCH   4   5
ATOM      5  C   UNL     1      32.281  23.444   6.119  1.00  0.00    -0.048 A 
ATOM      6  Cl  UNL     1      34.978  22.330   2.612  1.00  0.00    -0.084 Cl
ATOM      7  C   UNL     1      33.939  22.760   3.960  1.00  0.00     0.041 A 
ATOM      8  C   UNL     1      32.806  21.991   4.243  1.00  0.00     0.021 A 
ATOM      9  C   UNL     1      34.242  23.875   4.748  1.00  0.00     0.021 A 
ATOM     10  C   UNL     1      31.976  22.334   5.314  1.00  0.00     0.005 A 
ATOM     11  C   UNL     1      33.413  24.220   5.821  1.00  0.00     0.005 A 
ENDBRANCH   4   5
ENDBRANCH   3   4
ENDBRANCH   2   3
ENDBRANCH   1   2
BRANCH   1  12
ATOM     12  C   UNL     1      29.929  27.219   8.216  1.00  0.00     0.161 C 
BRANCH  12  13
ATOM     13  C   UNL     1      28.499  27.286   8.767  1.00  0.00     0.044 C 
BRANCH  13  14
ATOM     14  C   UNL     1      27.552  26.336   8.020  1.00  0.00     0.087 C 
BRANCH  14  15
ATOM     15  N   UNL     1      28.025  24.938   8.135  1.00  0.00    -0.303 NA
ATOM     16  C   UNL     1      27.969  24.476   9.540  1.00  0.00     0.084 C 
ATOM     17  C   UNL     1      27.214  24.047   7.278  1.00  0.00     0.084 C 
ATOM     18  C   UNL     1      28.552  23.065   9.663  1.00  0.00     0.016 C 
ATOM     19  C   UNL     1      27.760  22.616   7.320  1.00  0.00     0.016 C 
ATOM     20  C   UNL     1      27.794  22.093   8.758  1.00  0.00     0.003 C 
ENDBRANCH  14  15
ENDBRANCH  13  14
ENDBRANCH  12  13
ENDBRANCH   1  12
TORSDOF 8
ENDMDL
