MODEL 1
REMARK VINA RESULT:    -5.798      0.000      0.000
REMARK INTER + INTRA:          -6.929
REMARK INTER:                  -6.815
REMARK INTRA:                  -0.114
REMARK UNBOUND:                -0.114
REMARK SMILES S=C=NCCc1ccccc1
REMARK SMILES IDX 4 1 3 2 1 3 2 4 5 5 6 6 7 7 11 8 8 9 10 10 9 11
REMARK H PARENT
REMARK Flexibility Score: inf
ROOT
ATOM      1  C   UNL     1      14.831  12.452   4.883  1.00  0.00     0.159 C 
ENDROOT
BRANCH   1   2
ATOM      2  N   UNL     1      15.603  13.389   5.693  1.00  0.00    -0.232 NA
ATOM      3  S   UNL     1      14.334  15.249   7.494  1.00  0.00    -0.006 S 
ATOM      4  C   UNL     1      15.044  14.210   6.488  1.00  0.00     0.058 C 
ENDBRANCH   1   2
BRANCH   1   5
ATOM      5  C   UNL     1      15.775  11.626   4.010  1.00  0.00     0.060 C 
BRANCH   5   6
ATOM      6  C   UNL     1      15.578  11.955   2.554  1.00  0.00    -0.046 A 
ATOM      7  C   UNL     1      16.241  13.051   1.979  1.00  0.00     0.004 A 
ATOM      8  C   UNL     1      14.686  11.202   1.772  1.00  0.00     0.004 A 
ATOM      9  C   UNL     1      16.032  13.375   0.635  1.00  0.00     0.000 A 
ATOM     10  C   UNL     1      14.480  11.529   0.429  1.00  0.00     0.000 A 
ATOM     11  C   UNL     1      15.154  12.613  -0.140  1.00  0.00     0.000 A 
ENDBRANCH   5   6
ENDBRANCH   1   5
TORSDOF 3
ENDMDL
MODEL 2
REMARK VINA RESULT:    -5.785     13.477     14.751
REMARK INTER + INTRA:          -6.914
REMARK INTER:                  -6.728
REMARK INTRA:                  -0.186
REMARK UNBOUND:                -0.114
REMARK SMILES S=C=NCCc1ccccc1
REMARK SMILES IDX 4 1 3 2 1 3 2 4 5 5 6 6 7 7 11 8 8 9 10 10 9 11
REMARK H PARENT
REMARK Flexibility Score: inf
ROOT
ATOM      1  C   UNL     1      14.300  11.541  19.145  1.00  0.00     0.159 C 
ENDROOT
BRANCH   1   2
ATOM      2  N   UNL     1      14.543  10.603  20.236  1.00  0.00    -0.232 NA
ATOM      3  S   UNL     1      13.619   7.874  20.133  1.00  0.00    -0.006 S 
ATOM      4  C   UNL     1      14.136   9.399  20.191  1.00  0.00     0.058 C 
ENDBRANCH   1   2
BRANCH   1   5
ATOM      5  C   UNL     1      15.068  11.094  17.901  1.00  0.00     0.060 C 
BRANCH   5   6
ATOM      6  C   UNL     1      14.117  10.647  16.823  1.00  0.00    -0.046 A 
ATOM      7  C   UNL     1      13.296  11.581  16.169  1.00  0.00     0.004 A 
ATOM      8  C   UNL     1      14.005   9.284  16.498  1.00  0.00     0.004 A 
ATOM      9  C   UNL     1      12.391  11.160  15.190  1.00  0.00     0.000 A 
ATOM     10  C   UNL     1      13.099   8.867  15.518  1.00  0.00     0.000 A 
ATOM     11  C   UNL     1      12.294   9.805  14.863  1.00  0.00     0.000 A 
ENDBRANCH   5   6
ENDBRANCH   1   5
TORSDOF 3
ENDMDL
MODEL 3
REMARK VINA RESULT:    -5.731     14.010     14.934
REMARK INTER + INTRA:          -6.850
REMARK INTER:                  -6.694
REMARK INTRA:                  -0.156
REMARK UNBOUND:                -0.114
REMARK SMILES S=C=NCCc1ccccc1
REMARK SMILES IDX 4 1 3 2 1 3 2 4 5 5 6 6 7 7 11 8 8 9 10 10 9 11
REMARK H PARENT
REMARK Flexibility Score: inf
ROOT
ATOM      1  C   UNL     1      12.240   8.350  16.409  1.00  0.00     0.159 C 
ENDROOT
BRANCH   1   2
ATOM      2  N   UNL     1      12.117   7.400  17.509  1.00  0.00    -0.232 NA
ATOM      3  S   UNL     1      13.613   7.702  19.955  1.00  0.00    -0.006 S 
ATOM      4  C   UNL     1      12.777   7.533  18.589  1.00  0.00     0.058 C 
ENDBRANCH   1   2
BRANCH   1   5
ATOM      5  C   UNL     1      13.705   8.743  16.229  1.00  0.00     0.060 C 
BRANCH   5   6
ATOM      6  C   UNL     1      13.928  10.172  16.648  1.00  0.00    -0.046 A 
ATOM      7  C   UNL     1      13.175  11.206  16.067  1.00  0.00     0.004 A 
ATOM      8  C   UNL     1      14.927  10.489  17.584  1.00  0.00     0.004 A 
ATOM      9  C   UNL     1      13.404  12.536  16.434  1.00  0.00     0.000 A 
ATOM     10  C   UNL     1      15.153  11.819  17.949  1.00  0.00     0.000 A 
ATOM     11  C   UNL     1      14.391  12.842  17.376  1.00  0.00     0.000 A 
ENDBRANCH   5   6
ENDBRANCH   1   5
TORSDOF 3
ENDMDL
MODEL 4
REMARK VINA RESULT:    -5.724     13.467     14.783
REMARK INTER + INTRA:          -6.843
REMARK INTER:                  -6.670
REMARK INTRA:                  -0.172
REMARK UNBOUND:                -0.114
REMARK SMILES S=C=NCCc1ccccc1
REMARK SMILES IDX 4 1 3 2 1 3 2 4 5 5 6 6 7 7 11 8 8 9 10 10 9 11
REMARK H PARENT
REMARK Flexibility Score: inf
ROOT
ATOM      1  C   UNL     1      14.304  11.598  19.165  1.00  0.00     0.159 C 
ENDROOT
BRANCH   1   2
ATOM      2  N   UNL     1      14.643  10.630  20.202  1.00  0.00    -0.232 NA
ATOM      3  S   UNL     1      13.549   7.962  20.210  1.00  0.00    -0.006 S 
ATOM      4  C   UNL     1      14.161   9.452  20.206  1.00  0.00     0.058 C 
ENDBRANCH   1   2
BRANCH   1   5
ATOM      5  C   UNL     1      15.040  11.248  17.872  1.00  0.00     0.060 C 
BRANCH   5   6
ATOM      6  C   UNL     1      14.079  10.724  16.839  1.00  0.00    -0.046 A 
ATOM      7  C   UNL     1      14.031   9.351  16.546  1.00  0.00     0.004 A 
ATOM      8  C   UNL     1      13.259  11.611  16.120  1.00  0.00     0.004 A 
ATOM      9  C   UNL     1      13.161   8.870  15.563  1.00  0.00     0.000 A 
ATOM     10  C   UNL     1      12.390  11.126  15.138  1.00  0.00     0.000 A 
ATOM     11  C   UNL     1      12.339   9.756  14.862  1.00  0.00     0.000 A 
ENDBRANCH   5   6
ENDBRANCH   1   5
TORSDOF 3
ENDMDL
MODEL 5
REMARK VINA RESULT:    -5.706     13.862     14.753
REMARK INTER + INTRA:          -6.821
REMARK INTER:                  -6.672
REMARK INTRA:                  -0.149
REMARK UNBOUND:                -0.114
REMARK SMILES S=C=NCCc1ccccc1
REMARK SMILES IDX 4 1 3 2 1 3 2 4 5 5 6 6 7 7 11 8 8 9 10 10 9 11
REMARK H PARENT
REMARK Flexibility Score: inf
ROOT
ATOM      1  C   UNL     1      11.971   7.846  16.723  1.00  0.00     0.159 C 
ENDROOT
BRANCH   1   2
ATOM      2  N   UNL     1      10.665   8.328  17.158  1.00  0.00    -0.232 NA
ATOM      3  S   UNL     1      10.337   9.867  19.574  1.00  0.00    -0.006 S 
ATOM      4  C   UNL     1      10.519   9.008  18.224  1.00  0.00     0.058 C 
ENDBRANCH   1   2
BRANCH   1   5
ATOM      5  C   UNL     1      12.519   8.760  15.628  1.00  0.00     0.060 C 
BRANCH   5   6
ATOM      6  C   UNL     1      13.247   9.933  16.229  1.00  0.00    -0.046 A 
ATOM      7  C   UNL     1      14.318   9.724  17.114  1.00  0.00     0.004 A 
ATOM      8  C   UNL     1      12.827  11.245  15.953  1.00  0.00     0.004 A 
ATOM      9  C   UNL     1      14.973  10.813  17.697  1.00  0.00     0.000 A 
ATOM     10  C   UNL     1      13.485  12.331  16.537  1.00  0.00     0.000 A 
ATOM     11  C   UNL     1      14.558  12.116  17.407  1.00  0.00     0.000 A 
ENDBRANCH   5   6
ENDBRANCH   1   5
TORSDOF 3
ENDMDL
MODEL 6
REMARK VINA RESULT:    -5.691     13.637     14.641
REMARK INTER + INTRA:          -6.803
REMARK INTER:                  -6.610
REMARK INTRA:                  -0.193
REMARK UNBOUND:                -0.114
REMARK SMILES S=C=NCCc1ccccc1
REMARK SMILES IDX 4 1 3 2 1 3 2 4 5 5 6 6 7 7 11 8 8 9 10 10 9 11
REMARK H PARENT
REMARK Flexibility Score: inf
ROOT
ATOM      1  C   UNL     1      12.095   7.990  16.439  1.00  0.00     0.159 C 
ENDROOT
BRANCH   1   2
ATOM      2  N   UNL     1      12.079   7.171  17.646  1.00  0.00    -0.232 NA
ATOM      3  S   UNL     1      13.628   7.865  19.977  1.00  0.00    -0.006 S 
ATOM      4  C   UNL     1      12.762   7.477  18.675  1.00  0.00     0.058 C 
ENDBRANCH   1   2
BRANCH   1   5
ATOM      5  C   UNL     1      13.515   8.491  16.175  1.00  0.00     0.060 C 
BRANCH   5   6
ATOM      6  C   UNL     1      13.579   9.991  16.291  1.00  0.00    -0.046 A 
ATOM      7  C   UNL     1      14.423  10.593  17.238  1.00  0.00     0.004 A 
ATOM      8  C   UNL     1      12.755  10.800  15.488  1.00  0.00     0.004 A 
ATOM      9  C   UNL     1      14.458  11.986  17.366  1.00  0.00     0.000 A 
ATOM     10  C   UNL     1      12.794  12.191  15.619  1.00  0.00     0.000 A 
ATOM     11  C   UNL     1      13.646  12.784  16.556  1.00  0.00     0.000 A 
ENDBRANCH   5   6
ENDBRANCH   1   5
TORSDOF 3
ENDMDL
MODEL 7
REMARK VINA RESULT:    -5.574      3.060      3.243
REMARK INTER + INTRA:          -6.666
REMARK INTER:                  -6.576
REMARK INTRA:                  -0.090
REMARK UNBOUND:                -0.114
REMARK SMILES S=C=NCCc1ccccc1
REMARK SMILES IDX 4 1 3 2 1 3 2 4 5 5 6 6 7 7 11 8 8 9 10 10 9 11
REMARK H PARENT
REMARK Flexibility Score: inf
ROOT
ATOM      1  C   UNL     1      17.738  13.392   4.071  1.00  0.00     0.159 C 
ENDROOT
BRANCH   1   2
ATOM      2  N   UNL     1      19.042  12.776   3.855  1.00  0.00    -0.232 NA
ATOM      3  S   UNL     1      21.354  13.518   5.410  1.00  0.00    -0.006 S 
ATOM      4  C   UNL     1      20.062  13.102   4.540  1.00  0.00     0.058 C 
ENDBRANCH   1   2
BRANCH   1   5
ATOM      5  C   UNL     1      16.648  12.321   4.034  1.00  0.00     0.060 C 
BRANCH   5   6
ATOM      6  C   UNL     1      16.007  12.262   2.673  1.00  0.00    -0.046 A 
ATOM      7  C   UNL     1      16.304  13.237   1.707  1.00  0.00     0.004 A 
ATOM      8  C   UNL     1      15.064  11.263   2.377  1.00  0.00     0.004 A 
ATOM      9  C   UNL     1      15.684  13.200   0.454  1.00  0.00     0.000 A 
ATOM     10  C   UNL     1      14.446  11.230   1.123  1.00  0.00     0.000 A 
ATOM     11  C   UNL     1      14.757  12.196   0.162  1.00  0.00     0.000 A 
ENDBRANCH   5   6
ENDBRANCH   1   5
TORSDOF 3
ENDMDL
MODEL 8
REMARK VINA RESULT:    -5.567      9.501     12.584
REMARK INTER + INTRA:          -6.658
REMARK INTER:                  -6.516
REMARK INTRA:                  -0.142
REMARK UNBOUND:                -0.114
REMARK SMILES S=C=NCCc1ccccc1
REMARK SMILES IDX 4 1 3 2 1 3 2 4 5 5 6 6 7 7 11 8 8 9 10 10 9 11
REMARK H PARENT
REMARK Flexibility Score: inf
ROOT
ATOM      1  C   UNL     1      12.289  12.999  14.118  1.00  0.00     0.159 C 
ENDROOT
BRANCH   1   2
ATOM      2  N   UNL     1      12.855  13.006  12.775  1.00  0.00    -0.232 NA
ATOM      3  S   UNL     1      11.260  13.624  10.453  1.00  0.00    -0.006 S 
ATOM      4  C   UNL     1      12.152  13.279  11.750  1.00  0.00     0.058 C 
ENDBRANCH   1   2
BRANCH   1   5
ATOM      5  C   UNL     1      11.693  11.624  14.419  1.00  0.00     0.060 C 
BRANCH   5   6
ATOM      6  C   UNL     1      12.606  10.835  15.319  1.00  0.00    -0.046 A 
ATOM      7  C   UNL     1      13.399  11.491  16.276  1.00  0.00     0.004 A 
ATOM      8  C   UNL     1      12.713   9.441  15.175  1.00  0.00     0.004 A 
ATOM      9  C   UNL     1      14.270  10.760  17.090  1.00  0.00     0.000 A 
ATOM     10  C   UNL     1      13.585   8.714  15.990  1.00  0.00     0.000 A 
ATOM     11  C   UNL     1      14.361   9.373  16.949  1.00  0.00     0.000 A 
ENDBRANCH   5   6
ENDBRANCH   1   5
TORSDOF 3
ENDMDL
MODEL 9
REMARK VINA RESULT:    -5.567     10.976     12.990
REMARK INTER + INTRA:          -6.658
REMARK INTER:                  -6.512
REMARK INTRA:                  -0.145
REMARK UNBOUND:                -0.114
REMARK SMILES S=C=NCCc1ccccc1
REMARK SMILES IDX 4 1 3 2 1 3 2 4 5 5 6 6 7 7 11 8 8 9 10 10 9 11
REMARK H PARENT
REMARK Flexibility Score: inf
ROOT
ATOM      1  C   UNL     1      10.929  12.720  15.038  1.00  0.00     0.159 C 
ENDROOT
BRANCH   1   2
ATOM      2  N   UNL     1      10.342  13.546  13.989  1.00  0.00    -0.232 NA
ATOM      3  S   UNL     1      11.045  13.210  11.213  1.00  0.00    -0.006 S 
ATOM      4  C   UNL     1      10.651  13.398  12.764  1.00  0.00     0.058 C 
ENDBRANCH   1   2
BRANCH   1   5
ATOM      5  C   UNL     1      11.347  11.370  14.457  1.00  0.00     0.060 C 
BRANCH   5   6
ATOM      6  C   UNL     1      12.432  10.744  15.293  1.00  0.00    -0.046 A 
ATOM      7  C   UNL     1      12.670   9.361  15.225  1.00  0.00     0.004 A 
ATOM      8  C   UNL     1      13.179  11.529  16.188  1.00  0.00     0.004 A 
ATOM      9  C   UNL     1      13.657   8.777  16.025  1.00  0.00     0.000 A 
ATOM     10  C   UNL     1      14.164  10.941  16.986  1.00  0.00     0.000 A 
ATOM     11  C   UNL     1      14.404   9.566  16.903  1.00  0.00     0.000 A 
ENDBRANCH   5   6
ENDBRANCH   1   5
TORSDOF 3
ENDMDL
MODEL 10
REMARK VINA RESULT:    -5.497      3.332      3.853
REMARK INTER + INTRA:          -6.575
REMARK INTER:                  -6.452
REMARK INTRA:                  -0.123
REMARK UNBOUND:                -0.114
REMARK SMILES S=C=NCCc1ccccc1
REMARK SMILES IDX 4 1 3 2 1 3 2 4 5 5 6 6 7 7 11 8 8 9 10 10 9 11
REMARK H PARENT
REMARK Flexibility Score: inf
ROOT
ATOM      1  C   UNL     1      18.326  13.553   3.969  1.00  0.00     0.159 C 
ENDROOT
BRANCH   1   2
ATOM      2  N   UNL     1      19.433  12.613   3.838  1.00  0.00    -0.232 NA
ATOM      3  S   UNL     1      21.821  12.841   5.438  1.00  0.00    -0.006 S 
ATOM      4  C   UNL     1      20.487  12.713   4.544  1.00  0.00     0.058 C 
ENDBRANCH   1   2
BRANCH   1   5
ATOM      5  C   UNL     1      17.030  12.789   4.240  1.00  0.00     0.060 C 
BRANCH   5   6
ATOM      6  C   UNL     1      16.281  12.542   2.957  1.00  0.00    -0.046 A 
ATOM      7  C   UNL     1      15.390  11.461   2.854  1.00  0.00     0.004 A 
ATOM      8  C   UNL     1      16.507  13.359   1.836  1.00  0.00     0.004 A 
ATOM      9  C   UNL     1      14.718  11.214   1.653  1.00  0.00     0.000 A 
ATOM     10  C   UNL     1      15.834  13.108   0.637  1.00  0.00     0.000 A 
ATOM     11  C   UNL     1      14.938  12.038   0.546  1.00  0.00     0.000 A 
ENDBRANCH   5   6
ENDBRANCH   1   5
TORSDOF 3
ENDMDL
MODEL 11
REMARK VINA RESULT:    -5.493     13.166     14.319
REMARK INTER + INTRA:          -6.570
REMARK INTER:                  -6.456
REMARK INTRA:                  -0.114
REMARK UNBOUND:                -0.114
REMARK SMILES S=C=NCCc1ccccc1
REMARK SMILES IDX 4 1 3 2 1 3 2 4 5 5 6 6 7 7 11 8 8 9 10 10 9 11
REMARK H PARENT
REMARK Flexibility Score: inf
ROOT
ATOM      1  C   UNL     1      15.506  11.508  18.688  1.00  0.00     0.159 C 
ENDROOT
BRANCH   1   2
ATOM      2  N   UNL     1      16.348  12.521  19.313  1.00  0.00    -0.232 NA
ATOM      3  S   UNL     1      19.062  12.986  18.457  1.00  0.00    -0.006 S 
ATOM      4  C   UNL     1      17.546  12.727  18.936  1.00  0.00     0.058 C 
ENDBRANCH   1   2
BRANCH   1   5
ATOM      5  C   UNL     1      14.670  12.147  17.579  1.00  0.00     0.060 C 
BRANCH   5   6
ATOM      6  C   UNL     1      13.978  11.090  16.760  1.00  0.00    -0.046 A 
ATOM      7  C   UNL     1      14.335   9.739  16.898  1.00  0.00     0.004 A 
ATOM      8  C   UNL     1      13.006  11.452  15.811  1.00  0.00     0.004 A 
ATOM      9  C   UNL     1      13.714   8.762  16.114  1.00  0.00     0.000 A 
ATOM     10  C   UNL     1      12.388  10.472  15.029  1.00  0.00     0.000 A 
ATOM     11  C   UNL     1      12.740   9.128  15.182  1.00  0.00     0.000 A 
ENDBRANCH   5   6
ENDBRANCH   1   5
TORSDOF 3
ENDMDL
MODEL 12
REMARK VINA RESULT:    -5.476     13.092     14.004
REMARK INTER + INTRA:          -6.551
REMARK INTER:                  -6.385
REMARK INTRA:                  -0.166
REMARK UNBOUND:                -0.114
REMARK SMILES S=C=NCCc1ccccc1
REMARK SMILES IDX 4 1 3 2 1 3 2 4 5 5 6 6 7 7 11 8 8 9 10 10 9 11
REMARK H PARENT
REMARK Flexibility Score: inf
ROOT
ATOM      1  C   UNL     1      14.666  13.009  17.899  1.00  0.00     0.159 C 
ENDROOT
BRANCH   1   2
ATOM      2  N   UNL     1      15.839  13.850  17.689  1.00  0.00    -0.232 NA
ATOM      3  S   UNL     1      18.484  12.993  18.454  1.00  0.00    -0.006 S 
ATOM      4  C   UNL     1      17.007  13.472  18.026  1.00  0.00     0.058 C 
ENDBRANCH   1   2
BRANCH   1   5
ATOM      5  C   UNL     1      15.069  11.536  17.830  1.00  0.00     0.060 C 
BRANCH   5   6
ATOM      6  C   UNL     1      14.201  10.793  16.849  1.00  0.00    -0.046 A 
ATOM      7  C   UNL     1      13.240  11.482  16.090  1.00  0.00     0.004 A 
ATOM      8  C   UNL     1      14.309   9.398  16.723  1.00  0.00     0.004 A 
ATOM      9  C   UNL     1      12.413  10.786  15.202  1.00  0.00     0.000 A 
ATOM     10  C   UNL     1      13.480   8.706  15.834  1.00  0.00     0.000 A 
ATOM     11  C   UNL     1      12.535   9.400  15.073  1.00  0.00     0.000 A 
ENDBRANCH   5   6
ENDBRANCH   1   5
TORSDOF 3
ENDMDL
MODEL 13
REMARK VINA RESULT:    -5.472     13.405     14.642
REMARK INTER + INTRA:          -6.545
REMARK INTER:                  -6.386
REMARK INTRA:                  -0.160
REMARK UNBOUND:                -0.114
REMARK SMILES S=C=NCCc1ccccc1
REMARK SMILES IDX 4 1 3 2 1 3 2 4 5 5 6 6 7 7 11 8 8 9 10 10 9 11
REMARK H PARENT
REMARK Flexibility Score: inf
ROOT
ATOM      1  C   UNL     1      14.411  11.556  19.097  1.00  0.00     0.159 C 
ENDROOT
BRANCH   1   2
ATOM      2  N   UNL     1      13.829  10.468  19.875  1.00  0.00    -0.232 NA
ATOM      3  S   UNL     1      10.977  10.103  20.085  1.00  0.00    -0.006 S 
ATOM      4  C   UNL     1      12.571  10.306  19.968  1.00  0.00     0.058 C 
ENDBRANCH   1   2
BRANCH   1   5
ATOM      5  C   UNL     1      15.147  10.986  17.884  1.00  0.00     0.060 C 
BRANCH   5   6
ATOM      6  C   UNL     1      14.170  10.572  16.816  1.00  0.00    -0.046 A 
ATOM      7  C   UNL     1      13.321  11.522  16.226  1.00  0.00     0.004 A 
ATOM      8  C   UNL     1      14.061   9.222  16.440  1.00  0.00     0.004 A 
ATOM      9  C   UNL     1      12.392  11.131  15.257  1.00  0.00     0.000 A 
ATOM     10  C   UNL     1      13.131   8.835  15.470  1.00  0.00     0.000 A 
ATOM     11  C   UNL     1      12.298   9.789  14.878  1.00  0.00     0.000 A 
ENDBRANCH   5   6
ENDBRANCH   1   5
TORSDOF 3
ENDMDL
MODEL 14
REMARK VINA RESULT:    -5.388     12.757     13.830
REMARK INTER + INTRA:          -6.447
REMARK INTER:                  -6.262
REMARK INTRA:                  -0.185
REMARK UNBOUND:                -0.114
REMARK SMILES S=C=NCCc1ccccc1
REMARK SMILES IDX 4 1 3 2 1 3 2 4 5 5 6 6 7 7 11 8 8 9 10 10 9 11
REMARK H PARENT
REMARK Flexibility Score: inf
ROOT
ATOM      1  C   UNL     1      11.075  12.851  15.091  1.00  0.00     0.159 C 
ENDROOT
BRANCH   1   2
ATOM      2  N   UNL     1       9.814  12.836  15.824  1.00  0.00    -0.232 NA
ATOM      3  S   UNL     1       9.689  12.164  18.625  1.00  0.00    -0.006 S 
ATOM      4  C   UNL     1       9.758  12.540  17.060  1.00  0.00     0.058 C 
ENDBRANCH   1   2
BRANCH   1   5
ATOM      5  C   UNL     1      11.360  11.460  14.527  1.00  0.00     0.060 C 
BRANCH   5   6
ATOM      6  C   UNL     1      12.444  10.777  15.318  1.00  0.00    -0.046 A 
ATOM      7  C   UNL     1      12.644   9.392  15.197  1.00  0.00     0.004 A 
ATOM      8  C   UNL     1      13.229  11.511  16.224  1.00  0.00     0.004 A 
ATOM      9  C   UNL     1      13.631   8.754  15.956  1.00  0.00     0.000 A 
ATOM     10  C   UNL     1      14.214  10.869  16.981  1.00  0.00     0.000 A 
ATOM     11  C   UNL     1      14.416   9.492  16.846  1.00  0.00     0.000 A 
ENDBRANCH   5   6
ENDBRANCH   1   5
TORSDOF 3
ENDMDL
MODEL 15
REMARK VINA RESULT:    -5.342     13.340     14.589
REMARK INTER + INTRA:          -6.393
REMARK INTER:                  -6.253
REMARK INTRA:                  -0.140
REMARK UNBOUND:                -0.114
REMARK SMILES S=C=NCCc1ccccc1
REMARK SMILES IDX 4 1 3 2 1 3 2 4 5 5 6 6 7 7 11 8 8 9 10 10 9 11
REMARK H PARENT
REMARK Flexibility Score: inf
ROOT
ATOM      1  C   UNL     1      15.062  10.850  19.133  1.00  0.00     0.159 C 
ENDROOT
BRANCH   1   2
ATOM      2  N   UNL     1      14.988  11.837  20.205  1.00  0.00    -0.232 NA
ATOM      3  S   UNL     1      16.607  14.222  20.194  1.00  0.00    -0.006 S 
ATOM      4  C   UNL     1      15.702  12.890  20.201  1.00  0.00     0.058 C 
ENDBRANCH   1   2
BRANCH   1   5
ATOM      5  C   UNL     1      15.024  11.558  17.779  1.00  0.00     0.060 C 
BRANCH   5   6
ATOM      6  C   UNL     1      14.091  10.848  16.834  1.00  0.00    -0.046 A 
ATOM      7  C   UNL     1      14.117   9.447  16.732  1.00  0.00     0.004 A 
ATOM      8  C   UNL     1      13.224  11.583  16.008  1.00  0.00     0.004 A 
ATOM      9  C   UNL     1      13.272   8.791  15.831  1.00  0.00     0.000 A 
ATOM     10  C   UNL     1      12.381  10.924  15.109  1.00  0.00     0.000 A 
ATOM     11  C   UNL     1      12.403   9.528  15.022  1.00  0.00     0.000 A 
ENDBRANCH   5   6
ENDBRANCH   1   5
TORSDOF 3
ENDMDL
