MODEL 1
REMARK VINA RESULT:    -9.162      0.000      0.000
REMARK INTER + INTRA:         -17.259
REMARK INTER:                 -15.054
REMARK INTRA:                  -2.205
REMARK UNBOUND:                -2.205
REMARK SMILES COc1cc(Nc2ncc(F)c(Nc3ccc4c(n3)N(COP(=O)(O)O)C(=O)C(C)(C)O4)n2)cc(OC)c1OC
REMARK SMILES IDX 14 1 19 2 18 3 17 4 32 5 29 6 30 7 31 8 27 9 28 10 20 11
REMARK SMILES IDX 16 12 15 13 13 14 12 16 7 17 8 18 33 19 9 20 10 21 11 22
REMARK SMILES IDX 6 23 5 25 3 26 4 27 38 28 35 29 34 30 2 31 1 32 39 33 40 34
REMARK SMILES IDX 36 35 37 36 21 37 22 38 23 39 24 40 25 41 26 43
REMARK H PARENT 13 15 6 24 25 42 26 44
REMARK Flexibility Score: inf
ROOT
ATOM      1  C   UNL     1      22.100  38.432  -5.206  1.00  0.00     0.134 A 
ATOM      2  N   UNL     1      22.696  37.520  -6.021  1.00  0.00    -0.209 NA
ATOM      3  C   UNL     1      23.957  37.056  -5.793  1.00  0.00     0.182 A 
ATOM      4  C   UNL     1      24.680  37.532  -4.695  1.00  0.00     0.164 A 
ATOM      5  O   UNL     1      25.968  37.054  -4.442  1.00  0.00    -0.474 OA
ATOM      6  C   UNL     1      26.463  35.820  -4.976  1.00  0.00     0.182 C 
ATOM      7  C   UNL     1      27.987  35.944  -5.114  1.00  0.00     0.067 C 
ATOM      8  C   UNL     1      26.117  34.692  -3.994  1.00  0.00     0.067 C 
ATOM      9  C   UNL     1      25.831  35.513  -6.322  1.00  0.00     0.273 C 
ATOM     10  O   UNL     1      26.376  34.668  -7.086  1.00  0.00    -0.270 OA
ATOM     11  N   UNL     1      24.568  36.109  -6.688  1.00  0.00    -0.265 N 
ATOM     12  C   UNL     1      24.110  38.499  -3.864  1.00  0.00     0.054 A 
ATOM     13  C   UNL     1      22.816  38.954  -4.115  1.00  0.00     0.051 A 
ENDROOT
BRANCH   1  14
ATOM     14  N   UNL     1      20.775  38.887  -5.518  1.00  0.00    -0.322 N 
ATOM     15  H   UNL     1      19.971  38.344  -5.130  1.00  0.00     0.170 HD
BRANCH  14  16
ATOM     16  C   UNL     1      20.478  40.017  -6.353  1.00  0.00     0.173 A 
ATOM     17  C   UNL     1      20.687  41.073  -8.468  1.00  0.00     0.229 A 
ATOM     18  N   UNL     1      19.874  42.083  -8.053  1.00  0.00    -0.218 NA
ATOM     19  N   UNL     1      20.964  40.044  -7.623  1.00  0.00    -0.192 NA
ATOM     20  C   UNL     1      19.351  42.094  -6.801  1.00  0.00     0.158 A 
ATOM     21  C   UNL     1      19.635  41.053  -5.920  1.00  0.00     0.184 A 
ATOM     22  F   UNL     1      19.057  41.033  -4.693  1.00  0.00    -0.201 F 
BRANCH  17  23
ATOM     23  N   UNL     1      21.209  41.050  -9.806  1.00  0.00    -0.324 N 
ATOM     24  H   UNL     1      22.012  41.682 -10.018  1.00  0.00     0.170 HD
BRANCH  23  25
ATOM     25  C   UNL     1      20.793  40.120 -10.822  1.00  0.00     0.049 A 
ATOM     26  C   UNL     1      19.134  39.423 -12.463  1.00  0.00     0.166 A 
ATOM     27  C   UNL     1      19.572  40.316 -11.471  1.00  0.00     0.076 A 
ATOM     28  C   UNL     1      19.920  38.309 -12.803  1.00  0.00     0.203 A 
ATOM     29  C   UNL     1      21.147  38.083 -12.128  1.00  0.00     0.166 A 
ATOM     30  C   UNL     1      21.561  38.990 -11.132  1.00  0.00     0.076 A 
BRANCH  26  31
ATOM     31  O   UNL     1      17.919  39.609 -13.143  1.00  0.00    -0.493 OA
ATOM     32  C   UNL     1      16.904  40.527 -12.752  1.00  0.00     0.278 C 
ENDBRANCH  26  31
BRANCH  28  33
ATOM     33  O   UNL     1      19.418  37.468 -13.815  1.00  0.00    -0.490 OA
ATOM     34  C   UNL     1      19.817  37.451 -15.181  1.00  0.00     0.278 C 
ENDBRANCH  28  33
BRANCH  29  35
ATOM     35  O   UNL     1      21.930  36.963 -12.452  1.00  0.00    -0.493 OA
ATOM     36  C   UNL     1      22.949  36.936 -13.446  1.00  0.00     0.278 C 
ENDBRANCH  29  35
ENDBRANCH  23  25
ENDBRANCH  17  23
ENDBRANCH  14  16
ENDBRANCH   1  14
BRANCH  11  37
ATOM     37  C   UNL     1      23.858  35.670  -7.896  1.00  0.00     0.303 C 
BRANCH  37  38
ATOM     38  O   UNL     1      24.514  36.193  -9.027  1.00  0.00    -0.265 OA
BRANCH  38  39
ATOM     39  P   UNL     1      24.475  35.024 -10.270  1.00  0.00     0.471 P 
ATOM     40  O   UNL     1      25.314  35.496 -11.440  1.00  0.00    -0.228 OA
BRANCH  39  41
ATOM     41  O   UNL     1      22.882  34.738 -10.778  1.00  0.00    -0.303 OA
ATOM     42  H   UNL     1      22.320  35.335 -10.221  1.00  0.00     0.223 HD
ENDBRANCH  39  41
BRANCH  39  43
ATOM     43  O   UNL     1      25.125  33.580  -9.673  1.00  0.00    -0.303 OA
ATOM     44  H   UNL     1      24.711  33.469  -8.779  1.00  0.00     0.223 HD
ENDBRANCH  39  43
ENDBRANCH  38  39
ENDBRANCH  37  38
ENDBRANCH  11  37
TORSDOF 12
ENDMDL
MODEL 2
REMARK VINA RESULT:    -9.156      0.091      2.066
REMARK INTER + INTRA:         -17.248
REMARK INTER:                 -15.077
REMARK INTRA:                  -2.171
REMARK UNBOUND:                -2.205
REMARK SMILES COc1cc(Nc2ncc(F)c(Nc3ccc4c(n3)N(COP(=O)(O)O)C(=O)C(C)(C)O4)n2)cc(OC)c1OC
REMARK SMILES IDX 14 1 19 2 18 3 17 4 32 5 29 6 30 7 31 8 27 9 28 10 20 11
REMARK SMILES IDX 16 12 15 13 13 14 12 16 7 17 8 18 33 19 9 20 10 21 11 22
REMARK SMILES IDX 6 23 5 25 3 26 4 27 38 28 35 29 34 30 2 31 1 32 39 33 40 34
REMARK SMILES IDX 36 35 37 36 21 37 22 38 23 39 24 40 25 41 26 43
REMARK H PARENT 13 15 6 24 25 42 26 44
REMARK Flexibility Score: inf
ROOT
ATOM      1  C   UNL     1      22.084  38.382  -5.260  1.00  0.00     0.134 A 
ATOM      2  N   UNL     1      22.687  37.462  -6.062  1.00  0.00    -0.209 NA
ATOM      3  C   UNL     1      23.943  36.995  -5.816  1.00  0.00     0.182 A 
ATOM      4  C   UNL     1      24.655  37.476  -4.712  1.00  0.00     0.164 A 
ATOM      5  O   UNL     1      25.938  36.995  -4.441  1.00  0.00    -0.474 OA
ATOM      6  C   UNL     1      26.435  35.756  -4.961  1.00  0.00     0.182 C 
ATOM      7  C   UNL     1      27.961  35.874  -5.083  1.00  0.00     0.067 C 
ATOM      8  C   UNL     1      26.073  34.636  -3.975  1.00  0.00     0.067 C 
ATOM      9  C   UNL     1      25.817  35.442  -6.313  1.00  0.00     0.273 C 
ATOM     10  O   UNL     1      26.369  34.590  -7.064  1.00  0.00    -0.270 OA
ATOM     11  N   UNL     1      24.562  36.040  -6.698  1.00  0.00    -0.265 N 
ATOM     12  C   UNL     1      24.079  38.450  -3.894  1.00  0.00     0.054 A 
ATOM     13  C   UNL     1      22.789  38.909  -4.164  1.00  0.00     0.051 A 
ENDROOT
BRANCH   1  14
ATOM     14  N   UNL     1      20.765  38.840  -5.590  1.00  0.00    -0.322 N 
ATOM     15  H   UNL     1      19.955  38.279  -5.242  1.00  0.00     0.170 HD
BRANCH  14  16
ATOM     16  C   UNL     1      20.482  39.995  -6.394  1.00  0.00     0.173 A 
ATOM     17  C   UNL     1      20.657  41.083  -8.496  1.00  0.00     0.229 A 
ATOM     18  N   UNL     1      19.898  42.114  -8.035  1.00  0.00    -0.218 NA
ATOM     19  N   UNL     1      20.924  40.029  -7.679  1.00  0.00    -0.192 NA
ATOM     20  C   UNL     1      19.419  42.120  -6.765  1.00  0.00     0.158 A 
ATOM     21  C   UNL     1      19.694  41.053  -5.913  1.00  0.00     0.184 A 
ATOM     22  F   UNL     1      19.158  41.032  -4.667  1.00  0.00    -0.201 F 
BRANCH  17  23
ATOM     23  N   UNL     1      21.131  41.066  -9.852  1.00  0.00    -0.324 N 
ATOM     24  H   UNL     1      21.920  41.706 -10.092  1.00  0.00     0.170 HD
BRANCH  23  25
ATOM     25  C   UNL     1      20.688  40.132 -10.853  1.00  0.00     0.049 A 
ATOM     26  C   UNL     1      21.080  38.095 -12.130  1.00  0.00     0.166 A 
ATOM     27  C   UNL     1      21.481  39.022 -11.152  1.00  0.00     0.076 A 
ATOM     28  C   UNL     1      19.877  38.288 -12.830  1.00  0.00     0.203 A 
ATOM     29  C   UNL     1      19.080  39.429 -12.556  1.00  0.00     0.166 A 
ATOM     30  C   UNL     1      19.506  40.347 -11.576  1.00  0.00     0.076 A 
BRANCH  26  31
ATOM     31  O   UNL     1      21.850  36.961 -12.435  1.00  0.00    -0.493 OA
ATOM     32  C   UNL     1      22.924  36.938 -13.369  1.00  0.00     0.278 C 
ENDBRANCH  26  31
BRANCH  28  33
ATOM     33  O   UNL     1      19.539  37.309 -13.784  1.00  0.00    -0.490 OA
ATOM     34  C   UNL     1      19.780  37.371 -15.186  1.00  0.00     0.278 C 
ENDBRANCH  28  33
BRANCH  29  35
ATOM     35  O   UNL     1      17.885  39.635 -13.263  1.00  0.00    -0.493 OA
ATOM     36  C   UNL     1      16.907  40.622 -12.948  1.00  0.00     0.278 C 
ENDBRANCH  29  35
ENDBRANCH  23  25
ENDBRANCH  17  23
ENDBRANCH  14  16
ENDBRANCH   1  14
BRANCH  11  37
ATOM     37  C   UNL     1      23.864  35.596  -7.911  1.00  0.00     0.303 C 
BRANCH  37  38
ATOM     38  O   UNL     1      24.495  36.162  -9.034  1.00  0.00    -0.265 OA
BRANCH  38  39
ATOM     39  P   UNL     1      24.515  35.007 -10.290  1.00  0.00     0.471 P 
ATOM     40  O   UNL     1      25.337  35.529 -11.450  1.00  0.00    -0.228 OA
BRANCH  39  41
ATOM     41  O   UNL     1      22.938  34.655 -10.810  1.00  0.00    -0.303 OA
ATOM     42  H   UNL     1      22.360  34.837 -10.026  1.00  0.00     0.223 HD
ENDBRANCH  39  41
BRANCH  39  43
ATOM     43  O   UNL     1      25.226  33.587  -9.706  1.00  0.00    -0.303 OA
ATOM     44  H   UNL     1      25.400  33.769  -8.748  1.00  0.00     0.223 HD
ENDBRANCH  39  43
ENDBRANCH  38  39
ENDBRANCH  37  38
ENDBRANCH  11  37
TORSDOF 12
ENDMDL
MODEL 3
REMARK VINA RESULT:    -8.719      1.648      3.174
REMARK INTER + INTRA:         -16.531
REMARK INTER:                 -14.064
REMARK INTRA:                  -2.467
REMARK UNBOUND:                -2.205
REMARK SMILES COc1cc(Nc2ncc(F)c(Nc3ccc4c(n3)N(COP(=O)(O)O)C(=O)C(C)(C)O4)n2)cc(OC)c1OC
REMARK SMILES IDX 14 1 19 2 18 3 17 4 32 5 29 6 30 7 31 8 27 9 28 10 20 11
REMARK SMILES IDX 16 12 15 13 13 14 12 16 7 17 8 18 33 19 9 20 10 21 11 22
REMARK SMILES IDX 6 23 5 25 3 26 4 27 38 28 35 29 34 30 2 31 1 32 39 33 40 34
REMARK SMILES IDX 36 35 37 36 21 37 22 38 23 39 24 40 25 41 26 43
REMARK H PARENT 13 15 6 24 25 42 26 44
REMARK Flexibility Score: inf
ROOT
ATOM      1  C   UNL     1      21.776  38.494  -5.072  1.00  0.00     0.134 A 
ATOM      2  N   UNL     1      22.305  37.615  -5.967  1.00  0.00    -0.209 NA
ATOM      3  C   UNL     1      23.576  37.136  -5.851  1.00  0.00     0.182 A 
ATOM      4  C   UNL     1      24.380  37.562  -4.789  1.00  0.00     0.164 A 
ATOM      5  O   UNL     1      25.680  37.068  -4.653  1.00  0.00    -0.474 OA
ATOM      6  C   UNL     1      26.126  35.857  -5.274  1.00  0.00     0.182 C 
ATOM      7  C   UNL     1      27.637  35.981  -5.518  1.00  0.00     0.067 C 
ATOM      8  C   UNL     1      25.845  34.689  -4.318  1.00  0.00     0.067 C 
ATOM      9  C   UNL     1      25.395  35.611  -6.582  1.00  0.00     0.273 C 
ATOM     10  O   UNL     1      25.878  34.798  -7.419  1.00  0.00    -0.270 OA
ATOM     11  N   UNL     1      24.114  36.227  -6.829  1.00  0.00    -0.265 N 
ATOM     12  C   UNL     1      23.880  38.494  -3.878  1.00  0.00     0.054 A 
ATOM     13  C   UNL     1      22.574  38.965  -4.014  1.00  0.00     0.051 A 
ENDROOT
BRANCH   1  14
ATOM     14  N   UNL     1      20.436  38.967  -5.266  1.00  0.00    -0.322 N 
ATOM     15  H   UNL     1      19.653  38.354  -4.944  1.00  0.00     0.170 HD
BRANCH  14  16
ATOM     16  C   UNL     1      20.095  40.207  -5.903  1.00  0.00     0.173 A 
ATOM     17  C   UNL     1      19.881  41.453  -7.912  1.00  0.00     0.229 A 
ATOM     18  N   UNL     1      19.368  42.504  -7.215  1.00  0.00    -0.218 NA
ATOM     19  N   UNL     1      20.220  40.313  -7.252  1.00  0.00    -0.192 NA
ATOM     20  C   UNL     1      19.208  42.443  -5.869  1.00  0.00     0.158 A 
ATOM     21  C   UNL     1      19.562  41.286  -5.178  1.00  0.00     0.184 A 
ATOM     22  F   UNL     1      19.339  41.205  -3.842  1.00  0.00    -0.201 F 
BRANCH  17  23
ATOM     23  N   UNL     1      20.014  41.511  -9.340  1.00  0.00    -0.324 N 
ATOM     24  H   UNL     1      20.953  41.757  -9.724  1.00  0.00     0.170 HD
BRANCH  23  25
ATOM     25  C   UNL     1      18.986  41.117 -10.267  1.00  0.00     0.049 A 
ATOM     26  C   UNL     1      18.365  40.078 -12.380  1.00  0.00     0.166 A 
ATOM     27  C   UNL     1      19.344  40.469 -11.451  1.00  0.00     0.076 A 
ATOM     28  C   UNL     1      17.010  40.351 -12.130  1.00  0.00     0.203 A 
ATOM     29  C   UNL     1      16.638  41.037 -10.945  1.00  0.00     0.166 A 
ATOM     30  C   UNL     1      17.639  41.424 -10.033  1.00  0.00     0.076 A 
BRANCH  26  31
ATOM     31  O   UNL     1      18.697  39.408 -13.569  1.00  0.00    -0.493 OA
ATOM     32  C   UNL     1      19.879  38.638 -13.762  1.00  0.00     0.278 C 
ENDBRANCH  26  31
BRANCH  28  33
ATOM     33  O   UNL     1      16.089  39.916 -13.103  1.00  0.00    -0.490 OA
ATOM     34  C   UNL     1      15.470  40.717 -14.104  1.00  0.00     0.278 C 
ENDBRANCH  28  33
BRANCH  29  35
ATOM     35  O   UNL     1      15.287  41.327 -10.697  1.00  0.00    -0.493 OA
ATOM     36  C   UNL     1      14.671  42.595 -10.901  1.00  0.00     0.278 C 
ENDBRANCH  29  35
ENDBRANCH  23  25
ENDBRANCH  17  23
ENDBRANCH  14  16
ENDBRANCH   1  14
BRANCH  11  37
ATOM     37  C   UNL     1      23.314  35.844  -7.999  1.00  0.00     0.303 C 
BRANCH  37  38
ATOM     38  O   UNL     1      23.458  36.830  -8.994  1.00  0.00    -0.265 OA
BRANCH  38  39
ATOM     39  P   UNL     1      21.910  37.405  -9.422  1.00  0.00     0.471 P 
ATOM     40  O   UNL     1      21.494  36.809 -10.751  1.00  0.00    -0.228 OA
BRANCH  39  41
ATOM     41  O   UNL     1      21.901  39.099  -9.520  1.00  0.00    -0.303 OA
ATOM     42  H   UNL     1      21.102  39.324 -10.060  1.00  0.00     0.223 HD
ENDBRANCH  39  41
BRANCH  39  43
ATOM     43  O   UNL     1      20.806  36.922  -8.233  1.00  0.00    -0.303 OA
ATOM     44  H   UNL     1      21.114  37.375  -7.407  1.00  0.00     0.223 HD
ENDBRANCH  39  43
ENDBRANCH  38  39
ENDBRANCH  37  38
ENDBRANCH  11  37
TORSDOF 12
ENDMDL
MODEL 4
REMARK VINA RESULT:    -8.676      1.618      2.506
REMARK INTER + INTRA:         -16.460
REMARK INTER:                 -14.119
REMARK INTRA:                  -2.341
REMARK UNBOUND:                -2.205
REMARK SMILES COc1cc(Nc2ncc(F)c(Nc3ccc4c(n3)N(COP(=O)(O)O)C(=O)C(C)(C)O4)n2)cc(OC)c1OC
REMARK SMILES IDX 14 1 19 2 18 3 17 4 32 5 29 6 30 7 31 8 27 9 28 10 20 11
REMARK SMILES IDX 16 12 15 13 13 14 12 16 7 17 8 18 33 19 9 20 10 21 11 22
REMARK SMILES IDX 6 23 5 25 3 26 4 27 38 28 35 29 34 30 2 31 1 32 39 33 40 34
REMARK SMILES IDX 36 35 37 36 21 37 22 38 23 39 24 40 25 41 26 43
REMARK H PARENT 13 15 6 24 25 42 26 44
REMARK Flexibility Score: inf
ROOT
ATOM      1  C   UNL     1      21.782  38.521  -5.080  1.00  0.00     0.134 A 
ATOM      2  N   UNL     1      22.310  37.629  -5.962  1.00  0.00    -0.209 NA
ATOM      3  C   UNL     1      23.578  37.145  -5.836  1.00  0.00     0.182 A 
ATOM      4  C   UNL     1      24.380  37.579  -4.775  1.00  0.00     0.164 A 
ATOM      5  O   UNL     1      25.676  37.080  -4.627  1.00  0.00    -0.474 OA
ATOM      6  C   UNL     1      26.118  35.859  -5.231  1.00  0.00     0.182 C 
ATOM      7  C   UNL     1      27.631  35.972  -5.470  1.00  0.00     0.067 C 
ATOM      8  C   UNL     1      25.826  34.704  -4.262  1.00  0.00     0.067 C 
ATOM      9  C   UNL     1      25.392  35.601  -6.540  1.00  0.00     0.273 C 
ATOM     10  O   UNL     1      25.874  34.775  -7.365  1.00  0.00    -0.270 OA
ATOM     11  N   UNL     1      24.115  36.221  -6.800  1.00  0.00    -0.265 N 
ATOM     12  C   UNL     1      23.880  38.525  -3.878  1.00  0.00     0.054 A 
ATOM     13  C   UNL     1      22.577  39.001  -4.025  1.00  0.00     0.051 A 
ENDROOT
BRANCH   1  14
ATOM     14  N   UNL     1      20.445  38.999  -5.287  1.00  0.00    -0.322 N 
ATOM     15  H   UNL     1      19.659  38.414  -4.924  1.00  0.00     0.170 HD
BRANCH  14  16
ATOM     16  C   UNL     1      20.111  40.208  -5.985  1.00  0.00     0.173 A 
ATOM     17  C   UNL     1      19.950  41.367  -8.051  1.00  0.00     0.229 A 
ATOM     18  N   UNL     1      19.402  42.439  -7.416  1.00  0.00    -0.218 NA
ATOM     19  N   UNL     1      20.281  40.259  -7.333  1.00  0.00    -0.192 NA
ATOM     20  C   UNL     1      19.198  42.431  -6.075  1.00  0.00     0.158 A 
ATOM     21  C   UNL     1      19.542  41.309  -5.324  1.00  0.00     0.184 A 
ATOM     22  F   UNL     1      19.275  41.280  -3.995  1.00  0.00    -0.201 F 
BRANCH  17  23
ATOM     23  N   UNL     1      20.131  41.367  -9.475  1.00  0.00    -0.324 N 
ATOM     24  H   UNL     1      21.098  41.527  -9.836  1.00  0.00     0.170 HD
BRANCH  23  25
ATOM     25  C   UNL     1      19.103  41.024 -10.423  1.00  0.00     0.049 A 
ATOM     26  C   UNL     1      16.747  41.020 -11.039  1.00  0.00     0.166 A 
ATOM     27  C   UNL     1      17.774  41.346 -10.137  1.00  0.00     0.076 A 
ATOM     28  C   UNL     1      17.049  40.349 -12.236  1.00  0.00     0.203 A 
ATOM     29  C   UNL     1      18.392  39.990 -12.521  1.00  0.00     0.166 A 
ATOM     30  C   UNL     1      19.403  40.323 -11.598  1.00  0.00     0.076 A 
BRANCH  26  31
ATOM     31  O   UNL     1      15.406  41.349 -10.783  1.00  0.00    -0.493 OA
ATOM     32  C   UNL     1      14.971  42.552 -10.159  1.00  0.00     0.278 C 
ENDBRANCH  26  31
BRANCH  28  33
ATOM     33  O   UNL     1      15.966  40.069 -13.091  1.00  0.00    -0.490 OA
ATOM     34  C   UNL     1      15.559  40.828 -14.224  1.00  0.00     0.278 C 
ENDBRANCH  28  33
BRANCH  29  35
ATOM     35  O   UNL     1      18.697  39.306 -13.708  1.00  0.00    -0.493 OA
ATOM     36  C   UNL     1      19.990  38.827 -14.067  1.00  0.00     0.278 C 
ENDBRANCH  29  35
ENDBRANCH  23  25
ENDBRANCH  17  23
ENDBRANCH  14  16
ENDBRANCH   1  14
BRANCH  11  37
ATOM     37  C   UNL     1      23.318  35.828  -7.969  1.00  0.00     0.303 C 
BRANCH  37  38
ATOM     38  O   UNL     1      23.462  36.808  -8.970  1.00  0.00    -0.265 OA
BRANCH  38  39
ATOM     39  P   UNL     1      21.911  37.321  -9.460  1.00  0.00     0.471 P 
ATOM     40  O   UNL     1      21.500  36.580 -10.715  1.00  0.00    -0.228 OA
BRANCH  39  41
ATOM     41  O   UNL     1      21.892  38.994  -9.743  1.00  0.00    -0.303 OA
ATOM     42  H   UNL     1      22.738  39.333  -9.355  1.00  0.00     0.223 HD
ENDBRANCH  39  41
BRANCH  39  43
ATOM     43  O   UNL     1      20.809  36.966  -8.225  1.00  0.00    -0.303 OA
ATOM     44  H   UNL     1      20.808  37.773  -7.650  1.00  0.00     0.223 HD
ENDBRANCH  39  43
ENDBRANCH  38  39
ENDBRANCH  37  38
ENDBRANCH  11  37
TORSDOF 12
ENDMDL
MODEL 5
REMARK VINA RESULT:    -8.378      4.381      7.319
REMARK INTER + INTRA:         -15.971
REMARK INTER:                 -14.514
REMARK INTRA:                  -1.457
REMARK UNBOUND:                -2.205
REMARK SMILES COc1cc(Nc2ncc(F)c(Nc3ccc4c(n3)N(COP(=O)(O)O)C(=O)C(C)(C)O4)n2)cc(OC)c1OC
REMARK SMILES IDX 14 1 19 2 18 3 17 4 32 5 29 6 30 7 31 8 27 9 28 10 20 11
REMARK SMILES IDX 16 12 15 13 13 14 12 16 7 17 8 18 33 19 9 20 10 21 11 22
REMARK SMILES IDX 6 23 5 25 3 26 4 27 38 28 35 29 34 30 2 31 1 32 39 33 40 34
REMARK SMILES IDX 36 35 37 36 21 37 22 38 23 39 24 40 25 41 26 43
REMARK H PARENT 13 15 6 24 25 42 26 44
REMARK Flexibility Score: inf
ROOT
ATOM      1  C   UNL     1      21.820  38.613  -5.465  1.00  0.00     0.134 A 
ATOM      2  N   UNL     1      22.530  37.694  -6.176  1.00  0.00    -0.209 NA
ATOM      3  C   UNL     1      23.768  37.274  -5.790  1.00  0.00     0.182 A 
ATOM      4  C   UNL     1      24.346  37.804  -4.632  1.00  0.00     0.164 A 
ATOM      5  O   UNL     1      25.608  37.372  -4.218  1.00  0.00    -0.474 OA
ATOM      6  C   UNL     1      26.194  36.138  -4.650  1.00  0.00     0.182 C 
ATOM      7  C   UNL     1      27.720  36.303  -4.617  1.00  0.00     0.067 C 
ATOM      8  C   UNL     1      25.765  35.030  -3.678  1.00  0.00     0.067 C 
ATOM      9  C   UNL     1      25.729  35.773  -6.050  1.00  0.00     0.273 C 
ATOM     10  O   UNL     1      26.381  34.922  -6.718  1.00  0.00    -0.270 OA
ATOM     11  N   UNL     1      24.503  36.320  -6.577  1.00  0.00    -0.265 N 
ATOM     12  C   UNL     1      23.660  38.778  -3.904  1.00  0.00     0.054 A 
ATOM     13  C   UNL     1      22.392  39.187  -4.317  1.00  0.00     0.051 A 
ENDROOT
BRANCH   1  14
ATOM     14  N   UNL     1      20.529  39.019  -5.942  1.00  0.00    -0.322 N 
ATOM     15  H   UNL     1      19.796  38.282  -6.046  1.00  0.00     0.170 HD
BRANCH  14  16
ATOM     16  C   UNL     1      20.186  40.361  -6.317  1.00  0.00     0.173 A 
ATOM     17  C   UNL     1      19.082  42.391  -5.770  1.00  0.00     0.229 A 
ATOM     18  N   UNL     1      19.567  42.969  -6.903  1.00  0.00    -0.218 NA
ATOM     19  N   UNL     1      19.411  41.102  -5.481  1.00  0.00    -0.192 NA
ATOM     20  C   UNL     1      20.357  42.277  -7.762  1.00  0.00     0.158 A 
ATOM     21  C   UNL     1      20.693  40.953  -7.486  1.00  0.00     0.184 A 
ATOM     22  F   UNL     1      21.537  40.286  -8.312  1.00  0.00    -0.201 F 
BRANCH  17  23
ATOM     23  N   UNL     1      18.276  43.139  -4.847  1.00  0.00    -0.324 N 
ATOM     24  H   UNL     1      17.265  42.885  -4.779  1.00  0.00     0.170 HD
BRANCH  23  25
ATOM     25  C   UNL     1      18.795  44.109  -3.920  1.00  0.00     0.049 A 
ATOM     26  C   UNL     1      19.282  46.434  -3.384  1.00  0.00     0.166 A 
ATOM     27  C   UNL     1      18.778  45.463  -4.264  1.00  0.00     0.076 A 
ATOM     28  C   UNL     1      19.826  46.048  -2.147  1.00  0.00     0.203 A 
ATOM     29  C   UNL     1      19.876  44.673  -1.800  1.00  0.00     0.166 A 
ATOM     30  C   UNL     1      19.370  43.718  -2.703  1.00  0.00     0.076 A 
BRANCH  26  31
ATOM     31  O   UNL     1      19.259  47.803  -3.699  1.00  0.00    -0.493 OA
ATOM     32  C   UNL     1      20.119  48.432  -4.643  1.00  0.00     0.278 C 
ENDBRANCH  26  31
BRANCH  28  33
ATOM     33  O   UNL     1      20.299  47.082  -1.316  1.00  0.00    -0.490 OA
ATOM     34  C   UNL     1      19.621  47.656  -0.204  1.00  0.00     0.278 C 
ENDBRANCH  28  33
BRANCH  29  35
ATOM     35  O   UNL     1      20.432  44.280  -0.573  1.00  0.00    -0.493 OA
ATOM     36  C   UNL     1      19.691  43.796   0.544  1.00  0.00     0.278 C 
ENDBRANCH  29  35
ENDBRANCH  23  25
ENDBRANCH  17  23
ENDBRANCH  14  16
ENDBRANCH   1  14
BRANCH  11  37
ATOM     37  C   UNL     1      23.948  35.825  -7.844  1.00  0.00     0.303 C 
BRANCH  37  38
ATOM     38  O   UNL     1      24.812  36.190  -8.894  1.00  0.00    -0.265 OA
BRANCH  38  39
ATOM     39  P   UNL     1      24.876  34.909 -10.019  1.00  0.00     0.471 P 
ATOM     40  O   UNL     1      23.595  34.106  -9.952  1.00  0.00    -0.228 OA
BRANCH  39  41
ATOM     41  O   UNL     1      26.208  33.903  -9.711  1.00  0.00    -0.303 OA
ATOM     42  H   UNL     1      25.845  32.981  -9.722  1.00  0.00     0.223 HD
ENDBRANCH  39  41
BRANCH  39  43
ATOM     43  O   UNL     1      25.036  35.562 -11.573  1.00  0.00    -0.303 OA
ATOM     44  H   UNL     1      24.149  35.424 -11.995  1.00  0.00     0.223 HD
ENDBRANCH  39  43
ENDBRANCH  38  39
ENDBRANCH  37  38
ENDBRANCH  11  37
TORSDOF 12
ENDMDL
MODEL 6
REMARK VINA RESULT:    -8.266      3.543      5.824
REMARK INTER + INTRA:         -15.786
REMARK INTER:                 -14.553
REMARK INTRA:                  -1.233
REMARK UNBOUND:                -2.205
REMARK SMILES COc1cc(Nc2ncc(F)c(Nc3ccc4c(n3)N(COP(=O)(O)O)C(=O)C(C)(C)O4)n2)cc(OC)c1OC
REMARK SMILES IDX 14 1 19 2 18 3 17 4 32 5 29 6 30 7 31 8 27 9 28 10 20 11
REMARK SMILES IDX 16 12 15 13 13 14 12 16 7 17 8 18 33 19 9 20 10 21 11 22
REMARK SMILES IDX 6 23 5 25 3 26 4 27 38 28 35 29 34 30 2 31 1 32 39 33 40 34
REMARK SMILES IDX 36 35 37 36 21 37 22 38 23 39 24 40 25 41 26 43
REMARK H PARENT 13 15 6 24 25 42 26 44
REMARK Flexibility Score: inf
ROOT
ATOM      1  C   UNL     1      24.660  35.246  -9.786  1.00  0.00     0.134 A 
ATOM      2  N   UNL     1      24.427  36.086  -8.740  1.00  0.00    -0.209 NA
ATOM      3  C   UNL     1      24.874  35.820  -7.481  1.00  0.00     0.182 A 
ATOM      4  C   UNL     1      25.589  34.643  -7.236  1.00  0.00     0.164 A 
ATOM      5  O   UNL     1      26.065  34.365  -5.953  1.00  0.00    -0.474 OA
ATOM      6  C   UNL     1      26.235  35.371  -4.947  1.00  0.00     0.182 C 
ATOM      7  C   UNL     1      26.071  34.700  -3.576  1.00  0.00     0.067 C 
ATOM      8  C   UNL     1      27.649  35.955  -5.079  1.00  0.00     0.067 C 
ATOM      9  C   UNL     1      25.222  36.490  -5.115  1.00  0.00     0.273 C 
ATOM     10  O   UNL     1      24.998  37.274  -4.150  1.00  0.00    -0.270 OA
ATOM     11  N   UNL     1      24.589  36.716  -6.392  1.00  0.00    -0.265 N 
ATOM     12  C   UNL     1      25.809  33.743  -8.281  1.00  0.00     0.054 A 
ATOM     13  C   UNL     1      25.346  34.040  -9.562  1.00  0.00     0.051 A 
ENDROOT
BRANCH   1  14
ATOM     14  N   UNL     1      24.145  35.585 -11.082  1.00  0.00    -0.322 N 
ATOM     15  H   UNL     1      24.743  35.376 -11.912  1.00  0.00     0.170 HD
BRANCH  14  16
ATOM     16  C   UNL     1      22.878  36.219 -11.313  1.00  0.00     0.173 A 
ATOM     17  C   UNL     1      21.063  37.479 -10.445  1.00  0.00     0.229 A 
ATOM     18  N   UNL     1      20.507  37.548 -11.685  1.00  0.00    -0.218 NA
ATOM     19  N   UNL     1      22.249  36.833 -10.276  1.00  0.00    -0.192 NA
ATOM     20  C   UNL     1      21.104  36.966 -12.755  1.00  0.00     0.158 A 
ATOM     21  C   UNL     1      22.312  36.291 -12.597  1.00  0.00     0.184 A 
ATOM     22  F   UNL     1      22.939  35.767 -13.680  1.00  0.00    -0.201 F 
BRANCH  17  23
ATOM     23  N   UNL     1      20.445  38.127  -9.323  1.00  0.00    -0.324 N 
ATOM     24  H   UNL     1      20.326  37.566  -8.450  1.00  0.00     0.170 HD
BRANCH  23  25
ATOM     25  C   UNL     1      20.112  39.527  -9.277  1.00  0.00     0.049 A 
ATOM     26  C   UNL     1      20.139  41.716 -10.344  1.00  0.00     0.166 A 
ATOM     27  C   UNL     1      20.445  40.345 -10.359  1.00  0.00     0.076 A 
ATOM     28  C   UNL     1      19.505  42.282  -9.225  1.00  0.00     0.203 A 
ATOM     29  C   UNL     1      19.191  41.466  -8.107  1.00  0.00     0.166 A 
ATOM     30  C   UNL     1      19.513  40.095  -8.145  1.00  0.00     0.076 A 
BRANCH  26  31
ATOM     31  O   UNL     1      20.446  42.556 -11.427  1.00  0.00    -0.493 OA
ATOM     32  C   UNL     1      20.192  42.243 -12.792  1.00  0.00     0.278 C 
ENDBRANCH  26  31
BRANCH  28  33
ATOM     33  O   UNL     1      19.222  43.660  -9.291  1.00  0.00    -0.490 OA
ATOM     34  C   UNL     1      18.027  44.259  -9.780  1.00  0.00     0.278 C 
ENDBRANCH  28  33
BRANCH  29  35
ATOM     35  O   UNL     1      18.572  42.029  -6.980  1.00  0.00    -0.493 OA
ATOM     36  C   UNL     1      19.048  41.915  -5.643  1.00  0.00     0.278 C 
ENDBRANCH  29  35
ENDBRANCH  23  25
ENDBRANCH  17  23
ENDBRANCH  14  16
ENDBRANCH   1  14
BRANCH  11  37
ATOM     37  C   UNL     1      23.761  37.908  -6.614  1.00  0.00     0.303 C 
BRANCH  37  38
ATOM     38  O   UNL     1      22.457  37.652  -6.147  1.00  0.00    -0.265 OA
BRANCH  38  39
ATOM     39  P   UNL     1      21.898  39.027  -5.305  1.00  0.00     0.471 P 
ATOM     40  O   UNL     1      20.446  38.835  -4.921  1.00  0.00    -0.228 OA
BRANCH  39  41
ATOM     41  O   UNL     1      22.066  40.424  -6.254  1.00  0.00    -0.303 OA
ATOM     42  H   UNL     1      22.853  40.898  -5.882  1.00  0.00     0.223 HD
ENDBRANCH  39  41
BRANCH  39  43
ATOM     43  O   UNL     1      22.821  39.210  -3.898  1.00  0.00    -0.303 OA
ATOM     44  H   UNL     1      23.568  38.566  -4.002  1.00  0.00     0.223 HD
ENDBRANCH  39  43
ENDBRANCH  38  39
ENDBRANCH  37  38
ENDBRANCH  11  37
TORSDOF 12
ENDMDL
MODEL 7
REMARK VINA RESULT:    -8.241      4.355      7.436
REMARK INTER + INTRA:         -15.744
REMARK INTER:                 -14.239
REMARK INTRA:                  -1.506
REMARK UNBOUND:                -2.205
REMARK SMILES COc1cc(Nc2ncc(F)c(Nc3ccc4c(n3)N(COP(=O)(O)O)C(=O)C(C)(C)O4)n2)cc(OC)c1OC
REMARK SMILES IDX 14 1 19 2 18 3 17 4 32 5 29 6 30 7 31 8 27 9 28 10 20 11
REMARK SMILES IDX 16 12 15 13 13 14 12 16 7 17 8 18 33 19 9 20 10 21 11 22
REMARK SMILES IDX 6 23 5 25 3 26 4 27 38 28 35 29 34 30 2 31 1 32 39 33 40 34
REMARK SMILES IDX 36 35 37 36 21 37 22 38 23 39 24 40 25 41 26 43
REMARK H PARENT 13 15 6 24 25 42 26 44
REMARK Flexibility Score: inf
ROOT
ATOM      1  C   UNL     1      22.046  38.386  -5.246  1.00  0.00     0.134 A 
ATOM      2  N   UNL     1      22.642  37.468  -6.056  1.00  0.00    -0.209 NA
ATOM      3  C   UNL     1      23.901  37.000  -5.821  1.00  0.00     0.182 A 
ATOM      4  C   UNL     1      24.620  37.476  -4.720  1.00  0.00     0.164 A 
ATOM      5  O   UNL     1      25.905  36.994  -4.461  1.00  0.00    -0.474 OA
ATOM      6  C   UNL     1      26.398  35.757  -4.989  1.00  0.00     0.182 C 
ATOM      7  C   UNL     1      27.923  35.875  -5.122  1.00  0.00     0.067 C 
ATOM      8  C   UNL     1      26.043  34.633  -4.006  1.00  0.00     0.067 C 
ATOM      9  C   UNL     1      25.770  35.449  -6.338  1.00  0.00     0.273 C 
ATOM     10  O   UNL     1      26.316  34.600  -7.097  1.00  0.00    -0.270 OA
ATOM     11  N   UNL     1      24.512  36.048  -6.711  1.00  0.00    -0.265 N 
ATOM     12  C   UNL     1      24.051  38.447  -3.895  1.00  0.00     0.054 A 
ATOM     13  C   UNL     1      22.759  38.908  -4.153  1.00  0.00     0.051 A 
ENDROOT
BRANCH   1  14
ATOM     14  N   UNL     1      20.724  38.845  -5.565  1.00  0.00    -0.322 N 
ATOM     15  H   UNL     1      19.938  38.163  -5.472  1.00  0.00     0.170 HD
BRANCH  14  16
ATOM     16  C   UNL     1      20.413  40.165  -6.034  1.00  0.00     0.173 A 
ATOM     17  C   UNL     1      19.321  42.238  -5.651  1.00  0.00     0.229 A 
ATOM     18  N   UNL     1      19.851  42.739  -6.800  1.00  0.00    -0.218 NA
ATOM     19  N   UNL     1      19.622  40.966  -5.272  1.00  0.00    -0.192 NA
ATOM     20  C   UNL     1      20.660  41.985  -7.587  1.00  0.00     0.158 A 
ATOM     21  C   UNL     1      20.967  40.677  -7.218  1.00  0.00     0.184 A 
ATOM     22  F   UNL     1      21.828  39.950  -7.973  1.00  0.00    -0.201 F 
BRANCH  17  23
ATOM     23  N   UNL     1      18.496  43.052  -4.804  1.00  0.00    -0.324 N 
ATOM     24  H   UNL     1      17.478  42.820  -4.759  1.00  0.00     0.170 HD
BRANCH  23  25
ATOM     25  C   UNL     1      18.997  44.066  -3.914  1.00  0.00     0.049 A 
ATOM     26  C   UNL     1      19.622  44.744  -1.660  1.00  0.00     0.166 A 
ATOM     27  C   UNL     1      19.141  43.774  -2.556  1.00  0.00     0.076 A 
ATOM     28  C   UNL     1      19.951  46.028  -2.124  1.00  0.00     0.203 A 
ATOM     29  C   UNL     1      19.779  46.345  -3.497  1.00  0.00     0.166 A 
ATOM     30  C   UNL     1      19.289  45.357  -4.374  1.00  0.00     0.076 A 
BRANCH  26  31
ATOM     31  O   UNL     1      19.794  44.470  -0.293  1.00  0.00    -0.493 OA
ATOM     32  C   UNL     1      20.201  43.213   0.236  1.00  0.00     0.278 C 
ENDBRANCH  26  31
BRANCH  28  33
ATOM     33  O   UNL     1      20.438  46.940  -1.167  1.00  0.00    -0.490 OA
ATOM     34  C   UNL     1      19.664  47.838  -0.379  1.00  0.00     0.278 C 
ENDBRANCH  28  33
BRANCH  29  35
ATOM     35  O   UNL     1      20.091  47.631  -3.964  1.00  0.00    -0.493 OA
ATOM     36  C   UNL     1      19.194  48.738  -3.974  1.00  0.00     0.278 C 
ENDBRANCH  29  35
ENDBRANCH  23  25
ENDBRANCH  17  23
ENDBRANCH  14  16
ENDBRANCH   1  14
BRANCH  11  37
ATOM     37  C   UNL     1      23.805  35.609  -7.921  1.00  0.00     0.303 C 
BRANCH  37  38
ATOM     38  O   UNL     1      24.466  36.130  -9.050  1.00  0.00    -0.265 OA
BRANCH  38  39
ATOM     39  P   UNL     1      24.450  34.951 -10.283  1.00  0.00     0.471 P 
ATOM     40  O   UNL     1      23.105  34.256 -10.309  1.00  0.00    -0.228 OA
BRANCH  39  41
ATOM     41  O   UNL     1      25.686  33.812 -10.043  1.00  0.00    -0.303 OA
ATOM     42  H   UNL     1      26.522  34.277 -10.302  1.00  0.00     0.223 HD
ENDBRANCH  39  41
BRANCH  39  43
ATOM     43  O   UNL     1      24.701  35.721 -11.770  1.00  0.00    -0.303 OA
ATOM     44  H   UNL     1      25.682  35.854 -11.821  1.00  0.00     0.223 HD
ENDBRANCH  39  43
ENDBRANCH  38  39
ENDBRANCH  37  38
ENDBRANCH  11  37
TORSDOF 12
ENDMDL
MODEL 8
REMARK VINA RESULT:    -8.188      3.657      6.184
REMARK INTER + INTRA:         -15.658
REMARK INTER:                 -14.233
REMARK INTRA:                  -1.425
REMARK UNBOUND:                -2.205
REMARK SMILES COc1cc(Nc2ncc(F)c(Nc3ccc4c(n3)N(COP(=O)(O)O)C(=O)C(C)(C)O4)n2)cc(OC)c1OC
REMARK SMILES IDX 14 1 19 2 18 3 17 4 32 5 29 6 30 7 31 8 27 9 28 10 20 11
REMARK SMILES IDX 16 12 15 13 13 14 12 16 7 17 8 18 33 19 9 20 10 21 11 22
REMARK SMILES IDX 6 23 5 25 3 26 4 27 38 28 35 29 34 30 2 31 1 32 39 33 40 34
REMARK SMILES IDX 36 35 37 36 21 37 22 38 23 39 24 40 25 41 26 43
REMARK H PARENT 13 15 6 24 25 42 26 44
REMARK Flexibility Score: inf
ROOT
ATOM      1  C   UNL     1      22.021  38.471  -5.833  1.00  0.00     0.134 A 
ATOM      2  N   UNL     1      22.751  37.485  -6.425  1.00  0.00    -0.209 NA
ATOM      3  C   UNL     1      23.969  37.099  -5.951  1.00  0.00     0.182 A 
ATOM      4  C   UNL     1      24.506  37.735  -4.827  1.00  0.00     0.164 A 
ATOM      5  O   UNL     1      25.747  37.339  -4.324  1.00  0.00    -0.474 OA
ATOM      6  C   UNL     1      26.339  36.067  -4.613  1.00  0.00     0.182 C 
ATOM      7  C   UNL     1      27.864  36.227  -4.535  1.00  0.00     0.067 C 
ATOM      8  C   UNL     1      25.864  35.059  -3.557  1.00  0.00     0.067 C 
ATOM      9  C   UNL     1      25.927  35.571  -5.988  1.00  0.00     0.273 C 
ATOM     10  O   UNL     1      26.597  34.657  -6.545  1.00  0.00    -0.270 OA
ATOM     11  N   UNL     1      24.726  36.070  -6.614  1.00  0.00    -0.265 N 
ATOM     12  C   UNL     1      23.799  38.777  -4.223  1.00  0.00     0.054 A 
ATOM     13  C   UNL     1      22.552  39.151  -4.723  1.00  0.00     0.051 A 
ENDROOT
BRANCH   1  14
ATOM     14  N   UNL     1      20.753  38.835  -6.397  1.00  0.00    -0.322 N 
ATOM     15  H   UNL     1      19.898  38.384  -6.001  1.00  0.00     0.170 HD
BRANCH  14  16
ATOM     16  C   UNL     1      20.581  39.751  -7.490  1.00  0.00     0.173 A 
ATOM     17  C   UNL     1      20.093  41.957  -8.216  1.00  0.00     0.229 A 
ATOM     18  N   UNL     1      20.334  41.595  -9.506  1.00  0.00    -0.218 NA
ATOM     19  N   UNL     1      20.237  41.039  -7.223  1.00  0.00    -0.192 NA
ATOM     20  C   UNL     1      20.695  40.326  -9.822  1.00  0.00     0.158 A 
ATOM     21  C   UNL     1      20.835  39.371  -8.818  1.00  0.00     0.184 A 
ATOM     22  F   UNL     1      21.261  38.121  -9.131  1.00  0.00    -0.201 F 
BRANCH  17  23
ATOM     23  N   UNL     1      19.746  43.310  -7.883  1.00  0.00    -0.324 N 
ATOM     24  H   UNL     1      19.838  44.028  -8.637  1.00  0.00     0.170 HD
BRANCH  23  25
ATOM     25  C   UNL     1      19.152  43.711  -6.635  1.00  0.00     0.049 A 
ATOM     26  C   UNL     1      19.341  44.907  -4.522  1.00  0.00     0.166 A 
ATOM     27  C   UNL     1      19.889  44.504  -5.751  1.00  0.00     0.076 A 
ATOM     28  C   UNL     1      18.045  44.502  -4.163  1.00  0.00     0.203 A 
ATOM     29  C   UNL     1      17.300  43.672  -5.040  1.00  0.00     0.166 A 
ATOM     30  C   UNL     1      17.874  43.276  -6.264  1.00  0.00     0.076 A 
BRANCH  26  31
ATOM     31  O   UNL     1      20.054  45.719  -3.624  1.00  0.00    -0.493 OA
ATOM     32  C   UNL     1      20.071  47.142  -3.656  1.00  0.00     0.278 C 
ENDBRANCH  26  31
BRANCH  28  33
ATOM     33  O   UNL     1      17.563  44.958  -2.921  1.00  0.00    -0.490 OA
ATOM     34  C   UNL     1      16.588  45.973  -2.709  1.00  0.00     0.278 C 
ENDBRANCH  28  33
BRANCH  29  35
ATOM     35  O   UNL     1      16.010  43.251  -4.680  1.00  0.00    -0.493 OA
ATOM     36  C   UNL     1      14.800  43.743  -5.248  1.00  0.00     0.278 C 
ENDBRANCH  29  35
ENDBRANCH  23  25
ENDBRANCH  17  23
ENDBRANCH  14  16
ENDBRANCH   1  14
BRANCH  11  37
ATOM     37  C   UNL     1      24.217  35.459  -7.848  1.00  0.00     0.303 C 
BRANCH  37  38
ATOM     38  O   UNL     1      24.837  36.075  -8.952  1.00  0.00    -0.265 OA
BRANCH  38  39
ATOM     39  P   UNL     1      24.722  35.030 -10.297  1.00  0.00     0.471 P 
ATOM     40  O   UNL     1      24.930  35.817 -11.574  1.00  0.00    -0.228 OA
BRANCH  39  41
ATOM     41  O   UNL     1      23.211  34.258 -10.332  1.00  0.00    -0.303 OA
ATOM     42  H   UNL     1      22.647  34.816 -10.926  1.00  0.00     0.223 HD
ENDBRANCH  39  41
BRANCH  39  43
ATOM     43  O   UNL     1      25.932  33.854 -10.172  1.00  0.00    -0.303 OA
ATOM     44  H   UNL     1      26.756  34.308 -10.484  1.00  0.00     0.223 HD
ENDBRANCH  39  43
ENDBRANCH  38  39
ENDBRANCH  37  38
ENDBRANCH  11  37
TORSDOF 12
ENDMDL
MODEL 9
REMARK VINA RESULT:    -8.177      1.782      3.085
REMARK INTER + INTRA:         -15.640
REMARK INTER:                 -13.960
REMARK INTRA:                  -1.680
REMARK UNBOUND:                -2.205
REMARK SMILES COc1cc(Nc2ncc(F)c(Nc3ccc4c(n3)N(COP(=O)(O)O)C(=O)C(C)(C)O4)n2)cc(OC)c1OC
REMARK SMILES IDX 14 1 19 2 18 3 17 4 32 5 29 6 30 7 31 8 27 9 28 10 20 11
REMARK SMILES IDX 16 12 15 13 13 14 12 16 7 17 8 18 33 19 9 20 10 21 11 22
REMARK SMILES IDX 6 23 5 25 3 26 4 27 38 28 35 29 34 30 2 31 1 32 39 33 40 34
REMARK SMILES IDX 36 35 37 36 21 37 22 38 23 39 24 40 25 41 26 43
REMARK H PARENT 13 15 6 24 25 42 26 44
REMARK Flexibility Score: inf
ROOT
ATOM      1  C   UNL     1      22.071  38.473  -6.165  1.00  0.00     0.134 A 
ATOM      2  N   UNL     1      22.840  37.467  -6.668  1.00  0.00    -0.209 NA
ATOM      3  C   UNL     1      24.014  37.090  -6.088  1.00  0.00     0.182 A 
ATOM      4  C   UNL     1      24.463  37.756  -4.943  1.00  0.00     0.164 A 
ATOM      5  O   UNL     1      25.658  37.370  -4.331  1.00  0.00    -0.474 OA
ATOM      6  C   UNL     1      26.263  36.087  -4.536  1.00  0.00     0.182 C 
ATOM      7  C   UNL     1      27.778  36.243  -4.341  1.00  0.00     0.067 C 
ATOM      8  C   UNL     1      25.699  35.112  -3.493  1.00  0.00     0.067 C 
ATOM      9  C   UNL     1      25.958  35.553  -5.925  1.00  0.00     0.273 C 
ATOM     10  O   UNL     1      26.665  34.621  -6.401  1.00  0.00    -0.270 OA
ATOM     11  N   UNL     1      24.815  36.039  -6.659  1.00  0.00    -0.265 N 
ATOM     12  C   UNL     1      23.718  38.818  -4.428  1.00  0.00     0.054 A 
ATOM     13  C   UNL     1      22.516  39.182  -5.036  1.00  0.00     0.051 A 
ENDROOT
BRANCH   1  14
ATOM     14  N   UNL     1      20.855  38.826  -6.839  1.00  0.00    -0.322 N 
ATOM     15  H   UNL     1      19.964  38.771  -6.294  1.00  0.00     0.170 HD
BRANCH  14  16
ATOM     16  C   UNL     1      20.772  39.217  -8.217  1.00  0.00     0.173 A 
ATOM     17  C   UNL     1      20.498  38.572 -10.486  1.00  0.00     0.229 A 
ATOM     18  N   UNL     1      20.499  39.878 -10.866  1.00  0.00    -0.218 NA
ATOM     19  N   UNL     1      20.616  38.256  -9.167  1.00  0.00    -0.192 NA
ATOM     20  C   UNL     1      20.636  40.875  -9.955  1.00  0.00     0.158 A 
ATOM     21  C   UNL     1      20.769  40.567  -8.602  1.00  0.00     0.184 A 
ATOM     22  F   UNL     1      20.838  41.567  -7.688  1.00  0.00    -0.201 F 
BRANCH  17  23
ATOM     23  N   UNL     1      20.317  37.523 -11.450  1.00  0.00    -0.324 N 
ATOM     24  H   UNL     1      19.765  36.688 -11.152  1.00  0.00     0.170 HD
BRANCH  23  25
ATOM     25  C   UNL     1      20.722  37.610 -12.828  1.00  0.00     0.049 A 
ATOM     26  C   UNL     1      22.511  37.672 -14.480  1.00  0.00     0.166 A 
ATOM     27  C   UNL     1      22.082  37.582 -13.145  1.00  0.00     0.076 A 
ATOM     28  C   UNL     1      21.569  37.805 -15.513  1.00  0.00     0.203 A 
ATOM     29  C   UNL     1      20.186  37.866 -15.200  1.00  0.00     0.166 A 
ATOM     30  C   UNL     1      19.782  37.780 -13.853  1.00  0.00     0.076 A 
BRANCH  26  31
ATOM     31  O   UNL     1      23.872  37.627 -14.825  1.00  0.00    -0.493 OA
ATOM     32  C   UNL     1      24.748  38.749 -14.814  1.00  0.00     0.278 C 
ENDBRANCH  26  31
BRANCH  28  33
ATOM     33  O   UNL     1      22.077  37.876 -16.824  1.00  0.00    -0.490 OA
ATOM     34  C   UNL     1      22.137  36.814 -17.771  1.00  0.00     0.278 C 
ENDBRANCH  28  33
BRANCH  29  35
ATOM     35  O   UNL     1      19.241  38.015 -16.227  1.00  0.00    -0.493 OA
ATOM     36  C   UNL     1      18.847  39.257 -16.803  1.00  0.00     0.278 C 
ENDBRANCH  29  35
ENDBRANCH  23  25
ENDBRANCH  17  23
ENDBRANCH  14  16
ENDBRANCH   1  14
BRANCH  11  37
ATOM     37  C   UNL     1      24.402  35.394  -7.911  1.00  0.00     0.303 C 
BRANCH  37  38
ATOM     38  O   UNL     1      25.174  35.913  -8.968  1.00  0.00    -0.265 OA
BRANCH  38  39
ATOM     39  P   UNL     1      25.251  34.748 -10.212  1.00  0.00     0.471 P 
ATOM     40  O   UNL     1      26.540  33.962 -10.097  1.00  0.00    -0.228 OA
BRANCH  39  41
ATOM     41  O   UNL     1      25.158  35.488 -11.737  1.00  0.00    -0.303 OA
ATOM     42  H   UNL     1      26.098  35.664 -11.998  1.00  0.00     0.223 HD
ENDBRANCH  39  41
BRANCH  39  43
ATOM     43  O   UNL     1      23.943  33.688 -10.041  1.00  0.00    -0.303 OA
ATOM     44  H   UNL     1      24.328  32.882  -9.610  1.00  0.00     0.223 HD
ENDBRANCH  39  43
ENDBRANCH  38  39
ENDBRANCH  37  38
ENDBRANCH  11  37
TORSDOF 12
ENDMDL
MODEL 10
REMARK VINA RESULT:    -8.121      3.565      6.428
REMARK INTER + INTRA:         -15.548
REMARK INTER:                 -13.013
REMARK INTRA:                  -2.536
REMARK UNBOUND:                -2.205
REMARK SMILES COc1cc(Nc2ncc(F)c(Nc3ccc4c(n3)N(COP(=O)(O)O)C(=O)C(C)(C)O4)n2)cc(OC)c1OC
REMARK SMILES IDX 14 1 19 2 18 3 17 4 32 5 29 6 30 7 31 8 27 9 28 10 20 11
REMARK SMILES IDX 16 12 15 13 13 14 12 16 7 17 8 18 33 19 9 20 10 21 11 22
REMARK SMILES IDX 6 23 5 25 3 26 4 27 38 28 35 29 34 30 2 31 1 32 39 33 40 34
REMARK SMILES IDX 36 35 37 36 21 37 22 38 23 39 24 40 25 41 26 43
REMARK H PARENT 13 15 6 24 25 42 26 44
REMARK Flexibility Score: inf
ROOT
ATOM      1  C   UNL     1      21.720  39.624  -5.920  1.00  0.00     0.134 A 
ATOM      2  N   UNL     1      21.272  40.697  -6.627  1.00  0.00    -0.209 NA
ATOM      3  C   UNL     1      20.161  41.396  -6.260  1.00  0.00     0.182 A 
ATOM      4  C   UNL     1      19.440  41.002  -5.129  1.00  0.00     0.164 A 
ATOM      5  O   UNL     1      18.307  41.718  -4.735  1.00  0.00    -0.474 OA
ATOM      6  C   UNL     1      18.047  43.063  -5.154  1.00  0.00     0.182 C 
ATOM      7  C   UNL     1      16.525  43.270  -5.160  1.00  0.00     0.067 C 
ATOM      8  C   UNL     1      18.700  44.020  -4.146  1.00  0.00     0.067 C 
ATOM      9  C   UNL     1      18.625  43.329  -6.533  1.00  0.00     0.273 C 
ATOM     10  O   UNL     1      18.215  44.323  -7.196  1.00  0.00    -0.270 OA
ATOM     11  N   UNL     1      19.699  42.512  -7.043  1.00  0.00    -0.265 N 
ATOM     12  C   UNL     1      19.852  39.880  -4.407  1.00  0.00     0.054 A 
ATOM     13  C   UNL     1      20.995  39.184  -4.799  1.00  0.00     0.051 A 
ENDROOT
BRANCH   1  14
ATOM     14  N   UNL     1      22.889  38.927  -6.375  1.00  0.00    -0.322 N 
ATOM     15  H   UNL     1      23.805  39.178  -5.939  1.00  0.00     0.170 HD
BRANCH  14  16
ATOM     16  C   UNL     1      22.893  37.933  -7.411  1.00  0.00     0.173 A 
ATOM     17  C   UNL     1      21.891  37.068  -9.382  1.00  0.00     0.229 A 
ATOM     18  N   UNL     1      22.880  36.138  -9.486  1.00  0.00    -0.218 NA
ATOM     19  N   UNL     1      21.919  37.965  -8.359  1.00  0.00    -0.192 NA
ATOM     20  C   UNL     1      23.883  36.076  -8.575  1.00  0.00     0.158 A 
ATOM     21  C   UNL     1      23.919  36.979  -7.515  1.00  0.00     0.184 A 
ATOM     22  F   UNL     1      24.958  36.955  -6.644  1.00  0.00    -0.201 F 
BRANCH  17  23
ATOM     23  N   UNL     1      20.852  37.153 -10.369  1.00  0.00    -0.324 N 
ATOM     24  H   UNL     1      19.865  37.147 -10.028  1.00  0.00     0.170 HD
BRANCH  23  25
ATOM     25  C   UNL     1      21.082  37.385 -11.771  1.00  0.00     0.049 A 
ATOM     26  C   UNL     1      20.241  38.135 -13.930  1.00  0.00     0.166 A 
ATOM     27  C   UNL     1      20.051  37.904 -12.557  1.00  0.00     0.076 A 
ATOM     28  C   UNL     1      21.474  37.831 -14.530  1.00  0.00     0.203 A 
ATOM     29  C   UNL     1      22.518  37.275 -13.746  1.00  0.00     0.166 A 
ATOM     30  C   UNL     1      22.301  37.046 -12.374  1.00  0.00     0.076 A 
BRANCH  26  31
ATOM     31  O   UNL     1      19.225  38.673 -14.737  1.00  0.00    -0.493 OA
ATOM     32  C   UNL     1      18.842  40.044 -14.752  1.00  0.00     0.278 C 
ENDBRANCH  26  31
BRANCH  28  33
ATOM     33  O   UNL     1      21.589  38.104 -15.906  1.00  0.00    -0.490 OA
ATOM     34  C   UNL     1      21.423  37.176 -16.973  1.00  0.00     0.278 C 
ENDBRANCH  28  33
BRANCH  29  35
ATOM     35  O   UNL     1      23.748  36.955 -14.344  1.00  0.00    -0.493 OA
ATOM     36  C   UNL     1      24.835  37.859 -14.515  1.00  0.00     0.278 C 
ENDBRANCH  29  35
ENDBRANCH  23  25
ENDBRANCH  17  23
ENDBRANCH  14  16
ENDBRANCH   1  14
BRANCH  11  37
ATOM     37  C   UNL     1      20.392  42.880  -8.285  1.00  0.00     0.303 C 
BRANCH  37  38
ATOM     38  O   UNL     1      19.622  42.449  -9.382  1.00  0.00    -0.265 OA
BRANCH  38  39
ATOM     39  P   UNL     1      20.288  40.997  -9.981  1.00  0.00     0.471 P 
ATOM     40  O   UNL     1      20.214  40.987 -11.494  1.00  0.00    -0.228 OA
BRANCH  39  41
ATOM     41  O   UNL     1      19.464  39.653  -9.352  1.00  0.00    -0.303 OA
ATOM     42  H   UNL     1      19.295  39.873  -8.401  1.00  0.00     0.223 HD
ENDBRANCH  39  41
BRANCH  39  43
ATOM     43  O   UNL     1      21.910  40.911  -9.508  1.00  0.00    -0.303 OA
ATOM     44  H   UNL     1      22.374  41.571 -10.085  1.00  0.00     0.223 HD
ENDBRANCH  39  43
ENDBRANCH  38  39
ENDBRANCH  37  38
ENDBRANCH  11  37
TORSDOF 12
ENDMDL
MODEL 11
REMARK VINA RESULT:    -8.099      4.309      7.346
REMARK INTER + INTRA:         -15.512
REMARK INTER:                 -13.078
REMARK INTRA:                  -2.434
REMARK UNBOUND:                -2.205
REMARK SMILES COc1cc(Nc2ncc(F)c(Nc3ccc4c(n3)N(COP(=O)(O)O)C(=O)C(C)(C)O4)n2)cc(OC)c1OC
REMARK SMILES IDX 14 1 19 2 18 3 17 4 32 5 29 6 30 7 31 8 27 9 28 10 20 11
REMARK SMILES IDX 16 12 15 13 13 14 12 16 7 17 8 18 33 19 9 20 10 21 11 22
REMARK SMILES IDX 6 23 5 25 3 26 4 27 38 28 35 29 34 30 2 31 1 32 39 33 40 34
REMARK SMILES IDX 36 35 37 36 21 37 22 38 23 39 24 40 25 41 26 43
REMARK H PARENT 13 15 6 24 25 42 26 44
REMARK Flexibility Score: inf
ROOT
ATOM      1  C   UNL     1      21.036  37.709  -9.468  1.00  0.00     0.134 A 
ATOM      2  N   UNL     1      21.785  37.265  -8.421  1.00  0.00    -0.209 NA
ATOM      3  C   UNL     1      22.799  36.368  -8.582  1.00  0.00     0.182 A 
ATOM      4  C   UNL     1      23.085  35.870  -9.857  1.00  0.00     0.164 A 
ATOM      5  O   UNL     1      24.130  34.961 -10.036  1.00  0.00    -0.474 OA
ATOM      6  C   UNL     1      25.197  34.800  -9.094  1.00  0.00     0.182 C 
ATOM      7  C   UNL     1      25.711  33.358  -9.205  1.00  0.00     0.067 C 
ATOM      8  C   UNL     1      26.318  35.785  -9.456  1.00  0.00     0.067 C 
ATOM      9  C   UNL     1      24.726  35.088  -7.678  1.00  0.00     0.273 C 
ATOM     10  O   UNL     1      25.413  34.680  -6.701  1.00  0.00    -0.270 OA
ATOM     11  N   UNL     1      23.556  35.900  -7.450  1.00  0.00    -0.265 N 
ATOM     12  C   UNL     1      22.308  36.276 -10.943  1.00  0.00     0.054 A 
ATOM     13  C   UNL     1      21.279  37.199 -10.755  1.00  0.00     0.051 A 
ENDROOT
BRANCH   1  14
ATOM     14  N   UNL     1      19.974  38.642  -9.221  1.00  0.00    -0.322 N 
ATOM     15  H   UNL     1      18.994  38.312  -9.370  1.00  0.00     0.170 HD
BRANCH  14  16
ATOM     16  C   UNL     1      20.167  40.006  -8.816  1.00  0.00     0.173 A 
ATOM     17  C   UNL     1      20.155  41.614  -7.070  1.00  0.00     0.229 A 
ATOM     18  N   UNL     1      20.612  42.564  -7.931  1.00  0.00    -0.218 NA
ATOM     19  N   UNL     1      19.956  40.344  -7.517  1.00  0.00    -0.192 NA
ATOM     20  C   UNL     1      20.853  42.273  -9.235  1.00  0.00     0.158 A 
ATOM     21  C   UNL     1      20.643  40.980  -9.710  1.00  0.00     0.184 A 
ATOM     22  F   UNL     1      20.948  40.677 -10.996  1.00  0.00    -0.201 F 
BRANCH  17  23
ATOM     23  N   UNL     1      19.937  41.919  -5.685  1.00  0.00    -0.324 N 
ATOM     24  H   UNL     1      20.558  41.451  -4.987  1.00  0.00     0.170 HD
BRANCH  23  25
ATOM     25  C   UNL     1      19.021  42.923  -5.210  1.00  0.00     0.049 A 
ATOM     26  C   UNL     1      18.616  44.911  -3.862  1.00  0.00     0.166 A 
ATOM     27  C   UNL     1      19.486  43.920  -4.349  1.00  0.00     0.076 A 
ATOM     28  C   UNL     1      17.260  44.898  -4.228  1.00  0.00     0.203 A 
ATOM     29  C   UNL     1      16.772  43.871  -5.078  1.00  0.00     0.166 A 
ATOM     30  C   UNL     1      17.662  42.886  -5.547  1.00  0.00     0.076 A 
BRANCH  26  31
ATOM     31  O   UNL     1      19.063  45.934  -3.010  1.00  0.00    -0.493 OA
ATOM     32  C   UNL     1      19.923  46.998  -3.403  1.00  0.00     0.278 C 
ENDBRANCH  26  31
BRANCH  28  33
ATOM     33  O   UNL     1      16.457  45.931  -3.709  1.00  0.00    -0.490 OA
ATOM     34  C   UNL     1      16.087  47.134  -4.373  1.00  0.00     0.278 C 
ENDBRANCH  28  33
BRANCH  29  35
ATOM     35  O   UNL     1      15.414  43.844  -5.435  1.00  0.00    -0.493 OA
ATOM     36  C   UNL     1      14.375  43.260  -4.656  1.00  0.00     0.278 C 
ENDBRANCH  29  35
ENDBRANCH  23  25
ENDBRANCH  17  23
ENDBRANCH  14  16
ENDBRANCH   1  14
BRANCH  11  37
ATOM     37  C   UNL     1      23.207  36.344  -6.095  1.00  0.00     0.303 C 
BRANCH  37  38
ATOM     38  O   UNL     1      23.945  37.503  -5.789  1.00  0.00    -0.265 OA
BRANCH  38  39
ATOM     39  P   UNL     1      22.856  38.760  -5.406  1.00  0.00     0.471 P 
ATOM     40  O   UNL     1      23.162  39.977  -6.253  1.00  0.00    -0.228 OA
BRANCH  39  41
ATOM     41  O   UNL     1      22.955  39.161  -3.760  1.00  0.00    -0.303 OA
ATOM     42  H   UNL     1      22.058  39.507  -3.522  1.00  0.00     0.223 HD
ENDBRANCH  39  41
BRANCH  39  43
ATOM     43  O   UNL     1      21.284  38.234  -5.744  1.00  0.00    -0.303 OA
ATOM     44  H   UNL     1      21.296  38.015  -6.711  1.00  0.00     0.223 HD
ENDBRANCH  39  43
ENDBRANCH  38  39
ENDBRANCH  37  38
ENDBRANCH  11  37
TORSDOF 12
ENDMDL
MODEL 12
REMARK VINA RESULT:    -8.033      4.370      7.339
REMARK INTER + INTRA:         -15.403
REMARK INTER:                 -13.009
REMARK INTRA:                  -2.395
REMARK UNBOUND:                -2.205
REMARK SMILES COc1cc(Nc2ncc(F)c(Nc3ccc4c(n3)N(COP(=O)(O)O)C(=O)C(C)(C)O4)n2)cc(OC)c1OC
REMARK SMILES IDX 14 1 19 2 18 3 17 4 32 5 29 6 30 7 31 8 27 9 28 10 20 11
REMARK SMILES IDX 16 12 15 13 13 14 12 16 7 17 8 18 33 19 9 20 10 21 11 22
REMARK SMILES IDX 6 23 5 25 3 26 4 27 38 28 35 29 34 30 2 31 1 32 39 33 40 34
REMARK SMILES IDX 36 35 37 36 21 37 22 38 23 39 24 40 25 41 26 43
REMARK H PARENT 13 15 6 24 25 42 26 44
REMARK Flexibility Score: inf
ROOT
ATOM      1  C   UNL     1      20.997  37.776  -9.377  1.00  0.00     0.134 A 
ATOM      2  N   UNL     1      21.727  37.316  -8.325  1.00  0.00    -0.209 NA
ATOM      3  C   UNL     1      22.750  36.428  -8.482  1.00  0.00     0.182 A 
ATOM      4  C   UNL     1      23.064  35.957  -9.761  1.00  0.00     0.164 A 
ATOM      5  O   UNL     1      24.118  35.058  -9.937  1.00  0.00    -0.474 OA
ATOM      6  C   UNL     1      25.167  34.884  -8.976  1.00  0.00     0.182 C 
ATOM      7  C   UNL     1      25.693  33.447  -9.106  1.00  0.00     0.067 C 
ATOM      8  C   UNL     1      26.289  35.882  -9.297  1.00  0.00     0.067 C 
ATOM      9  C   UNL     1      24.666  35.141  -7.566  1.00  0.00     0.273 C 
ATOM     10  O   UNL     1      25.337  34.718  -6.583  1.00  0.00    -0.270 OA
ATOM     11  N   UNL     1      23.487  35.942  -7.345  1.00  0.00    -0.265 N 
ATOM     12  C   UNL     1      22.307  36.379 -10.855  1.00  0.00     0.054 A 
ATOM     13  C   UNL     1      21.269  37.292 -10.669  1.00  0.00     0.051 A 
ENDROOT
BRANCH   1  14
ATOM     14  N   UNL     1      19.925  38.698  -9.133  1.00  0.00    -0.322 N 
ATOM     15  H   UNL     1      18.963  38.411  -9.424  1.00  0.00     0.170 HD
BRANCH  14  16
ATOM     16  C   UNL     1      20.087  39.998  -8.548  1.00  0.00     0.173 A 
ATOM     17  C   UNL     1      19.784  41.419  -6.670  1.00  0.00     0.229 A 
ATOM     18  N   UNL     1      20.447  42.420  -7.310  1.00  0.00    -0.218 NA
ATOM     19  N   UNL     1      19.628  40.216  -7.287  1.00  0.00    -0.192 NA
ATOM     20  C   UNL     1      20.937  42.248  -8.564  1.00  0.00     0.158 A 
ATOM     21  C   UNL     1      20.775  41.026  -9.213  1.00  0.00     0.184 A 
ATOM     22  F   UNL     1      21.325  40.836 -10.439  1.00  0.00    -0.201 F 
BRANCH  17  23
ATOM     23  N   UNL     1      19.299  41.595  -5.330  1.00  0.00    -0.324 N 
ATOM     24  H   UNL     1      19.520  40.845  -4.638  1.00  0.00     0.170 HD
BRANCH  23  25
ATOM     25  C   UNL     1      18.656  42.789  -4.851  1.00  0.00     0.049 A 
ATOM     26  C   UNL     1      16.845  44.408  -5.042  1.00  0.00     0.166 A 
ATOM     27  C   UNL     1      17.494  43.241  -5.482  1.00  0.00     0.076 A 
ATOM     28  C   UNL     1      17.372  45.142  -3.967  1.00  0.00     0.203 A 
ATOM     29  C   UNL     1      18.569  44.709  -3.340  1.00  0.00     0.166 A 
ATOM     30  C   UNL     1      19.204  43.540  -3.803  1.00  0.00     0.076 A 
BRANCH  26  31
ATOM     31  O   UNL     1      15.666  44.872  -5.647  1.00  0.00    -0.493 OA
ATOM     32  C   UNL     1      14.702  44.042  -6.287  1.00  0.00     0.278 C 
ENDBRANCH  26  31
BRANCH  28  33
ATOM     33  O   UNL     1      16.658  46.292  -3.579  1.00  0.00    -0.490 OA
ATOM     34  C   UNL     1      16.961  47.638  -3.928  1.00  0.00     0.278 C 
ENDBRANCH  28  33
BRANCH  29  35
ATOM     35  O   UNL     1      19.109  45.448  -2.275  1.00  0.00    -0.493 OA
ATOM     36  C   UNL     1      18.893  45.172  -0.894  1.00  0.00     0.278 C 
ENDBRANCH  29  35
ENDBRANCH  23  25
ENDBRANCH  17  23
ENDBRANCH  14  16
ENDBRANCH   1  14
BRANCH  11  37
ATOM     37  C   UNL     1      23.108  36.356  -5.988  1.00  0.00     0.303 C 
BRANCH  37  38
ATOM     38  O   UNL     1      23.801  37.538  -5.662  1.00  0.00    -0.265 OA
BRANCH  38  39
ATOM     39  P   UNL     1      22.664  38.762  -5.318  1.00  0.00     0.471 P 
ATOM     40  O   UNL     1      22.920  39.961  -6.206  1.00  0.00    -0.228 OA
BRANCH  39  41
ATOM     41  O   UNL     1      22.748  39.222  -3.686  1.00  0.00    -0.303 OA
ATOM     42  H   UNL     1      23.061  40.162  -3.697  1.00  0.00     0.223 HD
ENDBRANCH  39  41
BRANCH  39  43
ATOM     43  O   UNL     1      21.113  38.162  -5.635  1.00  0.00    -0.303 OA
ATOM     44  H   UNL     1      20.669  38.135  -4.749  1.00  0.00     0.223 HD
ENDBRANCH  39  43
ENDBRANCH  38  39
ENDBRANCH  37  38
ENDBRANCH  11  37
TORSDOF 12
ENDMDL
MODEL 13
REMARK VINA RESULT:    -8.015      2.215      3.380
REMARK INTER + INTRA:         -15.374
REMARK INTER:                 -12.951
REMARK INTRA:                  -2.423
REMARK UNBOUND:                -2.205
REMARK SMILES COc1cc(Nc2ncc(F)c(Nc3ccc4c(n3)N(COP(=O)(O)O)C(=O)C(C)(C)O4)n2)cc(OC)c1OC
REMARK SMILES IDX 14 1 19 2 18 3 17 4 32 5 29 6 30 7 31 8 27 9 28 10 20 11
REMARK SMILES IDX 16 12 15 13 13 14 12 16 7 17 8 18 33 19 9 20 10 21 11 22
REMARK SMILES IDX 6 23 5 25 3 26 4 27 38 28 35 29 34 30 2 31 1 32 39 33 40 34
REMARK SMILES IDX 36 35 37 36 21 37 22 38 23 39 24 40 25 41 26 43
REMARK H PARENT 13 15 6 24 25 42 26 44
REMARK Flexibility Score: inf
ROOT
ATOM      1  C   UNL     1      21.166  39.289  -6.243  1.00  0.00     0.134 A 
ATOM      2  N   UNL     1      21.261  38.494  -7.344  1.00  0.00    -0.209 NA
ATOM      3  C   UNL     1      22.393  37.795  -7.641  1.00  0.00     0.182 A 
ATOM      4  C   UNL     1      23.506  37.896  -6.801  1.00  0.00     0.164 A 
ATOM      5  O   UNL     1      24.667  37.174  -7.086  1.00  0.00    -0.474 OA
ATOM      6  C   UNL     1      24.683  36.024  -7.941  1.00  0.00     0.182 C 
ATOM      7  C   UNL     1      26.077  35.929  -8.577  1.00  0.00     0.067 C 
ATOM      8  C   UNL     1      24.413  34.779  -7.085  1.00  0.00     0.067 C 
ATOM      9  C   UNL     1      23.614  36.126  -9.015  1.00  0.00     0.273 C 
ATOM     10  O   UNL     1      23.694  35.393 -10.041  1.00  0.00    -0.270 OA
ATOM     11  N   UNL     1      22.469  36.983  -8.826  1.00  0.00    -0.265 N 
ATOM     12  C   UNL     1      23.453  38.735  -5.686  1.00  0.00     0.054 A 
ATOM     13  C   UNL     1      22.282  39.437  -5.401  1.00  0.00     0.051 A 
ENDROOT
BRANCH   1  14
ATOM     14  N   UNL     1      19.948  40.008  -6.004  1.00  0.00    -0.322 N 
ATOM     15  H   UNL     1      19.209  39.536  -5.435  1.00  0.00     0.170 HD
BRANCH  14  16
ATOM     16  C   UNL     1      19.660  41.317  -6.519  1.00  0.00     0.173 A 
ATOM     17  C   UNL     1      19.314  42.711  -8.409  1.00  0.00     0.229 A 
ATOM     18  N   UNL     1      19.016  43.758  -7.593  1.00  0.00    -0.218 NA
ATOM     19  N   UNL     1      19.614  41.501  -7.866  1.00  0.00    -0.192 NA
ATOM     20  C   UNL     1      19.032  43.622  -6.242  1.00  0.00     0.158 A 
ATOM     21  C   UNL     1      19.349  42.392  -5.670  1.00  0.00     0.184 A 
ATOM     22  F   UNL     1      19.299  42.243  -4.323  1.00  0.00    -0.201 F 
BRANCH  17  23
ATOM     23  N   UNL     1      19.260  42.851  -9.837  1.00  0.00    -0.324 N 
ATOM     24  H   UNL     1      19.961  43.485 -10.283  1.00  0.00     0.170 HD
BRANCH  23  25
ATOM     25  C   UNL     1      18.405  42.077 -10.696  1.00  0.00     0.049 A 
ATOM     26  C   UNL     1      16.157  41.402 -11.349  1.00  0.00     0.166 A 
ATOM     27  C   UNL     1      17.020  42.151 -10.531  1.00  0.00     0.076 A 
ATOM     28  C   UNL     1      16.685  40.555 -12.338  1.00  0.00     0.203 A 
ATOM     29  C   UNL     1      18.092  40.449 -12.494  1.00  0.00     0.166 A 
ATOM     30  C   UNL     1      18.935  41.205 -11.657  1.00  0.00     0.076 A 
BRANCH  26  31
ATOM     31  O   UNL     1      14.761  41.474 -11.214  1.00  0.00    -0.493 OA
ATOM     32  C   UNL     1      14.044  42.638 -10.816  1.00  0.00     0.278 C 
ENDBRANCH  26  31
BRANCH  28  33
ATOM     33  O   UNL     1      15.756  39.848 -13.124  1.00  0.00    -0.490 OA
ATOM     34  C   UNL     1      15.064  40.338 -14.268  1.00  0.00     0.278 C 
ENDBRANCH  28  33
BRANCH  29  35
ATOM     35  O   UNL     1      18.625  39.592 -13.470  1.00  0.00    -0.493 OA
ATOM     36  C   UNL     1      19.152  40.010 -14.725  1.00  0.00     0.278 C 
ENDBRANCH  29  35
ENDBRANCH  23  25
ENDBRANCH  17  23
ENDBRANCH  14  16
ENDBRANCH   1  14
BRANCH  11  37
ATOM     37  C   UNL     1      21.341  36.940  -9.765  1.00  0.00     0.303 C 
BRANCH  37  38
ATOM     38  O   UNL     1      21.491  37.977 -10.706  1.00  0.00    -0.265 OA
BRANCH  38  39
ATOM     39  P   UNL     1      21.366  37.315 -12.274  1.00  0.00     0.471 P 
ATOM     40  O   UNL     1      21.997  38.257 -13.277  1.00  0.00    -0.228 OA
BRANCH  39  41
ATOM     41  O   UNL     1      19.743  37.036 -12.682  1.00  0.00    -0.303 OA
ATOM     42  H   UNL     1      19.401  37.910 -13.002  1.00  0.00     0.223 HD
ENDBRANCH  39  41
BRANCH  39  43
ATOM     43  O   UNL     1      22.197  35.841 -12.305  1.00  0.00    -0.303 OA
ATOM     44  H   UNL     1      21.981  35.413 -11.437  1.00  0.00     0.223 HD
ENDBRANCH  39  43
ENDBRANCH  38  39
ENDBRANCH  37  38
ENDBRANCH  11  37
TORSDOF 12
ENDMDL
MODEL 14
REMARK VINA RESULT:    -7.913      2.983      4.871
REMARK INTER + INTRA:         -15.206
REMARK INTER:                 -12.551
REMARK INTRA:                  -2.656
REMARK UNBOUND:                -2.205
REMARK SMILES COc1cc(Nc2ncc(F)c(Nc3ccc4c(n3)N(COP(=O)(O)O)C(=O)C(C)(C)O4)n2)cc(OC)c1OC
REMARK SMILES IDX 14 1 19 2 18 3 17 4 32 5 29 6 30 7 31 8 27 9 28 10 20 11
REMARK SMILES IDX 16 12 15 13 13 14 12 16 7 17 8 18 33 19 9 20 10 21 11 22
REMARK SMILES IDX 6 23 5 25 3 26 4 27 38 28 35 29 34 30 2 31 1 32 39 33 40 34
REMARK SMILES IDX 36 35 37 36 21 37 22 38 23 39 24 40 25 41 26 43
REMARK H PARENT 13 15 6 24 25 42 26 44
REMARK Flexibility Score: inf
ROOT
ATOM      1  C   UNL     1      21.213  38.930  -5.236  1.00  0.00     0.134 A 
ATOM      2  N   UNL     1      21.340  38.293  -6.432  1.00  0.00    -0.209 NA
ATOM      3  C   UNL     1      22.498  37.681  -6.809  1.00  0.00     0.182 A 
ATOM      4  C   UNL     1      23.604  37.710  -5.955  1.00  0.00     0.164 A 
ATOM      5  O   UNL     1      24.792  37.075  -6.325  1.00  0.00    -0.474 OA
ATOM      6  C   UNL     1      24.853  36.050  -7.325  1.00  0.00     0.182 C 
ATOM      7  C   UNL     1      26.252  36.092  -7.957  1.00  0.00     0.067 C 
ATOM      8  C   UNL     1      24.627  34.693  -6.644  1.00  0.00     0.067 C 
ATOM      9  C   UNL     1      23.785  36.255  -8.385  1.00  0.00     0.273 C 
ATOM     10  O   UNL     1      23.894  35.669  -9.497  1.00  0.00    -0.270 OA
ATOM     11  N   UNL     1      22.607  37.037  -8.092  1.00  0.00    -0.265 N 
ATOM     12  C   UNL     1      23.517  38.391  -4.739  1.00  0.00     0.054 A 
ATOM     13  C   UNL     1      22.320  39.005  -4.372  1.00  0.00     0.051 A 
ENDROOT
BRANCH   1  14
ATOM     14  N   UNL     1      19.968  39.566  -4.912  1.00  0.00    -0.322 N 
ATOM     15  H   UNL     1      19.295  39.039  -4.311  1.00  0.00     0.170 HD
BRANCH  14  16
ATOM     16  C   UNL     1      19.568  40.861  -5.385  1.00  0.00     0.173 A 
ATOM     17  C   UNL     1      19.033  42.261  -7.226  1.00  0.00     0.229 A 
ATOM     18  N   UNL     1      18.709  43.272  -6.374  1.00  0.00    -0.218 NA
ATOM     19  N   UNL     1      19.440  41.064  -6.724  1.00  0.00    -0.192 NA
ATOM     20  C   UNL     1      18.806  43.115  -5.030  1.00  0.00     0.158 A 
ATOM     21  C   UNL     1      19.232  41.899  -4.500  1.00  0.00     0.184 A 
ATOM     22  F   UNL     1      19.263  41.724  -3.155  1.00  0.00    -0.201 F 
BRANCH  17  23
ATOM     23  N   UNL     1      18.895  42.421  -8.647  1.00  0.00    -0.324 N 
ATOM     24  H   UNL     1      19.770  42.421  -9.216  1.00  0.00     0.170 HD
BRANCH  23  25
ATOM     25  C   UNL     1      17.635  42.441  -9.342  1.00  0.00     0.049 A 
ATOM     26  C   UNL     1      16.183  41.509 -11.061  1.00  0.00     0.166 A 
ATOM     27  C   UNL     1      17.400  41.512 -10.359  1.00  0.00     0.076 A 
ATOM     28  C   UNL     1      15.192  42.456 -10.754  1.00  0.00     0.203 A 
ATOM     29  C   UNL     1      15.433  43.424  -9.744  1.00  0.00     0.166 A 
ATOM     30  C   UNL     1      16.663  43.410  -9.059  1.00  0.00     0.076 A 
BRANCH  26  31
ATOM     31  O   UNL     1      15.916  40.575 -12.075  1.00  0.00    -0.493 OA
ATOM     32  C   UNL     1      16.343  40.700 -13.427  1.00  0.00     0.278 C 
ENDBRANCH  26  31
BRANCH  28  33
ATOM     33  O   UNL     1      13.996  42.380 -11.494  1.00  0.00    -0.490 OA
ATOM     34  C   UNL     1      12.759  41.831 -11.054  1.00  0.00     0.278 C 
ENDBRANCH  28  33
BRANCH  29  35
ATOM     35  O   UNL     1      14.452  44.382  -9.444  1.00  0.00    -0.493 OA
ATOM     36  C   UNL     1      13.717  44.448  -8.226  1.00  0.00     0.278 C 
ENDBRANCH  29  35
ENDBRANCH  23  25
ENDBRANCH  17  23
ENDBRANCH  14  16
ENDBRANCH   1  14
BRANCH  11  37
ATOM     37  C   UNL     1      21.485  37.078  -9.037  1.00  0.00     0.303 C 
BRANCH  37  38
ATOM     38  O   UNL     1      21.782  38.001 -10.058  1.00  0.00    -0.265 OA
BRANCH  38  39
ATOM     39  P   UNL     1      20.689  39.307  -9.949  1.00  0.00     0.471 P 
ATOM     40  O   UNL     1      20.044  39.548 -11.298  1.00  0.00    -0.228 OA
BRANCH  39  41
ATOM     41  O   UNL     1      21.482  40.714  -9.427  1.00  0.00    -0.303 OA
ATOM     42  H   UNL     1      20.913  41.464  -9.738  1.00  0.00     0.223 HD
ENDBRANCH  39  41
BRANCH  39  43
ATOM     43  O   UNL     1      19.486  38.912  -8.826  1.00  0.00    -0.303 OA
ATOM     44  H   UNL     1      18.715  39.486  -9.072  1.00  0.00     0.223 HD
ENDBRANCH  39  43
ENDBRANCH  38  39
ENDBRANCH  37  38
ENDBRANCH  11  37
TORSDOF 12
ENDMDL
