MODEL 1
REMARK VINA RESULT:    -9.321      0.000      0.000
REMARK INTER + INTRA:         -13.744
REMARK INTER:                 -13.136
REMARK INTRA:                  -0.608
REMARK UNBOUND:                -0.608
REMARK SMILES CCN1CCN(Cc2ccc(Nc3ncc(F)c(-c4cc(F)c5nc(C)n(C(C)C)c5c4)n3)nc2)CC1
REMARK SMILES IDX 8 1 9 2 10 3 11 4 34 5 35 6 7 7 6 8 3 9 4 10 37 11 5 12
REMARK SMILES IDX 36 13 2 14 1 15 12 16 13 18 14 19 33 20 15 21 18 22 16 23
REMARK SMILES IDX 17 24 19 25 20 26 32 27 21 28 31 29 22 30 23 31 27 32 24 33
REMARK SMILES IDX 25 34 26 35 28 36 29 37 30 38
REMARK H PARENT 12 17
REMARK Flexibility Score: inf
ROOT
ATOM      1  C   UNL     1      19.251  41.935  -6.637  1.00  0.00    -0.015 A 
ATOM      2  C   UNL     1      20.204  40.908  -6.620  1.00  0.00     0.010 A 
ATOM      3  C   UNL     1      20.659  40.353  -7.821  1.00  0.00     0.047 A 
ATOM      4  C   UNL     1      20.121  40.807  -9.038  1.00  0.00     0.132 A 
ATOM      5  N   UNL     1      19.214  41.822  -9.026  1.00  0.00    -0.239 NA
ATOM      6  C   UNL     1      18.771  42.387  -7.873  1.00  0.00     0.118 A 
ENDROOT
BRANCH   1   7
ATOM      7  C   UNL     1      18.632  42.432  -5.363  1.00  0.00     0.121 C 
BRANCH   7   8
ATOM      8  N   UNL     1      18.519  43.904  -5.447  1.00  0.00    -0.296 NA
ATOM      9  N   UNL     1      18.444  46.360  -3.770  1.00  0.00    -0.301 NA
ATOM     10  C   UNL     1      17.486  45.234  -3.593  1.00  0.00     0.100 C 
ATOM     11  C   UNL     1      19.454  46.101  -4.832  1.00  0.00     0.100 C 
ATOM     12  C   UNL     1      17.255  44.458  -4.901  1.00  0.00     0.100 C 
ATOM     13  C   UNL     1      19.735  44.603  -4.985  1.00  0.00     0.100 C 
BRANCH   9  14
ATOM     14  C   UNL     1      17.731  47.635  -4.006  1.00  0.00     0.081 C 
ATOM     15  C   UNL     1      17.753  48.031  -5.483  1.00  0.00     0.021 C 
ENDBRANCH   9  14
ENDBRANCH   7   8
ENDBRANCH   1   7
BRANCH   4  16
ATOM     16  N   UNL     1      20.527  40.262 -10.304  1.00  0.00    -0.309 N 
ATOM     17  H   UNL     1      20.367  40.860 -11.149  1.00  0.00     0.171 HD
BRANCH  16  18
ATOM     18  C   UNL     1      20.882  38.892 -10.536  1.00  0.00     0.229 A 
ATOM     19  N   UNL     1      20.330  38.179 -11.556  1.00  0.00    -0.218 NA
ATOM     20  N   UNL     1      21.810  38.303  -9.736  1.00  0.00    -0.210 NA
ATOM     21  C   UNL     1      20.671  36.884 -11.771  1.00  0.00     0.156 A 
ATOM     22  C   UNL     1      22.201  37.011  -9.914  1.00  0.00     0.112 A 
ATOM     23  C   UNL     1      21.608  36.261 -10.948  1.00  0.00     0.167 A 
ATOM     24  F   UNL     1      21.871  34.944 -11.125  1.00  0.00    -0.203 F 
BRANCH  22  25
ATOM     25  C   UNL     1      23.211  36.439  -8.986  1.00  0.00     0.008 A 
ATOM     26  C   UNL     1      24.243  35.612  -9.508  1.00  0.00     0.052 A 
ATOM     27  C   UNL     1      23.145  36.663  -7.587  1.00  0.00     0.039 A 
ATOM     28  C   UNL     1      25.208  35.042  -8.661  1.00  0.00     0.151 A 
ATOM     29  C   UNL     1      24.122  36.075  -6.774  1.00  0.00     0.072 A 
ATOM     30  F   UNL     1      26.205  34.269  -9.158  1.00  0.00    -0.205 F 
ATOM     31  C   UNL     1      25.116  35.305  -7.299  1.00  0.00     0.124 A 
ATOM     32  N   UNL     1      24.298  36.178  -5.437  1.00  0.00    -0.326 N 
ATOM     33  N   UNL     1      25.967  34.909  -6.340  1.00  0.00    -0.230 NA
ATOM     34  C   UNL     1      25.451  35.469  -5.217  1.00  0.00     0.107 A 
ATOM     35  C   UNL     1      26.138  35.319  -3.893  1.00  0.00     0.088 C 
BRANCH  32  36
ATOM     36  C   UNL     1      23.506  37.018  -4.516  1.00  0.00     0.083 C 
ATOM     37  C   UNL     1      23.840  38.511  -4.632  1.00  0.00     0.031 C 
ATOM     38  C   UNL     1      22.012  36.755  -4.710  1.00  0.00     0.031 C 
ENDBRANCH  32  36
ENDBRANCH  22  25
ENDBRANCH  16  18
ENDBRANCH   4  16
TORSDOF 7
ENDMDL
MODEL 2
REMARK VINA RESULT:    -9.275      3.371      6.546
REMARK INTER + INTRA:         -13.679
REMARK INTER:                 -12.340
REMARK INTRA:                  -1.339
REMARK UNBOUND:                -0.608
REMARK SMILES CCN1CCN(Cc2ccc(Nc3ncc(F)c(-c4cc(F)c5nc(C)n(C(C)C)c5c4)n3)nc2)CC1
REMARK SMILES IDX 8 1 9 2 10 3 11 4 34 5 35 6 7 7 6 8 3 9 4 10 37 11 5 12
REMARK SMILES IDX 36 13 2 14 1 15 12 16 13 18 14 19 33 20 15 21 18 22 16 23
REMARK SMILES IDX 17 24 19 25 20 26 32 27 21 28 31 29 22 30 23 31 27 32 24 33
REMARK SMILES IDX 25 34 26 35 28 36 29 37 30 38
REMARK H PARENT 12 17
REMARK Flexibility Score: inf
ROOT
ATOM      1  C   UNL     1      20.821  38.298 -13.571  1.00  0.00    -0.015 A 
ATOM      2  C   UNL     1      22.174  38.290 -13.936  1.00  0.00     0.010 A 
ATOM      3  C   UNL     1      23.035  37.319 -13.413  1.00  0.00     0.047 A 
ATOM      4  C   UNL     1      22.540  36.383 -12.489  1.00  0.00     0.132 A 
ATOM      5  N   UNL     1      21.216  36.400 -12.171  1.00  0.00    -0.239 NA
ATOM      6  C   UNL     1      20.358  37.322 -12.679  1.00  0.00     0.118 A 
ENDROOT
BRANCH   1   7
ATOM      7  C   UNL     1      19.918  39.421 -13.991  1.00  0.00     0.121 C 
BRANCH   7   8
ATOM      8  N   UNL     1      19.373  40.057 -12.772  1.00  0.00    -0.296 NA
ATOM      9  N   UNL     1      18.131  42.572 -11.782  1.00  0.00    -0.301 NA
ATOM     10  C   UNL     1      19.458  42.541 -12.456  1.00  0.00     0.100 C 
ATOM     11  C   UNL     1      17.488  41.232 -11.704  1.00  0.00     0.100 C 
ATOM     12  C   UNL     1      20.177  41.195 -12.259  1.00  0.00     0.100 C 
ATOM     13  C   UNL     1      17.925  40.331 -12.862  1.00  0.00     0.100 C 
BRANCH   9  14
ATOM     14  C   UNL     1      18.226  43.202 -10.446  1.00  0.00     0.081 C 
ATOM     15  C   UNL     1      17.140  42.688  -9.499  1.00  0.00     0.021 C 
ENDBRANCH   9  14
ENDBRANCH   7   8
ENDBRANCH   1   7
BRANCH   4  16
ATOM     16  N   UNL     1      23.377  35.377 -11.897  1.00  0.00    -0.309 N 
ATOM     17  H   UNL     1      23.391  34.438 -12.362  1.00  0.00     0.171 HD
BRANCH  16  18
ATOM     18  C   UNL     1      23.979  35.465 -10.597  1.00  0.00     0.229 A 
ATOM     19  N   UNL     1      25.215  34.951 -10.351  1.00  0.00    -0.218 NA
ATOM     20  N   UNL     1      23.310  36.101  -9.600  1.00  0.00    -0.210 NA
ATOM     21  C   UNL     1      25.778  35.039  -9.120  1.00  0.00     0.156 A 
ATOM     22  C   UNL     1      23.832  36.232  -8.349  1.00  0.00     0.112 A 
ATOM     23  C   UNL     1      25.097  35.673  -8.082  1.00  0.00     0.167 A 
ATOM     24  F   UNL     1      25.638  35.674  -6.840  1.00  0.00    -0.203 F 
BRANCH  22  25
ATOM     25  C   UNL     1      23.029  36.930  -7.312  1.00  0.00     0.008 A 
ATOM     26  C   UNL     1      22.996  36.406  -5.991  1.00  0.00     0.052 A 
ATOM     27  C   UNL     1      22.259  38.081  -7.619  1.00  0.00     0.039 A 
ATOM     28  C   UNL     1      22.237  37.029  -4.986  1.00  0.00     0.151 A 
ATOM     29  C   UNL     1      21.511  38.673  -6.592  1.00  0.00     0.072 A 
ATOM     30  F   UNL     1      22.219  36.542  -3.720  1.00  0.00    -0.205 F 
ATOM     31  C   UNL     1      21.514  38.166  -5.327  1.00  0.00     0.124 A 
ATOM     32  N   UNL     1      20.747  39.788  -6.623  1.00  0.00    -0.326 N 
ATOM     33  N   UNL     1      20.783  38.935  -4.506  1.00  0.00    -0.230 NA
ATOM     34  C   UNL     1      20.340  39.925  -5.322  1.00  0.00     0.107 A 
ATOM     35  C   UNL     1      19.511  41.054  -4.786  1.00  0.00     0.088 C 
BRANCH  32  36
ATOM     36  C   UNL     1      20.579  40.697  -7.775  1.00  0.00     0.083 C 
ATOM     37  C   UNL     1      21.914  41.113  -8.408  1.00  0.00     0.031 C 
ATOM     38  C   UNL     1      19.633  40.078  -8.805  1.00  0.00     0.031 C 
ENDBRANCH  32  36
ENDBRANCH  22  25
ENDBRANCH  16  18
ENDBRANCH   4  16
TORSDOF 7
ENDMDL
MODEL 3
REMARK VINA RESULT:    -9.220      3.418      8.301
REMARK INTER + INTRA:         -13.601
REMARK INTER:                 -13.080
REMARK INTRA:                  -0.521
REMARK UNBOUND:                -0.608
REMARK SMILES CCN1CCN(Cc2ccc(Nc3ncc(F)c(-c4cc(F)c5nc(C)n(C(C)C)c5c4)n3)nc2)CC1
REMARK SMILES IDX 8 1 9 2 10 3 11 4 34 5 35 6 7 7 6 8 3 9 4 10 37 11 5 12
REMARK SMILES IDX 36 13 2 14 1 15 12 16 13 18 14 19 33 20 15 21 18 22 16 23
REMARK SMILES IDX 17 24 19 25 20 26 32 27 21 28 31 29 22 30 23 31 27 32 24 33
REMARK SMILES IDX 25 34 26 35 28 36 29 37 30 38
REMARK H PARENT 12 17
REMARK Flexibility Score: inf
ROOT
ATOM      1  C   UNL     1      23.027  38.777  -4.921  1.00  0.00    -0.015 A 
ATOM      2  C   UNL     1      21.760  38.587  -4.352  1.00  0.00     0.010 A 
ATOM      3  C   UNL     1      20.631  39.161  -4.946  1.00  0.00     0.047 A 
ATOM      4  C   UNL     1      20.786  39.961  -6.092  1.00  0.00     0.132 A 
ATOM      5  N   UNL     1      22.025  40.109  -6.636  1.00  0.00    -0.239 NA
ATOM      6  C   UNL     1      23.133  39.547  -6.086  1.00  0.00     0.118 A 
ENDROOT
BRANCH   1   7
ATOM      7  C   UNL     1      24.265  38.309  -4.214  1.00  0.00     0.121 C 
BRANCH   7   8
ATOM      8  N   UNL     1      24.573  36.939  -4.681  1.00  0.00    -0.296 NA
ATOM      9  N   UNL     1      26.056  35.444  -6.782  1.00  0.00    -0.301 NA
ATOM     10  C   UNL     1      25.015  36.461  -7.100  1.00  0.00     0.100 C 
ATOM     11  C   UNL     1      26.297  35.298  -5.322  1.00  0.00     0.100 C 
ATOM     12  C   UNL     1      23.961  36.580  -5.985  1.00  0.00     0.100 C 
ATOM     13  C   UNL     1      26.006  36.602  -4.571  1.00  0.00     0.100 C 
BRANCH   9  14
ATOM     14  C   UNL     1      25.737  34.142  -7.408  1.00  0.00     0.081 C 
ATOM     15  C   UNL     1      25.719  34.237  -8.935  1.00  0.00     0.021 C 
ENDBRANCH   9  14
ENDBRANCH   7   8
ENDBRANCH   1   7
BRANCH   4  16
ATOM     16  N   UNL     1      19.671  40.598  -6.736  1.00  0.00    -0.309 N 
ATOM     17  H   UNL     1      18.897  40.937  -6.117  1.00  0.00     0.171 HD
BRANCH  16  18
ATOM     18  C   UNL     1      19.409  40.573  -8.146  1.00  0.00     0.229 A 
ATOM     19  N   UNL     1      18.462  41.375  -8.706  1.00  0.00    -0.218 NA
ATOM     20  N   UNL     1      20.144  39.752  -8.941  1.00  0.00    -0.210 NA
ATOM     21  C   UNL     1      18.221  41.347 -10.041  1.00  0.00     0.156 A 
ATOM     22  C   UNL     1      19.955  39.693 -10.289  1.00  0.00     0.112 A 
ATOM     23  C   UNL     1      18.953  40.496 -10.867  1.00  0.00     0.167 A 
ATOM     24  F   UNL     1      18.639  40.420 -12.182  1.00  0.00    -0.203 F 
BRANCH  22  25
ATOM     25  C   UNL     1      20.791  38.756 -11.084  1.00  0.00     0.008 A 
ATOM     26  C   UNL     1      20.867  37.392 -10.694  1.00  0.00     0.052 A 
ATOM     27  C   UNL     1      21.550  39.201 -12.198  1.00  0.00     0.039 A 
ATOM     28  C   UNL     1      21.657  36.479 -11.412  1.00  0.00     0.151 A 
ATOM     29  C   UNL     1      22.329  38.262 -12.886  1.00  0.00     0.072 A 
ATOM     30  F   UNL     1      21.716  35.172 -11.053  1.00  0.00    -0.205 F 
ATOM     31  C   UNL     1      22.368  36.954 -12.508  1.00  0.00     0.124 A 
ATOM     32  N   UNL     1      23.091  38.429 -13.991  1.00  0.00    -0.326 N 
ATOM     33  N   UNL     1      23.124  36.238 -13.353  1.00  0.00    -0.230 NA
ATOM     34  C   UNL     1      23.540  37.161 -14.256  1.00  0.00     0.107 A 
ATOM     35  C   UNL     1      24.384  36.768 -15.430  1.00  0.00     0.088 C 
BRANCH  32  36
ATOM     36  C   UNL     1      23.222  39.671 -14.781  1.00  0.00     0.083 C 
ATOM     37  C   UNL     1      24.676  40.142 -14.915  1.00  0.00     0.031 C 
ATOM     38  C   UNL     1      22.552  39.504 -16.145  1.00  0.00     0.031 C 
ENDBRANCH  32  36
ENDBRANCH  22  25
ENDBRANCH  16  18
ENDBRANCH   4  16
TORSDOF 7
ENDMDL
MODEL 4
REMARK VINA RESULT:    -9.210      3.039      8.219
REMARK INTER + INTRA:         -13.588
REMARK INTER:                 -12.824
REMARK INTRA:                  -0.764
REMARK UNBOUND:                -0.608
REMARK SMILES CCN1CCN(Cc2ccc(Nc3ncc(F)c(-c4cc(F)c5nc(C)n(C(C)C)c5c4)n3)nc2)CC1
REMARK SMILES IDX 8 1 9 2 10 3 11 4 34 5 35 6 7 7 6 8 3 9 4 10 37 11 5 12
REMARK SMILES IDX 36 13 2 14 1 15 12 16 13 18 14 19 33 20 15 21 18 22 16 23
REMARK SMILES IDX 17 24 19 25 20 26 32 27 21 28 31 29 22 30 23 31 27 32 24 33
REMARK SMILES IDX 25 34 26 35 28 36 29 37 30 38
REMARK H PARENT 12 17
REMARK Flexibility Score: inf
ROOT
ATOM      1  C   UNL     1      21.388  36.794 -11.479  1.00  0.00    -0.015 A 
ATOM      2  C   UNL     1      22.411  35.858 -11.681  1.00  0.00     0.010 A 
ATOM      3  C   UNL     1      23.262  35.511 -10.627  1.00  0.00     0.047 A 
ATOM      4  C   UNL     1      23.107  36.141  -9.379  1.00  0.00     0.132 A 
ATOM      5  N   UNL     1      22.090  37.029  -9.205  1.00  0.00    -0.239 NA
ATOM      6  C   UNL     1      21.241  37.367 -10.210  1.00  0.00     0.118 A 
ENDROOT
BRANCH   1   7
ATOM      7  C   UNL     1      20.569  37.299 -12.631  1.00  0.00     0.121 C 
BRANCH   7   8
ATOM      8  N   UNL     1      20.497  38.773 -12.536  1.00  0.00    -0.296 NA
ATOM      9  N   UNL     1      19.935  41.212 -14.144  1.00  0.00    -0.301 NA
ATOM     10  C   UNL     1      20.988  40.227 -14.516  1.00  0.00     0.100 C 
ATOM     11  C   UNL     1      19.180  40.820 -12.923  1.00  0.00     0.100 C 
ATOM     12  C   UNL     1      21.555  39.492 -13.289  1.00  0.00     0.100 C 
ATOM     13  C   UNL     1      19.135  39.299 -12.755  1.00  0.00     0.100 C 
BRANCH   9  14
ATOM     14  C   UNL     1      20.502  42.573 -14.012  1.00  0.00     0.081 C 
ATOM     15  C   UNL     1      20.516  43.042 -12.556  1.00  0.00     0.021 C 
ENDBRANCH   9  14
ENDBRANCH   7   8
ENDBRANCH   1   7
BRANCH   4  16
ATOM     16  N   UNL     1      23.963  35.848  -8.263  1.00  0.00    -0.309 N 
ATOM     17  H   UNL     1      24.463  34.927  -8.279  1.00  0.00     0.171 HD
BRANCH  16  18
ATOM     18  C   UNL     1      23.986  36.577  -7.028  1.00  0.00     0.229 A 
ATOM     19  N   UNL     1      25.006  36.433  -6.138  1.00  0.00    -0.218 NA
ATOM     20  N   UNL     1      22.982  37.451  -6.757  1.00  0.00    -0.210 NA
ATOM     21  C   UNL     1      25.022  37.126  -4.972  1.00  0.00     0.156 A 
ATOM     22  C   UNL     1      22.953  38.185  -5.609  1.00  0.00     0.112 A 
ATOM     23  C   UNL     1      23.989  38.013  -4.671  1.00  0.00     0.167 A 
ATOM     24  F   UNL     1      23.979  38.631  -3.466  1.00  0.00    -0.203 F 
BRANCH  22  25
ATOM     25  C   UNL     1      21.810  39.107  -5.383  1.00  0.00     0.008 A 
ATOM     26  C   UNL     1      21.131  39.077  -4.135  1.00  0.00     0.052 A 
ATOM     27  C   UNL     1      21.354  39.987  -6.399  1.00  0.00     0.039 A 
ATOM     28  C   UNL     1      20.038  39.924  -3.889  1.00  0.00     0.151 A 
ATOM     29  C   UNL     1      20.258  40.813  -6.117  1.00  0.00     0.072 A 
ATOM     30  F   UNL     1      19.400  39.911  -2.692  1.00  0.00    -0.205 F 
ATOM     31  C   UNL     1      19.637  40.784  -4.904  1.00  0.00     0.124 A 
ATOM     32  N   UNL     1      19.677  41.756  -6.892  1.00  0.00    -0.326 N 
ATOM     33  N   UNL     1      18.665  41.705  -4.847  1.00  0.00    -0.230 NA
ATOM     34  C   UNL     1      18.722  42.294  -6.069  1.00  0.00     0.107 A 
ATOM     35  C   UNL     1      17.821  43.440  -6.418  1.00  0.00     0.088 C 
BRANCH  32  36
ATOM     36  C   UNL     1      20.127  42.181  -8.234  1.00  0.00     0.083 C 
ATOM     37  C   UNL     1      19.035  42.038  -9.303  1.00  0.00     0.031 C 
ATOM     38  C   UNL     1      20.684  43.604  -8.180  1.00  0.00     0.031 C 
ENDBRANCH  32  36
ENDBRANCH  22  25
ENDBRANCH  16  18
ENDBRANCH   4  16
TORSDOF 7
ENDMDL
MODEL 5
REMARK VINA RESULT:    -9.110      6.136      9.693
REMARK INTER + INTRA:         -13.447
REMARK INTER:                 -12.818
REMARK INTRA:                  -0.629
REMARK UNBOUND:                -0.608
REMARK SMILES CCN1CCN(Cc2ccc(Nc3ncc(F)c(-c4cc(F)c5nc(C)n(C(C)C)c5c4)n3)nc2)CC1
REMARK SMILES IDX 8 1 9 2 10 3 11 4 34 5 35 6 7 7 6 8 3 9 4 10 37 11 5 12
REMARK SMILES IDX 36 13 2 14 1 15 12 16 13 18 14 19 33 20 15 21 18 22 16 23
REMARK SMILES IDX 17 24 19 25 20 26 32 27 21 28 31 29 22 30 23 31 27 32 24 33
REMARK SMILES IDX 25 34 26 35 28 36 29 37 30 38
REMARK H PARENT 12 17
REMARK Flexibility Score: inf
ROOT
ATOM      1  C   UNL     1      25.396  39.784 -16.056  1.00  0.00    -0.015 A 
ATOM      2  C   UNL     1      26.096  38.863 -15.265  1.00  0.00     0.010 A 
ATOM      3  C   UNL     1      25.426  37.773 -14.698  1.00  0.00     0.047 A 
ATOM      4  C   UNL     1      24.041  37.636 -14.895  1.00  0.00     0.132 A 
ATOM      5  N   UNL     1      23.391  38.532 -15.688  1.00  0.00    -0.239 NA
ATOM      6  C   UNL     1      24.024  39.588 -16.262  1.00  0.00     0.118 A 
ENDROOT
BRANCH   1   7
ATOM      7  C   UNL     1      26.056  41.041 -16.539  1.00  0.00     0.121 C 
BRANCH   7   8
ATOM      8  N   UNL     1      26.045  41.031 -18.018  1.00  0.00    -0.296 NA
ATOM      9  N   UNL     1      27.753  41.588 -20.389  1.00  0.00    -0.301 NA
ATOM     10  C   UNL     1      27.480  42.606 -19.337  1.00  0.00     0.100 C 
ATOM     11  C   UNL     1      27.124  40.271 -20.100  1.00  0.00     0.100 C 
ATOM     12  C   UNL     1      26.125  42.374 -18.644  1.00  0.00     0.100 C 
ATOM     13  C   UNL     1      26.975  40.038 -18.594  1.00  0.00     0.100 C 
BRANCH   9  14
ATOM     14  C   UNL     1      27.365  42.088 -21.727  1.00  0.00     0.081 C 
ATOM     15  C   UNL     1      27.802  43.539 -21.937  1.00  0.00     0.021 C 
ENDBRANCH   9  14
ENDBRANCH   7   8
ENDBRANCH   1   7
BRANCH   4  16
ATOM     16  N   UNL     1      23.291  36.554 -14.321  1.00  0.00    -0.309 N 
ATOM     17  H   UNL     1      23.024  35.770 -14.962  1.00  0.00     0.171 HD
BRANCH  16  18
ATOM     18  C   UNL     1      22.660  36.581 -13.033  1.00  0.00     0.229 A 
ATOM     19  N   UNL     1      21.358  36.950 -12.888  1.00  0.00    -0.218 NA
ATOM     20  N   UNL     1      23.371  36.201 -11.939  1.00  0.00    -0.210 NA
ATOM     21  C   UNL     1      20.767  36.972 -11.667  1.00  0.00     0.156 A 
ATOM     22  C   UNL     1      22.826  36.189 -10.691  1.00  0.00     0.112 A 
ATOM     23  C   UNL     1      21.489  36.602 -10.533  1.00  0.00     0.167 A 
ATOM     24  F   UNL     1      20.909  36.713  -9.314  1.00  0.00    -0.203 F 
BRANCH  22  25
ATOM     25  C   UNL     1      23.678  35.773  -9.546  1.00  0.00     0.008 A 
ATOM     26  C   UNL     1      24.658  34.762  -9.742  1.00  0.00     0.052 A 
ATOM     27  C   UNL     1      23.507  36.330  -8.253  1.00  0.00     0.039 A 
ATOM     28  C   UNL     1      25.472  34.332  -8.682  1.00  0.00     0.151 A 
ATOM     29  C   UNL     1      24.335  35.873  -7.219  1.00  0.00     0.072 A 
ATOM     30  F   UNL     1      26.421  33.382  -8.870  1.00  0.00    -0.205 F 
ATOM     31  C   UNL     1      25.284  34.920  -7.436  1.00  0.00     0.124 A 
ATOM     32  N   UNL     1      24.397  36.278  -5.931  1.00  0.00    -0.326 N 
ATOM     33  N   UNL     1      25.994  34.695  -6.321  1.00  0.00    -0.230 NA
ATOM     34  C   UNL     1      25.440  35.549  -5.423  1.00  0.00     0.107 A 
ATOM     35  C   UNL     1      25.981  35.662  -4.029  1.00  0.00     0.088 C 
BRANCH  32  36
ATOM     36  C   UNL     1      23.618  37.377  -5.323  1.00  0.00     0.083 C 
ATOM     37  C   UNL     1      23.703  38.682  -6.125  1.00  0.00     0.031 C 
ATOM     38  C   UNL     1      22.169  36.941  -5.103  1.00  0.00     0.031 C 
ENDBRANCH  32  36
ENDBRANCH  22  25
ENDBRANCH  16  18
ENDBRANCH   4  16
TORSDOF 7
ENDMDL
MODEL 6
REMARK VINA RESULT:    -9.049      4.000      8.707
REMARK INTER + INTRA:         -13.360
REMARK INTER:                 -13.511
REMARK INTRA:                   0.151
REMARK UNBOUND:                -0.608
REMARK SMILES CCN1CCN(Cc2ccc(Nc3ncc(F)c(-c4cc(F)c5nc(C)n(C(C)C)c5c4)n3)nc2)CC1
REMARK SMILES IDX 8 1 9 2 10 3 11 4 34 5 35 6 7 7 6 8 3 9 4 10 37 11 5 12
REMARK SMILES IDX 36 13 2 14 1 15 12 16 13 18 14 19 33 20 15 21 18 22 16 23
REMARK SMILES IDX 17 24 19 25 20 26 32 27 21 28 31 29 22 30 23 31 27 32 24 33
REMARK SMILES IDX 25 34 26 35 28 36 29 37 30 38
REMARK H PARENT 12 17
REMARK Flexibility Score: inf
ROOT
ATOM      1  C   UNL     1      22.271  37.478 -12.985  1.00  0.00    -0.015 A 
ATOM      2  C   UNL     1      21.674  36.796 -11.915  1.00  0.00     0.010 A 
ATOM      3  C   UNL     1      20.774  37.460 -11.076  1.00  0.00     0.047 A 
ATOM      4  C   UNL     1      20.507  38.824 -11.290  1.00  0.00     0.132 A 
ATOM      5  N   UNL     1      21.083  39.454 -12.351  1.00  0.00    -0.239 NA
ATOM      6  C   UNL     1      21.946  38.825 -13.189  1.00  0.00     0.118 A 
ENDROOT
BRANCH   1   7
ATOM      7  C   UNL     1      23.357  36.835 -13.796  1.00  0.00     0.121 C 
BRANCH   7   8
ATOM      8  N   UNL     1      23.807  37.807 -14.817  1.00  0.00    -0.296 NA
ATOM      9  N   UNL     1      25.723  38.138 -17.069  1.00  0.00    -0.301 NA
ATOM     10  C   UNL     1      26.155  37.775 -15.691  1.00  0.00     0.100 C 
ATOM     11  C   UNL     1      24.247  38.268 -17.199  1.00  0.00     0.100 C 
ATOM     12  C   UNL     1      25.189  38.311 -14.620  1.00  0.00     0.100 C 
ATOM     13  C   UNL     1      23.514  37.370 -16.197  1.00  0.00     0.100 C 
BRANCH   9  14
ATOM     14  C   UNL     1      26.414  39.359 -17.540  1.00  0.00     0.081 C 
ATOM     15  C   UNL     1      27.371  39.058 -18.695  1.00  0.00     0.021 C 
ENDBRANCH   9  14
ENDBRANCH   7   8
ENDBRANCH   1   7
BRANCH   4  16
ATOM     16  N   UNL     1      19.611  39.569 -10.449  1.00  0.00    -0.309 N 
ATOM     17  H   UNL     1      18.835  40.086 -10.926  1.00  0.00     0.171 HD
BRANCH  16  18
ATOM     18  C   UNL     1      19.841  39.875  -9.067  1.00  0.00     0.229 A 
ATOM     19  N   UNL     1      19.053  40.759  -8.396  1.00  0.00    -0.218 NA
ATOM     20  N   UNL     1      20.849  39.246  -8.408  1.00  0.00    -0.210 NA
ATOM     21  C   UNL     1      19.275  41.043  -7.088  1.00  0.00     0.156 A 
ATOM     22  C   UNL     1      21.109  39.481  -7.092  1.00  0.00     0.112 A 
ATOM     23  C   UNL     1      20.317  40.419  -6.403  1.00  0.00     0.167 A 
ATOM     24  F   UNL     1      20.576  40.780  -5.123  1.00  0.00    -0.203 F 
BRANCH  22  25
ATOM     25  C   UNL     1      22.240  38.761  -6.451  1.00  0.00     0.008 A 
ATOM     26  C   UNL     1      22.645  39.133  -5.139  1.00  0.00     0.052 A 
ATOM     27  C   UNL     1      22.954  37.742  -7.132  1.00  0.00     0.039 A 
ATOM     28  C   UNL     1      23.719  38.486  -4.506  1.00  0.00     0.151 A 
ATOM     29  C   UNL     1      24.022  37.123  -6.469  1.00  0.00     0.072 A 
ATOM     30  F   UNL     1      24.094  38.826  -3.247  1.00  0.00    -0.205 F 
ATOM     31  C   UNL     1      24.376  37.480  -5.202  1.00  0.00     0.124 A 
ATOM     32  N   UNL     1      24.812  36.107  -6.883  1.00  0.00    -0.326 N 
ATOM     33  N   UNL     1      25.376  36.706  -4.754  1.00  0.00    -0.230 NA
ATOM     34  C   UNL     1      25.611  35.868  -5.796  1.00  0.00     0.107 A 
ATOM     35  C   UNL     1      26.640  34.782  -5.696  1.00  0.00     0.088 C 
BRANCH  32  36
ATOM     36  C   UNL     1      24.677  35.358  -8.149  1.00  0.00     0.083 C 
ATOM     37  C   UNL     1      23.437  35.766  -8.955  1.00  0.00     0.031 C 
ATOM     38  C   UNL     1      25.956  35.481  -8.978  1.00  0.00     0.031 C 
ENDBRANCH  32  36
ENDBRANCH  22  25
ENDBRANCH  16  18
ENDBRANCH   4  16
TORSDOF 7
ENDMDL
MODEL 7
REMARK VINA RESULT:    -8.953      2.286      3.424
REMARK INTER + INTRA:         -13.225
REMARK INTER:                 -13.463
REMARK INTRA:                   0.238
REMARK UNBOUND:                -0.608
REMARK SMILES CCN1CCN(Cc2ccc(Nc3ncc(F)c(-c4cc(F)c5nc(C)n(C(C)C)c5c4)n3)nc2)CC1
REMARK SMILES IDX 8 1 9 2 10 3 11 4 34 5 35 6 7 7 6 8 3 9 4 10 37 11 5 12
REMARK SMILES IDX 36 13 2 14 1 15 12 16 13 18 14 19 33 20 15 21 18 22 16 23
REMARK SMILES IDX 17 24 19 25 20 26 32 27 21 28 31 29 22 30 23 31 27 32 24 33
REMARK SMILES IDX 25 34 26 35 28 36 29 37 30 38
REMARK H PARENT 12 17
REMARK Flexibility Score: inf
ROOT
ATOM      1  C   UNL     1      19.022  44.482  -6.350  1.00  0.00    -0.015 A 
ATOM      2  C   UNL     1      18.375  43.393  -6.950  1.00  0.00     0.010 A 
ATOM      3  C   UNL     1      19.047  42.615  -7.900  1.00  0.00     0.047 A 
ATOM      4  C   UNL     1      20.357  42.962  -8.274  1.00  0.00     0.132 A 
ATOM      5  N   UNL     1      20.968  44.012  -7.658  1.00  0.00    -0.239 NA
ATOM      6  C   UNL     1      20.342  44.770  -6.721  1.00  0.00     0.118 A 
ENDROOT
BRANCH   1   7
ATOM      7  C   UNL     1      18.271  45.423  -5.454  1.00  0.00     0.121 C 
BRANCH   7   8
ATOM      8  N   UNL     1      18.932  45.427  -4.131  1.00  0.00    -0.296 NA
ATOM      9  N   UNL     1      18.433  44.896  -1.247  1.00  0.00    -0.301 NA
ATOM     10  C   UNL     1      17.637  45.877  -2.034  1.00  0.00     0.100 C 
ATOM     11  C   UNL     1      19.457  44.190  -2.064  1.00  0.00     0.100 C 
ATOM     12  C   UNL     1      18.443  46.475  -3.201  1.00  0.00     0.100 C 
ATOM     13  C   UNL     1      19.028  44.081  -3.530  1.00  0.00     0.100 C 
BRANCH   9  14
ATOM     14  C   UNL     1      19.039  45.534  -0.057  1.00  0.00     0.081 C 
ATOM     15  C   UNL     1      18.149  46.643   0.506  1.00  0.00     0.021 C 
ENDBRANCH   9  14
ENDBRANCH   7   8
ENDBRANCH   1   7
BRANCH   4  16
ATOM     16  N   UNL     1      21.092  42.220  -9.260  1.00  0.00    -0.309 N 
ATOM     17  H   UNL     1      21.345  42.726 -10.143  1.00  0.00     0.171 HD
BRANCH  16  18
ATOM     18  C   UNL     1      21.277  40.797  -9.253  1.00  0.00     0.229 A 
ATOM     19  N   UNL     1      20.818  40.017 -10.269  1.00  0.00    -0.218 NA
ATOM     20  N   UNL     1      21.950  40.223  -8.222  1.00  0.00    -0.210 NA
ATOM     21  C   UNL     1      20.997  38.673 -10.257  1.00  0.00     0.156 A 
ATOM     22  C   UNL     1      22.172  38.880  -8.164  1.00  0.00     0.112 A 
ATOM     23  C   UNL     1      21.670  38.066  -9.197  1.00  0.00     0.167 A 
ATOM     24  F   UNL     1      21.763  36.715  -9.160  1.00  0.00    -0.203 F 
BRANCH  22  25
ATOM     25  C   UNL     1      22.905  38.330  -6.994  1.00  0.00     0.008 A 
ATOM     26  C   UNL     1      22.862  39.030  -5.757  1.00  0.00     0.052 A 
ATOM     27  C   UNL     1      23.682  37.147  -7.094  1.00  0.00     0.039 A 
ATOM     28  C   UNL     1      23.553  38.549  -4.633  1.00  0.00     0.151 A 
ATOM     29  C   UNL     1      24.361  36.701  -5.952  1.00  0.00     0.072 A 
ATOM     30  F   UNL     1      23.498  39.204  -3.446  1.00  0.00    -0.205 F 
ATOM     31  C   UNL     1      24.286  37.376  -4.770  1.00  0.00     0.124 A 
ATOM     32  N   UNL     1      25.115  35.592  -5.784  1.00  0.00    -0.326 N 
ATOM     33  N   UNL     1      24.959  36.725  -3.809  1.00  0.00    -0.230 NA
ATOM     34  C   UNL     1      25.442  35.633  -4.453  1.00  0.00     0.107 A 
ATOM     35  C   UNL     1      26.226  34.588  -3.719  1.00  0.00     0.088 C 
BRANCH  32  36
ATOM     36  C   UNL     1      25.346  34.534  -6.789  1.00  0.00     0.083 C 
ATOM     37  C   UNL     1      25.957  35.070  -8.090  1.00  0.00     0.031 C 
ATOM     38  C   UNL     1      26.188  33.407  -6.190  1.00  0.00     0.031 C 
ENDBRANCH  32  36
ENDBRANCH  22  25
ENDBRANCH  16  18
ENDBRANCH   4  16
TORSDOF 7
ENDMDL
MODEL 8
REMARK VINA RESULT:    -8.905      5.655      8.783
REMARK INTER + INTRA:         -13.158
REMARK INTER:                 -12.438
REMARK INTRA:                  -0.719
REMARK UNBOUND:                -0.608
REMARK SMILES CCN1CCN(Cc2ccc(Nc3ncc(F)c(-c4cc(F)c5nc(C)n(C(C)C)c5c4)n3)nc2)CC1
REMARK SMILES IDX 8 1 9 2 10 3 11 4 34 5 35 6 7 7 6 8 3 9 4 10 37 11 5 12
REMARK SMILES IDX 36 13 2 14 1 15 12 16 13 18 14 19 33 20 15 21 18 22 16 23
REMARK SMILES IDX 17 24 19 25 20 26 32 27 21 28 31 29 22 30 23 31 27 32 24 33
REMARK SMILES IDX 25 34 26 35 28 36 29 37 30 38
REMARK H PARENT 12 17
REMARK Flexibility Score: inf
ROOT
ATOM      1  C   UNL     1      25.393  39.911 -15.942  1.00  0.00    -0.015 A 
ATOM      2  C   UNL     1      26.129  38.790 -15.534  1.00  0.00     0.010 A 
ATOM      3  C   UNL     1      25.472  37.671 -15.011  1.00  0.00     0.047 A 
ATOM      4  C   UNL     1      24.074  37.699 -14.862  1.00  0.00     0.132 A 
ATOM      5  N   UNL     1      23.382  38.791 -15.289  1.00  0.00    -0.239 NA
ATOM      6  C   UNL     1      23.998  39.882 -15.815  1.00  0.00     0.118 A 
ENDROOT
BRANCH   1   7
ATOM      7  C   UNL     1      26.084  41.177 -16.353  1.00  0.00     0.121 C 
BRANCH   7   8
ATOM      8  N   UNL     1      25.248  41.851 -17.371  1.00  0.00    -0.296 NA
ATOM      9  N   UNL     1      25.344  43.931 -19.495  1.00  0.00    -0.301 NA
ATOM     10  C   UNL     1      25.716  44.208 -18.080  1.00  0.00     0.100 C 
ATOM     11  C   UNL     1      24.970  42.510 -19.730  1.00  0.00     0.100 C 
ATOM     12  C   UNL     1      24.977  43.284 -17.095  1.00  0.00     0.100 C 
ATOM     13  C   UNL     1      25.687  41.573 -18.753  1.00  0.00     0.100 C 
BRANCH   9  14
ATOM     14  C   UNL     1      24.279  44.850 -19.956  1.00  0.00     0.081 C 
ATOM     15  C   UNL     1      22.929  44.141 -20.070  1.00  0.00     0.021 C 
ENDBRANCH   9  14
ENDBRANCH   7   8
ENDBRANCH   1   7
BRANCH   4  16
ATOM     16  N   UNL     1      23.342  36.593 -14.310  1.00  0.00    -0.309 N 
ATOM     17  H   UNL     1      23.108  35.807 -14.963  1.00  0.00     0.171 HD
BRANCH  16  18
ATOM     18  C   UNL     1      22.687  36.593 -13.034  1.00  0.00     0.229 A 
ATOM     19  N   UNL     1      21.369  36.909 -12.913  1.00  0.00    -0.218 NA
ATOM     20  N   UNL     1      23.393  36.240 -11.928  1.00  0.00    -0.210 NA
ATOM     21  C   UNL     1      20.756  36.905 -11.703  1.00  0.00     0.156 A 
ATOM     22  C   UNL     1      22.826  36.205 -10.690  1.00  0.00     0.112 A 
ATOM     23  C   UNL     1      21.471  36.564 -10.556  1.00  0.00     0.167 A 
ATOM     24  F   UNL     1      20.864  36.649  -9.348  1.00  0.00    -0.203 F 
BRANCH  22  25
ATOM     25  C   UNL     1      23.673  35.822  -9.530  1.00  0.00     0.008 A 
ATOM     26  C   UNL     1      24.682  34.836  -9.703  1.00  0.00     0.052 A 
ATOM     27  C   UNL     1      23.469  36.385  -8.244  1.00  0.00     0.039 A 
ATOM     28  C   UNL     1      25.493  34.438  -8.628  1.00  0.00     0.151 A 
ATOM     29  C   UNL     1      24.295  35.960  -7.195  1.00  0.00     0.072 A 
ATOM     30  F   UNL     1      26.470  33.512  -8.795  1.00  0.00    -0.205 F 
ATOM     31  C   UNL     1      25.272  35.031  -7.390  1.00  0.00     0.124 A 
ATOM     32  N   UNL     1      24.328  36.377  -5.909  1.00  0.00    -0.326 N 
ATOM     33  N   UNL     1      25.973  34.835  -6.263  1.00  0.00    -0.230 NA
ATOM     34  C   UNL     1      25.384  35.681  -5.381  1.00  0.00     0.107 A 
ATOM     35  C   UNL     1      25.902  35.821  -3.981  1.00  0.00     0.088 C 
BRANCH  32  36
ATOM     36  C   UNL     1      23.511  37.460  -5.323  1.00  0.00     0.083 C 
ATOM     37  C   UNL     1      23.646  38.787  -6.082  1.00  0.00     0.031 C 
ATOM     38  C   UNL     1      22.052  37.020  -5.207  1.00  0.00     0.031 C 
ENDBRANCH  32  36
ENDBRANCH  22  25
ENDBRANCH  16  18
ENDBRANCH   4  16
TORSDOF 7
ENDMDL
MODEL 9
REMARK VINA RESULT:    -8.883      5.262      8.246
REMARK INTER + INTRA:         -13.126
REMARK INTER:                 -12.437
REMARK INTRA:                  -0.690
REMARK UNBOUND:                -0.608
REMARK SMILES CCN1CCN(Cc2ccc(Nc3ncc(F)c(-c4cc(F)c5nc(C)n(C(C)C)c5c4)n3)nc2)CC1
REMARK SMILES IDX 8 1 9 2 10 3 11 4 34 5 35 6 7 7 6 8 3 9 4 10 37 11 5 12
REMARK SMILES IDX 36 13 2 14 1 15 12 16 13 18 14 19 33 20 15 21 18 22 16 23
REMARK SMILES IDX 17 24 19 25 20 26 32 27 21 28 31 29 22 30 23 31 27 32 24 33
REMARK SMILES IDX 25 34 26 35 28 36 29 37 30 38
REMARK H PARENT 12 17
REMARK Flexibility Score: inf
ROOT
ATOM      1  C   UNL     1      25.550  39.333 -16.770  1.00  0.00    -0.015 A 
ATOM      2  C   UNL     1      26.071  39.139 -15.484  1.00  0.00     0.010 A 
ATOM      3  C   UNL     1      25.608  38.083 -14.691  1.00  0.00     0.047 A 
ATOM      4  C   UNL     1      24.588  37.248 -15.182  1.00  0.00     0.132 A 
ATOM      5  N   UNL     1      24.118  37.446 -16.444  1.00  0.00    -0.239 NA
ATOM      6  C   UNL     1      24.565  38.453 -17.237  1.00  0.00     0.118 A 
ENDROOT
BRANCH   1   7
ATOM      7  C   UNL     1      25.914  40.548 -17.571  1.00  0.00     0.121 C 
BRANCH   7   8
ATOM      8  N   UNL     1      25.640  41.745 -16.746  1.00  0.00    -0.296 NA
ATOM      9  N   UNL     1      24.547  44.508 -16.893  1.00  0.00    -0.301 NA
ATOM     10  C   UNL     1      25.680  44.044 -17.740  1.00  0.00     0.100 C 
ATOM     11  C   UNL     1      24.005  43.437 -16.014  1.00  0.00     0.100 C 
ATOM     12  C   UNL     1      26.488  42.921 -17.066  1.00  0.00     0.100 C 
ATOM     13  C   UNL     1      24.200  42.050 -16.632  1.00  0.00     0.100 C 
BRANCH   9  14
ATOM     14  C   UNL     1      24.923  45.707 -16.112  1.00  0.00     0.081 C 
ATOM     15  C   UNL     1      24.479  45.594 -14.652  1.00  0.00     0.021 C 
ENDBRANCH   9  14
ENDBRANCH   7   8
ENDBRANCH   1   7
BRANCH   4  16
ATOM     16  N   UNL     1      24.052  36.162 -14.409  1.00  0.00    -0.309 N 
ATOM     17  H   UNL     1      24.073  35.212 -14.850  1.00  0.00     0.171 HD
BRANCH  16  18
ATOM     18  C   UNL     1      23.264  36.307 -13.219  1.00  0.00     0.229 A 
ATOM     19  N   UNL     1      21.965  36.711 -13.273  1.00  0.00    -0.218 NA
ATOM     20  N   UNL     1      23.820  36.005 -12.017  1.00  0.00    -0.210 NA
ATOM     21  C   UNL     1      21.225  36.845 -12.144  1.00  0.00     0.156 A 
ATOM     22  C   UNL     1      23.120  36.107 -10.852  1.00  0.00     0.112 A 
ATOM     23  C   UNL     1      21.787  36.557 -10.901  1.00  0.00     0.167 A 
ATOM     24  F   UNL     1      21.060  36.779  -9.780  1.00  0.00    -0.203 F 
BRANCH  22  25
ATOM     25  C   UNL     1      23.808  35.772  -9.578  1.00  0.00     0.008 A 
ATOM     26  C   UNL     1      24.766  34.722  -9.562  1.00  0.00     0.052 A 
ATOM     27  C   UNL     1      23.499  36.445  -8.368  1.00  0.00     0.039 A 
ATOM     28  C   UNL     1      25.427  34.366  -8.375  1.00  0.00     0.151 A 
ATOM     29  C   UNL     1      24.176  36.060  -7.203  1.00  0.00     0.072 A 
ATOM     30  F   UNL     1      26.356  33.378  -8.361  1.00  0.00    -0.205 F 
ATOM     31  C   UNL     1      25.108  35.066  -7.217  1.00  0.00     0.124 A 
ATOM     32  N   UNL     1      24.092  36.575  -5.956  1.00  0.00    -0.326 N 
ATOM     33  N   UNL     1      25.665  34.922  -6.006  1.00  0.00    -0.230 NA
ATOM     34  C   UNL     1      25.037  35.866  -5.260  1.00  0.00     0.107 A 
ATOM     35  C   UNL     1      25.405  36.088  -3.824  1.00  0.00     0.088 C 
BRANCH  32  36
ATOM     36  C   UNL     1      23.286  37.743  -5.547  1.00  0.00     0.083 C 
ATOM     37  C   UNL     1      23.589  38.998  -6.377  1.00  0.00     0.031 C 
ATOM     38  C   UNL     1      21.797  37.395  -5.570  1.00  0.00     0.031 C 
ENDBRANCH  32  36
ENDBRANCH  22  25
ENDBRANCH  16  18
ENDBRANCH   4  16
TORSDOF 7
ENDMDL
MODEL 10
REMARK VINA RESULT:    -8.880      3.500      9.424
REMARK INTER + INTRA:         -13.122
REMARK INTER:                 -12.562
REMARK INTRA:                  -0.560
REMARK UNBOUND:                -0.608
REMARK SMILES CCN1CCN(Cc2ccc(Nc3ncc(F)c(-c4cc(F)c5nc(C)n(C(C)C)c5c4)n3)nc2)CC1
REMARK SMILES IDX 8 1 9 2 10 3 11 4 34 5 35 6 7 7 6 8 3 9 4 10 37 11 5 12
REMARK SMILES IDX 36 13 2 14 1 15 12 16 13 18 14 19 33 20 15 21 18 22 16 23
REMARK SMILES IDX 17 24 19 25 20 26 32 27 21 28 31 29 22 30 23 31 27 32 24 33
REMARK SMILES IDX 25 34 26 35 28 36 29 37 30 38
REMARK H PARENT 12 17
REMARK Flexibility Score: inf
ROOT
ATOM      1  C   UNL     1      23.724  37.779  -4.730  1.00  0.00    -0.015 A 
ATOM      2  C   UNL     1      23.825  38.881  -5.589  1.00  0.00     0.010 A 
ATOM      3  C   UNL     1      22.675  39.581  -5.971  1.00  0.00     0.047 A 
ATOM      4  C   UNL     1      21.418  39.142  -5.519  1.00  0.00     0.132 A 
ATOM      5  N   UNL     1      21.352  38.082  -4.666  1.00  0.00    -0.239 NA
ATOM      6  C   UNL     1      22.457  37.399  -4.268  1.00  0.00     0.118 A 
ENDROOT
BRANCH   1   7
ATOM      7  C   UNL     1      24.919  36.920  -4.437  1.00  0.00     0.121 C 
BRANCH   7   8
ATOM      8  N   UNL     1      24.856  35.728  -5.312  1.00  0.00    -0.296 NA
ATOM      9  N   UNL     1      26.255  34.387  -7.569  1.00  0.00    -0.301 NA
ATOM     10  C   UNL     1      25.752  35.786  -7.650  1.00  0.00     0.100 C 
ATOM     11  C   UNL     1      26.023  33.764  -6.238  1.00  0.00     0.100 C 
ATOM     12  C   UNL     1      24.540  36.022  -6.732  1.00  0.00     0.100 C 
ATOM     13  C   UNL     1      26.001  34.814  -5.123  1.00  0.00     0.100 C 
BRANCH   9  14
ATOM     14  C   UNL     1      25.695  33.555  -8.657  1.00  0.00     0.081 C 
ATOM     15  C   UNL     1      25.634  34.321  -9.980  1.00  0.00     0.021 C 
ENDBRANCH   9  14
ENDBRANCH   7   8
ENDBRANCH   1   7
BRANCH   4  16
ATOM     16  N   UNL     1      20.198  39.800  -5.893  1.00  0.00    -0.309 N 
ATOM     17  H   UNL     1      19.311  39.423  -5.482  1.00  0.00     0.171 HD
BRANCH  16  18
ATOM     18  C   UNL     1      20.065  40.742  -6.967  1.00  0.00     0.229 A 
ATOM     19  N   UNL     1      20.166  42.082  -6.752  1.00  0.00    -0.218 NA
ATOM     20  N   UNL     1      19.864  40.282  -8.230  1.00  0.00    -0.210 NA
ATOM     21  C   UNL     1      20.042  42.968  -7.772  1.00  0.00     0.156 A 
ATOM     22  C   UNL     1      19.745  41.124  -9.295  1.00  0.00     0.112 A 
ATOM     23  C   UNL     1      19.816  42.512  -9.071  1.00  0.00     0.167 A 
ATOM     24  F   UNL     1      19.608  43.413 -10.061  1.00  0.00    -0.203 F 
BRANCH  22  25
ATOM     25  C   UNL     1      19.511  40.539 -10.641  1.00  0.00     0.008 A 
ATOM     26  C   UNL     1      18.357  40.926 -11.374  1.00  0.00     0.052 A 
ATOM     27  C   UNL     1      20.390  39.572 -11.193  1.00  0.00     0.039 A 
ATOM     28  C   UNL     1      18.094  40.385 -12.643  1.00  0.00     0.151 A 
ATOM     29  C   UNL     1      20.092  39.052 -12.460  1.00  0.00     0.072 A 
ATOM     30  F   UNL     1      17.003  40.767 -13.353  1.00  0.00    -0.205 F 
ATOM     31  C   UNL     1      18.991  39.455 -13.154  1.00  0.00     0.124 A 
ATOM     32  N   UNL     1      20.791  38.168 -13.207  1.00  0.00    -0.326 N 
ATOM     33  N   UNL     1      18.954  38.873 -14.362  1.00  0.00    -0.230 NA
ATOM     34  C   UNL     1      20.072  38.105 -14.372  1.00  0.00     0.107 A 
ATOM     35  C   UNL     1      20.450  37.307 -15.583  1.00  0.00     0.088 C 
BRANCH  32  36
ATOM     36  C   UNL     1      22.104  37.583 -12.865  1.00  0.00     0.083 C 
ATOM     37  C   UNL     1      21.998  36.144 -12.340  1.00  0.00     0.031 C 
ATOM     38  C   UNL     1      23.055  37.681 -14.057  1.00  0.00     0.031 C 
ENDBRANCH  32  36
ENDBRANCH  22  25
ENDBRANCH  16  18
ENDBRANCH   4  16
TORSDOF 7
ENDMDL
MODEL 11
REMARK VINA RESULT:    -8.861      3.505      9.383
REMARK INTER + INTRA:         -13.095
REMARK INTER:                 -12.739
REMARK INTRA:                  -0.356
REMARK UNBOUND:                -0.608
REMARK SMILES CCN1CCN(Cc2ccc(Nc3ncc(F)c(-c4cc(F)c5nc(C)n(C(C)C)c5c4)n3)nc2)CC1
REMARK SMILES IDX 8 1 9 2 10 3 11 4 34 5 35 6 7 7 6 8 3 9 4 10 37 11 5 12
REMARK SMILES IDX 36 13 2 14 1 15 12 16 13 18 14 19 33 20 15 21 18 22 16 23
REMARK SMILES IDX 17 24 19 25 20 26 32 27 21 28 31 29 22 30 23 31 27 32 24 33
REMARK SMILES IDX 25 34 26 35 28 36 29 37 30 38
REMARK H PARENT 12 17
REMARK Flexibility Score: inf
ROOT
ATOM      1  C   UNL     1      21.065  37.155 -11.846  1.00  0.00    -0.015 A 
ATOM      2  C   UNL     1      21.029  37.916 -10.670  1.00  0.00     0.010 A 
ATOM      3  C   UNL     1      21.847  37.574  -9.588  1.00  0.00     0.047 A 
ATOM      4  C   UNL     1      22.672  36.439  -9.678  1.00  0.00     0.132 A 
ATOM      5  N   UNL     1      22.704  35.732 -10.841  1.00  0.00    -0.239 NA
ATOM      6  C   UNL     1      21.931  36.055 -11.910  1.00  0.00     0.118 A 
ENDROOT
BRANCH   1   7
ATOM      7  C   UNL     1      20.085  37.404 -12.954  1.00  0.00     0.121 C 
BRANCH   7   8
ATOM      8  N   UNL     1      20.821  37.382 -14.237  1.00  0.00    -0.296 NA
ATOM      9  N   UNL     1      21.011  38.757 -16.868  1.00  0.00    -0.301 NA
ATOM     10  C   UNL     1      19.746  38.155 -16.364  1.00  0.00     0.100 C 
ATOM     11  C   UNL     1      22.137  38.635 -15.903  1.00  0.00     0.100 C 
ATOM     12  C   UNL     1      20.005  36.976 -15.409  1.00  0.00     0.100 C 
ATOM     13  C   UNL     1      21.634  38.595 -14.456  1.00  0.00     0.100 C 
BRANCH   9  14
ATOM     14  C   UNL     1      21.375  38.203 -18.191  1.00  0.00     0.081 C 
ATOM     15  C   UNL     1      22.120  39.228 -19.048  1.00  0.00     0.021 C 
ENDBRANCH   9  14
ENDBRANCH   7   8
ENDBRANCH   1   7
BRANCH   4  16
ATOM     16  N   UNL     1      23.517  36.020  -8.594  1.00  0.00    -0.309 N 
ATOM     17  H   UNL     1      23.916  35.053  -8.652  1.00  0.00     0.171 HD
BRANCH  16  18
ATOM     18  C   UNL     1      23.645  36.700  -7.338  1.00  0.00     0.229 A 
ATOM     19  N   UNL     1      24.732  36.518  -6.539  1.00  0.00    -0.218 NA
ATOM     20  N   UNL     1      22.671  37.566  -6.952  1.00  0.00    -0.210 NA
ATOM     21  C   UNL     1      24.847  37.165  -5.353  1.00  0.00     0.156 A 
ATOM     22  C   UNL     1      22.740  38.255  -5.779  1.00  0.00     0.112 A 
ATOM     23  C   UNL     1      23.848  38.043  -4.935  1.00  0.00     0.167 A 
ATOM     24  F   UNL     1      23.939  38.613  -3.710  1.00  0.00    -0.203 F 
BRANCH  22  25
ATOM     25  C   UNL     1      21.626  39.172  -5.425  1.00  0.00     0.008 A 
ATOM     26  C   UNL     1      21.028  39.073  -4.139  1.00  0.00     0.052 A 
ATOM     27  C   UNL     1      21.116  40.114  -6.355  1.00  0.00     0.039 A 
ATOM     28  C   UNL     1      19.963  39.913  -3.773  1.00  0.00     0.151 A 
ATOM     29  C   UNL     1      20.050  40.931  -5.955  1.00  0.00     0.072 A 
ATOM     30  F   UNL     1      19.403  39.834  -2.540  1.00  0.00    -0.205 F 
ATOM     31  C   UNL     1      19.508  40.835  -4.709  1.00  0.00     0.124 A 
ATOM     32  N   UNL     1      19.432  41.923  -6.634  1.00  0.00    -0.326 N 
ATOM     33  N   UNL     1      18.553  41.760  -4.535  1.00  0.00    -0.230 NA
ATOM     34  C   UNL     1      18.538  42.419  -5.721  1.00  0.00     0.107 A 
ATOM     35  C   UNL     1      17.630  43.591  -5.942  1.00  0.00     0.088 C 
BRANCH  32  36
ATOM     36  C   UNL     1      19.800  42.423  -7.975  1.00  0.00     0.083 C 
ATOM     37  C   UNL     1      18.629  42.388  -8.967  1.00  0.00     0.031 C 
ATOM     38  C   UNL     1      20.412  43.820  -7.870  1.00  0.00     0.031 C 
ENDBRANCH  32  36
ENDBRANCH  22  25
ENDBRANCH  16  18
ENDBRANCH   4  16
TORSDOF 7
ENDMDL
MODEL 12
REMARK VINA RESULT:    -8.769      3.182      7.718
REMARK INTER + INTRA:         -12.966
REMARK INTER:                 -11.628
REMARK INTRA:                  -1.338
REMARK UNBOUND:                -0.608
REMARK SMILES CCN1CCN(Cc2ccc(Nc3ncc(F)c(-c4cc(F)c5nc(C)n(C(C)C)c5c4)n3)nc2)CC1
REMARK SMILES IDX 8 1 9 2 10 3 11 4 34 5 35 6 7 7 6 8 3 9 4 10 37 11 5 12
REMARK SMILES IDX 36 13 2 14 1 15 12 16 13 18 14 19 33 20 15 21 18 22 16 23
REMARK SMILES IDX 17 24 19 25 20 26 32 27 21 28 31 29 22 30 23 31 27 32 24 33
REMARK SMILES IDX 25 34 26 35 28 36 29 37 30 38
REMARK H PARENT 12 17
REMARK Flexibility Score: inf
ROOT
ATOM      1  C   UNL     1      21.110  37.558 -13.711  1.00  0.00    -0.015 A 
ATOM      2  C   UNL     1      22.482  37.352 -13.909  1.00  0.00     0.010 A 
ATOM      3  C   UNL     1      23.212  36.571 -13.006  1.00  0.00     0.047 A 
ATOM      4  C   UNL     1      22.565  36.032 -11.880  1.00  0.00     0.132 A 
ATOM      5  N   UNL     1      21.226  36.228 -11.726  1.00  0.00    -0.239 NA
ATOM      6  C   UNL     1      20.495  36.968 -12.599  1.00  0.00     0.118 A 
ENDROOT
BRANCH   1   7
ATOM      7  C   UNL     1      20.345  38.519 -14.572  1.00  0.00     0.121 C 
BRANCH   7   8
ATOM      8  N   UNL     1      20.478  39.871 -13.986  1.00  0.00    -0.296 NA
ATOM      9  N   UNL     1      19.631  42.697 -14.370  1.00  0.00    -0.301 NA
ATOM     10  C   UNL     1      20.352  41.923 -15.418  1.00  0.00     0.100 C 
ATOM     11  C   UNL     1      19.348  41.895 -13.149  1.00  0.00     0.100 C 
ATOM     12  C   UNL     1      21.251  40.829 -14.816  1.00  0.00     0.100 C 
ATOM     13  C   UNL     1      19.199  40.406 -13.477  1.00  0.00     0.100 C 
BRANCH   9  14
ATOM     14  C   UNL     1      20.354  43.945 -14.038  1.00  0.00     0.081 C 
ATOM     15  C   UNL     1      20.570  44.091 -12.530  1.00  0.00     0.021 C 
ENDBRANCH   9  14
ENDBRANCH   7   8
ENDBRANCH   1   7
BRANCH   4  16
ATOM     16  N   UNL     1      23.261  35.242 -10.903  1.00  0.00    -0.309 N 
ATOM     17  H   UNL     1      23.274  34.205 -11.054  1.00  0.00     0.171 HD
BRANCH  16  18
ATOM     18  C   UNL     1      23.706  35.716  -9.624  1.00  0.00     0.229 A 
ATOM     19  N   UNL     1      24.888  35.309  -9.088  1.00  0.00    -0.218 NA
ATOM     20  N   UNL     1      22.941  36.614  -8.949  1.00  0.00    -0.210 NA
ATOM     21  C   UNL     1      25.303  35.762  -7.879  1.00  0.00     0.156 A 
ATOM     22  C   UNL     1      23.314  37.114  -7.738  1.00  0.00     0.112 A 
ATOM     23  C   UNL     1      24.521  36.669  -7.165  1.00  0.00     0.167 A 
ATOM     24  F   UNL     1      24.910  37.044  -5.923  1.00  0.00    -0.203 F 
BRANCH  22  25
ATOM     25  C   UNL     1      22.412  38.081  -7.060  1.00  0.00     0.008 A 
ATOM     26  C   UNL     1      22.180  37.951  -5.663  1.00  0.00     0.052 A 
ATOM     27  C   UNL     1      21.744  39.104  -7.780  1.00  0.00     0.039 A 
ATOM     28  C   UNL     1      21.324  38.836  -4.989  1.00  0.00     0.151 A 
ATOM     29  C   UNL     1      20.894  39.966  -7.073  1.00  0.00     0.072 A 
ATOM     30  F   UNL     1      21.116  38.726  -3.653  1.00  0.00    -0.205 F 
ATOM     31  C   UNL     1      20.705  39.836  -5.730  1.00  0.00     0.124 A 
ATOM     32  N   UNL     1      20.193  41.032  -7.520  1.00  0.00    -0.326 N 
ATOM     33  N   UNL     1      19.908  40.810  -5.267  1.00  0.00    -0.230 NA
ATOM     34  C   UNL     1      19.623  41.533  -6.379  1.00  0.00     0.107 A 
ATOM     35  C   UNL     1      18.783  42.772  -6.301  1.00  0.00     0.088 C 
BRANCH  32  36
ATOM     36  C   UNL     1      20.221  41.580  -8.892  1.00  0.00     0.083 C 
ATOM     37  C   UNL     1      18.830  41.643  -9.538  1.00  0.00     0.031 C 
ATOM     38  C   UNL     1      20.913  42.944  -8.904  1.00  0.00     0.031 C 
ENDBRANCH  32  36
ENDBRANCH  22  25
ENDBRANCH  16  18
ENDBRANCH   4  16
TORSDOF 7
ENDMDL
MODEL 13
REMARK VINA RESULT:    -8.734      4.911     10.133
REMARK INTER + INTRA:         -12.917
REMARK INTER:                 -12.127
REMARK INTRA:                  -0.790
REMARK UNBOUND:                -0.608
REMARK SMILES CCN1CCN(Cc2ccc(Nc3ncc(F)c(-c4cc(F)c5nc(C)n(C(C)C)c5c4)n3)nc2)CC1
REMARK SMILES IDX 8 1 9 2 10 3 11 4 34 5 35 6 7 7 6 8 3 9 4 10 37 11 5 12
REMARK SMILES IDX 36 13 2 14 1 15 12 16 13 18 14 19 33 20 15 21 18 22 16 23
REMARK SMILES IDX 17 24 19 25 20 26 32 27 21 28 31 29 22 30 23 31 27 32 24 33
REMARK SMILES IDX 25 34 26 35 28 36 29 37 30 38
REMARK H PARENT 12 17
REMARK Flexibility Score: inf
ROOT
ATOM      1  C   UNL     1      23.285  37.770 -14.864  1.00  0.00    -0.015 A 
ATOM      2  C   UNL     1      24.392  37.023 -14.439  1.00  0.00     0.010 A 
ATOM      3  C   UNL     1      24.300  36.225 -13.293  1.00  0.00     0.047 A 
ATOM      4  C   UNL     1      23.105  36.215 -12.552  1.00  0.00     0.132 A 
ATOM      5  N   UNL     1      22.039  36.932 -13.003  1.00  0.00    -0.239 NA
ATOM      6  C   UNL     1      22.100  37.700 -14.122  1.00  0.00     0.118 A 
ENDROOT
BRANCH   1   7
ATOM      7  C   UNL     1      23.409  38.752 -15.992  1.00  0.00     0.121 C 
BRANCH   7   8
ATOM      8  N   UNL     1      24.731  38.560 -16.629  1.00  0.00    -0.296 NA
ATOM      9  N   UNL     1      26.441  39.555 -18.850  1.00  0.00    -0.301 NA
ATOM     10  C   UNL     1      25.072  39.011 -19.069  1.00  0.00     0.100 C 
ATOM     11  C   UNL     1      26.829  39.587 -17.415  1.00  0.00     0.100 C 
ATOM     12  C   UNL     1      24.678  37.982 -17.995  1.00  0.00     0.100 C 
ATOM     13  C   UNL     1      25.607  39.742 -16.505  1.00  0.00     0.100 C 
BRANCH   9  14
ATOM     14  C   UNL     1      27.440  38.826 -19.663  1.00  0.00     0.081 C 
ATOM     15  C   UNL     1      28.833  38.886 -19.033  1.00  0.00     0.021 C 
ENDBRANCH   9  14
ENDBRANCH   7   8
ENDBRANCH   1   7
BRANCH   4  16
ATOM     16  N   UNL     1      22.955  35.438 -11.354  1.00  0.00    -0.309 N 
ATOM     17  H   UNL     1      22.257  34.656 -11.381  1.00  0.00     0.171 HD
BRANCH  16  18
ATOM     18  C   UNL     1      23.473  35.799 -10.066  1.00  0.00     0.229 A 
ATOM     19  N   UNL     1      24.664  35.314  -9.619  1.00  0.00    -0.218 NA
ATOM     20  N   UNL     1      22.772  36.666  -9.290  1.00  0.00    -0.210 NA
ATOM     21  C   UNL     1      25.149  35.661  -8.401  1.00  0.00     0.156 A 
ATOM     22  C   UNL     1      23.217  37.061  -8.064  1.00  0.00     0.112 A 
ATOM     23  C   UNL     1      24.433  36.536  -7.585  1.00  0.00     0.167 A 
ATOM     24  F   UNL     1      24.890  36.802  -6.339  1.00  0.00    -0.203 F 
BRANCH  22  25
ATOM     25  C   UNL     1      22.382  38.002  -7.273  1.00  0.00     0.008 A 
ATOM     26  C   UNL     1      22.232  37.788  -5.876  1.00  0.00     0.052 A 
ATOM     27  C   UNL     1      21.697  39.082  -7.886  1.00  0.00     0.039 A 
ATOM     28  C   UNL     1      21.439  38.648  -5.097  1.00  0.00     0.151 A 
ATOM     29  C   UNL     1      20.913  39.915  -7.077  1.00  0.00     0.072 A 
ATOM     30  F   UNL     1      21.310  38.458  -3.760  1.00  0.00    -0.205 F 
ATOM     31  C   UNL     1      20.802  39.705  -5.735  1.00  0.00     0.124 A 
ATOM     32  N   UNL     1      20.212  41.021  -7.414  1.00  0.00    -0.326 N 
ATOM     33  N   UNL     1      20.058  40.664  -5.165  1.00  0.00    -0.230 NA
ATOM     34  C   UNL     1      19.725  41.462  -6.211  1.00  0.00     0.107 A 
ATOM     35  C   UNL     1      18.922  42.711  -6.005  1.00  0.00     0.088 C 
BRANCH  32  36
ATOM     36  C   UNL     1      20.171  41.655  -8.748  1.00  0.00     0.083 C 
ATOM     37  C   UNL     1      18.744  41.815  -9.289  1.00  0.00     0.031 C 
ATOM     38  C   UNL     1      20.921  42.987  -8.726  1.00  0.00     0.031 C 
ENDBRANCH  32  36
ENDBRANCH  22  25
ENDBRANCH  16  18
ENDBRANCH   4  16
TORSDOF 7
ENDMDL
MODEL 14
REMARK VINA RESULT:    -8.700      3.361      7.615
REMARK INTER + INTRA:         -12.869
REMARK INTER:                 -12.643
REMARK INTRA:                  -0.225
REMARK UNBOUND:                -0.608
REMARK SMILES CCN1CCN(Cc2ccc(Nc3ncc(F)c(-c4cc(F)c5nc(C)n(C(C)C)c5c4)n3)nc2)CC1
REMARK SMILES IDX 8 1 9 2 10 3 11 4 34 5 35 6 7 7 6 8 3 9 4 10 37 11 5 12
REMARK SMILES IDX 36 13 2 14 1 15 12 16 13 18 14 19 33 20 15 21 18 22 16 23
REMARK SMILES IDX 17 24 19 25 20 26 32 27 21 28 31 29 22 30 23 31 27 32 24 33
REMARK SMILES IDX 25 34 26 35 28 36 29 37 30 38
REMARK H PARENT 12 17
REMARK Flexibility Score: inf
ROOT
ATOM      1  C   UNL     1      20.038  39.565 -12.828  1.00  0.00    -0.015 A 
ATOM      2  C   UNL     1      20.421  38.684 -11.807  1.00  0.00     0.010 A 
ATOM      3  C   UNL     1      20.289  39.063 -10.467  1.00  0.00     0.047 A 
ATOM      4  C   UNL     1      19.810  40.348 -10.157  1.00  0.00     0.132 A 
ATOM      5  N   UNL     1      19.423  41.174 -11.168  1.00  0.00    -0.239 NA
ATOM      6  C   UNL     1      19.526  40.821 -12.475  1.00  0.00     0.118 A 
ENDROOT
BRANCH   1   7
ATOM      7  C   UNL     1      20.319  39.245 -14.266  1.00  0.00     0.121 C 
BRANCH   7   8
ATOM      8  N   UNL     1      21.735  38.832 -14.379  1.00  0.00    -0.296 NA
ATOM      9  N   UNL     1      24.092  38.972 -16.189  1.00  0.00    -0.301 NA
ATOM     10  C   UNL     1      22.785  38.397 -16.612  1.00  0.00     0.100 C 
ATOM     11  C   UNL     1      24.070  39.501 -14.799  1.00  0.00     0.100 C 
ATOM     12  C   UNL     1      21.997  37.812 -15.426  1.00  0.00     0.100 C 
ATOM     13  C   UNL     1      22.669  39.975 -14.400  1.00  0.00     0.100 C 
BRANCH   9  14
ATOM     14  C   UNL     1      25.189  37.997 -16.377  1.00  0.00     0.081 C 
ATOM     15  C   UNL     1      25.680  37.434 -15.042  1.00  0.00     0.021 C 
ENDBRANCH   9  14
ENDBRANCH   7   8
ENDBRANCH   1   7
BRANCH   4  16
ATOM     16  N   UNL     1      19.674  40.807  -8.803  1.00  0.00    -0.309 N 
ATOM     17  H   UNL     1      19.243  41.752  -8.664  1.00  0.00     0.171 HD
BRANCH  16  18
ATOM     18  C   UNL     1      20.307  40.210  -7.662  1.00  0.00     0.229 A 
ATOM     19  N   UNL     1      20.029  40.627  -6.397  1.00  0.00    -0.218 NA
ATOM     20  N   UNL     1      21.181  39.187  -7.851  1.00  0.00    -0.210 NA
ATOM     21  C   UNL     1      20.630  40.058  -5.323  1.00  0.00     0.156 A 
ATOM     22  C   UNL     1      21.803  38.568  -6.809  1.00  0.00     0.112 A 
ATOM     23  C   UNL     1      21.543  39.019  -5.501  1.00  0.00     0.167 A 
ATOM     24  F   UNL     1      22.197  38.522  -4.424  1.00  0.00    -0.203 F 
BRANCH  22  25
ATOM     25  C   UNL     1      22.756  37.466  -7.103  1.00  0.00     0.008 A 
ATOM     26  C   UNL     1      22.787  36.905  -8.408  1.00  0.00     0.052 A 
ATOM     27  C   UNL     1      23.606  36.931  -6.100  1.00  0.00     0.039 A 
ATOM     28  C   UNL     1      23.663  35.853  -8.721  1.00  0.00     0.151 A 
ATOM     29  C   UNL     1      24.464  35.880  -6.449  1.00  0.00     0.072 A 
ATOM     30  F   UNL     1      23.708  35.329  -9.971  1.00  0.00    -0.205 F 
ATOM     31  C   UNL     1      24.492  35.374  -7.713  1.00  0.00     0.124 A 
ATOM     32  N   UNL     1      25.388  35.244  -5.694  1.00  0.00    -0.326 N 
ATOM     33  N   UNL     1      25.434  34.426  -7.824  1.00  0.00    -0.230 NA
ATOM     34  C   UNL     1      25.975  34.379  -6.580  1.00  0.00     0.107 A 
ATOM     35  C   UNL     1      27.124  33.468  -6.271  1.00  0.00     0.088 C 
BRANCH  32  36
ATOM     36  C   UNL     1      25.753  35.575  -4.301  1.00  0.00     0.083 C 
ATOM     37  C   UNL     1      25.934  34.331  -3.420  1.00  0.00     0.031 C 
ATOM     38  C   UNL     1      26.992  36.471  -4.276  1.00  0.00     0.031 C 
ENDBRANCH  32  36
ENDBRANCH  22  25
ENDBRANCH  16  18
ENDBRANCH   4  16
TORSDOF 7
ENDMDL
MODEL 15
REMARK VINA RESULT:    -8.658      3.246      6.975
REMARK INTER + INTRA:         -12.810
REMARK INTER:                 -11.873
REMARK INTRA:                  -0.937
REMARK UNBOUND:                -0.608
REMARK SMILES CCN1CCN(Cc2ccc(Nc3ncc(F)c(-c4cc(F)c5nc(C)n(C(C)C)c5c4)n3)nc2)CC1
REMARK SMILES IDX 8 1 9 2 10 3 11 4 34 5 35 6 7 7 6 8 3 9 4 10 37 11 5 12
REMARK SMILES IDX 36 13 2 14 1 15 12 16 13 18 14 19 33 20 15 21 18 22 16 23
REMARK SMILES IDX 17 24 19 25 20 26 32 27 21 28 31 29 22 30 23 31 27 32 24 33
REMARK SMILES IDX 25 34 26 35 28 36 29 37 30 38
REMARK H PARENT 12 17
REMARK Flexibility Score: inf
ROOT
ATOM      1  C   UNL     1      19.243  42.122 -11.443  1.00  0.00    -0.015 A 
ATOM      2  C   UNL     1      18.545  41.368 -10.489  1.00  0.00     0.010 A 
ATOM      3  C   UNL     1      18.950  41.385  -9.150  1.00  0.00     0.047 A 
ATOM      4  C   UNL     1      20.084  42.130  -8.781  1.00  0.00     0.132 A 
ATOM      5  N   UNL     1      20.727  42.872  -9.724  1.00  0.00    -0.239 NA
ATOM      6  C   UNL     1      20.342  42.884 -11.027  1.00  0.00     0.118 A 
ENDROOT
BRANCH   1   7
ATOM      7  C   UNL     1      18.928  41.993 -12.904  1.00  0.00     0.121 C 
BRANCH   7   8
ATOM      8  N   UNL     1      19.871  41.019 -13.496  1.00  0.00    -0.296 NA
ATOM      9  N   UNL     1      20.428  39.499 -15.992  1.00  0.00    -0.301 NA
ATOM     10  C   UNL     1      19.130  39.408 -15.266  1.00  0.00     0.100 C 
ATOM     11  C   UNL     1      21.379  40.454 -15.363  1.00  0.00     0.100 C 
ATOM     12  C   UNL     1      19.288  39.680 -13.760  1.00  0.00     0.100 C 
ATOM     13  C   UNL     1      20.642  41.577 -14.626  1.00  0.00     0.100 C 
BRANCH   9  14
ATOM     14  C   UNL     1      21.039  38.161 -16.158  1.00  0.00     0.081 C 
ATOM     15  C   UNL     1      19.982  37.082 -16.400  1.00  0.00     0.021 C 
ENDBRANCH   9  14
ENDBRANCH   7   8
ENDBRANCH   1   7
BRANCH   4  16
ATOM     16  N   UNL     1      20.565  42.169  -7.428  1.00  0.00    -0.309 N 
ATOM     17  H   UNL     1      21.022  43.059  -7.114  1.00  0.00     0.171 HD
BRANCH  16  18
ATOM     18  C   UNL     1      20.710  41.028  -6.571  1.00  0.00     0.229 A 
ATOM     19  N   UNL     1      20.051  40.945  -5.383  1.00  0.00    -0.218 NA
ATOM     20  N   UNL     1      21.501  39.997  -6.969  1.00  0.00    -0.210 NA
ATOM     21  C   UNL     1      20.191  39.863  -4.578  1.00  0.00     0.156 A 
ATOM     22  C   UNL     1      21.668  38.880  -6.208  1.00  0.00     0.112 A 
ATOM     23  C   UNL     1      21.013  38.805  -4.964  1.00  0.00     0.167 A 
ATOM     24  F   UNL     1      21.209  37.773  -4.109  1.00  0.00    -0.203 F 
BRANCH  22  25
ATOM     25  C   UNL     1      22.561  37.804  -6.711  1.00  0.00     0.008 A 
ATOM     26  C   UNL     1      22.464  37.400  -8.071  1.00  0.00     0.052 A 
ATOM     27  C   UNL     1      23.479  37.141  -5.856  1.00  0.00     0.039 A 
ATOM     28  C   UNL     1      23.282  36.378  -8.580  1.00  0.00     0.151 A 
ATOM     29  C   UNL     1      24.274  36.123  -6.399  1.00  0.00     0.072 A 
ATOM     30  F   UNL     1      23.205  36.004  -9.881  1.00  0.00    -0.205 F 
ATOM     31  C   UNL     1      24.180  35.769  -7.711  1.00  0.00     0.124 A 
ATOM     32  N   UNL     1      25.242  35.387  -5.808  1.00  0.00    -0.326 N 
ATOM     33  N   UNL     1      25.083  34.825  -8.014  1.00  0.00    -0.230 NA
ATOM     34  C   UNL     1      25.727  34.622  -6.836  1.00  0.00     0.107 A 
ATOM     35  C   UNL     1      26.873  33.661  -6.738  1.00  0.00     0.088 C 
BRANCH  32  36
ATOM     36  C   UNL     1      25.734  35.545  -4.423  1.00  0.00     0.083 C 
ATOM     37  C   UNL     1      25.933  34.204  -3.704  1.00  0.00     0.031 C 
ATOM     38  C   UNL     1      27.008  36.390  -4.407  1.00  0.00     0.031 C 
ENDBRANCH  32  36
ENDBRANCH  22  25
ENDBRANCH  16  18
ENDBRANCH   4  16
TORSDOF 7
ENDMDL
