MODEL 1
REMARK VINA RESULT:    -9.670      0.000      0.000
REMARK INTER + INTRA:         -15.959
REMARK INTER:                 -14.192
REMARK INTRA:                  -1.767
REMARK UNBOUND:                -1.767
REMARK SMILES COc1cc(N2CCC(N3CCN(C)CC3)CC2)ccc1Nc1ncc(Cl)c(Nc2ccccc2P(C)(C)=O)n1
REMARK SMILES IDX 23 1 24 2 25 3 26 4 27 5 28 6 40 7 22 8 21 10 3 11 4 12 5 13
REMARK SMILES IDX 20 14 19 15 2 16 1 17 6 18 7 19 18 20 8 21 17 22 9 23 10 24
REMARK SMILES IDX 11 25 16 26 12 27 15 28 13 29 14 30 29 31 30 33 31 34 35 35
REMARK SMILES IDX 32 36 34 37 33 38 36 39 37 40 38 41 39 42
REMARK H PARENT 22 9 29 32
REMARK Flexibility Score: inf
ROOT
ATOM      1  C   UNL     1      31.018  11.987  10.799  1.00  0.00     0.229 A 
ATOM      2  N   UNL     1      30.803  13.159  11.453  1.00  0.00    -0.220 NA
ATOM      3  C   UNL     1      29.636  13.840  11.304  1.00  0.00     0.139 A 
ATOM      4  C   UNL     1      28.628  13.335  10.479  1.00  0.00     0.102 A 
ATOM      5  Cl  UNL     1      27.169  14.287  10.235  1.00  0.00    -0.079 Cl
ATOM      6  C   UNL     1      28.852  12.106   9.830  1.00  0.00     0.154 A 
ATOM      7  N   UNL     1      30.045  11.472  10.002  1.00  0.00    -0.194 NA
ENDROOT
BRANCH   1   8
ATOM      8  N   UNL     1      32.244  11.265  10.977  1.00  0.00    -0.321 N 
ATOM      9  H   UNL     1      32.660  11.251  11.937  1.00  0.00     0.170 HD
BRANCH   8  10
ATOM     10  C   UNL     1      32.926  10.570   9.917  1.00  0.00     0.084 A 
ATOM     11  C   UNL     1      33.792  11.277   9.060  1.00  0.00     0.144 A 
ATOM     12  C   UNL     1      34.500  10.578   8.060  1.00  0.00     0.074 A 
ATOM     13  C   UNL     1      34.354   9.191   7.918  1.00  0.00     0.040 A 
ATOM     14  C   UNL     1      32.791   9.178   9.771  1.00  0.00     0.032 A 
ATOM     15  C   UNL     1      33.495   8.496   8.777  1.00  0.00     0.028 A 
BRANCH  11  16
ATOM     16  O   UNL     1      33.919  12.665   9.226  1.00  0.00    -0.494 OA
ATOM     17  C   UNL     1      33.322  13.637   8.370  1.00  0.00     0.278 C 
ENDBRANCH  11  16
BRANCH  13  18
ATOM     18  N   UNL     1      35.120   8.484   6.931  1.00  0.00    -0.371 N 
ATOM     19  C   UNL     1      35.369   9.101   5.622  1.00  0.00     0.118 C 
ATOM     20  C   UNL     1      35.744   7.198   7.269  1.00  0.00     0.118 C 
ATOM     21  C   UNL     1      35.305   8.030   4.527  1.00  0.00     0.040 C 
ATOM     22  C   UNL     1      36.806   6.826   6.229  1.00  0.00     0.040 C 
ATOM     23  C   UNL     1      36.220   6.790   4.784  1.00  0.00     0.060 C 
BRANCH  23  24
ATOM     24  N   UNL     1      35.467   5.539   4.438  1.00  0.00    -0.298 NA
ATOM     25  C   UNL     1      36.041   4.311   5.036  1.00  0.00     0.100 C 
ATOM     26  C   UNL     1      35.413   5.390   2.961  1.00  0.00     0.100 C 
ATOM     27  C   UNL     1      35.264   3.049   4.611  1.00  0.00     0.099 C 
ATOM     28  C   UNL     1      34.613   4.147   2.549  1.00  0.00     0.099 C 
ATOM     29  N   UNL     1      35.151   2.915   3.150  1.00  0.00    -0.304 NA
ATOM     30  C   UNL     1      36.410   2.473   2.523  1.00  0.00     0.105 C 
ENDBRANCH  23  24
ENDBRANCH  13  18
ENDBRANCH   8  10
ENDBRANCH   1   8
BRANCH   6  31
ATOM     31  N   UNL     1      27.877  11.519   8.959  1.00  0.00    -0.338 N 
ATOM     32  H   UNL     1      28.128  11.441   7.948  1.00  0.00     0.168 HD
BRANCH  31  33
ATOM     33  C   UNL     1      26.732  10.785   9.430  1.00  0.00     0.050 A 
ATOM     34  C   UNL     1      25.610  11.481   9.913  1.00  0.00     0.027 A 
ATOM     35  C   UNL     1      26.728   9.368   9.441  1.00  0.00     0.035 A 
ATOM     36  C   UNL     1      24.496  10.788  10.393  1.00  0.00     0.002 A 
ATOM     37  C   UNL     1      25.599   8.688   9.928  1.00  0.00     0.014 A 
ATOM     38  C   UNL     1      24.490   9.394  10.399  1.00  0.00     0.001 A 
BRANCH  35  39
ATOM     39  P   UNL     1      28.117   8.419   8.778  1.00  0.00     0.111 P 
ATOM     40  C   UNL     1      27.519   6.831   8.124  1.00  0.00     0.087 C 
ATOM     41  C   UNL     1      29.376   8.064  10.040  1.00  0.00     0.087 C 
ATOM     42  O   UNL     1      28.779   9.196   7.659  1.00  0.00    -0.319 OA
ENDBRANCH  35  39
ENDBRANCH  31  33
ENDBRANCH   6  31
TORSDOF 8
ENDMDL
MODEL 2
REMARK VINA RESULT:    -8.991      2.487      3.940
REMARK INTER + INTRA:         -14.962
REMARK INTER:                 -14.228
REMARK INTRA:                  -0.735
REMARK UNBOUND:                -1.767
REMARK SMILES COc1cc(N2CCC(N3CCN(C)CC3)CC2)ccc1Nc1ncc(Cl)c(Nc2ccccc2P(C)(C)=O)n1
REMARK SMILES IDX 23 1 24 2 25 3 26 4 27 5 28 6 40 7 22 8 21 10 3 11 4 12 5 13
REMARK SMILES IDX 20 14 19 15 2 16 1 17 6 18 7 19 18 20 8 21 17 22 9 23 10 24
REMARK SMILES IDX 11 25 16 26 12 27 15 28 13 29 14 30 29 31 30 33 31 34 35 35
REMARK SMILES IDX 32 36 34 37 33 38 36 39 37 40 38 41 39 42
REMARK H PARENT 22 9 29 32
REMARK Flexibility Score: inf
ROOT
ATOM      1  C   UNL     1      30.883   9.208   9.665  1.00  0.00     0.229 A 
ATOM      2  N   UNL     1      30.401   9.165   8.395  1.00  0.00    -0.220 NA
ATOM      3  C   UNL     1      29.258   9.819   8.058  1.00  0.00     0.139 A 
ATOM      4  C   UNL     1      28.564  10.561   9.017  1.00  0.00     0.102 A 
ATOM      5  Cl  UNL     1      27.040  11.318   8.571  1.00  0.00    -0.079 Cl
ATOM      6  C   UNL     1      29.091  10.621  10.321  1.00  0.00     0.154 A 
ATOM      7  N   UNL     1      30.231   9.934  10.610  1.00  0.00    -0.194 NA
ENDROOT
BRANCH   1   8
ATOM      8  N   UNL     1      32.101   8.531  10.007  1.00  0.00    -0.321 N 
ATOM      9  H   UNL     1      32.463   8.651  10.981  1.00  0.00     0.170 HD
BRANCH   8  10
ATOM     10  C   UNL     1      32.844   7.708   9.089  1.00  0.00     0.084 A 
ATOM     11  C   UNL     1      33.972   8.236   8.430  1.00  0.00     0.144 A 
ATOM     12  C   UNL     1      34.727   7.406   7.576  1.00  0.00     0.074 A 
ATOM     13  C   UNL     1      34.371   6.064   7.385  1.00  0.00     0.040 A 
ATOM     14  C   UNL     1      32.498   6.359   8.895  1.00  0.00     0.032 A 
ATOM     15  C   UNL     1      33.251   5.547   8.047  1.00  0.00     0.028 A 
BRANCH  11  16
ATOM     16  O   UNL     1      34.306   9.583   8.641  1.00  0.00    -0.494 OA
ATOM     17  C   UNL     1      33.902  10.656   7.794  1.00  0.00     0.278 C 
ENDBRANCH  11  16
BRANCH  13  18
ATOM     18  N   UNL     1      35.179   5.215   6.555  1.00  0.00    -0.371 N 
ATOM     19  C   UNL     1      36.198   5.810   5.680  1.00  0.00     0.118 C 
ATOM     20  C   UNL     1      35.063   3.755   6.664  1.00  0.00     0.118 C 
ATOM     21  C   UNL     1      36.246   5.044   4.353  1.00  0.00     0.040 C 
ATOM     22  C   UNL     1      36.258   3.070   5.996  1.00  0.00     0.040 C 
ATOM     23  C   UNL     1      36.419   3.499   4.505  1.00  0.00     0.060 C 
BRANCH  23  24
ATOM     24  N   UNL     1      35.503   2.800   3.543  1.00  0.00    -0.298 NA
ATOM     25  C   UNL     1      35.827   1.369   3.342  1.00  0.00     0.100 C 
ATOM     26  C   UNL     1      35.535   3.503   2.235  1.00  0.00     0.100 C 
ATOM     27  C   UNL     1      34.891   0.709   2.310  1.00  0.00     0.099 C 
ATOM     28  C   UNL     1      34.578   2.855   1.225  1.00  0.00     0.099 C 
ATOM     29  N   UNL     1      34.866   1.425   1.024  1.00  0.00    -0.304 NA
ATOM     30  C   UNL     1      36.080   1.190   0.222  1.00  0.00     0.105 C 
ENDBRANCH  23  24
ENDBRANCH  13  18
ENDBRANCH   8  10
ENDBRANCH   1   8
BRANCH   6  31
ATOM     31  N   UNL     1      28.440  11.351  11.370  1.00  0.00    -0.338 N 
ATOM     32  H   UNL     1      28.733  11.139  12.349  1.00  0.00     0.168 HD
BRANCH  31  33
ATOM     33  C   UNL     1      27.647  12.530  11.141  1.00  0.00     0.050 A 
ATOM     34  C   UNL     1      26.244  12.446  11.197  1.00  0.00     0.027 A 
ATOM     35  C   UNL     1      28.256  13.770  10.831  1.00  0.00     0.035 A 
ATOM     36  C   UNL     1      25.455  13.574  10.959  1.00  0.00     0.002 A 
ATOM     37  C   UNL     1      27.446  14.894  10.594  1.00  0.00     0.014 A 
ATOM     38  C   UNL     1      26.055  14.795  10.660  1.00  0.00     0.001 A 
BRANCH  35  39
ATOM     39  P   UNL     1      30.056  13.953  10.803  1.00  0.00     0.111 P 
ATOM     40  C   UNL     1      30.498  15.706  10.993  1.00  0.00     0.087 C 
ATOM     41  C   UNL     1      30.785  13.358   9.249  1.00  0.00     0.087 C 
ATOM     42  O   UNL     1      30.667  13.163  11.942  1.00  0.00    -0.319 OA
ENDBRANCH  35  39
ENDBRANCH  31  33
ENDBRANCH   6  31
TORSDOF 8
ENDMDL
MODEL 3
REMARK VINA RESULT:    -8.923      1.709      2.449
REMARK INTER + INTRA:         -14.862
REMARK INTER:                 -13.395
REMARK INTRA:                  -1.468
REMARK UNBOUND:                -1.767
REMARK SMILES COc1cc(N2CCC(N3CCN(C)CC3)CC2)ccc1Nc1ncc(Cl)c(Nc2ccccc2P(C)(C)=O)n1
REMARK SMILES IDX 23 1 24 2 25 3 26 4 27 5 28 6 40 7 22 8 21 10 3 11 4 12 5 13
REMARK SMILES IDX 20 14 19 15 2 16 1 17 6 18 7 19 18 20 8 21 17 22 9 23 10 24
REMARK SMILES IDX 11 25 16 26 12 27 15 28 13 29 14 30 29 31 30 33 31 34 35 35
REMARK SMILES IDX 32 36 34 37 33 38 36 39 37 40 38 41 39 42
REMARK H PARENT 22 9 29 32
REMARK Flexibility Score: inf
ROOT
ATOM      1  C   UNL     1      31.711  11.090  10.589  1.00  0.00     0.229 A 
ATOM      2  N   UNL     1      32.371  12.208  10.994  1.00  0.00    -0.220 NA
ATOM      3  C   UNL     1      31.828  13.442  10.821  1.00  0.00     0.139 A 
ATOM      4  C   UNL     1      30.568  13.580  10.232  1.00  0.00     0.102 A 
ATOM      5  Cl  UNL     1      29.936  15.195   9.939  1.00  0.00    -0.079 Cl
ATOM      6  C   UNL     1      29.884  12.412   9.844  1.00  0.00     0.154 A 
ATOM      7  N   UNL     1      30.480  11.202  10.025  1.00  0.00    -0.194 NA
ENDROOT
BRANCH   1   8
ATOM      8  N   UNL     1      32.283   9.791  10.793  1.00  0.00    -0.321 N 
ATOM      9  H   UNL     1      32.080   9.311  11.700  1.00  0.00     0.170 HD
BRANCH   8  10
ATOM     10  C   UNL     1      33.115   9.122   9.828  1.00  0.00     0.084 A 
ATOM     11  C   UNL     1      32.655   7.946   9.202  1.00  0.00     0.144 A 
ATOM     12  C   UNL     1      33.451   7.328   8.216  1.00  0.00     0.074 A 
ATOM     13  C   UNL     1      34.688   7.876   7.850  1.00  0.00     0.040 A 
ATOM     14  C   UNL     1      34.354   9.667   9.449  1.00  0.00     0.032 A 
ATOM     15  C   UNL     1      35.135   9.048   8.473  1.00  0.00     0.028 A 
BRANCH  11  16
ATOM     16  O   UNL     1      31.412   7.419   9.589  1.00  0.00    -0.494 OA
ATOM     17  C   UNL     1      30.196   7.614   8.871  1.00  0.00     0.278 C 
ENDBRANCH  11  16
BRANCH  13  18
ATOM     18  N   UNL     1      35.465   7.268   6.807  1.00  0.00    -0.371 N 
ATOM     19  C   UNL     1      35.804   8.043   5.606  1.00  0.00     0.118 C 
ATOM     20  C   UNL     1      36.010   5.916   6.988  1.00  0.00     0.118 C 
ATOM     21  C   UNL     1      35.740   7.136   4.373  1.00  0.00     0.040 C 
ATOM     22  C   UNL     1      37.100   5.632   5.951  1.00  0.00     0.040 C 
ATOM     23  C   UNL     1      36.581   5.824   4.492  1.00  0.00     0.060 C 
BRANCH  23  24
ATOM     24  N   UNL     1      35.786   4.674   3.947  1.00  0.00    -0.298 NA
ATOM     25  C   UNL     1      36.495   3.375   4.007  1.00  0.00     0.100 C 
ATOM     26  C   UNL     1      35.403   4.963   2.541  1.00  0.00     0.100 C 
ATOM     27  C   UNL     1      35.659   2.236   3.391  1.00  0.00     0.099 C 
ATOM     28  C   UNL     1      34.547   3.836   1.948  1.00  0.00     0.099 C 
ATOM     29  N   UNL     1      35.223   2.529   2.017  1.00  0.00    -0.304 NA
ATOM     30  C   UNL     1      36.314   2.394   1.035  1.00  0.00     0.105 C 
ENDBRANCH  23  24
ENDBRANCH  13  18
ENDBRANCH   8  10
ENDBRANCH   1   8
BRANCH   6  31
ATOM     31  N   UNL     1      28.592  12.461   9.223  1.00  0.00    -0.338 N 
ATOM     32  H   UNL     1      28.526  12.123   8.238  1.00  0.00     0.168 HD
BRANCH  31  33
ATOM     33  C   UNL     1      27.369  12.663   9.954  1.00  0.00     0.050 A 
ATOM     34  C   UNL     1      26.992  13.964  10.333  1.00  0.00     0.027 A 
ATOM     35  C   UNL     1      26.550  11.568  10.324  1.00  0.00     0.035 A 
ATOM     36  C   UNL     1      25.818  14.180  11.059  1.00  0.00     0.002 A 
ATOM     37  C   UNL     1      25.374  11.805  11.054  1.00  0.00     0.014 A 
ATOM     38  C   UNL     1      25.010  13.103  11.418  1.00  0.00     0.001 A 
BRANCH  35  39
ATOM     39  P   UNL     1      26.953   9.879   9.814  1.00  0.00     0.111 P 
ATOM     40  C   UNL     1      25.440   8.872   9.776  1.00  0.00     0.087 C 
ATOM     41  C   UNL     1      28.129   9.079  10.945  1.00  0.00     0.087 C 
ATOM     42  O   UNL     1      27.569   9.897   8.430  1.00  0.00    -0.319 OA
ENDBRANCH  35  39
ENDBRANCH  31  33
ENDBRANCH   6  31
TORSDOF 8
ENDMDL
MODEL 4
REMARK VINA RESULT:    -8.866      2.903      3.989
REMARK INTER + INTRA:         -14.780
REMARK INTER:                 -13.053
REMARK INTRA:                  -1.726
REMARK UNBOUND:                -1.767
REMARK SMILES COc1cc(N2CCC(N3CCN(C)CC3)CC2)ccc1Nc1ncc(Cl)c(Nc2ccccc2P(C)(C)=O)n1
REMARK SMILES IDX 23 1 24 2 25 3 26 4 27 5 28 6 40 7 22 8 21 10 3 11 4 12 5 13
REMARK SMILES IDX 20 14 19 15 2 16 1 17 6 18 7 19 18 20 8 21 17 22 9 23 10 24
REMARK SMILES IDX 11 25 16 26 12 27 15 28 13 29 14 30 29 31 30 33 31 34 35 35
REMARK SMILES IDX 32 36 34 37 33 38 36 39 37 40 38 41 39 42
REMARK H PARENT 22 9 29 32
REMARK Flexibility Score: inf
ROOT
ATOM      1  C   UNL     1      30.832  12.113  10.709  1.00  0.00     0.229 A 
ATOM      2  N   UNL     1      30.615  13.242  11.436  1.00  0.00    -0.220 NA
ATOM      3  C   UNL     1      29.424  13.893  11.379  1.00  0.00     0.139 A 
ATOM      4  C   UNL     1      28.392  13.403  10.575  1.00  0.00     0.102 A 
ATOM      5  Cl  UNL     1      26.897  14.322  10.451  1.00  0.00    -0.079 Cl
ATOM      6  C   UNL     1      28.620  12.218   9.850  1.00  0.00     0.154 A 
ATOM      7  N   UNL     1      29.837  11.613   9.931  1.00  0.00    -0.194 NA
ENDROOT
BRANCH   1   8
ATOM      8  N   UNL     1      32.085  11.421  10.792  1.00  0.00    -0.321 N 
ATOM      9  H   UNL     1      32.350  11.011  11.717  1.00  0.00     0.170 HD
BRANCH   8  10
ATOM     10  C   UNL     1      32.988  11.266   9.682  1.00  0.00     0.084 A 
ATOM     11  C   UNL     1      33.245   9.981   9.163  1.00  0.00     0.144 A 
ATOM     12  C   UNL     1      34.087   9.843   8.040  1.00  0.00     0.074 A 
ATOM     13  C   UNL     1      34.661  10.969   7.434  1.00  0.00     0.040 A 
ATOM     14  C   UNL     1      33.563  12.389   9.064  1.00  0.00     0.032 A 
ATOM     15  C   UNL     1      34.396  12.242   7.953  1.00  0.00     0.028 A 
BRANCH  11  16
ATOM     16  O   UNL     1      32.657   8.871   9.790  1.00  0.00    -0.494 OA
ATOM     17  C   UNL     1      32.788   7.526   9.337  1.00  0.00     0.278 C 
ENDBRANCH  11  16
BRANCH  13  18
ATOM     18  N   UNL     1      35.472  10.820   6.259  1.00  0.00    -0.371 N 
ATOM     19  C   UNL     1      36.510  11.816   5.960  1.00  0.00     0.118 C 
ATOM     20  C   UNL     1      35.338   9.622   5.420  1.00  0.00     0.118 C 
ATOM     21  C   UNL     1      36.569  12.060   4.448  1.00  0.00     0.040 C 
ATOM     22  C   UNL     1      36.536   9.491   4.475  1.00  0.00     0.040 C 
ATOM     23  C   UNL     1      36.723  10.763   3.590  1.00  0.00     0.060 C 
BRANCH  23  24
ATOM     24  N   UNL     1      35.813  10.845   2.400  1.00  0.00    -0.298 NA
ATOM     25  C   UNL     1      36.350  10.179   1.190  1.00  0.00     0.100 C 
ATOM     26  C   UNL     1      35.532  12.271   2.094  1.00  0.00     0.100 C 
ATOM     27  C   UNL     1      35.405  10.334  -0.017  1.00  0.00     0.099 C 
ATOM     28  C   UNL     1      34.567  12.413   0.909  1.00  0.00     0.099 C 
ATOM     29  N   UNL     1      35.069  11.738  -0.301  1.00  0.00    -0.304 NA
ATOM     30  C   UNL     1      36.176  12.466  -0.947  1.00  0.00     0.105 C 
ENDBRANCH  23  24
ENDBRANCH  13  18
ENDBRANCH   8  10
ENDBRANCH   1   8
BRANCH   6  31
ATOM     31  N   UNL     1      27.621  11.648   8.993  1.00  0.00    -0.338 N 
ATOM     32  H   UNL     1      27.836  11.611   7.972  1.00  0.00     0.168 HD
BRANCH  31  33
ATOM     33  C   UNL     1      26.504  10.882   9.478  1.00  0.00     0.050 A 
ATOM     34  C   UNL     1      25.351  11.545   9.935  1.00  0.00     0.027 A 
ATOM     35  C   UNL     1      26.557   9.467   9.530  1.00  0.00     0.035 A 
ATOM     36  C   UNL     1      24.263  10.820  10.427  1.00  0.00     0.002 A 
ATOM     37  C   UNL     1      25.454   8.755  10.029  1.00  0.00     0.014 A 
ATOM     38  C   UNL     1      24.314   9.428  10.473  1.00  0.00     0.001 A 
BRANCH  35  39
ATOM     39  P   UNL     1      27.989   8.557   8.901  1.00  0.00     0.111 P 
ATOM     40  C   UNL     1      27.458   6.937   8.270  1.00  0.00     0.087 C 
ATOM     41  C   UNL     1      29.244   8.272  10.185  1.00  0.00     0.087 C 
ATOM     42  O   UNL     1      28.636   9.337   7.776  1.00  0.00    -0.319 OA
ENDBRANCH  35  39
ENDBRANCH  31  33
ENDBRANCH   6  31
TORSDOF 8
ENDMDL
MODEL 5
REMARK VINA RESULT:    -8.858      2.666      4.997
REMARK INTER + INTRA:         -14.768
REMARK INTER:                 -12.979
REMARK INTRA:                  -1.789
REMARK UNBOUND:                -1.767
REMARK SMILES COc1cc(N2CCC(N3CCN(C)CC3)CC2)ccc1Nc1ncc(Cl)c(Nc2ccccc2P(C)(C)=O)n1
REMARK SMILES IDX 23 1 24 2 25 3 26 4 27 5 28 6 40 7 22 8 21 10 3 11 4 12 5 13
REMARK SMILES IDX 20 14 19 15 2 16 1 17 6 18 7 19 18 20 8 21 17 22 9 23 10 24
REMARK SMILES IDX 11 25 16 26 12 27 15 28 13 29 14 30 29 31 30 33 31 34 35 35
REMARK SMILES IDX 32 36 34 37 33 38 36 39 37 40 38 41 39 42
REMARK H PARENT 22 9 29 32
REMARK Flexibility Score: inf
ROOT
ATOM      1  C   UNL     1      30.838   9.026   9.635  1.00  0.00     0.229 A 
ATOM      2  N   UNL     1      29.664   8.384   9.397  1.00  0.00    -0.220 NA
ATOM      3  C   UNL     1      28.559   9.070   9.003  1.00  0.00     0.139 A 
ATOM      4  C   UNL     1      28.618  10.454   8.822  1.00  0.00     0.102 A 
ATOM      5  Cl  UNL     1      27.147  11.323   8.402  1.00  0.00    -0.079 Cl
ATOM      6  C   UNL     1      29.848  11.103   9.044  1.00  0.00     0.154 A 
ATOM      7  N   UNL     1      30.920  10.370   9.454  1.00  0.00    -0.194 NA
ENDROOT
BRANCH   1   8
ATOM      8  N   UNL     1      32.005   8.291  10.032  1.00  0.00    -0.321 N 
ATOM      9  H   UNL     1      32.310   8.372  11.029  1.00  0.00     0.170 HD
BRANCH   8  10
ATOM     10  C   UNL     1      32.770   7.461   9.139  1.00  0.00     0.084 A 
ATOM     11  C   UNL     1      33.942   7.968   8.544  1.00  0.00     0.144 A 
ATOM     12  C   UNL     1      34.717   7.130   7.716  1.00  0.00     0.074 A 
ATOM     13  C   UNL     1      34.335   5.801   7.487  1.00  0.00     0.040 A 
ATOM     14  C   UNL     1      32.399   6.125   8.908  1.00  0.00     0.032 A 
ATOM     15  C   UNL     1      33.171   5.305   8.086  1.00  0.00     0.028 A 
BRANCH  11  16
ATOM     16  O   UNL     1      34.301   9.302   8.792  1.00  0.00    -0.494 OA
ATOM     17  C   UNL     1      35.025  10.125   7.881  1.00  0.00     0.278 C 
ENDBRANCH  11  16
BRANCH  13  18
ATOM     18  N   UNL     1      35.161   4.942   6.685  1.00  0.00    -0.371 N 
ATOM     19  C   UNL     1      36.238   5.520   5.871  1.00  0.00     0.118 C 
ATOM     20  C   UNL     1      34.999   3.484   6.764  1.00  0.00     0.118 C 
ATOM     21  C   UNL     1      36.332   4.774   4.536  1.00  0.00     0.040 C 
ATOM     22  C   UNL     1      36.208   2.776   6.146  1.00  0.00     0.040 C 
ATOM     23  C   UNL     1      36.455   3.222   4.671  1.00  0.00     0.060 C 
BRANCH  23  24
ATOM     24  N   UNL     1      35.569   2.564   3.654  1.00  0.00    -0.298 NA
ATOM     25  C   UNL     1      35.914   1.148   3.389  1.00  0.00     0.100 C 
ATOM     26  C   UNL     1      35.624   3.332   2.384  1.00  0.00     0.100 C 
ATOM     27  C   UNL     1      35.011   0.532   2.302  1.00  0.00     0.099 C 
ATOM     28  C   UNL     1      34.699   2.727   1.320  1.00  0.00     0.099 C 
ATOM     29  N   UNL     1      35.008   1.311   1.054  1.00  0.00    -0.304 NA
ATOM     30  C   UNL     1      36.243   1.130   0.271  1.00  0.00     0.105 C 
ENDBRANCH  23  24
ENDBRANCH  13  18
ENDBRANCH   8  10
ENDBRANCH   1   8
BRANCH   6  31
ATOM     31  N   UNL     1      29.997  12.520   8.892  1.00  0.00    -0.338 N 
ATOM     32  H   UNL     1      29.158  13.110   9.088  1.00  0.00     0.168 HD
BRANCH  31  33
ATOM     33  C   UNL     1      31.273  13.176   8.779  1.00  0.00     0.050 A 
ATOM     34  C   UNL     1      32.088  12.924   7.660  1.00  0.00     0.027 A 
ATOM     35  C   UNL     1      31.736  14.051   9.791  1.00  0.00     0.035 A 
ATOM     36  C   UNL     1      33.338  13.535   7.540  1.00  0.00     0.002 A 
ATOM     37  C   UNL     1      32.997  14.656   9.653  1.00  0.00     0.014 A 
ATOM     38  C   UNL     1      33.791  14.400   8.533  1.00  0.00     0.001 A 
BRANCH  35  39
ATOM     39  P   UNL     1      30.709  14.461  11.223  1.00  0.00     0.111 P 
ATOM     40  C   UNL     1      29.323  15.516  10.702  1.00  0.00     0.087 C 
ATOM     41  C   UNL     1      31.638  15.352  12.506  1.00  0.00     0.087 C 
ATOM     42  O   UNL     1      30.159  13.190  11.837  1.00  0.00    -0.319 OA
ENDBRANCH  35  39
ENDBRANCH  31  33
ENDBRANCH   6  31
TORSDOF 8
ENDMDL
MODEL 6
REMARK VINA RESULT:    -8.811      2.559      4.769
REMARK INTER + INTRA:         -14.698
REMARK INTER:                 -12.793
REMARK INTRA:                  -1.905
REMARK UNBOUND:                -1.767
REMARK SMILES COc1cc(N2CCC(N3CCN(C)CC3)CC2)ccc1Nc1ncc(Cl)c(Nc2ccccc2P(C)(C)=O)n1
REMARK SMILES IDX 23 1 24 2 25 3 26 4 27 5 28 6 40 7 22 8 21 10 3 11 4 12 5 13
REMARK SMILES IDX 20 14 19 15 2 16 1 17 6 18 7 19 18 20 8 21 17 22 9 23 10 24
REMARK SMILES IDX 11 25 16 26 12 27 15 28 13 29 14 30 29 31 30 33 31 34 35 35
REMARK SMILES IDX 32 36 34 37 33 38 36 39 37 40 38 41 39 42
REMARK H PARENT 22 9 29 32
REMARK Flexibility Score: inf
ROOT
ATOM      1  C   UNL     1      30.811   8.962   9.633  1.00  0.00     0.229 A 
ATOM      2  N   UNL     1      29.623   8.325   9.454  1.00  0.00    -0.220 NA
ATOM      3  C   UNL     1      28.513   9.009   9.073  1.00  0.00     0.139 A 
ATOM      4  C   UNL     1      28.579  10.386   8.845  1.00  0.00     0.102 A 
ATOM      5  Cl  UNL     1      27.103  11.256   8.444  1.00  0.00    -0.079 Cl
ATOM      6  C   UNL     1      29.821  11.028   9.006  1.00  0.00     0.154 A 
ATOM      7  N   UNL     1      30.899  10.298   9.405  1.00  0.00    -0.194 NA
ENDROOT
BRANCH   1   8
ATOM      8  N   UNL     1      31.982   8.229  10.017  1.00  0.00    -0.321 N 
ATOM      9  H   UNL     1      32.290   8.298  11.014  1.00  0.00     0.170 HD
BRANCH   8  10
ATOM     10  C   UNL     1      32.749   7.414   9.111  1.00  0.00     0.084 A 
ATOM     11  C   UNL     1      33.898   7.946   8.492  1.00  0.00     0.144 A 
ATOM     12  C   UNL     1      34.675   7.124   7.650  1.00  0.00     0.074 A 
ATOM     13  C   UNL     1      34.319   5.787   7.431  1.00  0.00     0.040 A 
ATOM     14  C   UNL     1      32.404   6.070   8.889  1.00  0.00     0.032 A 
ATOM     15  C   UNL     1      33.179   5.265   8.053  1.00  0.00     0.028 A 
BRANCH  11  16
ATOM     16  O   UNL     1      34.230   9.289   8.730  1.00  0.00    -0.494 OA
ATOM     17  C   UNL     1      34.934  10.121   7.811  1.00  0.00     0.278 C 
ENDBRANCH  11  16
BRANCH  13  18
ATOM     18  N   UNL     1      35.149   4.945   6.615  1.00  0.00    -0.371 N 
ATOM     19  C   UNL     1      36.218   5.543   5.804  1.00  0.00     0.118 C 
ATOM     20  C   UNL     1      35.000   3.485   6.676  1.00  0.00     0.118 C 
ATOM     21  C   UNL     1      36.312   4.814   4.459  1.00  0.00     0.040 C 
ATOM     22  C   UNL     1      36.212   2.795   6.043  1.00  0.00     0.040 C 
ATOM     23  C   UNL     1      36.449   3.262   4.574  1.00  0.00     0.060 C 
BRANCH  23  24
ATOM     24  N   UNL     1      35.564   2.609   3.552  1.00  0.00    -0.298 NA
ATOM     25  C   UNL     1      35.883   1.183   3.310  1.00  0.00     0.100 C 
ATOM     26  C   UNL     1      35.654   3.358   2.273  1.00  0.00     0.100 C 
ATOM     27  C   UNL     1      34.983   0.571   2.219  1.00  0.00     0.099 C 
ATOM     28  C   UNL     1      34.732   2.759   1.203  1.00  0.00     0.099 C 
ATOM     29  N   UNL     1      35.015   1.334   0.961  1.00  0.00    -0.304 NA
ATOM     30  C   UNL     1      36.257   1.116   0.198  1.00  0.00     0.105 C 
ENDBRANCH  23  24
ENDBRANCH  13  18
ENDBRANCH   8  10
ENDBRANCH   1   8
BRANCH   6  31
ATOM     31  N   UNL     1      29.979  12.439   8.802  1.00  0.00    -0.338 N 
ATOM     32  H   UNL     1      29.363  12.887   8.088  1.00  0.00     0.168 HD
BRANCH  31  33
ATOM     33  C   UNL     1      30.704  13.294   9.704  1.00  0.00     0.050 A 
ATOM     34  C   UNL     1      30.231  13.481  11.016  1.00  0.00     0.027 A 
ATOM     35  C   UNL     1      31.872  13.975   9.284  1.00  0.00     0.035 A 
ATOM     36  C   UNL     1      30.909  14.322  11.901  1.00  0.00     0.002 A 
ATOM     37  C   UNL     1      32.540  14.817  10.189  1.00  0.00     0.014 A 
ATOM     38  C   UNL     1      32.062  14.988  11.489  1.00  0.00     0.001 A 
BRANCH  35  39
ATOM     39  P   UNL     1      32.561  13.727   7.630  1.00  0.00     0.111 P 
ATOM     40  C   UNL     1      34.364  13.949   7.675  1.00  0.00     0.087 C 
ATOM     41  C   UNL     1      31.884  14.901   6.418  1.00  0.00     0.087 C 
ATOM     42  O   UNL     1      32.248  12.324   7.151  1.00  0.00    -0.319 OA
ENDBRANCH  35  39
ENDBRANCH  31  33
ENDBRANCH   6  31
TORSDOF 8
ENDMDL
MODEL 7
REMARK VINA RESULT:    -8.582      1.723      2.088
REMARK INTER + INTRA:         -14.363
REMARK INTER:                 -13.107
REMARK INTRA:                  -1.256
REMARK UNBOUND:                -1.767
REMARK SMILES COc1cc(N2CCC(N3CCN(C)CC3)CC2)ccc1Nc1ncc(Cl)c(Nc2ccccc2P(C)(C)=O)n1
REMARK SMILES IDX 23 1 24 2 25 3 26 4 27 5 28 6 40 7 22 8 21 10 3 11 4 12 5 13
REMARK SMILES IDX 20 14 19 15 2 16 1 17 6 18 7 19 18 20 8 21 17 22 9 23 10 24
REMARK SMILES IDX 11 25 16 26 12 27 15 28 13 29 14 30 29 31 30 33 31 34 35 35
REMARK SMILES IDX 32 36 34 37 33 38 36 39 37 40 38 41 39 42
REMARK H PARENT 22 9 29 32
REMARK Flexibility Score: inf
ROOT
ATOM      1  C   UNL     1      30.847  13.580  11.268  1.00  0.00     0.229 A 
ATOM      2  N   UNL     1      30.288  14.583  11.997  1.00  0.00    -0.220 NA
ATOM      3  C   UNL     1      28.979  14.912  11.845  1.00  0.00     0.139 A 
ATOM      4  C   UNL     1      28.178  14.213  10.939  1.00  0.00     0.102 A 
ATOM      5  Cl  UNL     1      26.513  14.726  10.699  1.00  0.00    -0.079 Cl
ATOM      6  C   UNL     1      28.762  13.158  10.211  1.00  0.00     0.154 A 
ATOM      7  N   UNL     1      30.083  12.879  10.390  1.00  0.00    -0.194 NA
ENDROOT
BRANCH   1   8
ATOM      8  N   UNL     1      32.225  13.226  11.449  1.00  0.00    -0.321 N 
ATOM      9  H   UNL     1      32.741  13.682  12.237  1.00  0.00     0.170 HD
BRANCH   8  10
ATOM     10  C   UNL     1      32.927  12.289  10.613  1.00  0.00     0.084 A 
ATOM     11  C   UNL     1      33.566  12.739   9.440  1.00  0.00     0.144 A 
ATOM     12  C   UNL     1      34.300  11.825   8.656  1.00  0.00     0.074 A 
ATOM     13  C   UNL     1      34.404  10.481   9.036  1.00  0.00     0.040 A 
ATOM     14  C   UNL     1      33.043  10.940  10.989  1.00  0.00     0.032 A 
ATOM     15  C   UNL     1      33.770  10.043  10.205  1.00  0.00     0.028 A 
BRANCH  11  16
ATOM     16  O   UNL     1      33.446  14.092   9.084  1.00  0.00    -0.494 OA
ATOM     17  C   UNL     1      32.608  14.579   8.039  1.00  0.00     0.278 C 
ENDBRANCH  11  16
BRANCH  13  18
ATOM     18  N   UNL     1      35.199   9.572   8.259  1.00  0.00    -0.371 N 
ATOM     19  C   UNL     1      35.023   9.515   6.801  1.00  0.00     0.118 C 
ATOM     20  C   UNL     1      36.257   8.783   8.904  1.00  0.00     0.118 C 
ATOM     21  C   UNL     1      35.148   8.063   6.324  1.00  0.00     0.040 C 
ATOM     22  C   UNL     1      37.207   8.198   7.854  1.00  0.00     0.040 C 
ATOM     23  C   UNL     1      36.449   7.338   6.796  1.00  0.00     0.060 C 
BRANCH  23  24
ATOM     24  N   UNL     1      36.108   5.946   7.240  1.00  0.00    -0.298 NA
ATOM     25  C   UNL     1      37.106   4.929   6.836  1.00  0.00     0.100 C 
ATOM     26  C   UNL     1      34.775   5.571   6.700  1.00  0.00     0.100 C 
ATOM     27  C   UNL     1      36.687   3.510   7.270  1.00  0.00     0.099 C 
ATOM     28  C   UNL     1      34.355   4.169   7.162  1.00  0.00     0.099 C 
ATOM     29  N   UNL     1      35.344   3.142   6.792  1.00  0.00    -0.304 NA
ATOM     30  C   UNL     1      35.324   2.817   5.355  1.00  0.00     0.105 C 
ENDBRANCH  23  24
ENDBRANCH  13  18
ENDBRANCH   8  10
ENDBRANCH   1   8
BRANCH   6  31
ATOM     31  N   UNL     1      28.018  12.394   9.254  1.00  0.00    -0.338 N 
ATOM     32  H   UNL     1      28.382  12.373   8.276  1.00  0.00     0.168 HD
BRANCH  31  33
ATOM     33  C   UNL     1      27.000  11.444   9.617  1.00  0.00     0.050 A 
ATOM     34  C   UNL     1      25.704  11.897   9.926  1.00  0.00     0.027 A 
ATOM     35  C   UNL     1      27.288  10.059   9.696  1.00  0.00     0.035 A 
ATOM     36  C   UNL     1      24.707  10.993  10.300  1.00  0.00     0.002 A 
ATOM     37  C   UNL     1      26.271   9.166  10.074  1.00  0.00     0.014 A 
ATOM     38  C   UNL     1      24.989   9.631  10.372  1.00  0.00     0.001 A 
BRANCH  35  39
ATOM     39  P   UNL     1      28.918   9.412   9.253  1.00  0.00     0.111 P 
ATOM     40  C   UNL     1      29.467  10.152   7.686  1.00  0.00     0.087 C 
ATOM     41  C   UNL     1      28.909   7.606   9.044  1.00  0.00     0.087 C 
ATOM     42  O   UNL     1      29.917   9.755  10.338  1.00  0.00    -0.319 OA
ENDBRANCH  35  39
ENDBRANCH  31  33
ENDBRANCH   6  31
TORSDOF 8
ENDMDL
MODEL 8
REMARK VINA RESULT:    -8.560      1.658      2.615
REMARK INTER + INTRA:         -14.330
REMARK INTER:                 -12.680
REMARK INTRA:                  -1.649
REMARK UNBOUND:                -1.767
REMARK SMILES COc1cc(N2CCC(N3CCN(C)CC3)CC2)ccc1Nc1ncc(Cl)c(Nc2ccccc2P(C)(C)=O)n1
REMARK SMILES IDX 23 1 24 2 25 3 26 4 27 5 28 6 40 7 22 8 21 10 3 11 4 12 5 13
REMARK SMILES IDX 20 14 19 15 2 16 1 17 6 18 7 19 18 20 8 21 17 22 9 23 10 24
REMARK SMILES IDX 11 25 16 26 12 27 15 28 13 29 14 30 29 31 30 33 31 34 35 35
REMARK SMILES IDX 32 36 34 37 33 38 36 39 37 40 38 41 39 42
REMARK H PARENT 22 9 29 32
REMARK Flexibility Score: inf
ROOT
ATOM      1  C   UNL     1      30.736  12.134  10.800  1.00  0.00     0.229 A 
ATOM      2  N   UNL     1      30.536  13.295  11.478  1.00  0.00    -0.220 NA
ATOM      3  C   UNL     1      29.366  13.977  11.369  1.00  0.00     0.139 A 
ATOM      4  C   UNL     1      28.338  13.484  10.562  1.00  0.00     0.102 A 
ATOM      5  Cl  UNL     1      26.872  14.438  10.370  1.00  0.00    -0.079 Cl
ATOM      6  C   UNL     1      28.547  12.265   9.888  1.00  0.00     0.154 A 
ATOM      7  N   UNL     1      29.744  11.631  10.019  1.00  0.00    -0.194 NA
ENDROOT
BRANCH   1   8
ATOM      8  N   UNL     1      31.967  11.411  10.936  1.00  0.00    -0.321 N 
ATOM      9  H   UNL     1      32.149  10.936  11.850  1.00  0.00     0.170 HD
BRANCH   8  10
ATOM     10  C   UNL     1      32.955  11.309   9.895  1.00  0.00     0.084 A 
ATOM     11  C   UNL     1      33.315  10.043   9.392  1.00  0.00     0.144 A 
ATOM     12  C   UNL     1      34.242   9.955   8.333  1.00  0.00     0.074 A 
ATOM     13  C   UNL     1      34.800  11.113   7.774  1.00  0.00     0.040 A 
ATOM     14  C   UNL     1      33.516  12.465   9.324  1.00  0.00     0.032 A 
ATOM     15  C   UNL     1      34.433  12.367   8.277  1.00  0.00     0.028 A 
BRANCH  11  16
ATOM     16  O   UNL     1      32.740   8.900   9.970  1.00  0.00    -0.494 OA
ATOM     17  C   UNL     1      32.493   7.681   9.274  1.00  0.00     0.278 C 
ENDBRANCH  11  16
BRANCH  13  18
ATOM     18  N   UNL     1      35.701  11.014   6.661  1.00  0.00    -0.371 N 
ATOM     19  C   UNL     1      35.487  11.853   5.474  1.00  0.00     0.118 C 
ATOM     20  C   UNL     1      36.891  10.158   6.752  1.00  0.00     0.118 C 
ATOM     21  C   UNL     1      35.823  11.053   4.211  1.00  0.00     0.040 C 
ATOM     22  C   UNL     1      37.885  10.499   5.638  1.00  0.00     0.040 C 
ATOM     23  C   UNL     1      37.237  10.389   4.224  1.00  0.00     0.060 C 
BRANCH  23  24
ATOM     24  N   UNL     1      37.135   8.993   3.682  1.00  0.00    -0.298 NA
ATOM     25  C   UNL     1      35.866   8.310   4.027  1.00  0.00     0.100 C 
ATOM     26  C   UNL     1      38.280   8.188   4.178  1.00  0.00     0.100 C 
ATOM     27  C   UNL     1      35.830   6.865   3.493  1.00  0.00     0.099 C 
ATOM     28  C   UNL     1      38.249   6.760   3.617  1.00  0.00     0.099 C 
ATOM     29  N   UNL     1      36.987   6.067   3.928  1.00  0.00    -0.304 NA
ATOM     30  C   UNL     1      36.892   5.654   5.339  1.00  0.00     0.105 C 
ENDBRANCH  23  24
ENDBRANCH  13  18
ENDBRANCH   8  10
ENDBRANCH   1   8
BRANCH   6  31
ATOM     31  N   UNL     1      27.551  11.691   9.032  1.00  0.00    -0.338 N 
ATOM     32  H   UNL     1      27.787  11.605   8.019  1.00  0.00     0.168 HD
BRANCH  31  33
ATOM     33  C   UNL     1      26.400  10.979   9.521  1.00  0.00     0.050 A 
ATOM     34  C   UNL     1      25.257  11.694   9.921  1.00  0.00     0.027 A 
ATOM     35  C   UNL     1      26.409   9.567   9.634  1.00  0.00     0.035 A 
ATOM     36  C   UNL     1      24.137  11.023  10.417  1.00  0.00     0.002 A 
ATOM     37  C   UNL     1      25.273   8.909  10.135  1.00  0.00     0.014 A 
ATOM     38  C   UNL     1      24.144   9.634  10.523  1.00  0.00     0.001 A 
BRANCH  35  39
ATOM     39  P   UNL     1      27.826   8.589   9.079  1.00  0.00     0.111 P 
ATOM     40  C   UNL     1      27.260   6.963   8.497  1.00  0.00     0.087 C 
ATOM     41  C   UNL     1      29.038   8.316  10.406  1.00  0.00     0.087 C 
ATOM     42  O   UNL     1      28.527   9.304   7.942  1.00  0.00    -0.319 OA
ENDBRANCH  35  39
ENDBRANCH  31  33
ENDBRANCH   6  31
TORSDOF 8
ENDMDL
MODEL 9
REMARK VINA RESULT:    -8.433      3.462     10.369
REMARK INTER + INTRA:         -14.144
REMARK INTER:                 -12.264
REMARK INTRA:                  -1.880
REMARK UNBOUND:                -1.767
REMARK SMILES COc1cc(N2CCC(N3CCN(C)CC3)CC2)ccc1Nc1ncc(Cl)c(Nc2ccccc2P(C)(C)=O)n1
REMARK SMILES IDX 23 1 24 2 25 3 26 4 27 5 28 6 40 7 22 8 21 10 3 11 4 12 5 13
REMARK SMILES IDX 20 14 19 15 2 16 1 17 6 18 7 19 18 20 8 21 17 22 9 23 10 24
REMARK SMILES IDX 11 25 16 26 12 27 15 28 13 29 14 30 29 31 30 33 31 34 35 35
REMARK SMILES IDX 32 36 34 37 33 38 36 39 37 40 38 41 39 42
REMARK H PARENT 22 9 29 32
REMARK Flexibility Score: inf
ROOT
ATOM      1  C   UNL     1      35.689   8.723   7.797  1.00  0.00     0.229 A 
ATOM      2  N   UNL     1      35.933   9.858   7.090  1.00  0.00    -0.220 NA
ATOM      3  C   UNL     1      36.613   9.817   5.914  1.00  0.00     0.139 A 
ATOM      4  C   UNL     1      37.064   8.596   5.405  1.00  0.00     0.102 A 
ATOM      5  Cl  UNL     1      38.022   8.590   3.929  1.00  0.00    -0.079 Cl
ATOM      6  C   UNL     1      36.780   7.425   6.133  1.00  0.00     0.154 A 
ATOM      7  N   UNL     1      36.108   7.524   7.313  1.00  0.00    -0.194 NA
ENDROOT
BRANCH   1   8
ATOM      8  N   UNL     1      34.953   8.773   9.027  1.00  0.00    -0.321 N 
ATOM      9  H   UNL     1      35.500   8.753   9.918  1.00  0.00     0.170 HD
BRANCH   8  10
ATOM     10  C   UNL     1      33.517   8.846   9.098  1.00  0.00     0.084 A 
ATOM     11  C   UNL     1      32.883  10.102   9.179  1.00  0.00     0.144 A 
ATOM     12  C   UNL     1      31.474  10.167   9.191  1.00  0.00     0.074 A 
ATOM     13  C   UNL     1      30.704   8.999   9.116  1.00  0.00     0.040 A 
ATOM     14  C   UNL     1      32.736   7.680   9.017  1.00  0.00     0.032 A 
ATOM     15  C   UNL     1      31.342   7.756   9.031  1.00  0.00     0.028 A 
BRANCH  11  16
ATOM     16  O   UNL     1      33.679  11.255   9.253  1.00  0.00    -0.494 OA
ATOM     17  C   UNL     1      33.531  12.276  10.236  1.00  0.00     0.278 C 
ENDBRANCH  11  16
BRANCH  13  18
ATOM     18  N   UNL     1      29.271   9.082   9.075  1.00  0.00    -0.371 N 
ATOM     19  C   UNL     1      28.616   9.814   7.983  1.00  0.00     0.118 C 
ATOM     20  C   UNL     1      28.463   8.347  10.057  1.00  0.00     0.118 C 
ATOM     21  C   UNL     1      27.395  10.565   8.527  1.00  0.00     0.040 C 
ATOM     22  C   UNL     1      27.005   8.263   9.598  1.00  0.00     0.040 C 
ATOM     23  C   UNL     1      26.395   9.674   9.331  1.00  0.00     0.060 C 
BRANCH  23  24
ATOM     24  N   UNL     1      25.949  10.413  10.558  1.00  0.00    -0.298 NA
ATOM     25  C   UNL     1      24.479  10.569  10.660  1.00  0.00     0.100 C 
ATOM     26  C   UNL     1      26.591  11.752  10.587  1.00  0.00     0.100 C 
ATOM     27  C   UNL     1      24.074  11.377  11.909  1.00  0.00     0.099 C 
ATOM     28  C   UNL     1      26.204  12.535  11.848  1.00  0.00     0.099 C 
ATOM     29  N   UNL     1      24.745  12.685  11.984  1.00  0.00    -0.304 NA
ATOM     30  C   UNL     1      24.178  13.667  11.042  1.00  0.00     0.105 C 
ENDBRANCH  23  24
ENDBRANCH  13  18
ENDBRANCH   8  10
ENDBRANCH   1   8
BRANCH   6  31
ATOM     31  N   UNL     1      37.212   6.132   5.690  1.00  0.00    -0.338 N 
ATOM     32  H   UNL     1      37.987   5.682   6.225  1.00  0.00     0.168 HD
BRANCH  31  33
ATOM     33  C   UNL     1      36.465   5.319   4.767  1.00  0.00     0.050 A 
ATOM     34  C   UNL     1      36.477   5.633   3.396  1.00  0.00     0.027 A 
ATOM     35  C   UNL     1      35.692   4.223   5.221  1.00  0.00     0.035 A 
ATOM     36  C   UNL     1      35.743   4.868   2.486  1.00  0.00     0.002 A 
ATOM     37  C   UNL     1      34.959   3.466   4.291  1.00  0.00     0.014 A 
ATOM     38  C   UNL     1      34.987   3.786   2.932  1.00  0.00     0.001 A 
BRANCH  35  39
ATOM     39  P   UNL     1      35.684   3.735   6.963  1.00  0.00     0.111 P 
ATOM     40  C   UNL     1      35.611   1.924   7.094  1.00  0.00     0.087 C 
ATOM     41  C   UNL     1      34.260   4.418   7.864  1.00  0.00     0.087 C 
ATOM     42  O   UNL     1      36.948   4.229   7.638  1.00  0.00    -0.319 OA
ENDBRANCH  35  39
ENDBRANCH  31  33
ENDBRANCH   6  31
TORSDOF 8
ENDMDL
MODEL 10
REMARK VINA RESULT:    -8.412      3.586     10.595
REMARK INTER + INTRA:         -14.113
REMARK INTER:                 -12.694
REMARK INTRA:                  -1.419
REMARK UNBOUND:                -1.767
REMARK SMILES COc1cc(N2CCC(N3CCN(C)CC3)CC2)ccc1Nc1ncc(Cl)c(Nc2ccccc2P(C)(C)=O)n1
REMARK SMILES IDX 23 1 24 2 25 3 26 4 27 5 28 6 40 7 22 8 21 10 3 11 4 12 5 13
REMARK SMILES IDX 20 14 19 15 2 16 1 17 6 18 7 19 18 20 8 21 17 22 9 23 10 24
REMARK SMILES IDX 11 25 16 26 12 27 15 28 13 29 14 30 29 31 30 33 31 34 35 35
REMARK SMILES IDX 32 36 34 37 33 38 36 39 37 40 38 41 39 42
REMARK H PARENT 22 9 29 32
REMARK Flexibility Score: inf
ROOT
ATOM      1  C   UNL     1      35.218   8.339   7.363  1.00  0.00     0.229 A 
ATOM      2  N   UNL     1      36.199   9.146   6.878  1.00  0.00    -0.220 NA
ATOM      3  C   UNL     1      36.794   8.884   5.685  1.00  0.00     0.139 A 
ATOM      4  C   UNL     1      36.396   7.779   4.928  1.00  0.00     0.102 A 
ATOM      5  Cl  UNL     1      37.251   7.414   3.435  1.00  0.00    -0.079 Cl
ATOM      6  C   UNL     1      35.359   6.968   5.429  1.00  0.00     0.154 A 
ATOM      7  N   UNL     1      34.807   7.267   6.637  1.00  0.00    -0.194 NA
ENDROOT
BRANCH   1   8
ATOM      8  N   UNL     1      34.581   8.636   8.614  1.00  0.00    -0.321 N 
ATOM      9  H   UNL     1      35.195   8.750   9.453  1.00  0.00     0.170 HD
BRANCH   8  10
ATOM     10  C   UNL     1      33.158   8.779   8.773  1.00  0.00     0.084 A 
ATOM     11  C   UNL     1      32.559  10.045   8.612  1.00  0.00     0.144 A 
ATOM     12  C   UNL     1      31.158  10.167   8.713  1.00  0.00     0.074 A 
ATOM     13  C   UNL     1      30.360   9.043   8.965  1.00  0.00     0.040 A 
ATOM     14  C   UNL     1      32.348   7.657   9.019  1.00  0.00     0.032 A 
ATOM     15  C   UNL     1      30.962   7.789   9.119  1.00  0.00     0.028 A 
BRANCH  11  16
ATOM     16  O   UNL     1      33.384  11.153   8.360  1.00  0.00    -0.494 OA
ATOM     17  C   UNL     1      33.820  12.076   9.355  1.00  0.00     0.278 C 
ENDBRANCH  11  16
BRANCH  13  18
ATOM     18  N   UNL     1      28.930   9.171   9.012  1.00  0.00    -0.371 N 
ATOM     19  C   UNL     1      28.228   9.893   7.943  1.00  0.00     0.118 C 
ATOM     20  C   UNL     1      28.165   8.491  10.066  1.00  0.00     0.118 C 
ATOM     21  C   UNL     1      27.069  10.698   8.540  1.00  0.00     0.040 C 
ATOM     22  C   UNL     1      26.678   8.441   9.703  1.00  0.00     0.040 C 
ATOM     23  C   UNL     1      26.096   9.862   9.433  1.00  0.00     0.060 C 
BRANCH  23  24
ATOM     24  N   UNL     1      25.753  10.650  10.663  1.00  0.00    -0.298 NA
ATOM     25  C   UNL     1      24.299  10.876  10.842  1.00  0.00     0.100 C 
ATOM     26  C   UNL     1      26.454  11.959  10.620  1.00  0.00     0.100 C 
ATOM     27  C   UNL     1      24.001  11.731  12.090  1.00  0.00     0.099 C 
ATOM     28  C   UNL     1      26.173  12.789  11.880  1.00  0.00     0.099 C 
ATOM     29  N   UNL     1      24.732  13.008  12.093  1.00  0.00    -0.304 NA
ATOM     30  C   UNL     1      24.157  13.992  11.158  1.00  0.00     0.105 C 
ENDBRANCH  23  24
ENDBRANCH  13  18
ENDBRANCH   8  10
ENDBRANCH   1   8
BRANCH   6  31
ATOM     31  N   UNL     1      34.893   5.810   4.724  1.00  0.00    -0.338 N 
ATOM     32  H   UNL     1      34.562   5.951   3.745  1.00  0.00     0.168 HD
BRANCH  31  33
ATOM     33  C   UNL     1      35.128   4.462   5.171  1.00  0.00     0.050 A 
ATOM     34  C   UNL     1      35.078   4.166   6.546  1.00  0.00     0.027 A 
ATOM     35  C   UNL     1      35.436   3.431   4.251  1.00  0.00     0.035 A 
ATOM     36  C   UNL     1      35.321   2.869   7.002  1.00  0.00     0.002 A 
ATOM     37  C   UNL     1      35.678   2.132   4.729  1.00  0.00     0.014 A 
ATOM     38  C   UNL     1      35.619   1.854   6.096  1.00  0.00     0.001 A 
BRANCH  35  39
ATOM     39  P   UNL     1      35.455   3.738   2.468  1.00  0.00     0.111 P 
ATOM     40  C   UNL     1      35.055   2.204   1.577  1.00  0.00     0.087 C 
ATOM     41  C   UNL     1      37.076   4.316   1.885  1.00  0.00     0.087 C 
ATOM     42  O   UNL     1      34.426   4.794   2.120  1.00  0.00    -0.319 OA
ENDBRANCH  35  39
ENDBRANCH  31  33
ENDBRANCH   6  31
TORSDOF 8
ENDMDL
MODEL 11
REMARK VINA RESULT:    -8.355      3.553      9.307
REMARK INTER + INTRA:         -14.029
REMARK INTER:                 -12.984
REMARK INTRA:                  -1.045
REMARK UNBOUND:                -1.767
REMARK SMILES COc1cc(N2CCC(N3CCN(C)CC3)CC2)ccc1Nc1ncc(Cl)c(Nc2ccccc2P(C)(C)=O)n1
REMARK SMILES IDX 23 1 24 2 25 3 26 4 27 5 28 6 40 7 22 8 21 10 3 11 4 12 5 13
REMARK SMILES IDX 20 14 19 15 2 16 1 17 6 18 7 19 18 20 8 21 17 22 9 23 10 24
REMARK SMILES IDX 11 25 16 26 12 27 15 28 13 29 14 30 29 31 30 33 31 34 35 35
REMARK SMILES IDX 32 36 34 37 33 38 36 39 37 40 38 41 39 42
REMARK H PARENT 22 9 29 32
REMARK Flexibility Score: inf
ROOT
ATOM      1  C   UNL     1      35.893  10.526  10.260  1.00  0.00     0.229 A 
ATOM      2  N   UNL     1      37.234  10.724  10.371  1.00  0.00    -0.220 NA
ATOM      3  C   UNL     1      38.104  10.104   9.532  1.00  0.00     0.139 A 
ATOM      4  C   UNL     1      37.630   9.257   8.527  1.00  0.00     0.102 A 
ATOM      5  Cl  UNL     1      38.788   8.398   7.519  1.00  0.00    -0.079 Cl
ATOM      6  C   UNL     1      36.238   9.084   8.405  1.00  0.00     0.154 A 
ATOM      7  N   UNL     1      35.411   9.716   9.281  1.00  0.00    -0.194 NA
ENDROOT
BRANCH   1   8
ATOM      8  N   UNL     1      34.980  11.200  11.137  1.00  0.00    -0.321 N 
ATOM      9  H   UNL     1      35.372  11.620  12.012  1.00  0.00     0.170 HD
BRANCH   8  10
ATOM     10  C   UNL     1      33.569  11.326  10.881  1.00  0.00     0.084 A 
ATOM     11  C   UNL     1      33.008  12.600  10.663  1.00  0.00     0.144 A 
ATOM     12  C   UNL     1      31.636  12.709  10.357  1.00  0.00     0.074 A 
ATOM     13  C   UNL     1      30.832  11.565  10.261  1.00  0.00     0.040 A 
ATOM     14  C   UNL     1      32.756  10.184  10.777  1.00  0.00     0.032 A 
ATOM     15  C   UNL     1      31.399  10.303  10.475  1.00  0.00     0.028 A 
BRANCH  11  16
ATOM     16  O   UNL     1      33.837  13.728  10.765  1.00  0.00    -0.494 OA
ATOM     17  C   UNL     1      34.359  14.448   9.651  1.00  0.00     0.278 C 
ENDBRANCH  11  16
BRANCH  13  18
ATOM     18  N   UNL     1      29.448  11.685   9.896  1.00  0.00    -0.371 N 
ATOM     19  C   UNL     1      28.696  12.889  10.277  1.00  0.00     0.118 C 
ATOM     20  C   UNL     1      28.819  10.661   9.052  1.00  0.00     0.118 C 
ATOM     21  C   UNL     1      27.266  12.500  10.668  1.00  0.00     0.040 C 
ATOM     22  C   UNL     1      27.496  11.176   8.478  1.00  0.00     0.040 C 
ATOM     23  C   UNL     1      26.516  11.642   9.599  1.00  0.00     0.060 C 
BRANCH  23  24
ATOM     24  N   UNL     1      25.769  10.537  10.286  1.00  0.00    -0.298 NA
ATOM     25  C   UNL     1      25.955   9.208   9.657  1.00  0.00     0.100 C 
ATOM     26  C   UNL     1      24.321  10.868  10.319  1.00  0.00     0.100 C 
ATOM     27  C   UNL     1      25.130   8.117  10.366  1.00  0.00     0.099 C 
ATOM     28  C   UNL     1      23.513   9.789  11.053  1.00  0.00     0.099 C 
ATOM     29  N   UNL     1      23.700   8.454  10.459  1.00  0.00    -0.304 NA
ATOM     30  C   UNL     1      22.996   8.293   9.174  1.00  0.00     0.105 C 
ENDBRANCH  23  24
ENDBRANCH  13  18
ENDBRANCH   8  10
ENDBRANCH   1   8
BRANCH   6  31
ATOM     31  N   UNL     1      35.665   8.227   7.409  1.00  0.00    -0.338 N 
ATOM     32  H   UNL     1      36.133   8.204   6.476  1.00  0.00     0.168 HD
BRANCH  31  33
ATOM     33  C   UNL     1      34.693   7.207   7.704  1.00  0.00     0.050 A 
ATOM     34  C   UNL     1      33.585   7.516   8.514  1.00  0.00     0.027 A 
ATOM     35  C   UNL     1      34.849   5.887   7.215  1.00  0.00     0.035 A 
ATOM     36  C   UNL     1      32.641   6.536   8.829  1.00  0.00     0.002 A 
ATOM     37  C   UNL     1      33.889   4.915   7.542  1.00  0.00     0.014 A 
ATOM     38  C   UNL     1      32.791   5.239   8.343  1.00  0.00     0.001 A 
BRANCH  35  39
ATOM     39  P   UNL     1      36.220   5.446   6.120  1.00  0.00     0.111 P 
ATOM     40  C   UNL     1      35.743   4.035   5.078  1.00  0.00     0.087 C 
ATOM     41  C   UNL     1      37.716   4.980   7.042  1.00  0.00     0.087 C 
ATOM     42  O   UNL     1      36.563   6.624   5.231  1.00  0.00    -0.319 OA
ENDBRANCH  35  39
ENDBRANCH  31  33
ENDBRANCH   6  31
TORSDOF 8
ENDMDL
MODEL 12
REMARK VINA RESULT:    -8.342      3.536     10.260
REMARK INTER + INTRA:         -14.010
REMARK INTER:                 -13.202
REMARK INTRA:                  -0.808
REMARK UNBOUND:                -1.767
REMARK SMILES COc1cc(N2CCC(N3CCN(C)CC3)CC2)ccc1Nc1ncc(Cl)c(Nc2ccccc2P(C)(C)=O)n1
REMARK SMILES IDX 23 1 24 2 25 3 26 4 27 5 28 6 40 7 22 8 21 10 3 11 4 12 5 13
REMARK SMILES IDX 20 14 19 15 2 16 1 17 6 18 7 19 18 20 8 21 17 22 9 23 10 24
REMARK SMILES IDX 11 25 16 26 12 27 15 28 13 29 14 30 29 31 30 33 31 34 35 35
REMARK SMILES IDX 32 36 34 37 33 38 36 39 37 40 38 41 39 42
REMARK H PARENT 22 9 29 32
REMARK Flexibility Score: inf
ROOT
ATOM      1  C   UNL     1      35.063   8.387   6.969  1.00  0.00     0.229 A 
ATOM      2  N   UNL     1      35.846   9.281   6.309  1.00  0.00    -0.220 NA
ATOM      3  C   UNL     1      36.274   9.034   5.043  1.00  0.00     0.139 A 
ATOM      4  C   UNL     1      35.901   7.856   4.391  1.00  0.00     0.102 A 
ATOM      5  Cl  UNL     1      36.548   7.526   2.789  1.00  0.00    -0.079 Cl
ATOM      6  C   UNL     1      35.066   6.953   5.076  1.00  0.00     0.154 A 
ATOM      7  N   UNL     1      34.679   7.241   6.350  1.00  0.00    -0.194 NA
ENDROOT
BRANCH   1   8
ATOM      8  N   UNL     1      34.600   8.664   8.299  1.00  0.00    -0.321 N 
ATOM      9  H   UNL     1      35.255   8.464   9.089  1.00  0.00     0.170 HD
BRANCH   8  10
ATOM     10  C   UNL     1      33.296   9.195   8.598  1.00  0.00     0.084 A 
ATOM     11  C   UNL     1      33.099  10.590   8.632  1.00  0.00     0.144 A 
ATOM     12  C   UNL     1      31.806  11.101   8.869  1.00  0.00     0.074 A 
ATOM     13  C   UNL     1      30.720  10.237   9.063  1.00  0.00     0.040 A 
ATOM     14  C   UNL     1      32.200   8.336   8.787  1.00  0.00     0.032 A 
ATOM     15  C   UNL     1      30.925   8.852   9.023  1.00  0.00     0.028 A 
BRANCH  11  16
ATOM     16  O   UNL     1      34.205  11.432   8.434  1.00  0.00    -0.494 OA
ATOM     17  C   UNL     1      34.871  12.145   9.472  1.00  0.00     0.278 C 
ENDBRANCH  11  16
BRANCH  13  18
ATOM     18  N   UNL     1      29.400  10.769   9.250  1.00  0.00    -0.371 N 
ATOM     19  C   UNL     1      29.187  11.870  10.200  1.00  0.00     0.118 C 
ATOM     20  C   UNL     1      28.289  10.291   8.417  1.00  0.00     0.118 C 
ATOM     21  C   UNL     1      27.854  11.668  10.930  1.00  0.00     0.040 C 
ATOM     22  C   UNL     1      27.096  11.246   8.512  1.00  0.00     0.040 C 
ATOM     23  C   UNL     1      26.628  11.450   9.986  1.00  0.00     0.060 C 
BRANCH  23  24
ATOM     24  N   UNL     1      25.770  10.348  10.536  1.00  0.00    -0.298 NA
ATOM     25  C   UNL     1      25.944   9.052   9.841  1.00  0.00     0.100 C 
ATOM     26  C   UNL     1      24.343  10.756  10.468  1.00  0.00     0.100 C 
ATOM     27  C   UNL     1      25.006   7.967  10.407  1.00  0.00     0.099 C 
ATOM     28  C   UNL     1      23.421   9.682  11.061  1.00  0.00     0.099 C 
ATOM     29  N   UNL     1      23.593   8.377  10.401  1.00  0.00    -0.304 NA
ATOM     30  C   UNL     1      22.996   8.331   9.054  1.00  0.00     0.105 C 
ENDBRANCH  23  24
ENDBRANCH  13  18
ENDBRANCH   8  10
ENDBRANCH   1   8
BRANCH   6  31
ATOM     31  N   UNL     1      34.642   5.716   4.489  1.00  0.00    -0.338 N 
ATOM     32  H   UNL     1      34.222   5.762   3.534  1.00  0.00     0.168 HD
BRANCH  31  33
ATOM     33  C   UNL     1      35.023   4.424   4.998  1.00  0.00     0.050 A 
ATOM     34  C   UNL     1      35.033   4.200   6.387  1.00  0.00     0.027 A 
ATOM     35  C   UNL     1      35.414   3.381   4.123  1.00  0.00     0.035 A 
ATOM     36  C   UNL     1      35.418   2.960   6.902  1.00  0.00     0.002 A 
ATOM     37  C   UNL     1      35.798   2.141   4.661  1.00  0.00     0.014 A 
ATOM     38  C   UNL     1      35.798   1.933   6.041  1.00  0.00     0.001 A 
BRANCH  35  39
ATOM     39  P   UNL     1      35.363   3.592   2.327  1.00  0.00     0.111 P 
ATOM     40  C   UNL     1      35.036   1.991   1.531  1.00  0.00     0.087 C 
ATOM     41  C   UNL     1      36.927   4.236   1.663  1.00  0.00     0.087 C 
ATOM     42  O   UNL     1      34.260   4.562   1.958  1.00  0.00    -0.319 OA
ENDBRANCH  35  39
ENDBRANCH  31  33
ENDBRANCH   6  31
TORSDOF 8
ENDMDL
MODEL 13
REMARK VINA RESULT:    -8.329      1.612      2.602
REMARK INTER + INTRA:         -13.991
REMARK INTER:                 -12.375
REMARK INTRA:                  -1.616
REMARK UNBOUND:                -1.767
REMARK SMILES COc1cc(N2CCC(N3CCN(C)CC3)CC2)ccc1Nc1ncc(Cl)c(Nc2ccccc2P(C)(C)=O)n1
REMARK SMILES IDX 23 1 24 2 25 3 26 4 27 5 28 6 40 7 22 8 21 10 3 11 4 12 5 13
REMARK SMILES IDX 20 14 19 15 2 16 1 17 6 18 7 19 18 20 8 21 17 22 9 23 10 24
REMARK SMILES IDX 11 25 16 26 12 27 15 28 13 29 14 30 29 31 30 33 31 34 35 35
REMARK SMILES IDX 32 36 34 37 33 38 36 39 37 40 38 41 39 42
REMARK H PARENT 22 9 29 32
REMARK Flexibility Score: inf
ROOT
ATOM      1  C   UNL     1      30.942  13.021  10.922  1.00  0.00     0.229 A 
ATOM      2  N   UNL     1      30.576  14.163  11.561  1.00  0.00    -0.220 NA
ATOM      3  C   UNL     1      29.316  14.658  11.443  1.00  0.00     0.139 A 
ATOM      4  C   UNL     1      28.367  13.988  10.667  1.00  0.00     0.102 A 
ATOM      5  Cl  UNL     1      26.774  14.705  10.459  1.00  0.00    -0.079 Cl
ATOM      6  C   UNL     1      28.751  12.791  10.034  1.00  0.00     0.154 A 
ATOM      7  N   UNL     1      30.031  12.347  10.173  1.00  0.00    -0.194 NA
ENDROOT
BRANCH   1   8
ATOM      8  N   UNL     1      32.268  12.495  11.069  1.00  0.00    -0.321 N 
ATOM      9  H   UNL     1      32.902  12.968  11.753  1.00  0.00     0.170 HD
BRANCH   8  10
ATOM     10  C   UNL     1      32.768  11.365  10.331  1.00  0.00     0.084 A 
ATOM     11  C   UNL     1      33.907  11.510   9.513  1.00  0.00     0.144 A 
ATOM     12  C   UNL     1      34.423  10.385   8.838  1.00  0.00     0.074 A 
ATOM     13  C   UNL     1      33.819   9.128   8.978  1.00  0.00     0.040 A 
ATOM     14  C   UNL     1      32.173  10.099  10.470  1.00  0.00     0.032 A 
ATOM     15  C   UNL     1      32.691   8.992   9.796  1.00  0.00     0.028 A 
BRANCH  11  16
ATOM     16  O   UNL     1      34.491  12.781   9.392  1.00  0.00    -0.494 OA
ATOM     17  C   UNL     1      34.253  13.678   8.310  1.00  0.00     0.278 C 
ENDBRANCH  11  16
BRANCH  13  18
ATOM     18  N   UNL     1      34.386   7.980   8.328  1.00  0.00    -0.371 N 
ATOM     19  C   UNL     1      35.842   7.783   8.339  1.00  0.00     0.118 C 
ATOM     20  C   UNL     1      33.509   6.953   7.752  1.00  0.00     0.118 C 
ATOM     21  C   UNL     1      36.293   7.211   6.990  1.00  0.00     0.040 C 
ATOM     22  C   UNL     1      34.296   5.670   7.471  1.00  0.00     0.040 C 
ATOM     23  C   UNL     1      35.522   5.928   6.542  1.00  0.00     0.060 C 
BRANCH  23  24
ATOM     24  N   UNL     1      35.198   6.029   5.081  1.00  0.00    -0.298 NA
ATOM     25  C   UNL     1      35.007   4.718   4.418  1.00  0.00     0.100 C 
ATOM     26  C   UNL     1      36.277   6.779   4.388  1.00  0.00     0.100 C 
ATOM     27  C   UNL     1      34.727   4.872   2.911  1.00  0.00     0.099 C 
ATOM     28  C   UNL     1      35.973   6.953   2.894  1.00  0.00     0.099 C 
ATOM     29  N   UNL     1      35.757   5.662   2.218  1.00  0.00    -0.304 NA
ATOM     30  C   UNL     1      37.005   4.906   2.010  1.00  0.00     0.105 C 
ENDBRANCH  23  24
ENDBRANCH  13  18
ENDBRANCH   8  10
ENDBRANCH   1   8
BRANCH   6  31
ATOM     31  N   UNL     1      27.846  12.043   9.211  1.00  0.00    -0.338 N 
ATOM     32  H   UNL     1      27.414  12.544   8.404  1.00  0.00     0.168 HD
BRANCH  31  33
ATOM     33  C   UNL     1      27.733  10.609   9.257  1.00  0.00     0.050 A 
ATOM     34  C   UNL     1      28.794   9.812   8.790  1.00  0.00     0.027 A 
ATOM     35  C   UNL     1      26.557   9.985   9.741  1.00  0.00     0.035 A 
ATOM     36  C   UNL     1      28.696   8.419   8.808  1.00  0.00     0.002 A 
ATOM     37  C   UNL     1      26.477   8.582   9.751  1.00  0.00     0.014 A 
ATOM     38  C   UNL     1      27.541   7.805   9.289  1.00  0.00     0.001 A 
BRANCH  35  39
ATOM     39  P   UNL     1      25.186  10.956  10.411  1.00  0.00     0.111 P 
ATOM     40  C   UNL     1      25.698  11.753  11.963  1.00  0.00     0.087 C 
ATOM     41  C   UNL     1      23.725   9.933  10.765  1.00  0.00     0.087 C 
ATOM     42  O   UNL     1      24.782  12.024   9.416  1.00  0.00    -0.319 OA
ENDBRANCH  35  39
ENDBRANCH  31  33
ENDBRANCH   6  31
TORSDOF 8
ENDMDL
MODEL 14
REMARK VINA RESULT:    -8.309      2.700      3.827
REMARK INTER + INTRA:         -13.961
REMARK INTER:                 -12.308
REMARK INTRA:                  -1.653
REMARK UNBOUND:                -1.767
REMARK SMILES COc1cc(N2CCC(N3CCN(C)CC3)CC2)ccc1Nc1ncc(Cl)c(Nc2ccccc2P(C)(C)=O)n1
REMARK SMILES IDX 23 1 24 2 25 3 26 4 27 5 28 6 40 7 22 8 21 10 3 11 4 12 5 13
REMARK SMILES IDX 20 14 19 15 2 16 1 17 6 18 7 19 18 20 8 21 17 22 9 23 10 24
REMARK SMILES IDX 11 25 16 26 12 27 15 28 13 29 14 30 29 31 30 33 31 34 35 35
REMARK SMILES IDX 32 36 34 37 33 38 36 39 37 40 38 41 39 42
REMARK H PARENT 22 9 29 32
REMARK Flexibility Score: inf
ROOT
ATOM      1  C   UNL     1      30.785  12.517  10.907  1.00  0.00     0.229 A 
ATOM      2  N   UNL     1      30.503  13.662  11.583  1.00  0.00    -0.220 NA
ATOM      3  C   UNL     1      29.299  14.276  11.448  1.00  0.00     0.139 A 
ATOM      4  C   UNL     1      28.319  13.728  10.615  1.00  0.00     0.102 A 
ATOM      5  Cl  UNL     1      26.807  14.597  10.390  1.00  0.00    -0.079 Cl
ATOM      6  C   UNL     1      28.614  12.526   9.944  1.00  0.00     0.154 A 
ATOM      7  N   UNL     1      29.842  11.961  10.102  1.00  0.00    -0.194 NA
ENDROOT
BRANCH   1   8
ATOM      8  N   UNL     1      32.052  11.865  11.071  1.00  0.00    -0.321 N 
ATOM      9  H   UNL     1      32.379  11.684  12.048  1.00  0.00     0.170 HD
BRANCH   8  10
ATOM     10  C   UNL     1      32.889  11.454   9.975  1.00  0.00     0.084 A 
ATOM     11  C   UNL     1      33.724  12.396   9.340  1.00  0.00     0.144 A 
ATOM     12  C   UNL     1      34.583  11.973   8.304  1.00  0.00     0.074 A 
ATOM     13  C   UNL     1      34.617  10.630   7.908  1.00  0.00     0.040 A 
ATOM     14  C   UNL     1      32.936  10.108   9.574  1.00  0.00     0.032 A 
ATOM     15  C   UNL     1      33.788   9.700   8.547  1.00  0.00     0.028 A 
BRANCH  11  16
ATOM     16  O   UNL     1      33.669  13.735   9.758  1.00  0.00    -0.494 OA
ATOM     17  C   UNL     1      34.633  14.356  10.605  1.00  0.00     0.278 C 
ENDBRANCH  11  16
BRANCH  13  18
ATOM     18  N   UNL     1      35.535  10.202   6.889  1.00  0.00    -0.371 N 
ATOM     19  C   UNL     1      36.961  10.056   7.209  1.00  0.00     0.118 C 
ATOM     20  C   UNL     1      35.033   9.809   5.566  1.00  0.00     0.118 C 
ATOM     21  C   UNL     1      37.806  10.522   6.019  1.00  0.00     0.040 C 
ATOM     22  C   UNL     1      36.106   9.037   4.793  1.00  0.00     0.040 C 
ATOM     23  C   UNL     1      37.429   9.852   4.658  1.00  0.00     0.060 C 
BRANCH  23  24
ATOM     24  N   UNL     1      37.423  10.894   3.578  1.00  0.00    -0.298 NA
ATOM     25  C   UNL     1      37.085  12.253   4.060  1.00  0.00     0.100 C 
ATOM     26  C   UNL     1      36.464  10.495   2.515  1.00  0.00     0.100 C 
ATOM     27  C   UNL     1      37.042  13.276   2.908  1.00  0.00     0.099 C 
ATOM     28  C   UNL     1      36.451  11.506   1.360  1.00  0.00     0.099 C 
ATOM     29  N   UNL     1      36.140  12.870   1.819  1.00  0.00    -0.304 NA
ATOM     30  C   UNL     1      34.718  13.049   2.164  1.00  0.00     0.105 C 
ENDBRANCH  23  24
ENDBRANCH  13  18
ENDBRANCH   8  10
ENDBRANCH   1   8
BRANCH   6  31
ATOM     31  N   UNL     1      27.673  11.898   9.063  1.00  0.00    -0.338 N 
ATOM     32  H   UNL     1      27.923  11.859   8.050  1.00  0.00     0.168 HD
BRANCH  31  33
ATOM     33  C   UNL     1      26.579  11.084   9.522  1.00  0.00     0.050 A 
ATOM     34  C   UNL     1      25.397  11.698   9.977  1.00  0.00     0.027 A 
ATOM     35  C   UNL     1      26.682   9.672   9.550  1.00  0.00     0.035 A 
ATOM     36  C   UNL     1      24.331  10.927  10.444  1.00  0.00     0.002 A 
ATOM     37  C   UNL     1      25.599   8.912  10.024  1.00  0.00     0.014 A 
ATOM     38  C   UNL     1      24.431   9.537  10.467  1.00  0.00     0.001 A 
BRANCH  35  39
ATOM     39  P   UNL     1      28.151   8.824   8.922  1.00  0.00     0.111 P 
ATOM     40  C   UNL     1      27.701   7.160   8.346  1.00  0.00     0.087 C 
ATOM     41  C   UNL     1      29.440   8.645  10.193  1.00  0.00     0.087 C 
ATOM     42  O   UNL     1      28.738   9.606   7.765  1.00  0.00    -0.319 OA
ENDBRANCH  35  39
ENDBRANCH  31  33
ENDBRANCH   6  31
TORSDOF 8
ENDMDL
MODEL 15
REMARK VINA RESULT:    -8.292      3.032      5.458
REMARK INTER + INTRA:         -13.936
REMARK INTER:                 -11.944
REMARK INTRA:                  -1.992
REMARK UNBOUND:                -1.767
REMARK SMILES COc1cc(N2CCC(N3CCN(C)CC3)CC2)ccc1Nc1ncc(Cl)c(Nc2ccccc2P(C)(C)=O)n1
REMARK SMILES IDX 23 1 24 2 25 3 26 4 27 5 28 6 40 7 22 8 21 10 3 11 4 12 5 13
REMARK SMILES IDX 20 14 19 15 2 16 1 17 6 18 7 19 18 20 8 21 17 22 9 23 10 24
REMARK SMILES IDX 11 25 16 26 12 27 15 28 13 29 14 30 29 31 30 33 31 34 35 35
REMARK SMILES IDX 32 36 34 37 33 38 36 39 37 40 38 41 39 42
REMARK H PARENT 22 9 29 32
REMARK Flexibility Score: inf
ROOT
ATOM      1  C   UNL     1      31.342   8.059   9.371  1.00  0.00     0.229 A 
ATOM      2  N   UNL     1      30.061   7.652   9.161  1.00  0.00    -0.220 NA
ATOM      3  C   UNL     1      29.086   8.545   8.849  1.00  0.00     0.139 A 
ATOM      4  C   UNL     1      29.389   9.904   8.726  1.00  0.00     0.102 A 
ATOM      5  Cl  UNL     1      28.086  11.044   8.414  1.00  0.00    -0.079 Cl
ATOM      6  C   UNL     1      30.724  10.307   8.918  1.00  0.00     0.154 A 
ATOM      7  N   UNL     1      31.660   9.374   9.244  1.00  0.00    -0.194 NA
ENDROOT
BRANCH   1   8
ATOM      8  N   UNL     1      32.369   7.107   9.680  1.00  0.00    -0.321 N 
ATOM      9  H   UNL     1      32.448   6.788  10.673  1.00  0.00     0.170 HD
BRANCH   8  10
ATOM     10  C   UNL     1      33.287   6.576   8.708  1.00  0.00     0.084 A 
ATOM     11  C   UNL     1      34.442   7.307   8.364  1.00  0.00     0.144 A 
ATOM     12  C   UNL     1      35.366   6.754   7.453  1.00  0.00     0.074 A 
ATOM     13  C   UNL     1      35.149   5.487   6.895  1.00  0.00     0.040 A 
ATOM     14  C   UNL     1      33.082   5.304   8.148  1.00  0.00     0.032 A 
ATOM     15  C   UNL     1      34.001   4.766   7.246  1.00  0.00     0.028 A 
BRANCH  11  16
ATOM     16  O   UNL     1      34.634   8.573   8.938  1.00  0.00    -0.494 OA
ATOM     17  C   UNL     1      35.799   9.374   8.754  1.00  0.00     0.278 C 
ENDBRANCH  11  16
BRANCH  13  18
ATOM     18  N   UNL     1      36.123   4.913   6.010  1.00  0.00    -0.371 N 
ATOM     19  C   UNL     1      36.387   5.544   4.710  1.00  0.00     0.118 C 
ATOM     20  C   UNL     1      36.929   3.766   6.449  1.00  0.00     0.118 C 
ATOM     21  C   UNL     1      36.624   4.461   3.651  1.00  0.00     0.040 C 
ATOM     22  C   UNL     1      38.137   3.574   5.528  1.00  0.00     0.040 C 
ATOM     23  C   UNL     1      37.714   3.409   4.036  1.00  0.00     0.060 C 
BRANCH  23  24
ATOM     24  N   UNL     1      37.233   2.037   3.663  1.00  0.00    -0.298 NA
ATOM     25  C   UNL     1      37.951   1.445   2.511  1.00  0.00     0.100 C 
ATOM     26  C   UNL     1      35.779   2.091   3.363  1.00  0.00     0.100 C 
ATOM     27  C   UNL     1      37.389   0.060   2.134  1.00  0.00     0.099 C 
ATOM     28  C   UNL     1      35.224   0.702   3.019  1.00  0.00     0.099 C 
ATOM     29  N   UNL     1      35.938   0.082   1.889  1.00  0.00    -0.304 NA
ATOM     30  C   UNL     1      35.592   0.687   0.590  1.00  0.00     0.105 C 
ENDBRANCH  23  24
ENDBRANCH  13  18
ENDBRANCH   8  10
ENDBRANCH   1   8
BRANCH   6  31
ATOM     31  N   UNL     1      31.123  11.681   8.820  1.00  0.00    -0.338 N 
ATOM     32  H   UNL     1      30.615  12.367   9.421  1.00  0.00     0.168 HD
BRANCH  31  33
ATOM     33  C   UNL     1      32.341  12.110   8.184  1.00  0.00     0.050 A 
ATOM     34  C   UNL     1      32.423  12.128   6.780  1.00  0.00     0.027 A 
ATOM     35  C   UNL     1      33.470  12.488   8.950  1.00  0.00     0.035 A 
ATOM     36  C   UNL     1      33.601  12.522   6.142  1.00  0.00     0.002 A 
ATOM     37  C   UNL     1      34.647  12.882   8.291  1.00  0.00     0.014 A 
ATOM     38  C   UNL     1      34.711  12.899   6.896  1.00  0.00     0.001 A 
BRANCH  35  39
ATOM     39  P   UNL     1      33.405  12.543  10.757  1.00  0.00     0.111 P 
ATOM     40  C   UNL     1      34.531  13.830  11.373  1.00  0.00     0.087 C 
ATOM     41  C   UNL     1      33.894  10.964  11.513  1.00  0.00     0.087 C 
ATOM     42  O   UNL     1      31.994  12.864  11.208  1.00  0.00    -0.319 OA
ENDBRANCH  35  39
ENDBRANCH  31  33
ENDBRANCH   6  31
TORSDOF 8
ENDMDL
