MODEL 1
REMARK VINA RESULT:    -9.468      0.000      0.000
REMARK INTER + INTRA:         -17.068
REMARK INTER:                 -15.556
REMARK INTRA:                  -1.512
REMARK UNBOUND:                -1.512
REMARK SMILES COc1cc(Nc2ncc(F)c(Nc3ccc4c(n3)N(COP(=O)(O)O)C(=O)C(C)(C)O4)n2)cc(OC)c1OC
REMARK SMILES IDX 14 1 19 2 18 3 17 4 32 5 29 6 30 7 31 8 27 9 28 10 20 11
REMARK SMILES IDX 16 12 15 13 13 14 12 16 7 17 8 18 33 19 9 20 10 21 11 22
REMARK SMILES IDX 6 23 5 25 3 26 4 27 38 28 35 29 34 30 2 31 1 32 39 33 40 34
REMARK SMILES IDX 36 35 37 36 21 37 22 38 23 39 24 40 25 41 26 43
REMARK H PARENT 13 15 6 24 25 42 26 44
REMARK Flexibility Score: inf
ROOT
ATOM      1  C   UNL     1     -85.617 -19.043  89.584  1.00  0.00     0.134 A 
ATOM      2  N   UNL     1     -86.666 -18.703  90.383  1.00  0.00    -0.209 NA
ATOM      3  C   UNL     1     -87.400 -17.573  90.179  1.00  0.00     0.182 A 
ATOM      4  C   UNL     1     -87.070 -16.717  89.124  1.00  0.00     0.164 A 
ATOM      5  O   UNL     1     -87.822 -15.563  88.896  1.00  0.00    -0.474 OA
ATOM      6  C   UNL     1     -89.152 -15.384  89.398  1.00  0.00     0.182 C 
ATOM      7  C   UNL     1     -89.385 -13.878  89.591  1.00  0.00     0.067 C 
ATOM      8  C   UNL     1     -90.141 -15.938  88.363  1.00  0.00     0.067 C 
ATOM      9  C   UNL     1     -89.346 -16.124  90.710  1.00  0.00     0.273 C 
ATOM     10  O   UNL     1     -90.315 -15.816  91.459  1.00  0.00    -0.270 OA
ATOM     11  N   UNL     1     -88.487 -17.231  91.057  1.00  0.00    -0.265 N 
ATOM     12  C   UNL     1     -85.974 -17.017  88.312  1.00  0.00     0.054 A 
ATOM     13  C   UNL     1     -85.241 -18.183  88.538  1.00  0.00     0.051 A 
ENDROOT
BRANCH   1  14
ATOM     14  N   UNL     1     -84.880 -20.240  89.870  1.00  0.00    -0.322 N 
ATOM     15  H   UNL     1     -84.892 -20.595  90.853  1.00  0.00     0.170 HD
BRANCH  14  16
ATOM     16  C   UNL     1     -84.102 -20.966  88.907  1.00  0.00     0.173 A 
ATOM     17  C   UNL     1     -81.957 -21.575  88.091  1.00  0.00     0.229 A 
ATOM     18  N   UNL     1     -82.532 -22.400  87.173  1.00  0.00    -0.218 NA
ATOM     19  N   UNL     1     -82.746 -20.883  88.957  1.00  0.00    -0.192 NA
ATOM     20  C   UNL     1     -83.880 -22.530  87.093  1.00  0.00     0.158 A 
ATOM     21  C   UNL     1     -84.701 -21.819  87.966  1.00  0.00     0.184 A 
ATOM     22  F   UNL     1     -86.045 -22.003  87.926  1.00  0.00    -0.201 F 
BRANCH  17  23
ATOM     23  N   UNL     1     -80.529 -21.469  88.195  1.00  0.00    -0.324 N 
ATOM     24  H   UNL     1     -80.051 -22.096  88.879  1.00  0.00     0.170 HD
BRANCH  23  25
ATOM     25  C   UNL     1     -79.710 -20.664  87.327  1.00  0.00     0.049 A 
ATOM     26  C   UNL     1     -79.394 -19.574  85.172  1.00  0.00     0.166 A 
ATOM     27  C   UNL     1     -80.172 -20.352  86.046  1.00  0.00     0.076 A 
ATOM     28  C   UNL     1     -78.130 -19.113  85.577  1.00  0.00     0.203 A 
ATOM     29  C   UNL     1     -77.638 -19.451  86.865  1.00  0.00     0.166 A 
ATOM     30  C   UNL     1     -78.435 -20.238  87.720  1.00  0.00     0.076 A 
BRANCH  26  31
ATOM     31  O   UNL     1     -79.844 -19.230  83.887  1.00  0.00    -0.493 OA
ATOM     32  C   UNL     1     -81.187 -18.891  83.562  1.00  0.00     0.278 C 
ENDBRANCH  26  31
BRANCH  28  33
ATOM     33  O   UNL     1     -77.417 -18.330  84.649  1.00  0.00    -0.490 OA
ATOM     34  C   UNL     1     -76.396 -18.779  83.765  1.00  0.00     0.278 C 
ENDBRANCH  28  33
BRANCH  29  35
ATOM     35  O   UNL     1     -76.369 -19.007  87.269  1.00  0.00    -0.493 OA
ATOM     36  C   UNL     1     -76.099 -17.750  87.881  1.00  0.00     0.278 C 
ENDBRANCH  29  35
ENDBRANCH  23  25
ENDBRANCH  17  23
ENDBRANCH  14  16
ENDBRANCH   1  14
BRANCH  11  37
ATOM     37  C   UNL     1     -88.787 -18.071  92.223  1.00  0.00     0.303 C 
BRANCH  37  38
ATOM     38  O   UNL     1     -88.351 -17.409  93.387  1.00  0.00    -0.265 OA
BRANCH  38  39
ATOM     39  P   UNL     1     -87.526 -18.529  94.376  1.00  0.00     0.471 P 
ATOM     40  O   UNL     1     -88.404 -19.737  94.622  1.00  0.00    -0.228 OA
BRANCH  39  41
ATOM     41  O   UNL     1     -87.089 -17.820  95.855  1.00  0.00    -0.303 OA
ATOM     42  H   UNL     1     -87.808 -18.075  96.487  1.00  0.00     0.223 HD
ENDBRANCH  39  41
BRANCH  39  43
ATOM     43  O   UNL     1     -86.120 -19.024  93.574  1.00  0.00    -0.303 OA
ATOM     44  H   UNL     1     -86.394 -19.124  92.626  1.00  0.00     0.223 HD
ENDBRANCH  39  43
ENDBRANCH  38  39
ENDBRANCH  37  38
ENDBRANCH  11  37
TORSDOF 12
ENDMDL
MODEL 2
REMARK VINA RESULT:    -9.376      0.686      2.135
REMARK INTER + INTRA:         -16.917
REMARK INTER:                 -15.490
REMARK INTRA:                  -1.427
REMARK UNBOUND:                -1.512
REMARK SMILES COc1cc(Nc2ncc(F)c(Nc3ccc4c(n3)N(COP(=O)(O)O)C(=O)C(C)(C)O4)n2)cc(OC)c1OC
REMARK SMILES IDX 14 1 19 2 18 3 17 4 32 5 29 6 30 7 31 8 27 9 28 10 20 11
REMARK SMILES IDX 16 12 15 13 13 14 12 16 7 17 8 18 33 19 9 20 10 21 11 22
REMARK SMILES IDX 6 23 5 25 3 26 4 27 38 28 35 29 34 30 2 31 1 32 39 33 40 34
REMARK SMILES IDX 36 35 37 36 21 37 22 38 23 39 24 40 25 41 26 43
REMARK H PARENT 13 15 6 24 25 42 26 44
REMARK Flexibility Score: inf
ROOT
ATOM      1  C   UNL     1     -85.602 -19.106  89.547  1.00  0.00     0.134 A 
ATOM      2  N   UNL     1     -86.652 -18.755  90.339  1.00  0.00    -0.209 NA
ATOM      3  C   UNL     1     -87.368 -17.614  90.134  1.00  0.00     0.182 A 
ATOM      4  C   UNL     1     -87.018 -16.758  89.086  1.00  0.00     0.164 A 
ATOM      5  O   UNL     1     -87.752 -15.592  88.857  1.00  0.00    -0.474 OA
ATOM      6  C   UNL     1     -89.083 -15.396  89.350  1.00  0.00     0.182 C 
ATOM      7  C   UNL     1     -89.295 -13.888  89.548  1.00  0.00     0.067 C 
ATOM      8  C   UNL     1     -90.072 -15.931  88.305  1.00  0.00     0.067 C 
ATOM      9  C   UNL     1     -89.297 -16.139  90.658  1.00  0.00     0.273 C 
ATOM     10  O   UNL     1     -90.268 -15.821  91.400  1.00  0.00    -0.270 OA
ATOM     11  N   UNL     1     -88.457 -17.259  91.006  1.00  0.00    -0.265 N 
ATOM     12  C   UNL     1     -85.920 -17.070  88.281  1.00  0.00     0.054 A 
ATOM     13  C   UNL     1     -85.206 -18.247  88.507  1.00  0.00     0.051 A 
ENDROOT
BRANCH   1  14
ATOM     14  N   UNL     1     -84.885 -20.315  89.833  1.00  0.00    -0.322 N 
ATOM     15  H   UNL     1     -84.978 -20.720  90.792  1.00  0.00     0.170 HD
BRANCH  14  16
ATOM     16  C   UNL     1     -84.023 -20.989  88.903  1.00  0.00     0.173 A 
ATOM     17  C   UNL     1     -81.816 -21.588  88.266  1.00  0.00     0.229 A 
ATOM     18  N   UNL     1     -82.306 -22.334  87.239  1.00  0.00    -0.218 NA
ATOM     19  N   UNL     1     -82.678 -20.941  89.096  1.00  0.00    -0.192 NA
ATOM     20  C   UNL     1     -83.641 -22.427  87.013  1.00  0.00     0.158 A 
ATOM     21  C   UNL     1     -84.536 -21.761  87.847  1.00  0.00     0.184 A 
ATOM     22  F   UNL     1     -85.871 -21.910  87.659  1.00  0.00    -0.201 F 
BRANCH  17  23
ATOM     23  N   UNL     1     -80.405 -21.523  88.522  1.00  0.00    -0.324 N 
ATOM     24  H   UNL     1     -80.018 -22.169  89.245  1.00  0.00     0.170 HD
BRANCH  23  25
ATOM     25  C   UNL     1     -79.478 -20.733  87.755  1.00  0.00     0.049 A 
ATOM     26  C   UNL     1     -77.435 -19.409  87.667  1.00  0.00     0.166 A 
ATOM     27  C   UNL     1     -78.356 -20.190  88.386  1.00  0.00     0.076 A 
ATOM     28  C   UNL     1     -77.645 -19.154  86.302  1.00  0.00     0.203 A 
ATOM     29  C   UNL     1     -78.797 -19.675  85.658  1.00  0.00     0.166 A 
ATOM     30  C   UNL     1     -79.709 -20.450  86.402  1.00  0.00     0.076 A 
BRANCH  26  31
ATOM     31  O   UNL     1     -76.290 -18.868  88.274  1.00  0.00    -0.493 OA
ATOM     32  C   UNL     1     -75.882 -19.130  89.613  1.00  0.00     0.278 C 
ENDBRANCH  26  31
BRANCH  28  33
ATOM     33  O   UNL     1     -76.671 -18.374  85.649  1.00  0.00    -0.490 OA
ATOM     34  C   UNL     1     -76.728 -16.972  85.406  1.00  0.00     0.278 C 
ENDBRANCH  28  33
BRANCH  29  35
ATOM     35  O   UNL     1     -79.021 -19.410  84.298  1.00  0.00    -0.493 OA
ATOM     36  C   UNL     1     -80.207 -18.834  83.760  1.00  0.00     0.278 C 
ENDBRANCH  29  35
ENDBRANCH  23  25
ENDBRANCH  17  23
ENDBRANCH  14  16
ENDBRANCH   1  14
BRANCH  11  37
ATOM     37  C   UNL     1     -88.778 -18.100  92.166  1.00  0.00     0.303 C 
BRANCH  37  38
ATOM     38  O   UNL     1     -88.377 -17.432  93.339  1.00  0.00    -0.265 OA
BRANCH  38  39
ATOM     39  P   UNL     1     -87.540 -18.534  94.337  1.00  0.00     0.471 P 
ATOM     40  O   UNL     1     -88.403 -19.753  94.588  1.00  0.00    -0.228 OA
BRANCH  39  41
ATOM     41  O   UNL     1     -87.119 -17.810  95.813  1.00  0.00    -0.303 OA
ATOM     42  H   UNL     1     -87.925 -17.308  96.096  1.00  0.00     0.223 HD
ENDBRANCH  39  41
BRANCH  39  43
ATOM     43  O   UNL     1     -86.125 -19.016  93.543  1.00  0.00    -0.303 OA
ATOM     44  H   UNL     1     -86.415 -19.221  92.617  1.00  0.00     0.223 HD
ENDBRANCH  39  43
ENDBRANCH  38  39
ENDBRANCH  37  38
ENDBRANCH  11  37
TORSDOF 12
ENDMDL
MODEL 3
REMARK VINA RESULT:    -9.330      5.851      8.894
REMARK INTER + INTRA:         -16.842
REMARK INTER:                 -14.545
REMARK INTRA:                  -2.297
REMARK UNBOUND:                -1.512
REMARK SMILES COc1cc(Nc2ncc(F)c(Nc3ccc4c(n3)N(COP(=O)(O)O)C(=O)C(C)(C)O4)n2)cc(OC)c1OC
REMARK SMILES IDX 14 1 19 2 18 3 17 4 32 5 29 6 30 7 31 8 27 9 28 10 20 11
REMARK SMILES IDX 16 12 15 13 13 14 12 16 7 17 8 18 33 19 9 20 10 21 11 22
REMARK SMILES IDX 6 23 5 25 3 26 4 27 38 28 35 29 34 30 2 31 1 32 39 33 40 34
REMARK SMILES IDX 36 35 37 36 21 37 22 38 23 39 24 40 25 41 26 43
REMARK H PARENT 13 15 6 24 25 42 26 44
REMARK Flexibility Score: inf
ROOT
ATOM      1  C   UNL     1     -78.955 -19.340  84.122  1.00  0.00     0.134 A 
ATOM      2  N   UNL     1     -79.073 -19.994  85.310  1.00  0.00    -0.209 NA
ATOM      3  C   UNL     1     -80.281 -20.204  85.908  1.00  0.00     0.182 A 
ATOM      4  C   UNL     1     -81.445 -19.727  85.297  1.00  0.00     0.164 A 
ATOM      5  O   UNL     1     -82.689 -19.947  85.892  1.00  0.00    -0.474 OA
ATOM      6  C   UNL     1     -82.919 -20.969  86.869  1.00  0.00     0.182 C 
ATOM      7  C   UNL     1     -84.070 -20.507  87.774  1.00  0.00     0.067 C 
ATOM      8  C   UNL     1     -83.315 -22.260  86.137  1.00  0.00     0.067 C 
ATOM      9  C   UNL     1     -81.669 -21.232  87.691  1.00  0.00     0.273 C 
ATOM     10  O   UNL     1     -81.768 -21.838  88.795  1.00  0.00    -0.270 OA
ATOM     11  N   UNL     1     -80.369 -20.878  87.176  1.00  0.00    -0.265 N 
ATOM     12  C   UNL     1     -81.351 -19.016  84.099  1.00  0.00     0.054 A 
ATOM     13  C   UNL     1     -80.105 -18.819  83.504  1.00  0.00     0.051 A 
ENDROOT
BRANCH   1  14
ATOM     14  N   UNL     1     -77.649 -19.142  83.561  1.00  0.00    -0.322 N 
ATOM     15  H   UNL     1     -77.353 -19.777  82.786  1.00  0.00     0.170 HD
BRANCH  14  16
ATOM     16  C   UNL     1     -76.710 -18.155  84.013  1.00  0.00     0.173 A 
ATOM     17  C   UNL     1     -76.071 -16.591  85.680  1.00  0.00     0.229 A 
ATOM     18  N   UNL     1     -74.918 -16.330  85.005  1.00  0.00    -0.218 NA
ATOM     19  N   UNL     1     -76.943 -17.512  85.188  1.00  0.00    -0.192 NA
ATOM     20  C   UNL     1     -74.632 -16.957  83.836  1.00  0.00     0.158 A 
ATOM     21  C   UNL     1     -75.521 -17.894  83.313  1.00  0.00     0.184 A 
ATOM     22  F   UNL     1     -75.200 -18.566  82.180  1.00  0.00    -0.201 F 
BRANCH  17  23
ATOM     23  N   UNL     1     -76.352 -15.951  86.935  1.00  0.00    -0.324 N 
ATOM     24  H   UNL     1     -77.053 -15.177  86.931  1.00  0.00     0.170 HD
BRANCH  23  25
ATOM     25  C   UNL     1     -75.840 -16.395  88.204  1.00  0.00     0.049 A 
ATOM     26  C   UNL     1     -74.819 -15.858  90.349  1.00  0.00     0.166 A 
ATOM     27  C   UNL     1     -75.331 -15.456  89.104  1.00  0.00     0.076 A 
ATOM     28  C   UNL     1     -74.800 -17.219  90.695  1.00  0.00     0.203 A 
ATOM     29  C   UNL     1     -75.287 -18.184  89.776  1.00  0.00     0.166 A 
ATOM     30  C   UNL     1     -75.790 -17.757  88.532  1.00  0.00     0.076 A 
BRANCH  26  31
ATOM     31  O   UNL     1     -74.318 -14.930  91.278  1.00  0.00    -0.493 OA
ATOM     32  C   UNL     1     -73.025 -14.340  91.218  1.00  0.00     0.278 C 
ENDBRANCH  26  31
BRANCH  28  33
ATOM     33  O   UNL     1     -74.282 -17.539  91.965  1.00  0.00    -0.490 OA
ATOM     34  C   UNL     1     -75.031 -17.799  93.147  1.00  0.00     0.278 C 
ENDBRANCH  28  33
BRANCH  29  35
ATOM     35  O   UNL     1     -75.257 -19.548  90.110  1.00  0.00    -0.493 OA
ATOM     36  C   UNL     1     -74.084 -20.355  90.148  1.00  0.00     0.278 C 
ENDBRANCH  29  35
ENDBRANCH  23  25
ENDBRANCH  17  23
ENDBRANCH  14  16
ENDBRANCH   1  14
BRANCH  11  37
ATOM     37  C   UNL     1     -79.148 -21.302  87.873  1.00  0.00     0.303 C 
BRANCH  37  38
ATOM     38  O   UNL     1     -78.868 -20.384  88.903  1.00  0.00    -0.265 OA
BRANCH  38  39
ATOM     39  P   UNL     1     -78.508 -21.254  90.327  1.00  0.00     0.471 P 
ATOM     40  O   UNL     1     -77.620 -22.435  89.993  1.00  0.00    -0.228 OA
BRANCH  39  41
ATOM     41  O   UNL     1     -79.930 -21.793  91.080  1.00  0.00    -0.303 OA
ATOM     42  H   UNL     1     -79.639 -22.158  91.954  1.00  0.00     0.223 HD
ENDBRANCH  39  41
BRANCH  39  43
ATOM     43  O   UNL     1     -77.683 -20.229  91.391  1.00  0.00    -0.303 OA
ATOM     44  H   UNL     1     -76.768 -20.161  91.016  1.00  0.00     0.223 HD
ENDBRANCH  39  43
ENDBRANCH  38  39
ENDBRANCH  37  38
ENDBRANCH  11  37
TORSDOF 12
ENDMDL
MODEL 4
REMARK VINA RESULT:    -9.295      5.882      8.851
REMARK INTER + INTRA:         -16.783
REMARK INTER:                 -14.488
REMARK INTRA:                  -2.296
REMARK UNBOUND:                -1.512
REMARK SMILES COc1cc(Nc2ncc(F)c(Nc3ccc4c(n3)N(COP(=O)(O)O)C(=O)C(C)(C)O4)n2)cc(OC)c1OC
REMARK SMILES IDX 14 1 19 2 18 3 17 4 32 5 29 6 30 7 31 8 27 9 28 10 20 11
REMARK SMILES IDX 16 12 15 13 13 14 12 16 7 17 8 18 33 19 9 20 10 21 11 22
REMARK SMILES IDX 6 23 5 25 3 26 4 27 38 28 35 29 34 30 2 31 1 32 39 33 40 34
REMARK SMILES IDX 36 35 37 36 21 37 22 38 23 39 24 40 25 41 26 43
REMARK H PARENT 13 15 6 24 25 42 26 44
REMARK Flexibility Score: inf
ROOT
ATOM      1  C   UNL     1     -78.901 -19.275  84.127  1.00  0.00     0.134 A 
ATOM      2  N   UNL     1     -79.018 -19.941  85.309  1.00  0.00    -0.209 NA
ATOM      3  C   UNL     1     -80.225 -20.165  85.900  1.00  0.00     0.182 A 
ATOM      4  C   UNL     1     -81.391 -19.693  85.290  1.00  0.00     0.164 A 
ATOM      5  O   UNL     1     -82.635 -19.928  85.880  1.00  0.00    -0.474 OA
ATOM      6  C   UNL     1     -82.860 -20.961  86.847  1.00  0.00     0.182 C 
ATOM      7  C   UNL     1     -84.017 -20.515  87.753  1.00  0.00     0.067 C 
ATOM      8  C   UNL     1     -83.243 -22.248  86.104  1.00  0.00     0.067 C 
ATOM      9  C   UNL     1     -81.610 -21.220  87.671  1.00  0.00     0.273 C 
ATOM     10  O   UNL     1     -81.708 -21.836  88.770  1.00  0.00    -0.270 OA
ATOM     11  N   UNL     1     -80.312 -20.851  87.163  1.00  0.00    -0.265 N 
ATOM     12  C   UNL     1     -81.300 -18.972  84.098  1.00  0.00     0.054 A 
ATOM     13  C   UNL     1     -80.054 -18.759  83.509  1.00  0.00     0.051 A 
ENDROOT
BRANCH   1  14
ATOM     14  N   UNL     1     -77.596 -19.062  83.571  1.00  0.00    -0.322 N 
ATOM     15  H   UNL     1     -77.297 -19.679  82.782  1.00  0.00     0.170 HD
BRANCH  14  16
ATOM     16  C   UNL     1     -76.659 -18.084  84.046  1.00  0.00     0.173 A 
ATOM     17  C   UNL     1     -76.037 -16.539  85.738  1.00  0.00     0.229 A 
ATOM     18  N   UNL     1     -74.874 -16.276  85.082  1.00  0.00    -0.218 NA
ATOM     19  N   UNL     1     -76.906 -17.451  85.224  1.00  0.00    -0.192 NA
ATOM     20  C   UNL     1     -74.573 -16.893  83.911  1.00  0.00     0.158 A 
ATOM     21  C   UNL     1     -75.458 -17.821  83.366  1.00  0.00     0.184 A 
ATOM     22  F   UNL     1     -75.124 -18.484  82.231  1.00  0.00    -0.201 F 
BRANCH  17  23
ATOM     23  N   UNL     1     -76.333 -15.910  86.994  1.00  0.00    -0.324 N 
ATOM     24  H   UNL     1     -77.094 -15.194  87.004  1.00  0.00     0.170 HD
BRANCH  23  25
ATOM     25  C   UNL     1     -75.753 -16.298  88.252  1.00  0.00     0.049 A 
ATOM     26  C   UNL     1     -75.301 -18.037  89.897  1.00  0.00     0.166 A 
ATOM     27  C   UNL     1     -75.852 -17.627  88.671  1.00  0.00     0.076 A 
ATOM     28  C   UNL     1     -74.655 -17.104  90.724  1.00  0.00     0.203 A 
ATOM     29  C   UNL     1     -74.575 -15.745  90.322  1.00  0.00     0.166 A 
ATOM     30  C   UNL     1     -75.141 -15.358  89.092  1.00  0.00     0.076 A 
BRANCH  26  31
ATOM     31  O   UNL     1     -75.371 -19.371  90.331  1.00  0.00    -0.493 OA
ATOM     32  C   UNL     1     -74.487 -20.406  89.916  1.00  0.00     0.278 C 
ENDBRANCH  26  31
BRANCH  28  33
ATOM     33  O   UNL     1     -74.119 -17.595  91.930  1.00  0.00    -0.490 OA
ATOM     34  C   UNL     1     -74.681 -17.452  93.230  1.00  0.00     0.278 C 
ENDBRANCH  28  33
BRANCH  29  35
ATOM     35  O   UNL     1     -73.945 -14.804  91.152  1.00  0.00    -0.493 OA
ATOM     36  C   UNL     1     -72.768 -14.075  90.816  1.00  0.00     0.278 C 
ENDBRANCH  29  35
ENDBRANCH  23  25
ENDBRANCH  17  23
ENDBRANCH  14  16
ENDBRANCH   1  14
BRANCH  11  37
ATOM     37  C   UNL     1     -79.090 -21.271  87.860  1.00  0.00     0.303 C 
BRANCH  37  38
ATOM     38  O   UNL     1     -78.829 -20.368  88.909  1.00  0.00    -0.265 OA
BRANCH  38  39
ATOM     39  P   UNL     1     -78.517 -21.257  90.331  1.00  0.00     0.471 P 
ATOM     40  O   UNL     1     -77.619 -22.434  90.010  1.00  0.00    -0.228 OA
BRANCH  39  41
ATOM     41  O   UNL     1     -79.963 -21.806  91.028  1.00  0.00    -0.303 OA
ATOM     42  H   UNL     1     -80.643 -21.727  90.312  1.00  0.00     0.223 HD
ENDBRANCH  39  41
BRANCH  39  43
ATOM     43  O   UNL     1     -77.727 -20.248  91.437  1.00  0.00    -0.303 OA
ATOM     44  H   UNL     1     -78.459 -19.802  91.936  1.00  0.00     0.223 HD
ENDBRANCH  39  43
ENDBRANCH  38  39
ENDBRANCH  37  38
ENDBRANCH  11  37
TORSDOF 12
ENDMDL
MODEL 5
REMARK VINA RESULT:    -9.025      5.976     10.104
REMARK INTER + INTRA:         -16.341
REMARK INTER:                 -15.013
REMARK INTRA:                  -1.328
REMARK UNBOUND:                -1.512
REMARK SMILES COc1cc(Nc2ncc(F)c(Nc3ccc4c(n3)N(COP(=O)(O)O)C(=O)C(C)(C)O4)n2)cc(OC)c1OC
REMARK SMILES IDX 14 1 19 2 18 3 17 4 32 5 29 6 30 7 31 8 27 9 28 10 20 11
REMARK SMILES IDX 16 12 15 13 13 14 12 16 7 17 8 18 33 19 9 20 10 21 11 22
REMARK SMILES IDX 6 23 5 25 3 26 4 27 38 28 35 29 34 30 2 31 1 32 39 33 40 34
REMARK SMILES IDX 36 35 37 36 21 37 22 38 23 39 24 40 25 41 26 43
REMARK H PARENT 13 15 6 24 25 42 26 44
REMARK Flexibility Score: inf
ROOT
ATOM      1  C   UNL     1     -75.201 -16.413  88.401  1.00  0.00     0.134 A 
ATOM      2  N   UNL     1     -75.631 -17.273  89.364  1.00  0.00    -0.209 NA
ATOM      3  C   UNL     1     -75.633 -16.943  90.686  1.00  0.00     0.182 A 
ATOM      4  C   UNL     1     -75.169 -15.685  91.084  1.00  0.00     0.164 A 
ATOM      5  O   UNL     1     -75.178 -15.330  92.435  1.00  0.00    -0.474 OA
ATOM      6  C   UNL     1     -75.996 -15.986  93.411  1.00  0.00     0.182 C 
ATOM      7  C   UNL     1     -75.290 -15.875  94.770  1.00  0.00     0.067 C 
ATOM      8  C   UNL     1     -77.354 -15.271  93.466  1.00  0.00     0.067 C 
ATOM      9  C   UNL     1     -76.221 -17.444  93.047  1.00  0.00     0.273 C 
ATOM     10  O   UNL     1     -76.620 -18.250  93.933  1.00  0.00    -0.270 OA
ATOM     11  N   UNL     1     -76.071 -17.886  91.681  1.00  0.00    -0.265 N 
ATOM     12  C   UNL     1     -74.683 -14.796  90.123  1.00  0.00     0.054 A 
ATOM     13  C   UNL     1     -74.697 -15.155  88.776  1.00  0.00     0.051 A 
ENDROOT
BRANCH   1  14
ATOM     14  N   UNL     1     -75.214 -16.835  87.030  1.00  0.00    -0.322 N 
ATOM     15  H   UNL     1     -74.443 -16.498  86.410  1.00  0.00     0.170 HD
BRANCH  14  16
ATOM     16  C   UNL     1     -76.229 -17.663  86.443  1.00  0.00     0.173 A 
ATOM     17  C   UNL     1     -77.636 -19.566  86.624  1.00  0.00     0.229 A 
ATOM     18  N   UNL     1     -78.239 -19.243  85.447  1.00  0.00    -0.218 NA
ATOM     19  N   UNL     1     -76.654 -18.765  87.117  1.00  0.00    -0.192 NA
ATOM     20  C   UNL     1     -77.863 -18.144  84.744  1.00  0.00     0.158 A 
ATOM     21  C   UNL     1     -76.850 -17.320  85.230  1.00  0.00     0.184 A 
ATOM     22  F   UNL     1     -76.522 -16.188  84.558  1.00  0.00    -0.201 F 
BRANCH  17  23
ATOM     23  N   UNL     1     -78.063 -20.709  87.381  1.00  0.00    -0.324 N 
ATOM     24  H   UNL     1     -77.320 -21.345  87.749  1.00  0.00     0.170 HD
BRANCH  23  25
ATOM     25  C   UNL     1     -79.424 -20.956  87.779  1.00  0.00     0.049 A 
ATOM     26  C   UNL     1     -81.040 -21.355  89.557  1.00  0.00     0.166 A 
ATOM     27  C   UNL     1     -79.723 -21.107  89.135  1.00  0.00     0.076 A 
ATOM     28  C   UNL     1     -82.071 -21.469  88.610  1.00  0.00     0.203 A 
ATOM     29  C   UNL     1     -81.773 -21.348  87.228  1.00  0.00     0.166 A 
ATOM     30  C   UNL     1     -80.444 -21.105  86.831  1.00  0.00     0.076 A 
BRANCH  26  31
ATOM     31  O   UNL     1     -81.369 -21.492  90.916  1.00  0.00    -0.493 OA
ATOM     32  C   UNL     1     -80.965 -22.578  91.742  1.00  0.00     0.278 C 
ENDBRANCH  26  31
BRANCH  28  33
ATOM     33  O   UNL     1     -83.365 -21.705  89.113  1.00  0.00    -0.490 OA
ATOM     34  C   UNL     1     -84.409 -20.749  89.256  1.00  0.00     0.278 C 
ENDBRANCH  28  33
BRANCH  29  35
ATOM     35  O   UNL     1     -82.797 -21.476  86.276  1.00  0.00    -0.493 OA
ATOM     36  C   UNL     1     -83.385 -22.708  85.868  1.00  0.00     0.278 C 
ENDBRANCH  29  35
ENDBRANCH  23  25
ENDBRANCH  17  23
ENDBRANCH  14  16
ENDBRANCH   1  14
BRANCH  11  37
ATOM     37  C   UNL     1     -76.473 -19.242  91.288  1.00  0.00     0.303 C 
BRANCH  37  38
ATOM     38  O   UNL     1     -75.496 -20.154  91.730  1.00  0.00    -0.265 OA
BRANCH  38  39
ATOM     39  P   UNL     1     -76.281 -21.526  92.373  1.00  0.00     0.471 P 
ATOM     40  O   UNL     1     -75.254 -22.483  92.942  1.00  0.00    -0.228 OA
BRANCH  39  41
ATOM     41  O   UNL     1     -77.203 -22.307  91.181  1.00  0.00    -0.303 OA
ATOM     42  H   UNL     1     -78.047 -22.564  91.632  1.00  0.00     0.223 HD
ENDBRANCH  39  41
BRANCH  39  43
ATOM     43  O   UNL     1     -77.313 -21.024  93.617  1.00  0.00    -0.303 OA
ATOM     44  H   UNL     1     -77.038 -20.092  93.811  1.00  0.00     0.223 HD
ENDBRANCH  39  43
ENDBRANCH  38  39
ENDBRANCH  37  38
ENDBRANCH  11  37
TORSDOF 12
ENDMDL
MODEL 6
REMARK VINA RESULT:    -8.984      5.660      8.967
REMARK INTER + INTRA:         -16.273
REMARK INTER:                 -14.293
REMARK INTRA:                  -1.980
REMARK UNBOUND:                -1.512
REMARK SMILES COc1cc(Nc2ncc(F)c(Nc3ccc4c(n3)N(COP(=O)(O)O)C(=O)C(C)(C)O4)n2)cc(OC)c1OC
REMARK SMILES IDX 14 1 19 2 18 3 17 4 32 5 29 6 30 7 31 8 27 9 28 10 20 11
REMARK SMILES IDX 16 12 15 13 13 14 12 16 7 17 8 18 33 19 9 20 10 21 11 22
REMARK SMILES IDX 6 23 5 25 3 26 4 27 38 28 35 29 34 30 2 31 1 32 39 33 40 34
REMARK SMILES IDX 36 35 37 36 21 37 22 38 23 39 24 40 25 41 26 43
REMARK H PARENT 13 15 6 24 25 42 26 44
REMARK Flexibility Score: inf
ROOT
ATOM      1  C   UNL     1     -79.276 -19.483  84.793  1.00  0.00     0.134 A 
ATOM      2  N   UNL     1     -79.486 -20.183  85.942  1.00  0.00    -0.209 NA
ATOM      3  C   UNL     1     -80.737 -20.448  86.414  1.00  0.00     0.182 A 
ATOM      4  C   UNL     1     -81.852 -19.981  85.712  1.00  0.00     0.164 A 
ATOM      5  O   UNL     1     -83.140 -20.256  86.178  1.00  0.00    -0.474 OA
ATOM      6  C   UNL     1     -83.429 -21.320  87.093  1.00  0.00     0.182 C 
ATOM      7  C   UNL     1     -84.674 -20.922  87.899  1.00  0.00     0.067 C 
ATOM      8  C   UNL     1     -83.715 -22.593  86.283  1.00  0.00     0.067 C 
ATOM      9  C   UNL     1     -82.255 -21.578  88.021  1.00  0.00     0.273 C 
ATOM     10  O   UNL     1     -82.440 -22.227  89.089  1.00  0.00    -0.270 OA
ATOM     11  N   UNL     1     -80.924 -21.170  87.644  1.00  0.00    -0.265 N 
ATOM     12  C   UNL     1     -81.668 -19.224  84.552  1.00  0.00     0.054 A 
ATOM     13  C   UNL     1     -80.378 -18.971  84.086  1.00  0.00     0.051 A 
ENDROOT
BRANCH   1  14
ATOM     14  N   UNL     1     -77.930 -19.229  84.366  1.00  0.00    -0.322 N 
ATOM     15  H   UNL     1     -77.575 -19.758  83.538  1.00  0.00     0.170 HD
BRANCH  14  16
ATOM     16  C   UNL     1     -77.026 -18.324  85.018  1.00  0.00     0.173 A 
ATOM     17  C   UNL     1     -75.789 -17.758  86.963  1.00  0.00     0.229 A 
ATOM     18  N   UNL     1     -75.224 -16.707  86.308  1.00  0.00    -0.218 NA
ATOM     19  N   UNL     1     -76.667 -18.564  86.307  1.00  0.00    -0.192 NA
ATOM     20  C   UNL     1     -75.537 -16.435  85.016  1.00  0.00     0.158 A 
ATOM     21  C   UNL     1     -76.444 -17.244  84.334  1.00  0.00     0.184 A 
ATOM     22  F   UNL     1     -76.703 -17.008  83.024  1.00  0.00    -0.201 F 
BRANCH  17  23
ATOM     23  N   UNL     1     -75.427 -18.063  88.319  1.00  0.00    -0.324 N 
ATOM     24  H   UNL     1     -75.447 -19.067  88.606  1.00  0.00     0.170 HD
BRANCH  23  25
ATOM     25  C   UNL     1     -74.910 -17.101  89.256  1.00  0.00     0.049 A 
ATOM     26  C   UNL     1     -75.284 -15.628  91.159  1.00  0.00     0.166 A 
ATOM     27  C   UNL     1     -75.757 -16.573  90.233  1.00  0.00     0.076 A 
ATOM     28  C   UNL     1     -73.950 -15.191  91.099  1.00  0.00     0.203 A 
ATOM     29  C   UNL     1     -73.090 -15.698  90.091  1.00  0.00     0.166 A 
ATOM     30  C   UNL     1     -73.589 -16.640  89.170  1.00  0.00     0.076 A 
BRANCH  26  31
ATOM     31  O   UNL     1     -76.111 -15.097  92.162  1.00  0.00    -0.493 OA
ATOM     32  C   UNL     1     -76.786 -15.869  93.150  1.00  0.00     0.278 C 
ENDBRANCH  26  31
BRANCH  28  33
ATOM     33  O   UNL     1     -73.550 -14.252  92.069  1.00  0.00    -0.490 OA
ATOM     34  C   UNL     1     -72.862 -14.526  93.284  1.00  0.00     0.278 C 
ENDBRANCH  28  33
BRANCH  29  35
ATOM     35  O   UNL     1     -71.760 -15.253  90.016  1.00  0.00    -0.493 OA
ATOM     36  C   UNL     1     -71.326 -14.080  89.334  1.00  0.00     0.278 C 
ENDBRANCH  29  35
ENDBRANCH  23  25
ENDBRANCH  17  23
ENDBRANCH  14  16
ENDBRANCH   1  14
BRANCH  11  37
ATOM     37  C   UNL     1     -79.762 -21.586  88.440  1.00  0.00     0.303 C 
BRANCH  37  38
ATOM     38  O   UNL     1     -79.138 -20.440  88.970  1.00  0.00    -0.265 OA
BRANCH  38  39
ATOM     39  P   UNL     1     -77.586 -20.874  89.532  1.00  0.00     0.471 P 
ATOM     40  O   UNL     1     -77.057 -19.796  90.454  1.00  0.00    -0.228 OA
BRANCH  39  41
ATOM     41  O   UNL     1     -76.517 -21.101  88.234  1.00  0.00    -0.303 OA
ATOM     42  H   UNL     1     -77.071 -21.475  87.502  1.00  0.00     0.223 HD
ENDBRANCH  39  41
BRANCH  39  43
ATOM     43  O   UNL     1     -77.710 -22.325  90.395  1.00  0.00    -0.303 OA
ATOM     44  H   UNL     1     -78.400 -22.846  89.911  1.00  0.00     0.223 HD
ENDBRANCH  39  43
ENDBRANCH  38  39
ENDBRANCH  37  38
ENDBRANCH  11  37
TORSDOF 12
ENDMDL
MODEL 7
REMARK VINA RESULT:    -8.960      5.650      9.071
REMARK INTER + INTRA:         -16.234
REMARK INTER:                 -14.350
REMARK INTRA:                  -1.884
REMARK UNBOUND:                -1.512
REMARK SMILES COc1cc(Nc2ncc(F)c(Nc3ccc4c(n3)N(COP(=O)(O)O)C(=O)C(C)(C)O4)n2)cc(OC)c1OC
REMARK SMILES IDX 14 1 19 2 18 3 17 4 32 5 29 6 30 7 31 8 27 9 28 10 20 11
REMARK SMILES IDX 16 12 15 13 13 14 12 16 7 17 8 18 33 19 9 20 10 21 11 22
REMARK SMILES IDX 6 23 5 25 3 26 4 27 38 28 35 29 34 30 2 31 1 32 39 33 40 34
REMARK SMILES IDX 36 35 37 36 21 37 22 38 23 39 24 40 25 41 26 43
REMARK H PARENT 13 15 6 24 25 42 26 44
REMARK Flexibility Score: inf
ROOT
ATOM      1  C   UNL     1     -79.229 -19.499  84.855  1.00  0.00     0.134 A 
ATOM      2  N   UNL     1     -79.450 -20.181  86.013  1.00  0.00    -0.209 NA
ATOM      3  C   UNL     1     -80.706 -20.444  86.473  1.00  0.00     0.182 A 
ATOM      4  C   UNL     1     -81.814 -19.996  85.748  1.00  0.00     0.164 A 
ATOM      5  O   UNL     1     -83.107 -20.271  86.201  1.00  0.00    -0.474 OA
ATOM      6  C   UNL     1     -83.402 -21.321  87.131  1.00  0.00     0.182 C 
ATOM      7  C   UNL     1     -84.660 -20.917  87.914  1.00  0.00     0.067 C 
ATOM      8  C   UNL     1     -83.669 -22.609  86.340  1.00  0.00     0.067 C 
ATOM      9  C   UNL     1     -82.239 -21.557  88.079  1.00  0.00     0.273 C 
ATOM     10  O   UNL     1     -82.434 -22.188  89.155  1.00  0.00    -0.270 OA
ATOM     11  N   UNL     1     -80.905 -21.147  87.713  1.00  0.00    -0.265 N 
ATOM     12  C   UNL     1     -81.619 -19.259  84.578  1.00  0.00     0.054 A 
ATOM     13  C   UNL     1     -80.324 -19.006  84.125  1.00  0.00     0.051 A 
ENDROOT
BRANCH   1  14
ATOM     14  N   UNL     1     -77.879 -19.245  84.442  1.00  0.00    -0.322 N 
ATOM     15  H   UNL     1     -77.501 -19.805  83.645  1.00  0.00     0.170 HD
BRANCH  14  16
ATOM     16  C   UNL     1     -77.001 -18.297  85.068  1.00  0.00     0.173 A 
ATOM     17  C   UNL     1     -75.742 -17.669  86.980  1.00  0.00     0.229 A 
ATOM     18  N   UNL     1     -75.241 -16.596  86.308  1.00  0.00    -0.218 NA
ATOM     19  N   UNL     1     -76.600 -18.515  86.349  1.00  0.00    -0.192 NA
ATOM     20  C   UNL     1     -75.597 -16.344  85.023  1.00  0.00     0.158 A 
ATOM     21  C   UNL     1     -76.484 -17.195  84.367  1.00  0.00     0.184 A 
ATOM     22  F   UNL     1     -76.785 -16.977  83.063  1.00  0.00    -0.201 F 
BRANCH  17  23
ATOM     23  N   UNL     1     -75.334 -17.951  88.327  1.00  0.00    -0.324 N 
ATOM     24  H   UNL     1     -75.301 -18.954  88.618  1.00  0.00     0.170 HD
BRANCH  23  25
ATOM     25  C   UNL     1     -74.838 -16.963  89.248  1.00  0.00     0.049 A 
ATOM     26  C   UNL     1     -73.021 -15.516  89.981  1.00  0.00     0.166 A 
ATOM     27  C   UNL     1     -73.537 -16.476  89.094  1.00  0.00     0.076 A 
ATOM     28  C   UNL     1     -73.808 -15.045  91.045  1.00  0.00     0.203 A 
ATOM     29  C   UNL     1     -75.119 -15.557  91.229  1.00  0.00     0.166 A 
ATOM     30  C   UNL     1     -75.612 -16.523  90.331  1.00  0.00     0.076 A 
BRANCH  26  31
ATOM     31  O   UNL     1     -71.724 -14.996  89.836  1.00  0.00    -0.493 OA
ATOM     32  C   UNL     1     -71.331 -14.063  88.835  1.00  0.00     0.278 C 
ENDBRANCH  26  31
BRANCH  28  33
ATOM     33  O   UNL     1     -73.223 -14.075  91.881  1.00  0.00    -0.490 OA
ATOM     34  C   UNL     1     -72.513 -14.314  93.091  1.00  0.00     0.278 C 
ENDBRANCH  28  33
BRANCH  29  35
ATOM     35  O   UNL     1     -75.904 -15.102  92.300  1.00  0.00    -0.493 OA
ATOM     36  C   UNL     1     -77.248 -15.500  92.556  1.00  0.00     0.278 C 
ENDBRANCH  29  35
ENDBRANCH  23  25
ENDBRANCH  17  23
ENDBRANCH  14  16
ENDBRANCH   1  14
BRANCH  11  37
ATOM     37  C   UNL     1     -79.752 -21.542  88.531  1.00  0.00     0.303 C 
BRANCH  37  38
ATOM     38  O   UNL     1     -79.043 -20.386  88.911  1.00  0.00    -0.265 OA
BRANCH  38  39
ATOM     39  P   UNL     1     -77.473 -20.843  89.398  1.00  0.00     0.471 P 
ATOM     40  O   UNL     1     -76.908 -19.801  90.341  1.00  0.00    -0.228 OA
BRANCH  39  41
ATOM     41  O   UNL     1     -76.453 -21.019  88.053  1.00  0.00    -0.303 OA
ATOM     42  H   UNL     1     -75.585 -20.630  88.332  1.00  0.00     0.223 HD
ENDBRANCH  39  41
BRANCH  39  43
ATOM     43  O   UNL     1     -77.568 -22.326  90.208  1.00  0.00    -0.303 OA
ATOM     44  H   UNL     1     -78.170 -22.879  89.646  1.00  0.00     0.223 HD
ENDBRANCH  39  43
ENDBRANCH  38  39
ENDBRANCH  37  38
ENDBRANCH  11  37
TORSDOF 12
ENDMDL
MODEL 8
REMARK VINA RESULT:    -8.854      5.774      9.789
REMARK INTER + INTRA:         -16.060
REMARK INTER:                 -14.518
REMARK INTRA:                  -1.541
REMARK UNBOUND:                -1.512
REMARK SMILES COc1cc(Nc2ncc(F)c(Nc3ccc4c(n3)N(COP(=O)(O)O)C(=O)C(C)(C)O4)n2)cc(OC)c1OC
REMARK SMILES IDX 14 1 19 2 18 3 17 4 32 5 29 6 30 7 31 8 27 9 28 10 20 11
REMARK SMILES IDX 16 12 15 13 13 14 12 16 7 17 8 18 33 19 9 20 10 21 11 22
REMARK SMILES IDX 6 23 5 25 3 26 4 27 38 28 35 29 34 30 2 31 1 32 39 33 40 34
REMARK SMILES IDX 36 35 37 36 21 37 22 38 23 39 24 40 25 41 26 43
REMARK H PARENT 13 15 6 24 25 42 26 44
REMARK Flexibility Score: inf
ROOT
ATOM      1  C   UNL     1     -78.078 -20.603  89.026  1.00  0.00     0.134 A 
ATOM      2  N   UNL     1     -78.831 -20.611  87.892  1.00  0.00    -0.209 NA
ATOM      3  C   UNL     1     -80.146 -20.970  87.895  1.00  0.00     0.182 A 
ATOM      4  C   UNL     1     -80.752 -21.356  89.095  1.00  0.00     0.164 A 
ATOM      5  O   UNL     1     -82.103 -21.714  89.114  1.00  0.00    -0.474 OA
ATOM      6  C   UNL     1     -83.027 -21.333  88.088  1.00  0.00     0.182 C 
ATOM      7  C   UNL     1     -84.130 -22.400  88.027  1.00  0.00     0.067 C 
ATOM      8  C   UNL     1     -83.634 -19.973  88.462  1.00  0.00     0.067 C 
ATOM      9  C   UNL     1     -82.333 -21.210  86.743  1.00  0.00     0.273 C 
ATOM     10  O   UNL     1     -83.023 -21.217  85.685  1.00  0.00    -0.270 OA
ATOM     11  N   UNL     1     -80.908 -20.992  86.675  1.00  0.00    -0.265 N 
ATOM     12  C   UNL     1     -79.995 -21.397  90.267  1.00  0.00     0.054 A 
ATOM     13  C   UNL     1     -78.652 -21.020  90.239  1.00  0.00     0.051 A 
ENDROOT
BRANCH   1  14
ATOM     14  N   UNL     1     -76.695 -20.228  88.942  1.00  0.00    -0.322 N 
ATOM     15  H   UNL     1     -75.997 -20.836  89.428  1.00  0.00     0.170 HD
BRANCH  14  16
ATOM     16  C   UNL     1     -76.208 -19.059  88.267  1.00  0.00     0.173 A 
ATOM     17  C   UNL     1     -75.742 -16.733  88.339  1.00  0.00     0.229 A 
ATOM     18  N   UNL     1     -75.200 -16.794  87.092  1.00  0.00    -0.218 NA
ATOM     19  N   UNL     1     -76.221 -17.867  88.919  1.00  0.00    -0.192 NA
ATOM     20  C   UNL     1     -75.149 -17.964  86.406  1.00  0.00     0.158 A 
ATOM     21  C   UNL     1     -75.646 -19.131  86.981  1.00  0.00     0.184 A 
ATOM     22  F   UNL     1     -75.533 -20.309  86.319  1.00  0.00    -0.201 F 
BRANCH  17  23
ATOM     23  N   UNL     1     -75.761 -15.500  89.075  1.00  0.00    -0.324 N 
ATOM     24  H   UNL     1     -76.562 -14.852  88.903  1.00  0.00     0.170 HD
BRANCH  23  25
ATOM     25  C   UNL     1     -74.834 -15.167  90.124  1.00  0.00     0.049 A 
ATOM     26  C   UNL     1     -74.283 -15.147  92.496  1.00  0.00     0.166 A 
ATOM     27  C   UNL     1     -75.163 -15.465  91.448  1.00  0.00     0.076 A 
ATOM     28  C   UNL     1     -73.062 -14.509  92.220  1.00  0.00     0.203 A 
ATOM     29  C   UNL     1     -72.732 -14.174  90.881  1.00  0.00     0.166 A 
ATOM     30  C   UNL     1     -73.634 -14.497  89.849  1.00  0.00     0.076 A 
BRANCH  26  31
ATOM     31  O   UNL     1     -74.582 -15.454  93.834  1.00  0.00    -0.493 OA
ATOM     32  C   UNL     1     -75.821 -15.992  94.284  1.00  0.00     0.278 C 
ENDBRANCH  26  31
BRANCH  28  33
ATOM     33  O   UNL     1     -72.230 -14.235  93.322  1.00  0.00    -0.490 OA
ATOM     34  C   UNL     1     -72.052 -12.975  93.959  1.00  0.00     0.278 C 
ENDBRANCH  28  33
BRANCH  29  35
ATOM     35  O   UNL     1     -71.521 -13.521  90.600  1.00  0.00    -0.493 OA
ATOM     36  C   UNL     1     -70.854 -13.540  89.342  1.00  0.00     0.278 C 
ENDBRANCH  29  35
ENDBRANCH  23  25
ENDBRANCH  17  23
ENDBRANCH  14  16
ENDBRANCH   1  14
BRANCH  11  37
ATOM     37  C   UNL     1     -80.261 -20.679  85.395  1.00  0.00     0.303 C 
BRANCH  37  38
ATOM     38  O   UNL     1     -80.452 -19.314  85.108  1.00  0.00    -0.265 OA
BRANCH  38  39
ATOM     39  P   UNL     1     -79.254 -18.815  84.000  1.00  0.00     0.471 P 
ATOM     40  O   UNL     1     -78.473 -20.019  83.516  1.00  0.00    -0.228 OA
BRANCH  39  41
ATOM     41  O   UNL     1     -78.202 -17.692  84.714  1.00  0.00    -0.303 OA
ATOM     42  H   UNL     1     -77.291 -18.003  84.479  1.00  0.00     0.223 HD
ENDBRANCH  39  41
BRANCH  39  43
ATOM     43  O   UNL     1     -80.014 -18.084  82.676  1.00  0.00    -0.303 OA
ATOM     44  H   UNL     1     -80.946 -17.928  82.977  1.00  0.00     0.223 HD
ENDBRANCH  39  43
ENDBRANCH  38  39
ENDBRANCH  37  38
ENDBRANCH  11  37
TORSDOF 12
ENDMDL
MODEL 9
REMARK VINA RESULT:    -8.811      5.777      9.783
REMARK INTER + INTRA:         -15.989
REMARK INTER:                 -14.410
REMARK INTRA:                  -1.579
REMARK UNBOUND:                -1.512
REMARK SMILES COc1cc(Nc2ncc(F)c(Nc3ccc4c(n3)N(COP(=O)(O)O)C(=O)C(C)(C)O4)n2)cc(OC)c1OC
REMARK SMILES IDX 14 1 19 2 18 3 17 4 32 5 29 6 30 7 31 8 27 9 28 10 20 11
REMARK SMILES IDX 16 12 15 13 13 14 12 16 7 17 8 18 33 19 9 20 10 21 11 22
REMARK SMILES IDX 6 23 5 25 3 26 4 27 38 28 35 29 34 30 2 31 1 32 39 33 40 34
REMARK SMILES IDX 36 35 37 36 21 37 22 38 23 39 24 40 25 41 26 43
REMARK H PARENT 13 15 6 24 25 42 26 44
REMARK Flexibility Score: inf
ROOT
ATOM      1  C   UNL     1     -78.018 -20.578  88.895  1.00  0.00     0.134 A 
ATOM      2  N   UNL     1     -78.799 -20.597  87.780  1.00  0.00    -0.209 NA
ATOM      3  C   UNL     1     -80.119 -20.933  87.822  1.00  0.00     0.182 A 
ATOM      4  C   UNL     1     -80.703 -21.282  89.044  1.00  0.00     0.164 A 
ATOM      5  O   UNL     1     -82.059 -21.615  89.103  1.00  0.00    -0.474 OA
ATOM      6  C   UNL     1     -83.001 -21.240  88.091  1.00  0.00     0.182 C 
ATOM      7  C   UNL     1     -84.123 -22.288  88.080  1.00  0.00     0.067 C 
ATOM      8  C   UNL     1     -83.575 -19.862  88.449  1.00  0.00     0.067 C 
ATOM      9  C   UNL     1     -82.337 -21.158  86.727  1.00  0.00     0.273 C 
ATOM     10  O   UNL     1     -83.052 -21.176  85.687  1.00  0.00    -0.270 OA
ATOM     11  N   UNL     1     -80.911 -20.968  86.621  1.00  0.00    -0.265 N 
ATOM     12  C   UNL     1     -79.919 -21.311  90.198  1.00  0.00     0.054 A 
ATOM     13  C   UNL     1     -78.571 -20.958  90.130  1.00  0.00     0.051 A 
ENDROOT
BRANCH   1  14
ATOM     14  N   UNL     1     -76.632 -20.230  88.771  1.00  0.00    -0.322 N 
ATOM     15  H   UNL     1     -75.930 -20.864  89.215  1.00  0.00     0.170 HD
BRANCH  14  16
ATOM     16  C   UNL     1     -76.144 -19.054  88.107  1.00  0.00     0.173 A 
ATOM     17  C   UNL     1     -75.713 -16.721  88.190  1.00  0.00     0.229 A 
ATOM     18  N   UNL     1     -75.139 -16.774  86.958  1.00  0.00    -0.218 NA
ATOM     19  N   UNL     1     -76.191 -17.861  88.758  1.00  0.00    -0.192 NA
ATOM     20  C   UNL     1     -75.053 -17.943  86.273  1.00  0.00     0.158 A 
ATOM     21  C   UNL     1     -75.549 -19.117  86.836  1.00  0.00     0.184 A 
ATOM     22  F   UNL     1     -75.401 -20.294  86.178  1.00  0.00    -0.201 F 
BRANCH  17  23
ATOM     23  N   UNL     1     -75.769 -15.488  88.925  1.00  0.00    -0.324 N 
ATOM     24  H   UNL     1     -76.559 -14.839  88.712  1.00  0.00     0.170 HD
BRANCH  23  25
ATOM     25  C   UNL     1     -74.898 -15.157  90.021  1.00  0.00     0.049 A 
ATOM     26  C   UNL     1     -72.794 -14.213  90.806  1.00  0.00     0.166 A 
ATOM     27  C   UNL     1     -73.670 -14.544  89.758  1.00  0.00     0.076 A 
ATOM     28  C   UNL     1     -73.141 -14.513  92.134  1.00  0.00     0.203 A 
ATOM     29  C   UNL     1     -74.371 -15.164  92.409  1.00  0.00     0.166 A 
ATOM     30  C   UNL     1     -75.230 -15.491  91.341  1.00  0.00     0.076 A 
BRANCH  26  31
ATOM     31  O   UNL     1     -71.563 -13.580  90.569  1.00  0.00    -0.493 OA
ATOM     32  C   UNL     1     -70.897 -13.546  89.312  1.00  0.00     0.278 C 
ENDBRANCH  26  31
BRANCH  28  33
ATOM     33  O   UNL     1     -72.215 -14.140  93.127  1.00  0.00    -0.490 OA
ATOM     34  C   UNL     1     -71.325 -15.003  93.826  1.00  0.00     0.278 C 
ENDBRANCH  28  33
BRANCH  29  35
ATOM     35  O   UNL     1     -74.716 -15.481  93.732  1.00  0.00    -0.493 OA
ATOM     36  C   UNL     1     -75.902 -16.163  94.128  1.00  0.00     0.278 C 
ENDBRANCH  29  35
ENDBRANCH  23  25
ENDBRANCH  17  23
ENDBRANCH  14  16
ENDBRANCH   1  14
BRANCH  11  37
ATOM     37  C   UNL     1     -80.289 -20.694  85.319  1.00  0.00     0.303 C 
BRANCH  37  38
ATOM     38  O   UNL     1     -80.473 -19.334  85.002  1.00  0.00    -0.265 OA
BRANCH  38  39
ATOM     39  P   UNL     1     -79.202 -18.834  83.980  1.00  0.00     0.471 P 
ATOM     40  O   UNL     1     -78.403 -20.040  83.531  1.00  0.00    -0.228 OA
BRANCH  39  41
ATOM     41  O   UNL     1     -78.187 -17.732  84.777  1.00  0.00    -0.303 OA
ATOM     42  H   UNL     1     -78.394 -17.838  85.741  1.00  0.00     0.223 HD
ENDBRANCH  39  41
BRANCH  39  43
ATOM     43  O   UNL     1     -79.867 -18.077  82.620  1.00  0.00    -0.303 OA
ATOM     44  H   UNL     1     -79.183 -18.189  81.912  1.00  0.00     0.223 HD
ENDBRANCH  39  43
ENDBRANCH  38  39
ENDBRANCH  37  38
ENDBRANCH  11  37
TORSDOF 12
ENDMDL
MODEL 10
REMARK VINA RESULT:    -8.753      5.887     10.396
REMARK INTER + INTRA:         -15.894
REMARK INTER:                 -13.996
REMARK INTRA:                  -1.898
REMARK UNBOUND:                -1.512
REMARK SMILES COc1cc(Nc2ncc(F)c(Nc3ccc4c(n3)N(COP(=O)(O)O)C(=O)C(C)(C)O4)n2)cc(OC)c1OC
REMARK SMILES IDX 14 1 19 2 18 3 17 4 32 5 29 6 30 7 31 8 27 9 28 10 20 11
REMARK SMILES IDX 16 12 15 13 13 14 12 16 7 17 8 18 33 19 9 20 10 21 11 22
REMARK SMILES IDX 6 23 5 25 3 26 4 27 38 28 35 29 34 30 2 31 1 32 39 33 40 34
REMARK SMILES IDX 36 35 37 36 21 37 22 38 23 39 24 40 25 41 26 43
REMARK H PARENT 13 15 6 24 25 42 26 44
REMARK Flexibility Score: inf
ROOT
ATOM      1  C   UNL     1     -74.884 -16.818  88.620  1.00  0.00     0.134 A 
ATOM      2  N   UNL     1     -74.774 -17.641  89.698  1.00  0.00    -0.209 NA
ATOM      3  C   UNL     1     -74.680 -17.163  90.971  1.00  0.00     0.182 A 
ATOM      4  C   UNL     1     -74.685 -15.782  91.191  1.00  0.00     0.164 A 
ATOM      5  O   UNL     1     -74.603 -15.279  92.492  1.00  0.00    -0.474 OA
ATOM      6  C   UNL     1     -74.922 -16.057  93.653  1.00  0.00     0.182 C 
ATOM      7  C   UNL     1     -74.096 -15.511  94.827  1.00  0.00     0.067 C 
ATOM      8  C   UNL     1     -76.420 -15.897  93.947  1.00  0.00     0.067 C 
ATOM      9  C   UNL     1     -74.617 -17.528  93.427  1.00  0.00     0.273 C 
ATOM     10  O   UNL     1     -74.513 -18.299  94.421  1.00  0.00    -0.270 OA
ATOM     11  N   UNL     1     -74.540 -18.060  92.088  1.00  0.00    -0.265 N 
ATOM     12  C   UNL     1     -74.755 -14.912  90.102  1.00  0.00     0.054 A 
ATOM     13  C   UNL     1     -74.855 -15.426  88.809  1.00  0.00     0.051 A 
ENDROOT
BRANCH   1  14
ATOM     14  N   UNL     1     -74.962 -17.394  87.307  1.00  0.00    -0.322 N 
ATOM     15  H   UNL     1     -74.102 -17.370  86.715  1.00  0.00     0.170 HD
BRANCH  14  16
ATOM     16  C   UNL     1     -76.149 -17.969  86.741  1.00  0.00     0.173 A 
ATOM     17  C   UNL     1     -77.768 -19.704  86.781  1.00  0.00     0.229 A 
ATOM     18  N   UNL     1     -78.468 -19.085  85.791  1.00  0.00    -0.218 NA
ATOM     19  N   UNL     1     -76.630 -19.132  87.257  1.00  0.00    -0.192 NA
ATOM     20  C   UNL     1     -78.039 -17.915  85.254  1.00  0.00     0.158 A 
ATOM     21  C   UNL     1     -76.868 -17.322  85.722  1.00  0.00     0.184 A 
ATOM     22  F   UNL     1     -76.479 -16.120  85.229  1.00  0.00    -0.201 F 
BRANCH  17  23
ATOM     23  N   UNL     1     -78.246 -20.923  87.370  1.00  0.00    -0.324 N 
ATOM     24  H   UNL     1     -77.535 -21.648  87.617  1.00  0.00     0.170 HD
BRANCH  23  25
ATOM     25  C   UNL     1     -79.610 -21.152  87.767  1.00  0.00     0.049 A 
ATOM     26  C   UNL     1     -81.942 -21.475  87.142  1.00  0.00     0.166 A 
ATOM     27  C   UNL     1     -80.600 -21.258  86.787  1.00  0.00     0.076 A 
ATOM     28  C   UNL     1     -82.304 -21.572  88.496  1.00  0.00     0.203 A 
ATOM     29  C   UNL     1     -81.311 -21.434  89.501  1.00  0.00     0.166 A 
ATOM     30  C   UNL     1     -79.974 -21.211  89.119  1.00  0.00     0.076 A 
BRANCH  26  31
ATOM     31  O   UNL     1     -82.952 -21.604  86.175  1.00  0.00    -0.493 OA
ATOM     32  C   UNL     1     -83.615 -22.822  85.853  1.00  0.00     0.278 C 
ENDBRANCH  26  31
BRANCH  28  33
ATOM     33  O   UNL     1     -83.666 -21.801  88.770  1.00  0.00    -0.490 OA
ATOM     34  C   UNL     1     -84.660 -20.814  89.025  1.00  0.00     0.278 C 
ENDBRANCH  28  33
BRANCH  29  35
ATOM     35  O   UNL     1     -81.670 -21.514  90.856  1.00  0.00    -0.493 OA
ATOM     36  C   UNL     1     -81.185 -22.489  91.774  1.00  0.00     0.278 C 
ENDBRANCH  29  35
ENDBRANCH  23  25
ENDBRANCH  17  23
ENDBRANCH  14  16
ENDBRANCH   1  14
BRANCH  11  37
ATOM     37  C   UNL     1     -74.441 -19.507  91.864  1.00  0.00     0.303 C 
BRANCH  37  38
ATOM     38  O   UNL     1     -75.664 -20.109  92.217  1.00  0.00    -0.265 OA
BRANCH  38  39
ATOM     39  P   UNL     1     -76.413 -20.696  90.801  1.00  0.00     0.471 P 
ATOM     40  O   UNL     1     -77.486 -19.727  90.351  1.00  0.00    -0.228 OA
BRANCH  39  41
ATOM     41  O   UNL     1     -77.092 -22.228  91.069  1.00  0.00    -0.303 OA
ATOM     42  H   UNL     1     -77.118 -22.332  92.055  1.00  0.00     0.223 HD
ENDBRANCH  39  41
BRANCH  39  43
ATOM     43  O   UNL     1     -75.243 -20.825  89.585  1.00  0.00    -0.303 OA
ATOM     44  H   UNL     1     -75.754 -20.764  88.738  1.00  0.00     0.223 HD
ENDBRANCH  39  43
ENDBRANCH  38  39
ENDBRANCH  37  38
ENDBRANCH  11  37
TORSDOF 12
ENDMDL
MODEL 11
REMARK VINA RESULT:    -8.702      5.313      9.968
REMARK INTER + INTRA:         -15.810
REMARK INTER:                 -14.620
REMARK INTRA:                  -1.191
REMARK UNBOUND:                -1.512
REMARK SMILES COc1cc(Nc2ncc(F)c(Nc3ccc4c(n3)N(COP(=O)(O)O)C(=O)C(C)(C)O4)n2)cc(OC)c1OC
REMARK SMILES IDX 14 1 19 2 18 3 17 4 32 5 29 6 30 7 31 8 27 9 28 10 20 11
REMARK SMILES IDX 16 12 15 13 13 14 12 16 7 17 8 18 33 19 9 20 10 21 11 22
REMARK SMILES IDX 6 23 5 25 3 26 4 27 38 28 35 29 34 30 2 31 1 32 39 33 40 34
REMARK SMILES IDX 36 35 37 36 21 37 22 38 23 39 24 40 25 41 26 43
REMARK H PARENT 13 15 6 24 25 42 26 44
REMARK Flexibility Score: inf
ROOT
ATOM      1  C   UNL     1     -76.274 -18.398  87.362  1.00  0.00     0.134 A 
ATOM      2  N   UNL     1     -76.005 -18.779  88.640  1.00  0.00    -0.209 NA
ATOM      3  C   UNL     1     -75.663 -17.884  89.609  1.00  0.00     0.182 A 
ATOM      4  C   UNL     1     -75.571 -16.525  89.292  1.00  0.00     0.164 A 
ATOM      5  O   UNL     1     -75.235 -15.596  90.279  1.00  0.00    -0.474 OA
ATOM      6  C   UNL     1     -75.370 -15.860  91.680  1.00  0.00     0.182 C 
ATOM      7  C   UNL     1     -74.324 -15.015  92.423  1.00  0.00     0.067 C 
ATOM      8  C   UNL     1     -76.783 -15.447  92.118  1.00  0.00     0.067 C 
ATOM      9  C   UNL     1     -75.172 -17.335  91.982  1.00  0.00     0.273 C 
ATOM     10  O   UNL     1     -74.922 -17.699  93.165  1.00  0.00    -0.270 OA
ATOM     11  N   UNL     1     -75.361 -18.322  90.946  1.00  0.00    -0.265 N 
ATOM     12  C   UNL     1     -75.801 -16.108  87.979  1.00  0.00     0.054 A 
ATOM     13  C   UNL     1     -76.155 -17.043  87.006  1.00  0.00     0.051 A 
ENDROOT
BRANCH   1  14
ATOM     14  N   UNL     1     -76.612 -19.399  86.391  1.00  0.00    -0.322 N 
ATOM     15  H   UNL     1     -76.113 -20.316  86.445  1.00  0.00     0.170 HD
BRANCH  14  16
ATOM     16  C   UNL     1     -77.563 -19.217  85.331  1.00  0.00     0.173 A 
ATOM     17  C   UNL     1     -79.823 -19.301  84.610  1.00  0.00     0.229 A 
ATOM     18  N   UNL     1     -79.464 -18.798  83.398  1.00  0.00    -0.218 NA
ATOM     19  N   UNL     1     -78.874 -19.487  85.567  1.00  0.00    -0.192 NA
ATOM     20  C   UNL     1     -78.170 -18.496  83.118  1.00  0.00     0.158 A 
ATOM     21  C   UNL     1     -77.185 -18.693  84.084  1.00  0.00     0.184 A 
ATOM     22  F   UNL     1     -75.905 -18.328  83.823  1.00  0.00    -0.201 F 
BRANCH  17  23
ATOM     23  N   UNL     1     -81.198 -19.584  84.913  1.00  0.00    -0.324 N 
ATOM     24  H   UNL     1     -81.889 -19.489  84.135  1.00  0.00     0.170 HD
BRANCH  23  25
ATOM     25  C   UNL     1     -81.659 -20.119  86.166  1.00  0.00     0.049 A 
ATOM     26  C   UNL     1     -81.173 -21.314  88.232  1.00  0.00     0.166 A 
ATOM     27  C   UNL     1     -80.754 -20.775  87.005  1.00  0.00     0.076 A 
ATOM     28  C   UNL     1     -82.519 -21.211  88.622  1.00  0.00     0.203 A 
ATOM     29  C   UNL     1     -83.453 -20.575  87.764  1.00  0.00     0.166 A 
ATOM     30  C   UNL     1     -83.008 -20.048  86.536  1.00  0.00     0.076 A 
BRANCH  26  31
ATOM     31  O   UNL     1     -80.279 -21.961  89.101  1.00  0.00    -0.493 OA
ATOM     32  C   UNL     1     -79.380 -21.296  89.982  1.00  0.00     0.278 C 
ENDBRANCH  26  31
BRANCH  28  33
ATOM     33  O   UNL     1     -82.858 -21.766  89.871  1.00  0.00    -0.490 OA
ATOM     34  C   UNL     1     -82.960 -21.072  91.110  1.00  0.00     0.278 C 
ENDBRANCH  28  33
BRANCH  29  35
ATOM     35  O   UNL     1     -84.802 -20.482  88.141  1.00  0.00    -0.493 OA
ATOM     36  C   UNL     1     -85.385 -19.382  88.833  1.00  0.00     0.278 C 
ENDBRANCH  29  35
ENDBRANCH  23  25
ENDBRANCH  17  23
ENDBRANCH  14  16
ENDBRANCH   1  14
BRANCH  11  37
ATOM     37  C   UNL     1     -75.363 -19.754  91.271  1.00  0.00     0.303 C 
BRANCH  37  38
ATOM     38  O   UNL     1     -76.650 -20.121  91.710  1.00  0.00    -0.265 OA
BRANCH  38  39
ATOM     39  P   UNL     1     -76.496 -21.068  93.122  1.00  0.00     0.471 P 
ATOM     40  O   UNL     1     -75.601 -22.257  92.844  1.00  0.00    -0.228 OA
BRANCH  39  41
ATOM     41  O   UNL     1     -78.016 -21.600  93.658  1.00  0.00    -0.303 OA
ATOM     42  H   UNL     1     -78.624 -21.468  92.886  1.00  0.00     0.223 HD
ENDBRANCH  39  41
BRANCH  39  43
ATOM     43  O   UNL     1     -75.793 -20.119  94.334  1.00  0.00    -0.303 OA
ATOM     44  H   UNL     1     -76.415 -20.193  95.103  1.00  0.00     0.223 HD
ENDBRANCH  39  43
ENDBRANCH  38  39
ENDBRANCH  37  38
ENDBRANCH  11  37
TORSDOF 12
ENDMDL
MODEL 12
REMARK VINA RESULT:    -8.665      6.289     11.242
REMARK INTER + INTRA:         -15.749
REMARK INTER:                 -13.671
REMARK INTRA:                  -2.079
REMARK UNBOUND:                -1.512
REMARK SMILES COc1cc(Nc2ncc(F)c(Nc3ccc4c(n3)N(COP(=O)(O)O)C(=O)C(C)(C)O4)n2)cc(OC)c1OC
REMARK SMILES IDX 14 1 19 2 18 3 17 4 32 5 29 6 30 7 31 8 27 9 28 10 20 11
REMARK SMILES IDX 16 12 15 13 13 14 12 16 7 17 8 18 33 19 9 20 10 21 11 22
REMARK SMILES IDX 6 23 5 25 3 26 4 27 38 28 35 29 34 30 2 31 1 32 39 33 40 34
REMARK SMILES IDX 36 35 37 36 21 37 22 38 23 39 24 40 25 41 26 43
REMARK H PARENT 13 15 6 24 25 42 26 44
REMARK Flexibility Score: inf
ROOT
ATOM      1  C   UNL     1     -74.809 -15.297  89.405  1.00  0.00     0.134 A 
ATOM      2  N   UNL     1     -74.908 -15.435  90.755  1.00  0.00    -0.209 NA
ATOM      3  C   UNL     1     -73.906 -15.060  91.600  1.00  0.00     0.182 A 
ATOM      4  C   UNL     1     -72.726 -14.524  91.075  1.00  0.00     0.164 A 
ATOM      5  O   UNL     1     -71.698 -14.123  91.931  1.00  0.00    -0.474 OA
ATOM      6  C   UNL     1     -71.902 -13.837  93.320  1.00  0.00     0.182 C 
ATOM      7  C   UNL     1     -70.588 -14.126  94.059  1.00  0.00     0.067 C 
ATOM      8  C   UNL     1     -72.267 -12.352  93.461  1.00  0.00     0.067 C 
ATOM      9  C   UNL     1     -73.030 -14.678  93.892  1.00  0.00     0.273 C 
ATOM     10  O   UNL     1     -73.130 -14.813  95.144  1.00  0.00    -0.270 OA
ATOM     11  N   UNL     1     -74.033 -15.242  93.022  1.00  0.00    -0.265 N 
ATOM     12  C   UNL     1     -72.579 -14.408  89.692  1.00  0.00     0.054 A 
ATOM     13  C   UNL     1     -73.621 -14.794  88.848  1.00  0.00     0.051 A 
ENDROOT
BRANCH   1  14
ATOM     14  N   UNL     1     -75.899 -15.729  88.577  1.00  0.00    -0.322 N 
ATOM     15  H   UNL     1     -76.696 -15.068  88.439  1.00  0.00     0.170 HD
BRANCH  14  16
ATOM     16  C   UNL     1     -75.985 -17.019  87.952  1.00  0.00     0.173 A 
ATOM     17  C   UNL     1     -76.664 -19.289  88.094  1.00  0.00     0.229 A 
ATOM     18  N   UNL     1     -76.286 -19.492  86.802  1.00  0.00    -0.218 NA
ATOM     19  N   UNL     1     -76.528 -18.054  88.647  1.00  0.00    -0.192 NA
ATOM     20  C   UNL     1     -75.753 -18.487  86.061  1.00  0.00     0.158 A 
ATOM     21  C   UNL     1     -75.596 -17.220  86.618  1.00  0.00     0.184 A 
ATOM     22  F   UNL     1     -75.126 -16.202  85.853  1.00  0.00    -0.201 F 
BRANCH  17  23
ATOM     23  N   UNL     1     -77.260 -20.346  88.862  1.00  0.00    -0.324 N 
ATOM     24  H   UNL     1     -76.671 -20.793  89.600  1.00  0.00     0.170 HD
BRANCH  23  25
ATOM     25  C   UNL     1     -78.644 -20.730  88.776  1.00  0.00     0.049 A 
ATOM     26  C   UNL     1     -80.644 -21.047  87.423  1.00  0.00     0.166 A 
ATOM     27  C   UNL     1     -79.292 -20.685  87.539  1.00  0.00     0.076 A 
ATOM     28  C   UNL     1     -81.366 -21.446  88.561  1.00  0.00     0.203 A 
ATOM     29  C   UNL     1     -80.726 -21.465  89.827  1.00  0.00     0.166 A 
ATOM     30  C   UNL     1     -79.371 -21.091  89.919  1.00  0.00     0.076 A 
BRANCH  26  31
ATOM     31  O   UNL     1     -81.312 -21.029  86.188  1.00  0.00    -0.493 OA
ATOM     32  C   UNL     1     -81.764 -19.851  85.528  1.00  0.00     0.278 C 
ENDBRANCH  26  31
BRANCH  28  33
ATOM     33  O   UNL     1     -82.712 -21.804  88.360  1.00  0.00    -0.490 OA
ATOM     34  C   UNL     1     -83.853 -20.984  88.587  1.00  0.00     0.278 C 
ENDBRANCH  28  33
BRANCH  29  35
ATOM     35  O   UNL     1     -81.446 -21.847  90.971  1.00  0.00    -0.493 OA
ATOM     36  C   UNL     1     -80.970 -22.732  91.980  1.00  0.00     0.278 C 
ENDBRANCH  29  35
ENDBRANCH  23  25
ENDBRANCH  17  23
ENDBRANCH  14  16
ENDBRANCH   1  14
BRANCH  11  37
ATOM     37  C   UNL     1     -75.227 -15.889  93.580  1.00  0.00     0.303 C 
BRANCH  37  38
ATOM     38  O   UNL     1     -74.890 -17.192  93.995  1.00  0.00    -0.265 OA
BRANCH  38  39
ATOM     39  P   UNL     1     -75.829 -18.308  93.110  1.00  0.00     0.471 P 
ATOM     40  O   UNL     1     -74.997 -19.531  92.786  1.00  0.00    -0.228 OA
BRANCH  39  41
ATOM     41  O   UNL     1     -76.407 -17.606  91.677  1.00  0.00    -0.303 OA
ATOM     42  H   UNL     1     -77.352 -17.375  91.864  1.00  0.00     0.223 HD
ENDBRANCH  39  41
BRANCH  39  43
ATOM     43  O   UNL     1     -77.150 -18.775  94.059  1.00  0.00    -0.303 OA
ATOM     44  H   UNL     1     -77.943 -18.456  93.558  1.00  0.00     0.223 HD
ENDBRANCH  39  43
ENDBRANCH  38  39
ENDBRANCH  37  38
ENDBRANCH  11  37
TORSDOF 12
ENDMDL
MODEL 13
REMARK VINA RESULT:    -8.642      5.653      8.765
REMARK INTER + INTRA:         -15.711
REMARK INTER:                 -12.957
REMARK INTRA:                  -2.754
REMARK UNBOUND:                -1.512
REMARK SMILES COc1cc(Nc2ncc(F)c(Nc3ccc4c(n3)N(COP(=O)(O)O)C(=O)C(C)(C)O4)n2)cc(OC)c1OC
REMARK SMILES IDX 14 1 19 2 18 3 17 4 32 5 29 6 30 7 31 8 27 9 28 10 20 11
REMARK SMILES IDX 16 12 15 13 13 14 12 16 7 17 8 18 33 19 9 20 10 21 11 22
REMARK SMILES IDX 6 23 5 25 3 26 4 27 38 28 35 29 34 30 2 31 1 32 39 33 40 34
REMARK SMILES IDX 36 35 37 36 21 37 22 38 23 39 24 40 25 41 26 43
REMARK H PARENT 13 15 6 24 25 42 26 44
REMARK Flexibility Score: inf
ROOT
ATOM      1  C   UNL     1     -78.417 -20.732  89.225  1.00  0.00     0.134 A 
ATOM      2  N   UNL     1     -79.120 -20.766  88.060  1.00  0.00    -0.209 NA
ATOM      3  C   UNL     1     -80.440 -21.105  88.017  1.00  0.00     0.182 A 
ATOM      4  C   UNL     1     -81.104 -21.443  89.200  1.00  0.00     0.164 A 
ATOM      5  O   UNL     1     -82.459 -21.780  89.171  1.00  0.00    -0.474 OA
ATOM      6  C   UNL     1     -83.332 -21.418  88.094  1.00  0.00     0.182 C 
ATOM      7  C   UNL     1     -84.449 -22.470  88.019  1.00  0.00     0.067 C 
ATOM      8  C   UNL     1     -83.933 -20.038  88.398  1.00  0.00     0.067 C 
ATOM      9  C   UNL     1     -82.578 -21.349  86.778  1.00  0.00     0.273 C 
ATOM     10  O   UNL     1     -83.222 -21.380  85.692  1.00  0.00    -0.270 OA
ATOM     11  N   UNL     1     -81.148 -21.155  86.766  1.00  0.00    -0.265 N 
ATOM     12  C   UNL     1     -80.399 -21.457  90.405  1.00  0.00     0.054 A 
ATOM     13  C   UNL     1     -79.050 -21.101  90.424  1.00  0.00     0.051 A 
ENDROOT
BRANCH   1  14
ATOM     14  N   UNL     1     -77.026 -20.381  89.191  1.00  0.00    -0.322 N 
ATOM     15  H   UNL     1     -76.329 -21.140  89.366  1.00  0.00     0.170 HD
BRANCH  14  16
ATOM     16  C   UNL     1     -76.527 -19.054  88.966  1.00  0.00     0.173 A 
ATOM     17  C   UNL     1     -76.181 -17.257  87.454  1.00  0.00     0.229 A 
ATOM     18  N   UNL     1     -75.695 -16.488  88.466  1.00  0.00    -0.218 NA
ATOM     19  N   UNL     1     -76.607 -18.522  87.717  1.00  0.00    -0.192 NA
ATOM     20  C   UNL     1     -75.609 -16.967  89.733  1.00  0.00     0.158 A 
ATOM     21  C   UNL     1     -76.031 -18.264  90.016  1.00  0.00     0.184 A 
ATOM     22  F   UNL     1     -76.006 -18.717  91.295  1.00  0.00    -0.201 F 
BRANCH  17  23
ATOM     23  N   UNL     1     -76.303 -16.732  86.123  1.00  0.00    -0.324 N 
ATOM     24  H   UNL     1     -77.150 -16.159  85.909  1.00  0.00     0.170 HD
BRANCH  23  25
ATOM     25  C   UNL     1     -75.278 -16.825  85.117  1.00  0.00     0.049 A 
ATOM     26  C   UNL     1     -74.294 -18.029  83.243  1.00  0.00     0.166 A 
ATOM     27  C   UNL     1     -75.284 -17.906  84.232  1.00  0.00     0.076 A 
ATOM     28  C   UNL     1     -73.274 -17.068  83.145  1.00  0.00     0.203 A 
ATOM     29  C   UNL     1     -73.241 -15.983  84.059  1.00  0.00     0.166 A 
ATOM     30  C   UNL     1     -74.241 -15.885  85.046  1.00  0.00     0.076 A 
BRANCH  26  31
ATOM     31  O   UNL     1     -74.288 -19.096  82.329  1.00  0.00    -0.493 OA
ATOM     32  C   UNL     1     -73.707 -20.372  82.576  1.00  0.00     0.278 C 
ENDBRANCH  26  31
BRANCH  28  33
ATOM     33  O   UNL     1     -72.327 -17.255  82.120  1.00  0.00    -0.490 OA
ATOM     34  C   UNL     1     -72.363 -16.687  80.815  1.00  0.00     0.278 C 
ENDBRANCH  28  33
BRANCH  29  35
ATOM     35  O   UNL     1     -72.216 -15.027  83.976  1.00  0.00    -0.493 OA
ATOM     36  C   UNL     1     -72.264 -13.841  83.190  1.00  0.00     0.278 C 
ENDBRANCH  29  35
ENDBRANCH  23  25
ENDBRANCH  17  23
ENDBRANCH  14  16
ENDBRANCH   1  14
BRANCH  11  37
ATOM     37  C   UNL     1     -80.441 -20.893  85.506  1.00  0.00     0.303 C 
BRANCH  37  38
ATOM     38  O   UNL     1     -80.459 -19.508  85.252  1.00  0.00    -0.265 OA
BRANCH  38  39
ATOM     39  P   UNL     1     -78.947 -19.052  84.604  1.00  0.00     0.471 P 
ATOM     40  O   UNL     1     -78.789 -17.549  84.687  1.00  0.00    -0.228 OA
BRANCH  39  41
ATOM     41  O   UNL     1     -78.805 -19.561  82.991  1.00  0.00    -0.303 OA
ATOM     42  H   UNL     1     -77.858 -19.395  82.749  1.00  0.00     0.223 HD
ENDBRANCH  39  41
BRANCH  39  43
ATOM     43  O   UNL     1     -77.725 -19.786  85.516  1.00  0.00    -0.303 OA
ATOM     44  H   UNL     1     -77.607 -19.192  86.301  1.00  0.00     0.223 HD
ENDBRANCH  39  43
ENDBRANCH  38  39
ENDBRANCH  37  38
ENDBRANCH  11  37
TORSDOF 12
ENDMDL
MODEL 14
REMARK VINA RESULT:    -8.623      8.071     12.360
REMARK INTER + INTRA:         -15.680
REMARK INTER:                 -14.107
REMARK INTRA:                  -1.572
REMARK UNBOUND:                -1.512
REMARK SMILES COc1cc(Nc2ncc(F)c(Nc3ccc4c(n3)N(COP(=O)(O)O)C(=O)C(C)(C)O4)n2)cc(OC)c1OC
REMARK SMILES IDX 14 1 19 2 18 3 17 4 32 5 29 6 30 7 31 8 27 9 28 10 20 11
REMARK SMILES IDX 16 12 15 13 13 14 12 16 7 17 8 18 33 19 9 20 10 21 11 22
REMARK SMILES IDX 6 23 5 25 3 26 4 27 38 28 35 29 34 30 2 31 1 32 39 33 40 34
REMARK SMILES IDX 36 35 37 36 21 37 22 38 23 39 24 40 25 41 26 43
REMARK H PARENT 13 15 6 24 25 42 26 44
REMARK Flexibility Score: inf
ROOT
ATOM      1  C   UNL     1     -75.004 -15.220  91.049  1.00  0.00     0.134 A 
ATOM      2  N   UNL     1     -74.001 -14.737  91.833  1.00  0.00    -0.209 NA
ATOM      3  C   UNL     1     -73.924 -15.010  93.166  1.00  0.00     0.182 A 
ATOM      4  C   UNL     1     -74.907 -15.803  93.766  1.00  0.00     0.164 A 
ATOM      5  O   UNL     1     -74.832 -16.102  95.128  1.00  0.00    -0.474 OA
ATOM      6  C   UNL     1     -73.619 -16.003  95.885  1.00  0.00     0.182 C 
ATOM      7  C   UNL     1     -73.996 -15.704  97.343  1.00  0.00     0.067 C 
ATOM      8  C   UNL     1     -72.883 -17.348  95.800  1.00  0.00     0.067 C 
ATOM      9  C   UNL     1     -72.717 -14.912  95.334  1.00  0.00     0.273 C 
ATOM     10  O   UNL     1     -71.784 -14.457  96.053  1.00  0.00    -0.270 OA
ATOM     11  N   UNL     1     -72.863 -14.464  93.971  1.00  0.00    -0.265 N 
ATOM     12  C   UNL     1     -75.970 -16.279  92.996  1.00  0.00     0.054 A 
ATOM     13  C   UNL     1     -76.025 -15.990  91.633  1.00  0.00     0.051 A 
ENDROOT
BRANCH   1  14
ATOM     14  N   UNL     1     -75.029 -14.877  89.656  1.00  0.00    -0.322 N 
ATOM     15  H   UNL     1     -75.298 -13.900  89.401  1.00  0.00     0.170 HD
BRANCH  14  16
ATOM     16  C   UNL     1     -74.742 -15.792  88.588  1.00  0.00     0.173 A 
ATOM     17  C   UNL     1     -75.466 -16.857  86.594  1.00  0.00     0.229 A 
ATOM     18  N   UNL     1     -74.246 -17.443  86.454  1.00  0.00    -0.218 NA
ATOM     19  N   UNL     1     -75.695 -16.026  87.646  1.00  0.00    -0.192 NA
ATOM     20  C   UNL     1     -73.257 -17.229  87.358  1.00  0.00     0.158 A 
ATOM     21  C   UNL     1     -73.479 -16.390  88.447  1.00  0.00     0.184 A 
ATOM     22  F   UNL     1     -72.468 -16.126  89.312  1.00  0.00    -0.201 F 
BRANCH  17  23
ATOM     23  N   UNL     1     -76.497 -17.059  85.615  1.00  0.00    -0.324 N 
ATOM     24  H   UNL     1     -76.436 -16.503  84.732  1.00  0.00     0.170 HD
BRANCH  23  25
ATOM     25  C   UNL     1     -77.519 -18.067  85.709  1.00  0.00     0.049 A 
ATOM     26  C   UNL     1     -78.499 -19.942  86.916  1.00  0.00     0.166 A 
ATOM     27  C   UNL     1     -77.519 -18.943  86.798  1.00  0.00     0.076 A 
ATOM     28  C   UNL     1     -79.486 -20.080  85.926  1.00  0.00     0.203 A 
ATOM     29  C   UNL     1     -79.478 -19.215  84.800  1.00  0.00     0.166 A 
ATOM     30  C   UNL     1     -78.480 -18.225  84.702  1.00  0.00     0.076 A 
BRANCH  26  31
ATOM     31  O   UNL     1     -78.531 -20.822  88.010  1.00  0.00    -0.493 OA
ATOM     32  C   UNL     1     -77.414 -21.567  88.484  1.00  0.00     0.278 C 
ENDBRANCH  26  31
BRANCH  28  33
ATOM     33  O   UNL     1     -80.440 -21.097  86.123  1.00  0.00    -0.490 OA
ATOM     34  C   UNL     1     -81.727 -20.952  86.712  1.00  0.00     0.278 C 
ENDBRANCH  28  33
BRANCH  29  35
ATOM     35  O   UNL     1     -80.452 -19.358  83.800  1.00  0.00    -0.493 OA
ATOM     36  C   UNL     1     -80.410 -18.731  82.521  1.00  0.00     0.278 C 
ENDBRANCH  29  35
ENDBRANCH  23  25
ENDBRANCH  17  23
ENDBRANCH  14  16
ENDBRANCH   1  14
BRANCH  11  37
ATOM     37  C   UNL     1     -71.877 -13.555  93.374  1.00  0.00     0.303 C 
BRANCH  37  38
ATOM     38  O   UNL     1     -72.482 -12.302  93.156  1.00  0.00    -0.265 OA
BRANCH  38  39
ATOM     39  P   UNL     1     -71.700 -11.141  94.131  1.00  0.00     0.471 P 
ATOM     40  O   UNL     1     -70.996 -10.128  93.253  1.00  0.00    -0.228 OA
BRANCH  39  41
ATOM     41  O   UNL     1     -70.583 -11.881  95.172  1.00  0.00    -0.303 OA
ATOM     42  H   UNL     1     -70.841 -11.588  96.082  1.00  0.00     0.223 HD
ENDBRANCH  39  41
BRANCH  39  43
ATOM     43  O   UNL     1     -72.867 -10.344  95.063  1.00  0.00    -0.303 OA
ATOM     44  H   UNL     1     -73.051  -9.504  94.570  1.00  0.00     0.223 HD
ENDBRANCH  39  43
ENDBRANCH  38  39
ENDBRANCH  37  38
ENDBRANCH  11  37
TORSDOF 12
ENDMDL
MODEL 15
REMARK VINA RESULT:    -8.608      6.841     11.465
REMARK INTER + INTRA:         -15.655
REMARK INTER:                 -13.565
REMARK INTRA:                  -2.090
REMARK UNBOUND:                -1.512
REMARK SMILES COc1cc(Nc2ncc(F)c(Nc3ccc4c(n3)N(COP(=O)(O)O)C(=O)C(C)(C)O4)n2)cc(OC)c1OC
REMARK SMILES IDX 14 1 19 2 18 3 17 4 32 5 29 6 30 7 31 8 27 9 28 10 20 11
REMARK SMILES IDX 16 12 15 13 13 14 12 16 7 17 8 18 33 19 9 20 10 21 11 22
REMARK SMILES IDX 6 23 5 25 3 26 4 27 38 28 35 29 34 30 2 31 1 32 39 33 40 34
REMARK SMILES IDX 36 35 37 36 21 37 22 38 23 39 24 40 25 41 26 43
REMARK H PARENT 13 15 6 24 25 42 26 44
REMARK Flexibility Score: inf
ROOT
ATOM      1  C   UNL     1     -74.392 -14.864  90.629  1.00  0.00     0.134 A 
ATOM      2  N   UNL     1     -74.641 -15.318  91.888  1.00  0.00    -0.209 NA
ATOM      3  C   UNL     1     -73.792 -15.080  92.928  1.00  0.00     0.182 A 
ATOM      4  C   UNL     1     -72.616 -14.356  92.706  1.00  0.00     0.164 A 
ATOM      5  O   UNL     1     -71.745 -14.094  93.766  1.00  0.00    -0.474 OA
ATOM      6  C   UNL     1     -72.144 -14.152  95.140  1.00  0.00     0.182 C 
ATOM      7  C   UNL     1     -70.908 -14.512  95.976  1.00  0.00     0.067 C 
ATOM      8  C   UNL     1     -72.670 -12.770  95.552  1.00  0.00     0.067 C 
ATOM      9  C   UNL     1     -73.244 -15.180  95.348  1.00  0.00     0.273 C 
ATOM     10  O   UNL     1     -73.482 -15.607  96.512  1.00  0.00    -0.270 OA
ATOM     11  N   UNL     1     -74.072 -15.595  94.242  1.00  0.00    -0.265 N 
ATOM     12  C   UNL     1     -72.314 -13.913  91.417  1.00  0.00     0.054 A 
ATOM     13  C   UNL     1     -73.201 -14.164  90.371  1.00  0.00     0.051 A 
ENDROOT
BRANCH   1  14
ATOM     14  N   UNL     1     -75.324 -15.167  89.581  1.00  0.00    -0.322 N 
ATOM     15  H   UNL     1     -76.109 -14.497  89.420  1.00  0.00     0.170 HD
BRANCH  14  16
ATOM     16  C   UNL     1     -75.272 -16.344  88.760  1.00  0.00     0.173 A 
ATOM     17  C   UNL     1     -76.030 -18.556  88.354  1.00  0.00     0.229 A 
ATOM     18  N   UNL     1     -75.315 -18.598  87.196  1.00  0.00    -0.218 NA
ATOM     19  N   UNL     1     -76.016 -17.427  89.111  1.00  0.00    -0.192 NA
ATOM     20  C   UNL     1     -74.569 -17.538  86.794  1.00  0.00     0.158 A 
ATOM     21  C   UNL     1     -74.535 -16.378  87.565  1.00  0.00     0.184 A 
ATOM     22  F   UNL     1     -73.842 -15.298  87.126  1.00  0.00    -0.201 F 
BRANCH  17  23
ATOM     23  N   UNL     1     -76.846 -19.667  88.756  1.00  0.00    -0.324 N 
ATOM     24  H   UNL     1     -76.573 -20.171  89.629  1.00  0.00     0.170 HD
BRANCH  23  25
ATOM     25  C   UNL     1     -78.081 -20.040  88.118  1.00  0.00     0.049 A 
ATOM     26  C   UNL     1     -80.236 -21.168  88.237  1.00  0.00     0.166 A 
ATOM     27  C   UNL     1     -79.023 -20.783  88.833  1.00  0.00     0.076 A 
ATOM     28  C   UNL     1     -80.507 -20.819  86.904  1.00  0.00     0.203 A 
ATOM     29  C   UNL     1     -79.543 -20.090  86.159  1.00  0.00     0.166 A 
ATOM     30  C   UNL     1     -78.332 -19.721  86.777  1.00  0.00     0.076 A 
BRANCH  26  31
ATOM     31  O   UNL     1     -81.207 -21.900  88.941  1.00  0.00    -0.493 OA
ATOM     32  C   UNL     1     -81.944 -21.408  90.054  1.00  0.00     0.278 C 
ENDBRANCH  26  31
BRANCH  28  33
ATOM     33  O   UNL     1     -81.749 -21.230  86.383  1.00  0.00    -0.490 OA
ATOM     34  C   UNL     1     -82.944 -20.460  86.327  1.00  0.00     0.278 C 
ENDBRANCH  28  33
BRANCH  29  35
ATOM     35  O   UNL     1     -79.801 -19.751  84.821  1.00  0.00    -0.493 OA
ATOM     36  C   UNL     1     -79.362 -18.557  84.180  1.00  0.00     0.278 C 
ENDBRANCH  29  35
ENDBRANCH  23  25
ENDBRANCH  17  23
ENDBRANCH  14  16
ENDBRANCH   1  14
BRANCH  11  37
ATOM     37  C   UNL     1     -75.255 -16.435  94.469  1.00  0.00     0.303 C 
BRANCH  37  38
ATOM     38  O   UNL     1     -74.871 -17.789  94.417  1.00  0.00    -0.265 OA
BRANCH  38  39
ATOM     39  P   UNL     1     -75.887 -18.603  93.315  1.00  0.00     0.471 P 
ATOM     40  O   UNL     1     -75.158 -19.798  92.735  1.00  0.00    -0.228 OA
BRANCH  39  41
ATOM     41  O   UNL     1     -76.378 -17.564  92.067  1.00  0.00    -0.303 OA
ATOM     42  H   UNL     1     -76.318 -16.652  92.450  1.00  0.00     0.223 HD
ENDBRANCH  39  41
BRANCH  39  43
ATOM     43  O   UNL     1     -77.259 -19.146  94.145  1.00  0.00    -0.303 OA
ATOM     44  H   UNL     1     -77.207 -20.134  94.096  1.00  0.00     0.223 HD
ENDBRANCH  39  43
ENDBRANCH  38  39
ENDBRANCH  37  38
ENDBRANCH  11  37
TORSDOF 12
ENDMDL
