MODEL 1
REMARK VINA RESULT:    -8.022      0.000      0.000
REMARK INTER + INTRA:         -13.488
REMARK INTER:                 -12.243
REMARK INTRA:                  -1.245
REMARK UNBOUND:                -1.245
REMARK SMILES COc1cc(OC)cc(N(CCNC(C)C)c2ccc3ncc(-c4cnn(C)c4)nc3c2)c1
REMARK SMILES IDX 11 1 10 2 9 3 3 4 33 5 4 6 5 7 8 8 2 9 1 10 6 11 7 12 17 13
REMARK SMILES IDX 18 14 32 15 19 16 31 17 20 18 30 19 21 20 23 21 22 22 24 23
REMARK SMILES IDX 29 24 25 25 27 26 26 27 28 28 12 29 13 30 14 32 15 33 16 34
REMARK H PARENT 13 31
REMARK Flexibility Score: inf
ROOT
ATOM      1  C   UNL     1      29.149  17.602  31.220  1.00  0.00     0.138 C 
ENDROOT
BRANCH   1   2
ATOM      2  N   UNL     1      27.883  17.889  31.910  1.00  0.00    -0.340 N 
BRANCH   2   3
ATOM      3  C   UNL     1      27.183  16.850  32.623  1.00  0.00     0.049 A 
ATOM      4  C   UNL     1      27.072  15.225  34.442  1.00  0.00     0.124 A 
ATOM      5  C   UNL     1      27.761  16.236  33.747  1.00  0.00     0.073 A 
ATOM      6  C   UNL     1      25.802  14.834  34.004  1.00  0.00     0.093 A 
ATOM      7  C   UNL     1      25.209  15.445  32.884  1.00  0.00     0.124 A 
ATOM      8  C   UNL     1      25.902  16.453  32.207  1.00  0.00     0.073 A 
BRANCH   4   9
ATOM      9  O   UNL     1      27.611  14.587  35.570  1.00  0.00    -0.497 OA
ATOM     10  C   UNL     1      26.843  14.115  36.673  1.00  0.00     0.278 C 
ENDBRANCH   4   9
BRANCH   7  11
ATOM     11  O   UNL     1      23.940  15.079  32.411  1.00  0.00    -0.497 OA
ATOM     12  C   UNL     1      23.686  14.560  31.110  1.00  0.00     0.278 C 
ENDBRANCH   7  11
ENDBRANCH   2   3
BRANCH   2  13
ATOM     13  C   UNL     1      27.503  19.254  32.148  1.00  0.00     0.043 A 
ATOM     14  C   UNL     1      27.613  20.205  31.121  1.00  0.00     0.028 A 
ATOM     15  C   UNL     1      27.013  19.637  33.404  1.00  0.00     0.056 A 
ATOM     16  C   UNL     1      27.239  21.534  31.346  1.00  0.00     0.033 A 
ATOM     17  C   UNL     1      26.636  20.964  33.632  1.00  0.00     0.091 A 
ATOM     18  C   UNL     1      26.750  21.916  32.600  1.00  0.00     0.089 A 
ATOM     19  N   UNL     1      26.158  21.352  34.843  1.00  0.00    -0.244 NA
ATOM     20  N   UNL     1      26.378  23.201  32.837  1.00  0.00    -0.252 NA
ATOM     21  C   UNL     1      25.785  22.639  35.084  1.00  0.00     0.092 A 
ATOM     22  C   UNL     1      25.901  23.584  34.050  1.00  0.00     0.140 A 
BRANCH  21  23
ATOM     23  C   UNL     1      25.265  23.005  36.418  1.00  0.00     0.040 A 
ATOM     24  C   UNL     1      23.967  23.318  36.780  1.00  0.00     0.118 A 
ATOM     25  C   UNL     1      25.997  23.107  37.589  1.00  0.00     0.145 A 
ATOM     26  N   UNL     1      23.957  23.573  38.101  1.00  0.00    -0.275 N 
ATOM     27  N   UNL     1      25.178  23.463  38.598  1.00  0.00    -0.181 NA
ATOM     28  C   UNL     1      22.803  24.004  38.878  1.00  0.00     0.173 C 
ENDBRANCH  21  23
ENDBRANCH   2  13
ENDBRANCH   1   2
BRANCH   1  29
ATOM     29  C   UNL     1      28.907  16.946  29.856  1.00  0.00     0.103 C 
BRANCH  29  30
ATOM     30  N   UNL     1      29.157  17.915  28.779  1.00  0.00    -0.313 NA
ATOM     31  H   UNL     1      29.182  17.368  27.885  1.00  0.00     0.123 HD
BRANCH  30  32
ATOM     32  C   UNL     1      30.454  18.600  28.948  1.00  0.00     0.047 C 
ATOM     33  C   UNL     1      31.453  18.105  27.890  1.00  0.00     0.024 C 
ATOM     34  C   UNL     1      30.281  20.120  28.806  1.00  0.00     0.024 C 
ENDBRANCH  30  32
ENDBRANCH  29  30
ENDBRANCH   1  29
TORSDOF 9
ENDMDL
MODEL 2
REMARK VINA RESULT:    -7.841     13.808     15.575
REMARK INTER + INTRA:         -13.212
REMARK INTER:                 -11.867
REMARK INTRA:                  -1.345
REMARK UNBOUND:                -1.245
REMARK SMILES COc1cc(OC)cc(N(CCNC(C)C)c2ccc3ncc(-c4cnn(C)c4)nc3c2)c1
REMARK SMILES IDX 11 1 10 2 9 3 3 4 33 5 4 6 5 7 8 8 2 9 1 10 6 11 7 12 17 13
REMARK SMILES IDX 18 14 32 15 19 16 31 17 20 18 30 19 21 20 23 21 22 22 24 23
REMARK SMILES IDX 29 24 25 25 27 26 26 27 28 28 12 29 13 30 14 32 15 33 16 34
REMARK H PARENT 13 31
REMARK Flexibility Score: inf
ROOT
ATOM      1  C   UNL     1      13.946  20.426  36.872  1.00  0.00     0.138 C 
ENDROOT
BRANCH   1   2
ATOM      2  N   UNL     1      13.069  20.434  38.052  1.00  0.00    -0.340 N 
BRANCH   2   3
ATOM      3  C   UNL     1      12.787  19.214  38.765  1.00  0.00     0.049 A 
ATOM      4  C   UNL     1      12.321  16.817  38.775  1.00  0.00     0.124 A 
ATOM      5  C   UNL     1      12.593  18.007  38.074  1.00  0.00     0.073 A 
ATOM      6  C   UNL     1      12.249  16.845  40.172  1.00  0.00     0.093 A 
ATOM      7  C   UNL     1      12.449  18.046  40.877  1.00  0.00     0.124 A 
ATOM      8  C   UNL     1      12.723  19.219  40.168  1.00  0.00     0.073 A 
BRANCH   4   9
ATOM      9  O   UNL     1      12.122  15.590  38.124  1.00  0.00    -0.497 OA
ATOM     10  C   UNL     1      10.866  15.134  37.631  1.00  0.00     0.278 C 
ENDBRANCH   4   9
BRANCH   7  11
ATOM     11  O   UNL     1      12.380  18.117  42.277  1.00  0.00    -0.497 OA
ATOM     12  C   UNL     1      11.756  17.139  43.101  1.00  0.00     0.278 C 
ENDBRANCH   7  11
ENDBRANCH   2   3
BRANCH   2  13
ATOM     13  C   UNL     1      12.749  21.684  38.684  1.00  0.00     0.043 A 
ATOM     14  C   UNL     1      11.415  22.003  38.980  1.00  0.00     0.028 A 
ATOM     15  C   UNL     1      13.772  22.584  39.015  1.00  0.00     0.056 A 
ATOM     16  C   UNL     1      11.100  23.216  39.601  1.00  0.00     0.033 A 
ATOM     17  C   UNL     1      13.460  23.797  39.638  1.00  0.00     0.091 A 
ATOM     18  C   UNL     1      12.120  24.114  39.931  1.00  0.00     0.089 A 
ATOM     19  N   UNL     1      14.439  24.680  39.966  1.00  0.00    -0.244 NA
ATOM     20  N   UNL     1      11.834  25.296  40.537  1.00  0.00    -0.252 NA
ATOM     21  C   UNL     1      14.157  25.865  40.574  1.00  0.00     0.092 A 
ATOM     22  C   UNL     1      12.817  26.176  40.864  1.00  0.00     0.140 A 
BRANCH  21  23
ATOM     23  C   UNL     1      15.260  26.785  40.916  1.00  0.00     0.040 A 
ATOM     24  C   UNL     1      16.598  26.690  40.577  1.00  0.00     0.118 A 
ATOM     25  C   UNL     1      15.163  27.949  41.662  1.00  0.00     0.145 A 
ATOM     26  N   UNL     1      17.232  27.758  41.093  1.00  0.00    -0.275 N 
ATOM     27  N   UNL     1      16.380  28.518  41.761  1.00  0.00    -0.181 NA
ATOM     28  C   UNL     1      18.664  28.016  41.025  1.00  0.00     0.173 C 
ENDBRANCH  21  23
ENDBRANCH   2  13
ENDBRANCH   1   2
BRANCH   1  29
ATOM     29  C   UNL     1      13.218  20.948  35.628  1.00  0.00     0.103 C 
BRANCH  29  30
ATOM     30  N   UNL     1      12.718  19.822  34.827  1.00  0.00    -0.313 NA
ATOM     31  H   UNL     1      13.031  19.993  33.842  1.00  0.00     0.123 HD
BRANCH  30  32
ATOM     32  C   UNL     1      11.242  19.749  34.845  1.00  0.00     0.047 C 
ATOM     33  C   UNL     1      10.653  21.114  35.234  1.00  0.00     0.024 C 
ATOM     34  C   UNL     1      10.707  19.343  33.463  1.00  0.00     0.024 C 
ENDBRANCH  30  32
ENDBRANCH  29  30
ENDBRANCH   1  29
TORSDOF 9
ENDMDL
MODEL 3
REMARK VINA RESULT:    -7.809      1.298      2.269
REMARK INTER + INTRA:         -13.163
REMARK INTER:                 -12.105
REMARK INTRA:                  -1.058
REMARK UNBOUND:                -1.245
REMARK SMILES COc1cc(OC)cc(N(CCNC(C)C)c2ccc3ncc(-c4cnn(C)c4)nc3c2)c1
REMARK SMILES IDX 11 1 10 2 9 3 3 4 33 5 4 6 5 7 8 8 2 9 1 10 6 11 7 12 17 13
REMARK SMILES IDX 18 14 32 15 19 16 31 17 20 18 30 19 21 20 23 21 22 22 24 23
REMARK SMILES IDX 29 24 25 25 27 26 26 27 28 28 12 29 13 30 14 32 15 33 16 34
REMARK H PARENT 13 31
REMARK Flexibility Score: inf
ROOT
ATOM      1  C   UNL     1      26.677  17.582  30.308  1.00  0.00     0.138 C 
ENDROOT
BRANCH   1   2
ATOM      2  N   UNL     1      26.754  17.907  31.740  1.00  0.00    -0.340 N 
BRANCH   2   3
ATOM      3  C   UNL     1      27.250  16.940  32.686  1.00  0.00     0.049 A 
ATOM      4  C   UNL     1      26.852  15.183  34.336  1.00  0.00     0.124 A 
ATOM      5  C   UNL     1      26.363  16.130  33.416  1.00  0.00     0.073 A 
ATOM      6  C   UNL     1      28.233  15.053  34.517  1.00  0.00     0.093 A 
ATOM      7  C   UNL     1      29.132  15.853  33.788  1.00  0.00     0.124 A 
ATOM      8  C   UNL     1      28.633  16.784  32.874  1.00  0.00     0.073 A 
BRANCH   4   9
ATOM      9  O   UNL     1      26.003  14.354  35.084  1.00  0.00    -0.497 OA
ATOM     10  C   UNL     1      25.148  14.808  36.129  1.00  0.00     0.278 C 
ENDBRANCH   4   9
BRANCH   7  11
ATOM     11  O   UNL     1      30.523  15.756  33.944  1.00  0.00    -0.497 OA
ATOM     12  C   UNL     1      31.469  16.053  32.923  1.00  0.00     0.278 C 
ENDBRANCH   7  11
ENDBRANCH   2   3
BRANCH   2  13
ATOM     13  C   UNL     1      26.642  19.277  32.160  1.00  0.00     0.043 A 
ATOM     14  C   UNL     1      26.889  20.315  31.249  1.00  0.00     0.028 A 
ATOM     15  C   UNL     1      26.276  19.577  33.480  1.00  0.00     0.056 A 
ATOM     16  C   UNL     1      26.774  21.650  31.652  1.00  0.00     0.033 A 
ATOM     17  C   UNL     1      26.160  20.911  33.885  1.00  0.00     0.091 A 
ATOM     18  C   UNL     1      26.411  21.950  32.968  1.00  0.00     0.089 A 
ATOM     19  N   UNL     1      25.806  21.220  35.159  1.00  0.00    -0.244 NA
ATOM     20  N   UNL     1      26.291  23.240  33.377  1.00  0.00    -0.252 NA
ATOM     21  C   UNL     1      25.685  22.511  35.573  1.00  0.00     0.092 A 
ATOM     22  C   UNL     1      25.937  23.545  34.654  1.00  0.00     0.140 A 
BRANCH  21  23
ATOM     23  C   UNL     1      25.290  22.791  36.969  1.00  0.00     0.040 A 
ATOM     24  C   UNL     1      24.019  22.960  37.486  1.00  0.00     0.118 A 
ATOM     25  C   UNL     1      26.140  22.943  38.052  1.00  0.00     0.145 A 
ATOM     26  N   UNL     1      24.137  23.184  38.808  1.00  0.00    -0.275 N 
ATOM     27  N   UNL     1      25.412  23.189  39.159  1.00  0.00    -0.181 NA
ATOM     28  C   UNL     1      23.044  23.475  39.726  1.00  0.00     0.173 C 
ENDBRANCH  21  23
ENDBRANCH   2  13
ENDBRANCH   1   2
BRANCH   1  29
ATOM     29  C   UNL     1      28.026  17.096  29.769  1.00  0.00     0.103 C 
BRANCH  29  30
ATOM     30  N   UNL     1      28.624  18.123  28.903  1.00  0.00    -0.313 NA
ATOM     31  H   UNL     1      28.815  17.662  27.982  1.00  0.00     0.123 HD
BRANCH  30  32
ATOM     32  C   UNL     1      29.899  18.628  29.451  1.00  0.00     0.047 C 
ATOM     33  C   UNL     1      31.081  17.965  28.727  1.00  0.00     0.024 C 
ATOM     34  C   UNL     1      29.991  20.152  29.279  1.00  0.00     0.024 C 
ENDBRANCH  30  32
ENDBRANCH  29  30
ENDBRANCH   1  29
TORSDOF 9
ENDMDL
MODEL 4
REMARK VINA RESULT:    -7.793     10.368     17.259
REMARK INTER + INTRA:         -13.139
REMARK INTER:                 -12.102
REMARK INTRA:                  -1.036
REMARK UNBOUND:                -1.245
REMARK SMILES COc1cc(OC)cc(N(CCNC(C)C)c2ccc3ncc(-c4cnn(C)c4)nc3c2)c1
REMARK SMILES IDX 11 1 10 2 9 3 3 4 33 5 4 6 5 7 8 8 2 9 1 10 6 11 7 12 17 13
REMARK SMILES IDX 18 14 32 15 19 16 31 17 20 18 30 19 21 20 23 21 22 22 24 23
REMARK SMILES IDX 29 24 25 25 27 26 26 27 28 28 12 29 13 30 14 32 15 33 16 34
REMARK H PARENT 13 31
REMARK Flexibility Score: inf
ROOT
ATOM      1  C   UNL     1      13.489  25.361  41.053  1.00  0.00     0.138 C 
ENDROOT
BRANCH   1   2
ATOM      2  N   UNL     1      13.876  26.758  41.302  1.00  0.00    -0.340 N 
BRANCH   2   3
ATOM      3  C   UNL     1      12.977  27.660  41.976  1.00  0.00     0.049 A 
ATOM      4  C   UNL     1      11.477  29.587  41.942  1.00  0.00     0.124 A 
ATOM      5  C   UNL     1      12.357  28.711  41.279  1.00  0.00     0.073 A 
ATOM      6  C   UNL     1      11.220  29.400  43.304  1.00  0.00     0.093 A 
ATOM      7  C   UNL     1      11.829  28.348  44.012  1.00  0.00     0.124 A 
ATOM      8  C   UNL     1      12.696  27.482  43.341  1.00  0.00     0.073 A 
BRANCH   4   9
ATOM      9  O   UNL     1      10.836  30.648  41.284  1.00  0.00    -0.497 OA
ATOM     10  C   UNL     1       9.686  30.506  40.457  1.00  0.00     0.278 C 
ENDBRANCH   4   9
BRANCH   7  11
ATOM     11  O   UNL     1      11.601  28.130  45.380  1.00  0.00    -0.497 OA
ATOM     12  C   UNL     1      11.647  29.148  46.374  1.00  0.00     0.278 C 
ENDBRANCH   7  11
ENDBRANCH   2   3
BRANCH   2  13
ATOM     13  C   UNL     1      15.253  27.143  41.164  1.00  0.00     0.043 A 
ATOM     14  C   UNL     1      15.671  28.421  41.568  1.00  0.00     0.028 A 
ATOM     15  C   UNL     1      16.184  26.239  40.634  1.00  0.00     0.056 A 
ATOM     16  C   UNL     1      17.013  28.797  41.442  1.00  0.00     0.033 A 
ATOM     17  C   UNL     1      17.526  26.612  40.508  1.00  0.00     0.091 A 
ATOM     18  C   UNL     1      17.942  27.896  40.913  1.00  0.00     0.089 A 
ATOM     19  N   UNL     1      18.442  25.748  39.998  1.00  0.00    -0.244 NA
ATOM     20  N   UNL     1      19.249  28.242  40.786  1.00  0.00    -0.252 NA
ATOM     21  C   UNL     1      19.753  26.092  39.868  1.00  0.00     0.092 A 
ATOM     22  C   UNL     1      20.162  27.374  40.274  1.00  0.00     0.140 A 
BRANCH  21  23
ATOM     23  C   UNL     1      20.708  25.111  39.313  1.00  0.00     0.040 A 
ATOM     24  C   UNL     1      21.930  24.714  39.825  1.00  0.00     0.118 A 
ATOM     25  C   UNL     1      20.556  24.383  38.144  1.00  0.00     0.145 A 
ATOM     26  N   UNL     1      22.447  23.791  38.993  1.00  0.00    -0.275 N 
ATOM     27  N   UNL     1      21.634  23.593  37.968  1.00  0.00    -0.181 NA
ATOM     28  C   UNL     1      23.751  23.158  39.125  1.00  0.00     0.173 C 
ENDBRANCH  21  23
ENDBRANCH   2  13
ENDBRANCH   1   2
BRANCH   1  29
ATOM     29  C   UNL     1      12.725  25.218  39.733  1.00  0.00     0.103 C 
BRANCH  29  30
ATOM     30  N   UNL     1      13.462  24.336  38.817  1.00  0.00    -0.313 NA
ATOM     31  H   UNL     1      13.124  24.559  37.850  1.00  0.00     0.123 HD
BRANCH  30  32
ATOM     32  C   UNL     1      13.191  22.909  39.092  1.00  0.00     0.047 C 
ATOM     33  C   UNL     1      11.687  22.694  39.320  1.00  0.00     0.024 C 
ATOM     34  C   UNL     1      13.654  22.038  37.914  1.00  0.00     0.024 C 
ENDBRANCH  30  32
ENDBRANCH  29  30
ENDBRANCH   1  29
TORSDOF 9
ENDMDL
MODEL 5
REMARK VINA RESULT:    -7.768     10.411     17.197
REMARK INTER + INTRA:         -13.100
REMARK INTER:                 -12.097
REMARK INTRA:                  -1.003
REMARK UNBOUND:                -1.245
REMARK SMILES COc1cc(OC)cc(N(CCNC(C)C)c2ccc3ncc(-c4cnn(C)c4)nc3c2)c1
REMARK SMILES IDX 11 1 10 2 9 3 3 4 33 5 4 6 5 7 8 8 2 9 1 10 6 11 7 12 17 13
REMARK SMILES IDX 18 14 32 15 19 16 31 17 20 18 30 19 21 20 23 21 22 22 24 23
REMARK SMILES IDX 29 24 25 25 27 26 26 27 28 28 12 29 13 30 14 32 15 33 16 34
REMARK H PARENT 13 31
REMARK Flexibility Score: inf
ROOT
ATOM      1  C   UNL     1      13.363  25.279  41.058  1.00  0.00     0.138 C 
ENDROOT
BRANCH   1   2
ATOM      2  N   UNL     1      13.727  26.691  41.253  1.00  0.00    -0.340 N 
BRANCH   2   3
ATOM      3  C   UNL     1      12.791  27.614  41.842  1.00  0.00     0.049 A 
ATOM      4  C   UNL     1      11.704  28.574  43.807  1.00  0.00     0.124 A 
ATOM      5  C   UNL     1      12.616  27.668  43.236  1.00  0.00     0.073 A 
ATOM      6  C   UNL     1      10.972  29.427  42.974  1.00  0.00     0.093 A 
ATOM      7  C   UNL     1      11.142  29.389  41.578  1.00  0.00     0.124 A 
ATOM      8  C   UNL     1      12.056  28.488  41.025  1.00  0.00     0.073 A 
BRANCH   4   9
ATOM      9  O   UNL     1      11.499  28.661  45.193  1.00  0.00    -0.497 OA
ATOM     10  C   UNL     1      12.059  29.669  46.028  1.00  0.00     0.278 C 
ENDBRANCH   4   9
BRANCH   7  11
ATOM     11  O   UNL     1      10.425  30.225  40.709  1.00  0.00    -0.497 OA
ATOM     12  C   UNL     1      10.261  31.627  40.895  1.00  0.00     0.278 C 
ENDBRANCH   7  11
ENDBRANCH   2   3
BRANCH   2  13
ATOM     13  C   UNL     1      15.105  27.084  41.155  1.00  0.00     0.043 A 
ATOM     14  C   UNL     1      15.508  28.354  41.595  1.00  0.00     0.028 A 
ATOM     15  C   UNL     1      16.052  26.194  40.627  1.00  0.00     0.056 A 
ATOM     16  C   UNL     1      16.851  28.738  41.507  1.00  0.00     0.033 A 
ATOM     17  C   UNL     1      17.394  26.575  40.539  1.00  0.00     0.091 A 
ATOM     18  C   UNL     1      17.795  27.852  40.980  1.00  0.00     0.089 A 
ATOM     19  N   UNL     1      18.325  25.726  40.031  1.00  0.00    -0.244 NA
ATOM     20  N   UNL     1      19.103  28.206  40.889  1.00  0.00    -0.252 NA
ATOM     21  C   UNL     1      19.637  26.077  39.938  1.00  0.00     0.092 A 
ATOM     22  C   UNL     1      20.031  27.352  40.380  1.00  0.00     0.140 A 
BRANCH  21  23
ATOM     23  C   UNL     1      20.608  25.112  39.385  1.00  0.00     0.040 A 
ATOM     24  C   UNL     1      21.771  24.633  39.961  1.00  0.00     0.118 A 
ATOM     25  C   UNL     1      20.538  24.487  38.150  1.00  0.00     0.145 A 
ATOM     26  N   UNL     1      22.331  23.763  39.101  1.00  0.00    -0.275 N 
ATOM     27  N   UNL     1      21.604  23.677  37.999  1.00  0.00    -0.181 NA
ATOM     28  C   UNL     1      23.601  23.076  39.287  1.00  0.00     0.173 C 
ENDBRANCH  21  23
ENDBRANCH   2  13
ENDBRANCH   1   2
BRANCH   1  29
ATOM     29  C   UNL     1      12.684  25.056  39.702  1.00  0.00     0.103 C 
BRANCH  29  30
ATOM     30  N   UNL     1      13.531  24.212  38.847  1.00  0.00    -0.313 NA
ATOM     31  H   UNL     1      13.304  24.468  37.857  1.00  0.00     0.123 HD
BRANCH  30  32
ATOM     32  C   UNL     1      13.246  22.775  39.040  1.00  0.00     0.047 C 
ATOM     33  C   UNL     1      11.746  22.567  39.298  1.00  0.00     0.024 C 
ATOM     34  C   UNL     1      13.662  21.974  37.797  1.00  0.00     0.024 C 
ENDBRANCH  30  32
ENDBRANCH  29  30
ENDBRANCH   1  29
TORSDOF 9
ENDMDL
MODEL 6
REMARK VINA RESULT:    -7.735     10.530     17.397
REMARK INTER + INTRA:         -13.049
REMARK INTER:                 -12.074
REMARK INTRA:                  -0.975
REMARK UNBOUND:                -1.245
REMARK SMILES COc1cc(OC)cc(N(CCNC(C)C)c2ccc3ncc(-c4cnn(C)c4)nc3c2)c1
REMARK SMILES IDX 11 1 10 2 9 3 3 4 33 5 4 6 5 7 8 8 2 9 1 10 6 11 7 12 17 13
REMARK SMILES IDX 18 14 32 15 19 16 31 17 20 18 30 19 21 20 23 21 22 22 24 23
REMARK SMILES IDX 29 24 25 25 27 26 26 27 28 28 12 29 13 30 14 32 15 33 16 34
REMARK H PARENT 13 31
REMARK Flexibility Score: inf
ROOT
ATOM      1  C   UNL     1      13.283  24.843  40.603  1.00  0.00     0.138 C 
ENDROOT
BRANCH   1   2
ATOM      2  N   UNL     1      13.690  26.025  41.379  1.00  0.00    -0.340 N 
BRANCH   2   3
ATOM      3  C   UNL     1      12.901  26.474  42.497  1.00  0.00     0.049 A 
ATOM      4  C   UNL     1      11.791  28.265  43.733  1.00  0.00     0.124 A 
ATOM      5  C   UNL     1      12.565  27.831  42.641  1.00  0.00     0.073 A 
ATOM      6  C   UNL     1      11.354  27.330  44.678  1.00  0.00     0.093 A 
ATOM      7  C   UNL     1      11.677  25.968  44.543  1.00  0.00     0.124 A 
ATOM      8  C   UNL     1      12.441  25.550  43.450  1.00  0.00     0.073 A 
BRANCH   4   9
ATOM      9  O   UNL     1      11.432  29.610  43.913  1.00  0.00    -0.497 OA
ATOM     10  C   UNL     1      11.626  30.340  45.120  1.00  0.00     0.278 C 
ENDBRANCH   4   9
BRANCH   7  11
ATOM     11  O   UNL     1      11.262  25.000  45.471  1.00  0.00    -0.497 OA
ATOM     12  C   UNL     1      11.177  23.606  45.195  1.00  0.00     0.278 C 
ENDBRANCH   7  11
ENDBRANCH   2   3
BRANCH   2  13
ATOM     13  C   UNL     1      15.022  26.541  41.232  1.00  0.00     0.043 A 
ATOM     14  C   UNL     1      15.316  27.856  41.625  1.00  0.00     0.028 A 
ATOM     15  C   UNL     1      16.034  25.727  40.703  1.00  0.00     0.056 A 
ATOM     16  C   UNL     1      16.614  28.360  41.490  1.00  0.00     0.033 A 
ATOM     17  C   UNL     1      17.333  26.228  40.568  1.00  0.00     0.091 A 
ATOM     18  C   UNL     1      17.623  27.549  40.962  1.00  0.00     0.089 A 
ATOM     19  N   UNL     1      18.326  25.453  40.059  1.00  0.00    -0.244 NA
ATOM     20  N   UNL     1      18.890  28.020  40.826  1.00  0.00    -0.252 NA
ATOM     21  C   UNL     1      19.597  25.922  39.921  1.00  0.00     0.092 A 
ATOM     22  C   UNL     1      19.881  27.241  40.315  1.00  0.00     0.140 A 
BRANCH  21  23
ATOM     23  C   UNL     1      20.640  25.034  39.368  1.00  0.00     0.040 A 
ATOM     24  C   UNL     1      21.855  24.681  39.927  1.00  0.00     0.118 A 
ATOM     25  C   UNL     1      20.599  24.371  38.152  1.00  0.00     0.145 A 
ATOM     26  N   UNL     1      22.473  23.842  39.075  1.00  0.00    -0.275 N 
ATOM     27  N   UNL     1      21.732  23.658  37.995  1.00  0.00    -0.181 NA
ATOM     28  C   UNL     1      23.805  23.280  39.247  1.00  0.00     0.173 C 
ENDBRANCH  21  23
ENDBRANCH   2  13
ENDBRANCH   1   2
BRANCH   1  29
ATOM     29  C   UNL     1      11.971  25.090  39.851  1.00  0.00     0.103 C 
BRANCH  29  30
ATOM     30  N   UNL     1      12.128  26.217  38.919  1.00  0.00    -0.313 NA
ATOM     31  H   UNL     1      13.081  26.616  39.091  1.00  0.00     0.123 HD
BRANCH  30  32
ATOM     32  C   UNL     1      11.124  27.273  39.163  1.00  0.00     0.047 C 
ATOM     33  C   UNL     1      10.487  27.709  37.834  1.00  0.00     0.024 C 
ATOM     34  C   UNL     1      10.025  26.763  40.107  1.00  0.00     0.024 C 
ENDBRANCH  30  32
ENDBRANCH  29  30
ENDBRANCH   1  29
TORSDOF 9
ENDMDL
MODEL 7
REMARK VINA RESULT:    -7.723     10.623     17.475
REMARK INTER + INTRA:         -13.032
REMARK INTER:                 -11.980
REMARK INTRA:                  -1.052
REMARK UNBOUND:                -1.245
REMARK SMILES COc1cc(OC)cc(N(CCNC(C)C)c2ccc3ncc(-c4cnn(C)c4)nc3c2)c1
REMARK SMILES IDX 11 1 10 2 9 3 3 4 33 5 4 6 5 7 8 8 2 9 1 10 6 11 7 12 17 13
REMARK SMILES IDX 18 14 32 15 19 16 31 17 20 18 30 19 21 20 23 21 22 22 24 23
REMARK SMILES IDX 29 24 25 25 27 26 26 27 28 28 12 29 13 30 14 32 15 33 16 34
REMARK H PARENT 13 31
REMARK Flexibility Score: inf
ROOT
ATOM      1  C   UNL     1      13.230  24.891  40.694  1.00  0.00     0.138 C 
ENDROOT
BRANCH   1   2
ATOM      2  N   UNL     1      13.647  26.084  41.446  1.00  0.00    -0.340 N 
BRANCH   2   3
ATOM      3  C   UNL     1      12.862  26.564  42.554  1.00  0.00     0.049 A 
ATOM      4  C   UNL     1      11.755  26.184  44.698  1.00  0.00     0.124 A 
ATOM      5  C   UNL     1      12.519  25.710  43.616  1.00  0.00     0.073 A 
ATOM      6  C   UNL     1      11.340  27.520  44.710  1.00  0.00     0.093 A 
ATOM      7  C   UNL     1      11.682  28.389  43.658  1.00  0.00     0.124 A 
ATOM      8  C   UNL     1      12.446  27.905  42.592  1.00  0.00     0.073 A 
BRANCH   4   9
ATOM      9  O   UNL     1      11.392  25.365  45.778  1.00  0.00    -0.497 OA
ATOM     10  C   UNL     1      10.765  24.093  45.649  1.00  0.00     0.278 C 
ENDBRANCH   4   9
BRANCH   7  11
ATOM     11  O   UNL     1      11.281  29.733  43.631  1.00  0.00    -0.497 OA
ATOM     12  C   UNL     1      11.185  30.567  44.781  1.00  0.00     0.278 C 
ENDBRANCH   7  11
ENDBRANCH   2   3
BRANCH   2  13
ATOM     13  C   UNL     1      14.985  26.584  41.289  1.00  0.00     0.043 A 
ATOM     14  C   UNL     1      15.291  27.905  41.655  1.00  0.00     0.028 A 
ATOM     15  C   UNL     1      15.989  25.750  40.778  1.00  0.00     0.056 A 
ATOM     16  C   UNL     1      16.593  28.394  41.510  1.00  0.00     0.033 A 
ATOM     17  C   UNL     1      17.293  26.236  40.633  1.00  0.00     0.091 A 
ATOM     18  C   UNL     1      17.595  27.563  40.999  1.00  0.00     0.089 A 
ATOM     19  N   UNL     1      18.279  25.442  40.141  1.00  0.00    -0.244 NA
ATOM     20  N   UNL     1      18.867  28.018  40.854  1.00  0.00    -0.252 NA
ATOM     21  C   UNL     1      19.554  25.895  39.993  1.00  0.00     0.092 A 
ATOM     22  C   UNL     1      19.850  27.220  40.361  1.00  0.00     0.140 A 
BRANCH  21  23
ATOM     23  C   UNL     1      20.589  24.987  39.460  1.00  0.00     0.040 A 
ATOM     24  C   UNL     1      21.795  24.624  40.032  1.00  0.00     0.118 A 
ATOM     25  C   UNL     1      20.547  24.308  38.253  1.00  0.00     0.145 A 
ATOM     26  N   UNL     1      22.408  23.766  39.196  1.00  0.00    -0.275 N 
ATOM     27  N   UNL     1      21.672  23.578  38.113  1.00  0.00    -0.181 NA
ATOM     28  C   UNL     1      23.731  23.189  39.385  1.00  0.00     0.173 C 
ENDBRANCH  21  23
ENDBRANCH   2  13
ENDBRANCH   1   2
BRANCH   1  29
ATOM     29  C   UNL     1      11.918  25.133  39.941  1.00  0.00     0.103 C 
BRANCH  29  30
ATOM     30  N   UNL     1      12.089  26.222  38.968  1.00  0.00    -0.313 NA
ATOM     31  H   UNL     1      13.031  26.642  39.152  1.00  0.00     0.123 HD
BRANCH  30  32
ATOM     32  C   UNL     1      11.064  27.273  39.136  1.00  0.00     0.047 C 
ATOM     33  C   UNL     1      10.498  27.679  37.767  1.00  0.00     0.024 C 
ATOM     34  C   UNL     1       9.919  26.768  40.028  1.00  0.00     0.024 C 
ENDBRANCH  30  32
ENDBRANCH  29  30
ENDBRANCH   1  29
TORSDOF 9
ENDMDL
MODEL 8
REMARK VINA RESULT:    -7.699     13.860     15.530
REMARK INTER + INTRA:         -12.995
REMARK INTER:                 -11.552
REMARK INTRA:                  -1.443
REMARK UNBOUND:                -1.245
REMARK SMILES COc1cc(OC)cc(N(CCNC(C)C)c2ccc3ncc(-c4cnn(C)c4)nc3c2)c1
REMARK SMILES IDX 11 1 10 2 9 3 3 4 33 5 4 6 5 7 8 8 2 9 1 10 6 11 7 12 17 13
REMARK SMILES IDX 18 14 32 15 19 16 31 17 20 18 30 19 21 20 23 21 22 22 24 23
REMARK SMILES IDX 29 24 25 25 27 26 26 27 28 28 12 29 13 30 14 32 15 33 16 34
REMARK H PARENT 13 31
REMARK Flexibility Score: inf
ROOT
ATOM      1  C   UNL     1      13.910  20.398  36.819  1.00  0.00     0.138 C 
ENDROOT
BRANCH   1   2
ATOM      2  N   UNL     1      13.008  20.386  37.981  1.00  0.00    -0.340 N 
BRANCH   2   3
ATOM      3  C   UNL     1      12.709  19.152  38.664  1.00  0.00     0.049 A 
ATOM      4  C   UNL     1      12.470  17.870  40.729  1.00  0.00     0.124 A 
ATOM      5  C   UNL     1      12.766  19.076  40.066  1.00  0.00     0.073 A 
ATOM      6  C   UNL     1      12.115  16.744  39.978  1.00  0.00     0.093 A 
ATOM      7  C   UNL     1      12.048  16.808  38.574  1.00  0.00     0.124 A 
ATOM      8  C   UNL     1      12.339  18.014  37.930  1.00  0.00     0.073 A 
BRANCH   4   9
ATOM      9  O   UNL     1      12.512  17.750  42.126  1.00  0.00    -0.497 OA
ATOM     10  C   UNL     1      11.381  17.880  42.981  1.00  0.00     0.278 C 
ENDBRANCH   4   9
BRANCH   7  11
ATOM     11  O   UNL     1      11.701  15.701  37.785  1.00  0.00    -0.497 OA
ATOM     12  C   UNL     1      10.625  14.814  38.074  1.00  0.00     0.278 C 
ENDBRANCH   7  11
ENDBRANCH   2   3
BRANCH   2  13
ATOM     13  C   UNL     1      12.677  21.623  38.631  1.00  0.00     0.043 A 
ATOM     14  C   UNL     1      11.338  21.931  38.921  1.00  0.00     0.028 A 
ATOM     15  C   UNL     1      13.693  22.522  38.984  1.00  0.00     0.056 A 
ATOM     16  C   UNL     1      11.012  23.132  39.559  1.00  0.00     0.033 A 
ATOM     17  C   UNL     1      13.370  23.724  39.624  1.00  0.00     0.091 A 
ATOM     18  C   UNL     1      12.025  24.030  39.911  1.00  0.00     0.089 A 
ATOM     19  N   UNL     1      14.341  24.606  39.974  1.00  0.00    -0.244 NA
ATOM     20  N   UNL     1      11.728  25.200  40.535  1.00  0.00    -0.252 NA
ATOM     21  C   UNL     1      14.048  25.780  40.598  1.00  0.00     0.092 A 
ATOM     22  C   UNL     1      12.704  26.080  40.883  1.00  0.00     0.140 A 
BRANCH  21  23
ATOM     23  C   UNL     1      15.144  26.700  40.964  1.00  0.00     0.040 A 
ATOM     24  C   UNL     1      16.489  26.602  40.657  1.00  0.00     0.118 A 
ATOM     25  C   UNL     1      15.030  27.865  41.705  1.00  0.00     0.145 A 
ATOM     26  N   UNL     1      17.112  27.671  41.186  1.00  0.00    -0.275 N 
ATOM     27  N   UNL     1      16.246  28.433  41.832  1.00  0.00    -0.181 NA
ATOM     28  C   UNL     1      18.545  27.928  41.150  1.00  0.00     0.173 C 
ENDBRANCH  21  23
ENDBRANCH   2  13
ENDBRANCH   1   2
BRANCH   1  29
ATOM     29  C   UNL     1      13.205  20.935  35.568  1.00  0.00     0.103 C 
BRANCH  29  30
ATOM     30  N   UNL     1      12.711  19.818  34.750  1.00  0.00    -0.313 NA
ATOM     31  H   UNL     1      13.031  20.002  33.769  1.00  0.00     0.123 HD
BRANCH  30  32
ATOM     32  C   UNL     1      11.235  19.743  34.758  1.00  0.00     0.047 C 
ATOM     33  C   UNL     1      10.642  21.111  35.129  1.00  0.00     0.024 C 
ATOM     34  C   UNL     1      10.711  19.323  33.376  1.00  0.00     0.024 C 
ENDBRANCH  30  32
ENDBRANCH  29  30
ENDBRANCH   1  29
TORSDOF 9
ENDMDL
MODEL 9
REMARK VINA RESULT:    -7.617     10.850     17.879
REMARK INTER + INTRA:         -12.869
REMARK INTER:                 -11.437
REMARK INTRA:                  -1.432
REMARK UNBOUND:                -1.245
REMARK SMILES COc1cc(OC)cc(N(CCNC(C)C)c2ccc3ncc(-c4cnn(C)c4)nc3c2)c1
REMARK SMILES IDX 11 1 10 2 9 3 3 4 33 5 4 6 5 7 8 8 2 9 1 10 6 11 7 12 17 13
REMARK SMILES IDX 18 14 32 15 19 16 31 17 20 18 30 19 21 20 23 21 22 22 24 23
REMARK SMILES IDX 29 24 25 25 27 26 26 27 28 28 12 29 13 30 14 32 15 33 16 34
REMARK H PARENT 13 31
REMARK Flexibility Score: inf
ROOT
ATOM      1  C   UNL     1      13.294  25.425  40.964  1.00  0.00     0.138 C 
ENDROOT
BRANCH   1   2
ATOM      2  N   UNL     1      13.703  26.806  41.261  1.00  0.00    -0.340 N 
BRANCH   2   3
ATOM      3  C   UNL     1      12.808  27.705  41.946  1.00  0.00     0.049 A 
ATOM      4  C   UNL     1      11.434  29.724  41.974  1.00  0.00     0.124 A 
ATOM      5  C   UNL     1      12.311  28.851  41.303  1.00  0.00     0.073 A 
ATOM      6  C   UNL     1      11.058  29.438  43.292  1.00  0.00     0.093 A 
ATOM      7  C   UNL     1      11.543  28.291  43.945  1.00  0.00     0.124 A 
ATOM      8  C   UNL     1      12.408  27.430  43.264  1.00  0.00     0.073 A 
BRANCH   4   9
ATOM      9  O   UNL     1      10.913  30.878  41.370  1.00  0.00    -0.497 OA
ATOM     10  C   UNL     1       9.784  30.893  40.502  1.00  0.00     0.278 C 
ENDBRANCH   4   9
BRANCH   7  11
ATOM     11  O   UNL     1      11.193  27.972  45.266  1.00  0.00    -0.497 OA
ATOM     12  C   UNL     1      10.767  28.922  46.236  1.00  0.00     0.278 C 
ENDBRANCH   7  11
ENDBRANCH   2   3
BRANCH   2  13
ATOM     13  C   UNL     1      15.089  27.169  41.161  1.00  0.00     0.043 A 
ATOM     14  C   UNL     1      15.523  28.428  41.606  1.00  0.00     0.028 A 
ATOM     15  C   UNL     1      16.014  26.260  40.627  1.00  0.00     0.056 A 
ATOM     16  C   UNL     1      16.873  28.782  41.516  1.00  0.00     0.033 A 
ATOM     17  C   UNL     1      17.365  26.611  40.537  1.00  0.00     0.091 A 
ATOM     18  C   UNL     1      17.796  27.877  40.982  1.00  0.00     0.089 A 
ATOM     19  N   UNL     1      18.275  25.743  40.023  1.00  0.00    -0.244 NA
ATOM     20  N   UNL     1      19.111  28.201  40.890  1.00  0.00    -0.252 NA
ATOM     21  C   UNL     1      19.594  26.065  39.928  1.00  0.00     0.092 A 
ATOM     22  C   UNL     1      20.018  27.329  40.374  1.00  0.00     0.140 A 
BRANCH  21  23
ATOM     23  C   UNL     1      20.542  25.080  39.368  1.00  0.00     0.040 A 
ATOM     24  C   UNL     1      21.726  24.618  39.912  1.00  0.00     0.118 A 
ATOM     25  C   UNL     1      20.421  24.416  38.158  1.00  0.00     0.145 A 
ATOM     26  N   UNL     1      22.251  23.720  39.059  1.00  0.00    -0.275 N 
ATOM     27  N   UNL     1      21.480  23.599  37.991  1.00  0.00    -0.181 NA
ATOM     28  C   UNL     1      23.527  23.037  39.216  1.00  0.00     0.173 C 
ENDBRANCH  21  23
ENDBRANCH   2  13
ENDBRANCH   1   2
BRANCH   1  29
ATOM     29  C   UNL     1      12.521  25.341  39.644  1.00  0.00     0.103 C 
BRANCH  29  30
ATOM     30  N   UNL     1      11.144  24.892  39.893  1.00  0.00    -0.313 NA
ATOM     31  H   UNL     1      11.004  24.025  39.322  1.00  0.00     0.123 HD
BRANCH  30  32
ATOM     32  C   UNL     1      10.153  25.902  39.468  1.00  0.00     0.047 C 
ATOM     33  C   UNL     1       9.487  26.536  40.699  1.00  0.00     0.024 C 
ATOM     34  C   UNL     1      10.830  27.002  38.636  1.00  0.00     0.024 C 
ENDBRANCH  30  32
ENDBRANCH  29  30
ENDBRANCH   1  29
TORSDOF 9
ENDMDL
MODEL 10
REMARK VINA RESULT:    -7.610      1.310      2.084
REMARK INTER + INTRA:         -12.860
REMARK INTER:                 -11.912
REMARK INTRA:                  -0.948
REMARK UNBOUND:                -1.245
REMARK SMILES COc1cc(OC)cc(N(CCNC(C)C)c2ccc3ncc(-c4cnn(C)c4)nc3c2)c1
REMARK SMILES IDX 11 1 10 2 9 3 3 4 33 5 4 6 5 7 8 8 2 9 1 10 6 11 7 12 17 13
REMARK SMILES IDX 18 14 32 15 19 16 31 17 20 18 30 19 21 20 23 21 22 22 24 23
REMARK SMILES IDX 29 24 25 25 27 26 26 27 28 28 12 29 13 30 14 32 15 33 16 34
REMARK H PARENT 13 31
REMARK Flexibility Score: inf
ROOT
ATOM      1  C   UNL     1      26.671  17.694  30.300  1.00  0.00     0.138 C 
ENDROOT
BRANCH   1   2
ATOM      2  N   UNL     1      26.842  18.035  31.720  1.00  0.00    -0.340 N 
BRANCH   2   3
ATOM      3  C   UNL     1      27.414  17.084  32.639  1.00  0.00     0.049 A 
ATOM      4  C   UNL     1      29.353  15.922  33.563  1.00  0.00     0.124 A 
ATOM      5  C   UNL     1      28.799  16.849  32.661  1.00  0.00     0.073 A 
ATOM      6  C   UNL     1      28.511  15.235  34.444  1.00  0.00     0.093 A 
ATOM      7  C   UNL     1      27.123  15.465  34.437  1.00  0.00     0.124 A 
ATOM      8  C   UNL     1      26.587  16.393  33.540  1.00  0.00     0.073 A 
BRANCH   4   9
ATOM      9  O   UNL     1      30.731  15.659  33.619  1.00  0.00    -0.497 OA
ATOM     10  C   UNL     1      31.469  15.014  32.587  1.00  0.00     0.278 C 
ENDBRANCH   4   9
BRANCH   7  11
ATOM     11  O   UNL     1      26.245  14.793  35.301  1.00  0.00    -0.497 OA
ATOM     12  C   UNL     1      26.579  13.617  36.032  1.00  0.00     0.278 C 
ENDBRANCH   7  11
ENDBRANCH   2   3
BRANCH   2  13
ATOM     13  C   UNL     1      26.739  19.407  32.133  1.00  0.00     0.043 A 
ATOM     14  C   UNL     1      27.043  20.439  31.231  1.00  0.00     0.028 A 
ATOM     15  C   UNL     1      26.326  19.718  33.436  1.00  0.00     0.056 A 
ATOM     16  C   UNL     1      26.939  21.776  31.627  1.00  0.00     0.033 A 
ATOM     17  C   UNL     1      26.220  21.054  33.835  1.00  0.00     0.091 A 
ATOM     18  C   UNL     1      26.528  22.087  32.927  1.00  0.00     0.089 A 
ATOM     19  N   UNL     1      25.819  21.373  35.093  1.00  0.00    -0.244 NA
ATOM     20  N   UNL     1      26.417  23.379  33.329  1.00  0.00    -0.252 NA
ATOM     21  C   UNL     1      25.708  22.667  35.500  1.00  0.00     0.092 A 
ATOM     22  C   UNL     1      26.017  23.694  34.590  1.00  0.00     0.140 A 
BRANCH  21  23
ATOM     23  C   UNL     1      25.262  22.958  36.878  1.00  0.00     0.040 A 
ATOM     24  C   UNL     1      23.971  23.111  37.351  1.00  0.00     0.118 A 
ATOM     25  C   UNL     1      26.073  23.139  37.986  1.00  0.00     0.145 A 
ATOM     26  N   UNL     1      24.042  23.353  38.673  1.00  0.00    -0.275 N 
ATOM     27  N   UNL     1      25.304  23.386  39.065  1.00  0.00    -0.181 NA
ATOM     28  C   UNL     1      22.914  23.637  39.550  1.00  0.00     0.173 C 
ENDBRANCH  21  23
ENDBRANCH   2  13
ENDBRANCH   1   2
BRANCH   1  29
ATOM     29  C   UNL     1      27.955  17.104  29.707  1.00  0.00     0.103 C 
BRANCH  29  30
ATOM     30  N   UNL     1      28.631  18.107  28.871  1.00  0.00    -0.313 NA
ATOM     31  H   UNL     1      28.923  17.615  27.992  1.00  0.00     0.123 HD
BRANCH  30  32
ATOM     32  C   UNL     1      29.838  18.648  29.530  1.00  0.00     0.047 C 
ATOM     33  C   UNL     1      31.051  17.757  29.219  1.00  0.00     0.024 C 
ATOM     34  C   UNL     1      30.121  20.077  29.043  1.00  0.00     0.024 C 
ENDBRANCH  30  32
ENDBRANCH  29  30
ENDBRANCH   1  29
TORSDOF 9
ENDMDL
MODEL 11
REMARK VINA RESULT:    -7.522      1.947      3.549
REMARK INTER + INTRA:         -12.724
REMARK INTER:                 -11.776
REMARK INTRA:                  -0.948
REMARK UNBOUND:                -1.245
REMARK SMILES COc1cc(OC)cc(N(CCNC(C)C)c2ccc3ncc(-c4cnn(C)c4)nc3c2)c1
REMARK SMILES IDX 11 1 10 2 9 3 3 4 33 5 4 6 5 7 8 8 2 9 1 10 6 11 7 12 17 13
REMARK SMILES IDX 18 14 32 15 19 16 31 17 20 18 30 19 21 20 23 21 22 22 24 23
REMARK SMILES IDX 29 24 25 25 27 26 26 27 28 28 12 29 13 30 14 32 15 33 16 34
REMARK H PARENT 13 31
REMARK Flexibility Score: inf
ROOT
ATOM      1  C   UNL     1      26.622  17.106  30.439  1.00  0.00     0.138 C 
ENDROOT
BRANCH   1   2
ATOM      2  N   UNL     1      26.906  17.586  31.800  1.00  0.00    -0.340 N 
BRANCH   2   3
ATOM      3  C   UNL     1      27.570  16.734  32.754  1.00  0.00     0.049 A 
ATOM      4  C   UNL     1      27.519  15.355  34.770  1.00  0.00     0.124 A 
ATOM      5  C   UNL     1      26.867  16.190  33.842  1.00  0.00     0.073 A 
ATOM      6  C   UNL     1      28.878  15.069  34.598  1.00  0.00     0.093 A 
ATOM      7  C   UNL     1      29.592  15.602  33.509  1.00  0.00     0.124 A 
ATOM      8  C   UNL     1      28.930  16.424  32.593  1.00  0.00     0.073 A 
BRANCH   4   9
ATOM      9  O   UNL     1      26.854  14.790  35.869  1.00  0.00    -0.497 OA
ATOM     10  C   UNL     1      25.622  14.082  35.788  1.00  0.00     0.278 C 
ENDBRANCH   4   9
BRANCH   7  11
ATOM     11  O   UNL     1      30.956  15.343  33.304  1.00  0.00    -0.497 OA
ATOM     12  C   UNL     1      31.469  14.520  32.262  1.00  0.00     0.278 C 
ENDBRANCH   7  11
ENDBRANCH   2   3
BRANCH   2  13
ATOM     13  C   UNL     1      26.816  18.991  32.086  1.00  0.00     0.043 A 
ATOM     14  C   UNL     1      27.190  19.933  31.115  1.00  0.00     0.028 A 
ATOM     15  C   UNL     1      26.344  19.423  33.333  1.00  0.00     0.056 A 
ATOM     16  C   UNL     1      27.097  21.302  31.387  1.00  0.00     0.033 A 
ATOM     17  C   UNL     1      26.249  20.791  33.608  1.00  0.00     0.091 A 
ATOM     18  C   UNL     1      26.628  21.734  32.631  1.00  0.00     0.089 A 
ATOM     19  N   UNL     1      25.793  21.228  34.810  1.00  0.00    -0.244 NA
ATOM     20  N   UNL     1      26.528  23.059  32.913  1.00  0.00    -0.252 NA
ATOM     21  C   UNL     1      25.692  22.555  35.096  1.00  0.00     0.092 A 
ATOM     22  C   UNL     1      26.071  23.491  34.118  1.00  0.00     0.140 A 
BRANCH  21  23
ATOM     23  C   UNL     1      25.183  22.975  36.418  1.00  0.00     0.040 A 
ATOM     24  C   UNL     1      23.888  23.301  36.778  1.00  0.00     0.118 A 
ATOM     25  C   UNL     1      25.926  23.126  37.578  1.00  0.00     0.145 A 
ATOM     26  N   UNL     1      23.889  23.611  38.088  1.00  0.00    -0.275 N 
ATOM     27  N   UNL     1      25.114  23.522  38.578  1.00  0.00    -0.181 NA
ATOM     28  C   UNL     1      22.742  24.072  38.857  1.00  0.00     0.173 C 
ENDBRANCH  21  23
ENDBRANCH   2  13
ENDBRANCH   1   2
BRANCH   1  29
ATOM     29  C   UNL     1      25.671  15.904  30.455  1.00  0.00     0.103 C 
BRANCH  29  30
ATOM     30  N   UNL     1      24.536  16.147  29.553  1.00  0.00    -0.313 NA
ATOM     31  H   UNL     1      23.938  16.873  30.014  1.00  0.00     0.123 HD
BRANCH  30  32
ATOM     32  C   UNL     1      23.726  14.928  29.352  1.00  0.00     0.047 C 
ATOM     33  C   UNL     1      24.637  13.744  28.994  1.00  0.00     0.024 C 
ATOM     34  C   UNL     1      22.936  14.592  30.626  1.00  0.00     0.024 C 
ENDBRANCH  30  32
ENDBRANCH  29  30
ENDBRANCH   1  29
TORSDOF 9
ENDMDL
MODEL 12
REMARK VINA RESULT:    -7.515     14.239     18.039
REMARK INTER + INTRA:         -12.714
REMARK INTER:                 -11.168
REMARK INTRA:                  -1.546
REMARK UNBOUND:                -1.245
REMARK SMILES COc1cc(OC)cc(N(CCNC(C)C)c2ccc3ncc(-c4cnn(C)c4)nc3c2)c1
REMARK SMILES IDX 11 1 10 2 9 3 3 4 33 5 4 6 5 7 8 8 2 9 1 10 6 11 7 12 17 13
REMARK SMILES IDX 18 14 32 15 19 16 31 17 20 18 30 19 21 20 23 21 22 22 24 23
REMARK SMILES IDX 29 24 25 25 27 26 26 27 28 28 12 29 13 30 14 32 15 33 16 34
REMARK H PARENT 13 31
REMARK Flexibility Score: inf
ROOT
ATOM      1  C   UNL     1      13.577  18.130  38.299  1.00  0.00     0.138 C 
ENDROOT
BRANCH   1   2
ATOM      2  N   UNL     1      12.194  18.138  38.801  1.00  0.00    -0.340 N 
BRANCH   2   3
ATOM      3  C   UNL     1      11.868  18.797  40.041  1.00  0.00     0.049 A 
ATOM      4  C   UNL     1      10.847  20.652  41.258  1.00  0.00     0.124 A 
ATOM      5  C   UNL     1      11.167  20.015  40.044  1.00  0.00     0.073 A 
ATOM      6  C   UNL     1      11.233  20.060  42.466  1.00  0.00     0.093 A 
ATOM      7  C   UNL     1      11.929  18.837  42.477  1.00  0.00     0.124 A 
ATOM      8  C   UNL     1      12.234  18.213  41.264  1.00  0.00     0.073 A 
BRANCH   4   9
ATOM      9  O   UNL     1      10.148  21.867  41.307  1.00  0.00    -0.497 OA
ATOM     10  C   UNL     1      10.313  22.851  42.323  1.00  0.00     0.278 C 
ENDBRANCH   4   9
BRANCH   7  11
ATOM     11  O   UNL     1      12.337  18.214  43.666  1.00  0.00    -0.497 OA
ATOM     12  C   UNL     1      11.640  17.141  44.290  1.00  0.00     0.278 C 
ENDBRANCH   7  11
ENDBRANCH   2   3
BRANCH   2  13
ATOM     13  C   UNL     1      11.121  17.775  37.918  1.00  0.00     0.043 A 
ATOM     14  C   UNL     1      10.254  16.725  38.257  1.00  0.00     0.028 A 
ATOM     15  C   UNL     1      10.933  18.477  36.718  1.00  0.00     0.056 A 
ATOM     16  C   UNL     1       9.204  16.372  37.403  1.00  0.00     0.033 A 
ATOM     17  C   UNL     1       9.883  18.127  35.863  1.00  0.00     0.091 A 
ATOM     18  C   UNL     1       9.016  17.071  36.206  1.00  0.00     0.089 A 
ATOM     19  N   UNL     1       9.686  18.797  34.698  1.00  0.00    -0.244 NA
ATOM     20  N   UNL     1       8.000  16.745  35.365  1.00  0.00    -0.252 NA
ATOM     21  C   UNL     1       8.669  18.473  33.852  1.00  0.00     0.092 A 
ATOM     22  C   UNL     1       7.807  17.418  34.200  1.00  0.00     0.140 A 
BRANCH  21  23
ATOM     23  C   UNL     1       8.495  19.239  32.601  1.00  0.00     0.040 A 
ATOM     24  C   UNL     1       7.690  18.945  31.516  1.00  0.00     0.118 A 
ATOM     25  C   UNL     1       9.124  20.428  32.268  1.00  0.00     0.145 A 
ATOM     26  N   UNL     1       7.840  19.929  30.611  1.00  0.00    -0.275 N 
ATOM     27  N   UNL     1       8.713  20.822  31.046  1.00  0.00    -0.181 NA
ATOM     28  C   UNL     1       7.219  19.980  29.294  1.00  0.00     0.173 C 
ENDBRANCH  21  23
ENDBRANCH   2  13
ENDBRANCH   1   2
BRANCH   1  29
ATOM     29  C   UNL     1      14.198  19.530  38.344  1.00  0.00     0.103 C 
BRANCH  29  30
ATOM     30  N   UNL     1      14.594  19.949  36.991  1.00  0.00    -0.313 NA
ATOM     31  H   UNL     1      15.642  19.943  36.972  1.00  0.00     0.123 HD
BRANCH  30  32
ATOM     32  C   UNL     1      14.125  21.315  36.681  1.00  0.00     0.047 C 
ATOM     33  C   UNL     1      13.067  21.267  35.568  1.00  0.00     0.024 C 
ATOM     34  C   UNL     1      13.517  21.971  37.930  1.00  0.00     0.024 C 
ENDBRANCH  30  32
ENDBRANCH  29  30
ENDBRANCH   1  29
TORSDOF 9
ENDMDL
MODEL 13
REMARK VINA RESULT:    -7.492     14.238     17.984
REMARK INTER + INTRA:         -12.678
REMARK INTER:                 -11.137
REMARK INTRA:                  -1.541
REMARK UNBOUND:                -1.245
REMARK SMILES COc1cc(OC)cc(N(CCNC(C)C)c2ccc3ncc(-c4cnn(C)c4)nc3c2)c1
REMARK SMILES IDX 11 1 10 2 9 3 3 4 33 5 4 6 5 7 8 8 2 9 1 10 6 11 7 12 17 13
REMARK SMILES IDX 18 14 32 15 19 16 31 17 20 18 30 19 21 20 23 21 22 22 24 23
REMARK SMILES IDX 29 24 25 25 27 26 26 27 28 28 12 29 13 30 14 32 15 33 16 34
REMARK H PARENT 13 31
REMARK Flexibility Score: inf
ROOT
ATOM      1  C   UNL     1      13.514  18.171  38.246  1.00  0.00     0.138 C 
ENDROOT
BRANCH   1   2
ATOM      2  N   UNL     1      12.136  18.165  38.760  1.00  0.00    -0.340 N 
BRANCH   2   3
ATOM      3  C   UNL     1      11.819  18.793  40.017  1.00  0.00     0.049 A 
ATOM      4  C   UNL     1      11.937  18.846  42.456  1.00  0.00     0.124 A 
ATOM      5  C   UNL     1      12.246  18.227  41.231  1.00  0.00     0.073 A 
ATOM      6  C   UNL     1      11.201  20.036  42.458  1.00  0.00     0.093 A 
ATOM      7  C   UNL     1      10.774  20.617  41.250  1.00  0.00     0.124 A 
ATOM      8  C   UNL     1      11.093  19.995  40.040  1.00  0.00     0.073 A 
BRANCH   4   9
ATOM      9  O   UNL     1      12.344  18.315  43.690  1.00  0.00    -0.497 OA
ATOM     10  C   UNL     1      12.288  19.018  44.927  1.00  0.00     0.278 C 
ENDBRANCH   4   9
BRANCH   7  11
ATOM     11  O   UNL     1      10.031  21.807  41.209  1.00  0.00    -0.497 OA
ATOM     12  C   UNL     1      10.529  23.080  41.608  1.00  0.00     0.278 C 
ENDBRANCH   7  11
ENDBRANCH   2   3
BRANCH   2  13
ATOM     13  C   UNL     1      11.056  17.822  37.877  1.00  0.00     0.043 A 
ATOM     14  C   UNL     1      10.171  16.786  38.215  1.00  0.00     0.028 A 
ATOM     15  C   UNL     1      10.878  18.529  36.679  1.00  0.00     0.056 A 
ATOM     16  C   UNL     1       9.114  16.453  37.362  1.00  0.00     0.033 A 
ATOM     17  C   UNL     1       9.821  18.199  35.824  1.00  0.00     0.091 A 
ATOM     18  C   UNL     1       8.937  17.157  36.166  1.00  0.00     0.089 A 
ATOM     19  N   UNL     1       9.634  18.874  34.661  1.00  0.00    -0.244 NA
ATOM     20  N   UNL     1       7.915  16.850  35.326  1.00  0.00    -0.252 NA
ATOM     21  C   UNL     1       8.611  18.569  33.816  1.00  0.00     0.092 A 
ATOM     22  C   UNL     1       7.731  17.528  34.162  1.00  0.00     0.140 A 
BRANCH  21  23
ATOM     23  C   UNL     1       8.449  19.340  32.566  1.00  0.00     0.040 A 
ATOM     24  C   UNL     1       7.576  19.109  31.519  1.00  0.00     0.118 A 
ATOM     25  C   UNL     1       9.159  20.471  32.197  1.00  0.00     0.145 A 
ATOM     26  N   UNL     1       7.770  20.072  30.599  1.00  0.00    -0.275 N 
ATOM     27  N   UNL     1       8.731  20.891  30.990  1.00  0.00    -0.181 NA
ATOM     28  C   UNL     1       7.100  20.168  29.309  1.00  0.00     0.173 C 
ENDBRANCH  21  23
ENDBRANCH   2  13
ENDBRANCH   1   2
BRANCH   1  29
ATOM     29  C   UNL     1      14.142  19.566  38.341  1.00  0.00     0.103 C 
BRANCH  29  30
ATOM     30  N   UNL     1      14.605  20.001  37.016  1.00  0.00    -0.313 NA
ATOM     31  H   UNL     1      15.652  20.029  37.060  1.00  0.00     0.123 HD
BRANCH  30  32
ATOM     32  C   UNL     1      14.112  21.352  36.679  1.00  0.00     0.047 C 
ATOM     33  C   UNL     1      13.073  21.266  35.551  1.00  0.00     0.024 C 
ATOM     34  C   UNL     1      13.469  22.012  37.909  1.00  0.00     0.024 C 
ENDBRANCH  30  32
ENDBRANCH  29  30
ENDBRANCH   1  29
TORSDOF 9
ENDMDL
MODEL 14
REMARK VINA RESULT:    -7.469     10.806     17.964
REMARK INTER + INTRA:         -12.644
REMARK INTER:                 -11.439
REMARK INTRA:                  -1.204
REMARK UNBOUND:                -1.245
REMARK SMILES COc1cc(OC)cc(N(CCNC(C)C)c2ccc3ncc(-c4cnn(C)c4)nc3c2)c1
REMARK SMILES IDX 11 1 10 2 9 3 3 4 33 5 4 6 5 7 8 8 2 9 1 10 6 11 7 12 17 13
REMARK SMILES IDX 18 14 32 15 19 16 31 17 20 18 30 19 21 20 23 21 22 22 24 23
REMARK SMILES IDX 29 24 25 25 27 26 26 27 28 28 12 29 13 30 14 32 15 33 16 34
REMARK H PARENT 13 31
REMARK Flexibility Score: inf
ROOT
ATOM      1  C   UNL     1      12.836  25.770  43.293  1.00  0.00     0.138 C 
ENDROOT
BRANCH   1   2
ATOM      2  N   UNL     1      13.132  26.268  41.941  1.00  0.00    -0.340 N 
BRANCH   2   3
ATOM      3  C   UNL     1      12.070  26.493  40.994  1.00  0.00     0.049 A 
ATOM      4  C   UNL     1      10.492  27.992  39.885  1.00  0.00     0.124 A 
ATOM      5  C   UNL     1      11.527  27.777  40.814  1.00  0.00     0.073 A 
ATOM      6  C   UNL     1      10.008  26.914  39.136  1.00  0.00     0.093 A 
ATOM      7  C   UNL     1      10.547  25.625  39.301  1.00  0.00     0.124 A 
ATOM      8  C   UNL     1      11.578  25.427  40.223  1.00  0.00     0.073 A 
BRANCH   4   9
ATOM      9  O   UNL     1       9.923  29.257  39.674  1.00  0.00    -0.497 OA
ATOM     10  C   UNL     1       8.578  29.477  39.261  1.00  0.00     0.278 C 
ENDBRANCH   4   9
BRANCH   7  11
ATOM     11  O   UNL     1      10.085  24.518  38.573  1.00  0.00    -0.497 OA
ATOM     12  C   UNL     1      10.051  23.185  39.072  1.00  0.00     0.278 C 
ENDBRANCH   7  11
ENDBRANCH   2   3
BRANCH   2  13
ATOM     13  C   UNL     1      14.425  26.830  41.664  1.00  0.00     0.043 A 
ATOM     14  C   UNL     1      14.665  28.193  41.896  1.00  0.00     0.028 A 
ATOM     15  C   UNL     1      15.452  26.014  41.169  1.00  0.00     0.056 A 
ATOM     16  C   UNL     1      15.925  28.743  41.633  1.00  0.00     0.033 A 
ATOM     17  C   UNL     1      16.712  26.560  40.906  1.00  0.00     0.091 A 
ATOM     18  C   UNL     1      16.949  27.929  41.139  1.00  0.00     0.089 A 
ATOM     19  N   UNL     1      17.719  25.784  40.428  1.00  0.00    -0.244 NA
ATOM     20  N   UNL     1      18.179  28.444  40.881  1.00  0.00    -0.252 NA
ATOM     21  C   UNL     1      18.953  26.296  40.168  1.00  0.00     0.092 A 
ATOM     22  C   UNL     1      19.184  27.664  40.401  1.00  0.00     0.140 A 
BRANCH  21  23
ATOM     23  C   UNL     1      20.014  25.406  39.655  1.00  0.00     0.040 A 
ATOM     24  C   UNL     1      21.196  25.031  40.269  1.00  0.00     0.118 A 
ATOM     25  C   UNL     1      20.028  24.760  38.429  1.00  0.00     0.145 A 
ATOM     26  N   UNL     1      21.848  24.198  39.437  1.00  0.00    -0.275 N 
ATOM     27  N   UNL     1      21.161  24.037  38.319  1.00  0.00    -0.181 NA
ATOM     28  C   UNL     1      23.164  23.619  39.668  1.00  0.00     0.173 C 
ENDBRANCH  21  23
ENDBRANCH   2  13
ENDBRANCH   1   2
BRANCH   1  29
ATOM     29  C   UNL     1      11.584  26.434  43.874  1.00  0.00     0.103 C 
BRANCH  29  30
ATOM     30  N   UNL     1      11.963  27.408  44.907  1.00  0.00    -0.313 NA
ATOM     31  H   UNL     1      11.239  27.341  45.661  1.00  0.00     0.123 HD
BRANCH  30  32
ATOM     32  C   UNL     1      11.969  28.790  44.383  1.00  0.00     0.047 C 
ATOM     33  C   UNL     1      10.649  29.492  44.736  1.00  0.00     0.024 C 
ATOM     34  C   UNL     1      13.140  29.585  44.979  1.00  0.00     0.024 C 
ENDBRANCH  30  32
ENDBRANCH  29  30
ENDBRANCH   1  29
TORSDOF 9
ENDMDL
MODEL 15
REMARK VINA RESULT:    -7.451      1.971      3.217
REMARK INTER + INTRA:         -12.616
REMARK INTER:                 -11.539
REMARK INTRA:                  -1.077
REMARK UNBOUND:                -1.245
REMARK SMILES COc1cc(OC)cc(N(CCNC(C)C)c2ccc3ncc(-c4cnn(C)c4)nc3c2)c1
REMARK SMILES IDX 11 1 10 2 9 3 3 4 33 5 4 6 5 7 8 8 2 9 1 10 6 11 7 12 17 13
REMARK SMILES IDX 18 14 32 15 19 16 31 17 20 18 30 19 21 20 23 21 22 22 24 23
REMARK SMILES IDX 29 24 25 25 27 26 26 27 28 28 12 29 13 30 14 32 15 33 16 34
REMARK H PARENT 13 31
REMARK Flexibility Score: inf
ROOT
ATOM      1  C   UNL     1      26.839  18.042  30.320  1.00  0.00     0.138 C 
ENDROOT
BRANCH   1   2
ATOM      2  N   UNL     1      26.937  18.311  31.763  1.00  0.00    -0.340 N 
BRANCH   2   3
ATOM      3  C   UNL     1      27.513  17.335  32.653  1.00  0.00     0.049 A 
ATOM      4  C   UNL     1      29.451  16.116  33.504  1.00  0.00     0.124 A 
ATOM      5  C   UNL     1      28.892  17.067  32.630  1.00  0.00     0.073 A 
ATOM      6  C   UNL     1      28.619  15.438  34.402  1.00  0.00     0.093 A 
ATOM      7  C   UNL     1      27.237  15.701  34.440  1.00  0.00     0.124 A 
ATOM      8  C   UNL     1      26.697  16.652  33.570  1.00  0.00     0.073 A 
BRANCH   4   9
ATOM      9  O   UNL     1      30.822  15.820  33.516  1.00  0.00    -0.497 OA
ATOM     10  C   UNL     1      31.469  14.967  32.578  1.00  0.00     0.278 C 
ENDBRANCH   4   9
BRANCH   7  11
ATOM     11  O   UNL     1      26.369  15.039  35.321  1.00  0.00    -0.497 OA
ATOM     12  C   UNL     1      25.816  13.748  35.087  1.00  0.00     0.278 C 
ENDBRANCH   7  11
ENDBRANCH   2   3
BRANCH   2  13
ATOM     13  C   UNL     1      26.757  19.652  32.244  1.00  0.00     0.043 A 
ATOM     14  C   UNL     1      26.931  20.741  31.376  1.00  0.00     0.028 A 
ATOM     15  C   UNL     1      26.399  19.875  33.581  1.00  0.00     0.056 A 
ATOM     16  C   UNL     1      26.751  22.049  31.839  1.00  0.00     0.033 A 
ATOM     17  C   UNL     1      26.217  21.181  34.047  1.00  0.00     0.091 A 
ATOM     18  C   UNL     1      26.394  22.272  33.173  1.00  0.00     0.089 A 
ATOM     19  N   UNL     1      25.868  21.415  35.338  1.00  0.00    -0.244 NA
ATOM     20  N   UNL     1      26.211  23.534  33.640  1.00  0.00    -0.252 NA
ATOM     21  C   UNL     1      25.685  22.678  35.811  1.00  0.00     0.092 A 
ATOM     22  C   UNL     1      25.863  23.763  34.934  1.00  0.00     0.140 A 
BRANCH  21  23
ATOM     23  C   UNL     1      25.299  22.876  37.223  1.00  0.00     0.040 A 
ATOM     24  C   UNL     1      24.040  23.097  37.749  1.00  0.00     0.118 A 
ATOM     25  C   UNL     1      26.149  22.877  38.317  1.00  0.00     0.145 A 
ATOM     26  N   UNL     1      24.163  23.206  39.084  1.00  0.00    -0.275 N 
ATOM     27  N   UNL     1      25.432  23.088  39.438  1.00  0.00    -0.181 NA
ATOM     28  C   UNL     1      23.087  23.504  40.019  1.00  0.00     0.173 C 
ENDBRANCH  21  23
ENDBRANCH   2  13
ENDBRANCH   1   2
BRANCH   1  29
ATOM     29  C   UNL     1      26.549  16.563  30.044  1.00  0.00     0.103 C 
BRANCH  29  30
ATOM     30  N   UNL     1      25.099  16.345  29.935  1.00  0.00    -0.313 NA
ATOM     31  H   UNL     1      24.643  17.055  30.556  1.00  0.00     0.123 HD
BRANCH  30  32
ATOM     32  C   UNL     1      24.711  14.996  30.399  1.00  0.00     0.047 C 
ATOM     33  C   UNL     1      24.119  14.190  29.232  1.00  0.00     0.024 C 
ATOM     34  C   UNL     1      25.930  14.250  30.961  1.00  0.00     0.024 C 
ENDBRANCH  30  32
ENDBRANCH  29  30
ENDBRANCH   1  29
TORSDOF 9
ENDMDL
