MODEL 1
REMARK VINA RESULT:    -9.378      0.000      0.000
REMARK INTER + INTRA:         -11.448
REMARK INTER:                 -11.023
REMARK INTRA:                  -0.426
REMARK UNBOUND:                -0.426
REMARK SMILES O=C(/C=C/C=C/c1ccc2c(c1)OCO2)N1CCCCC1
REMARK SMILES IDX 3 1 4 2 2 3 1 4 16 5 17 6 21 7 18 8 20 9 19 10 5 11 6 12
REMARK SMILES IDX 7 13 12 14 8 15 11 16 9 17 10 18 13 19 15 20 14 21
REMARK H PARENT
REMARK Flexibility Score: inf
ROOT
ATOM      1  C   UNL     1      12.705  78.750  -3.205  1.00  0.00     0.071 C 
ATOM      2  C   UNL     1      12.780  79.936  -3.817  1.00  0.00     0.006 C 
ENDROOT
BRANCH   1   3
ATOM      3  C   UNL     1      11.434  78.199  -2.698  1.00  0.00     0.246 C 
ATOM      4  O   UNL     1      11.100  77.034  -3.044  1.00  0.00    -0.270 OA
ATOM      5  N   UNL     1      10.573  78.957  -1.832  1.00  0.00    -0.339 N 
ATOM      6  C   UNL     1       9.120  78.863  -2.009  1.00  0.00     0.120 C 
ATOM      7  C   UNL     1      11.079  79.418  -0.532  1.00  0.00     0.120 C 
ATOM      8  C   UNL     1       8.452  80.187  -1.623  1.00  0.00     0.022 C 
ATOM      9  C   UNL     1      10.419  80.744  -0.145  1.00  0.00     0.022 C 
ATOM     10  C   UNL     1       8.892  80.635  -0.224  1.00  0.00     0.004 C 
ENDBRANCH   1   3
BRANCH   2  11
ATOM     11  C   UNL     1      14.064  80.447  -4.326  1.00  0.00     0.001 C 
ATOM     12  C   UNL     1      14.894  79.651  -5.012  1.00  0.00     0.008 C 
BRANCH  12  13
ATOM     13  C   UNL     1      16.195  80.096  -5.568  1.00  0.00    -0.022 A 
ATOM     14  C   UNL     1      16.984  80.984  -4.802  1.00  0.00     0.058 A 
ATOM     15  C   UNL     1      16.657  79.689  -6.853  1.00  0.00     0.012 A 
ATOM     16  C   UNL     1      18.199  81.409  -5.328  1.00  0.00     0.166 A 
ATOM     17  C   UNL     1      17.895  80.144  -7.346  1.00  0.00     0.051 A 
ATOM     18  C   UNL     1      18.637  81.005  -6.546  1.00  0.00     0.165 A 
ATOM     19  O   UNL     1      19.130  82.259  -4.764  1.00  0.00    -0.454 OA
ATOM     20  O   UNL     1      19.864  81.582  -6.810  1.00  0.00    -0.454 OA
ATOM     21  C   UNL     1      20.220  82.398  -5.686  1.00  0.00     0.468 C 
ENDBRANCH  12  13
ENDBRANCH   2  11
TORSDOF 3
ENDMDL
MODEL 2
REMARK VINA RESULT:    -9.375      2.813      9.363
REMARK INTER + INTRA:         -11.444
REMARK INTER:                 -11.132
REMARK INTRA:                  -0.312
REMARK UNBOUND:                -0.426
REMARK SMILES O=C(/C=C/C=C/c1ccc2c(c1)OCO2)N1CCCCC1
REMARK SMILES IDX 3 1 4 2 2 3 1 4 16 5 17 6 21 7 18 8 20 9 19 10 5 11 6 12
REMARK SMILES IDX 7 13 12 14 8 15 11 16 9 17 10 18 13 19 15 20 14 21
REMARK H PARENT
REMARK Flexibility Score: inf
ROOT
ATOM      1  C   UNL     1      13.800  80.594  -5.257  1.00  0.00     0.071 C 
ATOM      2  C   UNL     1      13.631  80.413  -3.943  1.00  0.00     0.006 C 
ENDROOT
BRANCH   1   3
ATOM      3  C   UNL     1      14.702  81.625  -5.805  1.00  0.00     0.246 C 
ATOM      4  O   UNL     1      14.272  82.804  -5.925  1.00  0.00    -0.270 OA
ATOM      5  N   UNL     1      16.046  81.316  -6.210  1.00  0.00    -0.339 N 
ATOM      6  C   UNL     1      16.594  81.951  -7.413  1.00  0.00     0.120 C 
ATOM      7  C   UNL     1      16.993  80.781  -5.222  1.00  0.00     0.120 C 
ATOM      8  C   UNL     1      17.597  81.015  -8.096  1.00  0.00     0.022 C 
ATOM      9  C   UNL     1      17.993  79.840  -5.899  1.00  0.00     0.022 C 
ATOM     10  C   UNL     1      18.654  80.524  -7.101  1.00  0.00     0.004 C 
ENDBRANCH   1   3
BRANCH   2  11
ATOM     11  C   UNL     1      12.735  79.363  -3.431  1.00  0.00     0.001 C 
ATOM     12  C   UNL     1      11.591  79.681  -2.813  1.00  0.00     0.008 C 
BRANCH  12  13
ATOM     13  C   UNL     1      10.632  78.681  -2.283  1.00  0.00    -0.022 A 
ATOM     14  C   UNL     1       9.636  79.118  -1.380  1.00  0.00     0.058 A 
ATOM     15  C   UNL     1      10.701  77.299  -2.625  1.00  0.00     0.012 A 
ATOM     16  C   UNL     1       8.743  78.178  -0.876  1.00  0.00     0.166 A 
ATOM     17  C   UNL     1       9.776  76.382  -2.091  1.00  0.00     0.051 A 
ATOM     18  C   UNL     1       8.809  76.868  -1.218  1.00  0.00     0.165 A 
ATOM     19  O   UNL     1       7.695  78.372   0.003  1.00  0.00    -0.454 OA
ATOM     20  O   UNL     1       7.807  76.171  -0.570  1.00  0.00    -0.454 OA
ATOM     21  C   UNL     1       7.064  77.104   0.227  1.00  0.00     0.468 C 
ENDBRANCH  12  13
ENDBRANCH   2  11
TORSDOF 3
ENDMDL
MODEL 3
REMARK VINA RESULT:    -9.249      3.956      5.520
REMARK INTER + INTRA:         -11.297
REMARK INTER:                 -10.937
REMARK INTRA:                  -0.360
REMARK UNBOUND:                -0.426
REMARK SMILES O=C(/C=C/C=C/c1ccc2c(c1)OCO2)N1CCCCC1
REMARK SMILES IDX 3 1 4 2 2 3 1 4 16 5 17 6 21 7 18 8 20 9 19 10 5 11 6 12
REMARK SMILES IDX 7 13 12 14 8 15 11 16 9 17 10 18 13 19 15 20 14 21
REMARK H PARENT
REMARK Flexibility Score: inf
ROOT
ATOM      1  C   UNL     1      10.518  75.912  -2.966  1.00  0.00     0.071 C 
ATOM      2  C   UNL     1      10.903  76.996  -2.285  1.00  0.00     0.006 C 
ENDROOT
BRANCH   1   3
ATOM      3  C   UNL     1       9.747  74.819  -2.347  1.00  0.00     0.246 C 
ATOM      4  O   UNL     1       9.181  75.029  -1.239  1.00  0.00    -0.270 OA
ATOM      5  N   UNL     1       9.631  73.527  -2.967  1.00  0.00    -0.339 N 
ATOM      6  C   UNL     1       9.667  72.325  -2.127  1.00  0.00     0.120 C 
ATOM      7  C   UNL     1       9.024  73.418  -4.300  1.00  0.00     0.120 C 
ATOM      8  C   UNL     1      10.292  71.158  -2.898  1.00  0.00     0.022 C 
ATOM      9  C   UNL     1       9.652  72.257  -5.076  1.00  0.00     0.022 C 
ATOM     10  C   UNL     1       9.604  70.965  -4.254  1.00  0.00     0.004 C 
ENDBRANCH   1   3
BRANCH   2  11
ATOM     11  C   UNL     1      11.657  78.077  -2.942  1.00  0.00     0.001 C 
ATOM     12  C   UNL     1      12.699  77.799  -3.736  1.00  0.00     0.008 C 
BRANCH  12  13
ATOM     13  C   UNL     1      13.498  78.831  -4.442  1.00  0.00    -0.022 A 
ATOM     14  C   UNL     1      14.594  78.408  -5.227  1.00  0.00     0.058 A 
ATOM     15  C   UNL     1      13.220  80.224  -4.328  1.00  0.00     0.012 A 
ATOM     16  C   UNL     1      15.350  79.377  -5.881  1.00  0.00     0.166 A 
ATOM     17  C   UNL     1      14.012  81.169  -5.007  1.00  0.00     0.051 A 
ATOM     18  C   UNL     1      15.069  80.699  -5.777  1.00  0.00     0.165 A 
ATOM     19  O   UNL     1      16.448  79.203  -6.700  1.00  0.00    -0.454 OA
ATOM     20  O   UNL     1      15.978  81.424  -6.525  1.00  0.00    -0.454 OA
ATOM     21  C   UNL     1      16.885  80.497  -7.138  1.00  0.00     0.468 C 
ENDBRANCH  12  13
ENDBRANCH   2  11
TORSDOF 3
ENDMDL
MODEL 4
REMARK VINA RESULT:    -9.177      1.295      1.764
REMARK INTER + INTRA:         -11.212
REMARK INTER:                 -10.812
REMARK INTRA:                  -0.401
REMARK UNBOUND:                -0.426
REMARK SMILES O=C(/C=C/C=C/c1ccc2c(c1)OCO2)N1CCCCC1
REMARK SMILES IDX 3 1 4 2 2 3 1 4 16 5 17 6 21 7 18 8 20 9 19 10 5 11 6 12
REMARK SMILES IDX 7 13 12 14 8 15 11 16 9 17 10 18 13 19 15 20 14 21
REMARK H PARENT
REMARK Flexibility Score: inf
ROOT
ATOM      1  C   UNL     1      12.474  79.532  -2.954  1.00  0.00     0.071 C 
ATOM      2  C   UNL     1      13.014  78.517  -3.635  1.00  0.00     0.006 C 
ENDROOT
BRANCH   1   3
ATOM      3  C   UNL     1      11.369  79.345  -1.995  1.00  0.00     0.246 C 
ATOM      4  O   UNL     1      10.318  78.770  -2.387  1.00  0.00    -0.270 OA
ATOM      5  N   UNL     1      11.461  79.805  -0.636  1.00  0.00    -0.339 N 
ATOM      6  C   UNL     1      10.278  80.392   0.001  1.00  0.00     0.120 C 
ATOM      7  C   UNL     1      12.523  79.280   0.234  1.00  0.00     0.120 C 
ATOM      8  C   UNL     1      10.698  81.456   1.021  1.00  0.00     0.022 C 
ATOM      9  C   UNL     1      12.950  80.342   1.250  1.00  0.00     0.022 C 
ATOM     10  C   UNL     1      11.734  80.896   2.002  1.00  0.00     0.004 C 
ENDBRANCH   1   3
BRANCH   2  11
ATOM     11  C   UNL     1      14.128  78.738  -4.572  1.00  0.00     0.001 C 
ATOM     12  C   UNL     1      14.925  79.807  -4.447  1.00  0.00     0.008 C 
BRANCH  12  13
ATOM     13  C   UNL     1      16.074  80.091  -5.342  1.00  0.00    -0.022 A 
ATOM     14  C   UNL     1      16.984  81.104  -4.965  1.00  0.00     0.058 A 
ATOM     15  C   UNL     1      16.270  79.404  -6.575  1.00  0.00     0.012 A 
ATOM     16  C   UNL     1      18.055  81.377  -5.809  1.00  0.00     0.166 A 
ATOM     17  C   UNL     1      17.369  79.713  -7.399  1.00  0.00     0.051 A 
ATOM     18  C   UNL     1      18.241  80.709  -6.974  1.00  0.00     0.165 A 
ATOM     19  O   UNL     1      19.063  82.307  -5.646  1.00  0.00    -0.454 OA
ATOM     20  O   UNL     1      19.375  81.186  -7.604  1.00  0.00    -0.454 OA
ATOM     21  C   UNL     1      19.937  82.217  -6.781  1.00  0.00     0.468 C 
ENDBRANCH  12  13
ENDBRANCH   2  11
TORSDOF 3
ENDMDL
MODEL 5
REMARK VINA RESULT:    -9.038      2.712      9.204
REMARK INTER + INTRA:         -11.049
REMARK INTER:                 -10.878
REMARK INTRA:                  -0.171
REMARK UNBOUND:                -0.426
REMARK SMILES O=C(/C=C/C=C/c1ccc2c(c1)OCO2)N1CCCCC1
REMARK SMILES IDX 3 1 4 2 2 3 1 4 16 5 17 6 21 7 18 8 20 9 19 10 5 11 6 12
REMARK SMILES IDX 7 13 12 14 8 15 11 16 9 17 10 18 13 19 15 20 14 21
REMARK H PARENT
REMARK Flexibility Score: inf
ROOT
ATOM      1  C   UNL     1      13.721  80.748  -5.171  1.00  0.00     0.071 C 
ATOM      2  C   UNL     1      13.887  80.273  -3.933  1.00  0.00     0.006 C 
ENDROOT
BRANCH   1   3
ATOM      3  C   UNL     1      14.653  81.714  -5.782  1.00  0.00     0.246 C 
ATOM      4  O   UNL     1      14.268  82.903  -5.951  1.00  0.00    -0.270 OA
ATOM      5  N   UNL     1      15.978  81.332  -6.192  1.00  0.00    -0.339 N 
ATOM      6  C   UNL     1      16.529  81.887  -7.432  1.00  0.00     0.120 C 
ATOM      7  C   UNL     1      16.919  80.807  -5.194  1.00  0.00     0.120 C 
ATOM      8  C   UNL     1      17.482  80.881  -8.086  1.00  0.00     0.022 C 
ATOM      9  C   UNL     1      17.869  79.796  -5.841  1.00  0.00     0.022 C 
ATOM     10  C   UNL     1      18.536  80.395  -7.084  1.00  0.00     0.004 C 
ENDBRANCH   1   3
BRANCH   2  11
ATOM     11  C   UNL     1      12.945  79.296  -3.362  1.00  0.00     0.001 C 
ATOM     12  C   UNL     1      11.753  79.687  -2.895  1.00  0.00     0.008 C 
BRANCH  12  13
ATOM     13  C   UNL     1      10.747  78.762  -2.319  1.00  0.00    -0.022 A 
ATOM     14  C   UNL     1      10.779  77.405  -2.714  1.00  0.00     0.058 A 
ATOM     15  C   UNL     1       9.736  79.198  -1.414  1.00  0.00     0.012 A 
ATOM     16  C   UNL     1       9.829  76.540  -2.182  1.00  0.00     0.166 A 
ATOM     17  C   UNL     1       8.794  78.287  -0.900  1.00  0.00     0.051 A 
ATOM     18  C   UNL     1       8.879  76.962  -1.311  1.00  0.00     0.165 A 
ATOM     19  O   UNL     1       9.672  75.187  -2.413  1.00  0.00    -0.454 OA
ATOM     20  O   UNL     1       8.076  75.896  -0.951  1.00  0.00    -0.454 OA
ATOM     21  C   UNL     1       8.553  74.732  -1.639  1.00  0.00     0.468 C 
ENDBRANCH  12  13
ENDBRANCH   2  11
TORSDOF 3
ENDMDL
MODEL 6
REMARK VINA RESULT:    -8.995      2.502      3.685
REMARK INTER + INTRA:         -10.998
REMARK INTER:                 -10.695
REMARK INTRA:                  -0.304
REMARK UNBOUND:                -0.426
REMARK SMILES O=C(/C=C/C=C/c1ccc2c(c1)OCO2)N1CCCCC1
REMARK SMILES IDX 3 1 4 2 2 3 1 4 16 5 17 6 21 7 18 8 20 9 19 10 5 11 6 12
REMARK SMILES IDX 7 13 12 14 8 15 11 16 9 17 10 18 13 19 15 20 14 21
REMARK H PARENT
REMARK Flexibility Score: inf
ROOT
ATOM      1  C   UNL     1      10.705  78.600  -2.251  1.00  0.00     0.071 C 
ATOM      2  C   UNL     1      11.400  79.721  -2.467  1.00  0.00     0.006 C 
ENDROOT
BRANCH   1   3
ATOM      3  C   UNL     1       9.414  78.594  -1.537  1.00  0.00     0.246 C 
ATOM      4  O   UNL     1       9.095  79.605  -0.854  1.00  0.00    -0.270 OA
ATOM      5  N   UNL     1       8.521  77.468  -1.597  1.00  0.00    -0.339 N 
ATOM      6  C   UNL     1       7.790  77.071  -0.389  1.00  0.00     0.120 C 
ATOM      7  C   UNL     1       7.990  77.036  -2.897  1.00  0.00     0.120 C 
ATOM      8  C   UNL     1       7.555  75.557  -0.385  1.00  0.00     0.022 C 
ATOM      9  C   UNL     1       7.761  75.522  -2.900  1.00  0.00     0.022 C 
ATOM     10  C   UNL     1       6.908  75.099  -1.697  1.00  0.00     0.004 C 
ENDBRANCH   1   3
BRANCH   2  11
ATOM     11  C   UNL     1      12.678  79.692  -3.198  1.00  0.00     0.001 C 
ATOM     12  C   UNL     1      12.799  80.295  -4.387  1.00  0.00     0.008 C 
BRANCH  12  13
ATOM     13  C   UNL     1      14.055  80.322  -5.177  1.00  0.00    -0.022 A 
ATOM     14  C   UNL     1      14.616  79.091  -5.586  1.00  0.00     0.058 A 
ATOM     15  C   UNL     1      14.727  81.535  -5.505  1.00  0.00     0.012 A 
ATOM     16  C   UNL     1      15.800  79.116  -6.317  1.00  0.00     0.166 A 
ATOM     17  C   UNL     1      15.923  81.513  -6.247  1.00  0.00     0.051 A 
ATOM     18  C   UNL     1      16.424  80.276  -6.636  1.00  0.00     0.165 A 
ATOM     19  O   UNL     1      16.519  78.051  -6.825  1.00  0.00    -0.454 OA
ATOM     20  O   UNL     1      17.569  80.000  -7.359  1.00  0.00    -0.454 OA
ATOM     21  C   UNL     1      17.668  78.577  -7.505  1.00  0.00     0.468 C 
ENDBRANCH  12  13
ENDBRANCH   2  11
TORSDOF 3
ENDMDL
MODEL 7
REMARK VINA RESULT:    -8.854      1.347      1.748
REMARK INTER + INTRA:         -10.833
REMARK INTER:                 -10.554
REMARK INTRA:                  -0.279
REMARK UNBOUND:                -0.426
REMARK SMILES O=C(/C=C/C=C/c1ccc2c(c1)OCO2)N1CCCCC1
REMARK SMILES IDX 3 1 4 2 2 3 1 4 16 5 17 6 21 7 18 8 20 9 19 10 5 11 6 12
REMARK SMILES IDX 7 13 12 14 8 15 11 16 9 17 10 18 13 19 15 20 14 21
REMARK H PARENT
REMARK Flexibility Score: inf
ROOT
ATOM      1  C   UNL     1      11.944  77.995  -3.018  1.00  0.00     0.071 C 
ATOM      2  C   UNL     1      12.323  79.261  -3.220  1.00  0.00     0.006 C 
ENDROOT
BRANCH   1   3
ATOM      3  C   UNL     1      10.582  77.637  -2.580  1.00  0.00     0.246 C 
ATOM      4  O   UNL     1      10.154  76.476  -2.824  1.00  0.00    -0.270 OA
ATOM      5  N   UNL     1       9.735  78.575  -1.894  1.00  0.00    -0.339 N 
ATOM      6  C   UNL     1       8.302  78.603  -2.203  1.00  0.00     0.120 C 
ATOM      7  C   UNL     1      10.175  79.139  -0.611  1.00  0.00     0.120 C 
ATOM      8  C   UNL     1       7.750  80.022  -2.035  1.00  0.00     0.022 C 
ATOM      9  C   UNL     1       9.631  80.561  -0.442  1.00  0.00     0.022 C 
ATOM     10  C   UNL     1       8.114  80.592  -0.660  1.00  0.00     0.004 C 
ENDBRANCH   1   3
BRANCH   2  11
ATOM     11  C   UNL     1      13.687  79.580  -3.674  1.00  0.00     0.001 C 
ATOM     12  C   UNL     1      13.888  80.257  -4.812  1.00  0.00     0.008 C 
BRANCH  12  13
ATOM     13  C   UNL     1      15.229  80.628  -5.327  1.00  0.00    -0.022 A 
ATOM     14  C   UNL     1      15.306  81.352  -6.539  1.00  0.00     0.058 A 
ATOM     15  C   UNL     1      16.434  80.253  -4.664  1.00  0.00     0.012 A 
ATOM     16  C   UNL     1      16.564  81.691  -7.026  1.00  0.00     0.166 A 
ATOM     17  C   UNL     1      17.686  80.617  -5.194  1.00  0.00     0.051 A 
ATOM     18  C   UNL     1      17.704  81.341  -6.381  1.00  0.00     0.165 A 
ATOM     19  O   UNL     1      16.881  82.394  -8.172  1.00  0.00    -0.454 OA
ATOM     20  O   UNL     1      18.796  81.805  -7.089  1.00  0.00    -0.454 OA
ATOM     21  C   UNL     1      18.310  82.491  -8.251  1.00  0.00     0.468 C 
ENDBRANCH  12  13
ENDBRANCH   2  11
TORSDOF 3
ENDMDL
MODEL 8
REMARK VINA RESULT:    -8.617      2.556      3.646
REMARK INTER + INTRA:         -10.554
REMARK INTER:                 -10.247
REMARK INTRA:                  -0.307
REMARK UNBOUND:                -0.426
REMARK SMILES O=C(/C=C/C=C/c1ccc2c(c1)OCO2)N1CCCCC1
REMARK SMILES IDX 3 1 4 2 2 3 1 4 16 5 17 6 21 7 18 8 20 9 19 10 5 11 6 12
REMARK SMILES IDX 7 13 12 14 8 15 11 16 9 17 10 18 13 19 15 20 14 21
REMARK H PARENT
REMARK Flexibility Score: inf
ROOT
ATOM      1  C   UNL     1      11.208  78.109  -2.358  1.00  0.00     0.071 C 
ATOM      2  C   UNL     1      12.471  78.034  -2.789  1.00  0.00     0.006 C 
ENDROOT
BRANCH   1   3
ATOM      3  C   UNL     1      10.579  77.041  -1.559  1.00  0.00     0.246 C 
ATOM      4  O   UNL     1      11.050  76.780  -0.419  1.00  0.00    -0.270 OA
ATOM      5  N   UNL     1       9.454  76.291  -2.051  1.00  0.00    -0.339 N 
ATOM      6  C   UNL     1       9.376  74.854  -1.771  1.00  0.00     0.120 C 
ATOM      7  C   UNL     1       8.210  76.995  -2.389  1.00  0.00     0.120 C 
ATOM      8  C   UNL     1       8.655  74.130  -2.912  1.00  0.00     0.022 C 
ATOM      9  C   UNL     1       7.490  76.279  -3.534  1.00  0.00     0.022 C 
ATOM     10  C   UNL     1       7.306  74.791  -3.215  1.00  0.00     0.004 C 
ENDBRANCH   1   3
BRANCH   2  11
ATOM     11  C   UNL     1      13.073  79.128  -3.570  1.00  0.00     0.001 C 
ATOM     12  C   UNL     1      14.017  78.876  -4.485  1.00  0.00     0.008 C 
BRANCH  12  13
ATOM     13  C   UNL     1      14.659  79.921  -5.319  1.00  0.00    -0.022 A 
ATOM     14  C   UNL     1      15.751  79.550  -6.137  1.00  0.00     0.058 A 
ATOM     15  C   UNL     1      14.238  81.282  -5.298  1.00  0.00     0.012 A 
ATOM     16  C   UNL     1      16.359  80.533  -6.911  1.00  0.00     0.166 A 
ATOM     17  C   UNL     1      14.883  82.244  -6.099  1.00  0.00     0.051 A 
ATOM     18  C   UNL     1      15.942  81.823  -6.895  1.00  0.00     0.165 A 
ATOM     19  O   UNL     1      17.423  80.405  -7.782  1.00  0.00    -0.454 OA
ATOM     20  O   UNL     1      16.724  82.572  -7.753  1.00  0.00    -0.454 OA
ATOM     21  C   UNL     1      17.692  81.696  -8.347  1.00  0.00     0.468 C 
ENDBRANCH  12  13
ENDBRANCH   2  11
TORSDOF 3
ENDMDL
MODEL 9
REMARK VINA RESULT:    -8.584      2.384      3.411
REMARK INTER + INTRA:         -10.516
REMARK INTER:                 -10.224
REMARK INTRA:                  -0.292
REMARK UNBOUND:                -0.426
REMARK SMILES O=C(/C=C/C=C/c1ccc2c(c1)OCO2)N1CCCCC1
REMARK SMILES IDX 3 1 4 2 2 3 1 4 16 5 17 6 21 7 18 8 20 9 19 10 5 11 6 12
REMARK SMILES IDX 7 13 12 14 8 15 11 16 9 17 10 18 13 19 15 20 14 21
REMARK H PARENT
REMARK Flexibility Score: inf
ROOT
ATOM      1  C   UNL     1      10.623  77.828  -2.281  1.00  0.00     0.071 C 
ATOM      2  C   UNL     1      11.377  78.887  -2.587  1.00  0.00     0.006 C 
ENDROOT
BRANCH   1   3
ATOM      3  C   UNL     1       9.351  77.947  -1.545  1.00  0.00     0.246 C 
ATOM      4  O   UNL     1       9.170  78.953  -0.806  1.00  0.00    -0.270 OA
ATOM      5  N   UNL     1       8.322  76.946  -1.644  1.00  0.00    -0.339 N 
ATOM      6  C   UNL     1       7.562  76.582  -0.443  1.00  0.00     0.120 C 
ATOM      7  C   UNL     1       7.725  76.652  -2.953  1.00  0.00     0.120 C 
ATOM      8  C   UNL     1       7.137  75.112  -0.510  1.00  0.00     0.022 C 
ATOM      9  C   UNL     1       7.306  75.182  -3.027  1.00  0.00     0.022 C 
ATOM     10  C   UNL     1       6.422  74.808  -1.831  1.00  0.00     0.004 C 
ENDBRANCH   1   3
BRANCH   2  11
ATOM     11  C   UNL     1      12.634  78.733  -3.339  1.00  0.00     0.001 C 
ATOM     12  C   UNL     1      13.168  79.768  -3.999  1.00  0.00     0.008 C 
BRANCH  12  13
ATOM     13  C   UNL     1      14.436  79.694  -4.765  1.00  0.00    -0.022 A 
ATOM     14  C   UNL     1      15.479  80.586  -4.425  1.00  0.00     0.058 A 
ATOM     15  C   UNL     1      14.625  78.784  -5.846  1.00  0.00     0.012 A 
ATOM     16  C   UNL     1      16.664  80.522  -5.151  1.00  0.00     0.166 A 
ATOM     17  C   UNL     1      15.841  78.755  -6.554  1.00  0.00     0.051 A 
ATOM     18  C   UNL     1      16.839  79.645  -6.169  1.00  0.00     0.165 A 
ATOM     19  O   UNL     1      17.809  81.279  -4.995  1.00  0.00    -0.454 OA
ATOM     20  O   UNL     1      18.101  79.805  -6.707  1.00  0.00    -0.454 OA
ATOM     21  C   UNL     1      18.762  80.850  -5.978  1.00  0.00     0.468 C 
ENDBRANCH  12  13
ENDBRANCH   2  11
TORSDOF 3
ENDMDL
MODEL 10
REMARK VINA RESULT:    -8.151      2.443      3.667
REMARK INTER + INTRA:         -10.007
REMARK INTER:                  -9.591
REMARK INTRA:                  -0.416
REMARK UNBOUND:                -0.426
REMARK SMILES O=C(/C=C/C=C/c1ccc2c(c1)OCO2)N1CCCCC1
REMARK SMILES IDX 3 1 4 2 2 3 1 4 16 5 17 6 21 7 18 8 20 9 19 10 5 11 6 12
REMARK SMILES IDX 7 13 12 14 8 15 11 16 9 17 10 18 13 19 15 20 14 21
REMARK H PARENT
REMARK Flexibility Score: inf
ROOT
ATOM      1  C   UNL     1      10.101  79.573  -2.194  1.00  0.00     0.071 C 
ATOM      2  C   UNL     1      11.110  78.712  -2.035  1.00  0.00     0.006 C 
ENDROOT
BRANCH   1   3
ATOM      3  C   UNL     1       8.769  79.354  -1.599  1.00  0.00     0.246 C 
ATOM      4  O   UNL     1       8.125  80.351  -1.173  1.00  0.00    -0.270 OA
ATOM      5  N   UNL     1       8.197  78.039  -1.489  1.00  0.00    -0.339 N 
ATOM      6  C   UNL     1       7.435  77.691  -0.285  1.00  0.00     0.120 C 
ATOM      7  C   UNL     1       7.964  77.249  -2.704  1.00  0.00     0.120 C 
ATOM      8  C   UNL     1       7.581  76.197   0.022  1.00  0.00     0.022 C 
ATOM      9  C   UNL     1       8.116  75.755  -2.404  1.00  0.00     0.022 C 
ATOM     10  C   UNL     1       7.244  75.349  -1.210  1.00  0.00     0.004 C 
ENDBRANCH   1   3
BRANCH   2  11
ATOM     11  C   UNL     1      12.431  78.972  -2.629  1.00  0.00     0.001 C 
ATOM     12  C   UNL     1      12.598  79.955  -3.523  1.00  0.00     0.008 C 
BRANCH  12  13
ATOM     13  C   UNL     1      13.899  80.287  -4.153  1.00  0.00    -0.022 A 
ATOM     14  C   UNL     1      13.895  81.084  -5.321  1.00  0.00     0.058 A 
ATOM     15  C   UNL     1      15.141  79.805  -3.645  1.00  0.00     0.012 A 
ATOM     16  C   UNL     1      15.115  81.386  -5.917  1.00  0.00     0.166 A 
ATOM     17  C   UNL     1      16.351  80.136  -4.282  1.00  0.00     0.051 A 
ATOM     18  C   UNL     1      16.291  80.935  -5.419  1.00  0.00     0.165 A 
ATOM     19  O   UNL     1      15.355  82.146  -7.046  1.00  0.00    -0.454 OA
ATOM     20  O   UNL     1      17.332  81.385  -6.209  1.00  0.00    -0.454 OA
ATOM     21  C   UNL     1      16.772  82.171  -7.270  1.00  0.00     0.468 C 
ENDBRANCH  12  13
ENDBRANCH   2  11
TORSDOF 3
ENDMDL
MODEL 11
REMARK VINA RESULT:    -7.943      2.920      4.027
REMARK INTER + INTRA:          -9.762
REMARK INTER:                  -9.461
REMARK INTRA:                  -0.301
REMARK UNBOUND:                -0.426
REMARK SMILES O=C(/C=C/C=C/c1ccc2c(c1)OCO2)N1CCCCC1
REMARK SMILES IDX 3 1 4 2 2 3 1 4 16 5 17 6 21 7 18 8 20 9 19 10 5 11 6 12
REMARK SMILES IDX 7 13 12 14 8 15 11 16 9 17 10 18 13 19 15 20 14 21
REMARK H PARENT
REMARK Flexibility Score: inf
ROOT
ATOM      1  C   UNL     1      10.354  76.351  -2.871  1.00  0.00     0.071 C 
ATOM      2  C   UNL     1      11.358  77.037  -2.315  1.00  0.00     0.006 C 
ENDROOT
BRANCH   1   3
ATOM      3  C   UNL     1       9.701  75.214  -2.196  1.00  0.00     0.246 C 
ATOM      4  O   UNL     1      10.183  74.059  -2.352  1.00  0.00    -0.270 OA
ATOM      5  N   UNL     1       8.531  75.391  -1.378  1.00  0.00    -0.339 N 
ATOM      6  C   UNL     1       7.466  74.384  -1.428  1.00  0.00     0.120 C 
ATOM      7  C   UNL     1       8.601  76.262  -0.197  1.00  0.00     0.120 C 
ATOM      8  C   UNL     1       6.105  75.039  -1.175  1.00  0.00     0.022 C 
ATOM      9  C   UNL     1       7.244  76.924   0.054  1.00  0.00     0.022 C 
ATOM     10  C   UNL     1       6.129  75.874   0.110  1.00  0.00     0.004 C 
ENDBRANCH   1   3
BRANCH   2  11
ATOM     11  C   UNL     1      11.975  78.177  -3.010  1.00  0.00     0.001 C 
ATOM     12  C   UNL     1      13.001  77.992  -3.851  1.00  0.00     0.008 C 
BRANCH  12  13
ATOM     13  C   UNL     1      13.666  79.088  -4.598  1.00  0.00    -0.022 A 
ATOM     14  C   UNL     1      14.830  78.785  -5.339  1.00  0.00     0.058 A 
ATOM     15  C   UNL     1      13.193  80.432  -4.567  1.00  0.00     0.012 A 
ATOM     16  C   UNL     1      15.459  79.815  -6.032  1.00  0.00     0.166 A 
ATOM     17  C   UNL     1      13.861  81.443  -5.283  1.00  0.00     0.051 A 
ATOM     18  C   UNL     1      14.993  81.088  -6.007  1.00  0.00     0.165 A 
ATOM     19  O   UNL     1      16.591  79.755  -6.820  1.00  0.00    -0.454 OA
ATOM     20  O   UNL     1      15.810  81.894  -6.776  1.00  0.00    -0.454 OA
ATOM     21  C   UNL     1      16.853  81.074  -7.321  1.00  0.00     0.468 C 
ENDBRANCH  12  13
ENDBRANCH   2  11
TORSDOF 3
ENDMDL
MODEL 12
REMARK VINA RESULT:    -7.868      2.755      9.059
REMARK INTER + INTRA:          -9.674
REMARK INTER:                  -9.294
REMARK INTRA:                  -0.380
REMARK UNBOUND:                -0.426
REMARK SMILES O=C(/C=C/C=C/c1ccc2c(c1)OCO2)N1CCCCC1
REMARK SMILES IDX 3 1 4 2 2 3 1 4 16 5 17 6 21 7 18 8 20 9 19 10 5 11 6 12
REMARK SMILES IDX 7 13 12 14 8 15 11 16 9 17 10 18 13 19 15 20 14 21
REMARK H PARENT
REMARK Flexibility Score: inf
ROOT
ATOM      1  C   UNL     1      15.196  79.351  -5.969  1.00  0.00     0.071 C 
ATOM      2  C   UNL     1      15.156  80.012  -4.808  1.00  0.00     0.006 C 
ENDROOT
BRANCH   1   3
ATOM      3  C   UNL     1      16.451  79.130  -6.712  1.00  0.00     0.246 C 
ATOM      4  O   UNL     1      16.818  77.946  -6.942  1.00  0.00    -0.270 OA
ATOM      5  N   UNL     1      17.262  80.225  -7.170  1.00  0.00    -0.339 N 
ATOM      6  C   UNL     1      18.723  80.110  -7.103  1.00  0.00     0.120 C 
ATOM      7  C   UNL     1      16.692  81.205  -8.104  1.00  0.00     0.120 C 
ATOM      8  C   UNL     1      19.354  81.486  -6.872  1.00  0.00     0.022 C 
ATOM      9  C   UNL     1      17.315  82.585  -7.872  1.00  0.00     0.022 C 
ATOM     10  C   UNL     1      18.845  82.502  -7.901  1.00  0.00     0.004 C 
ENDBRANCH   1   3
BRANCH   2  11
ATOM     11  C   UNL     1      13.888  80.199  -4.084  1.00  0.00     0.001 C 
ATOM     12  C   UNL     1      13.580  79.430  -3.032  1.00  0.00     0.008 C 
BRANCH  12  13
ATOM     13  C   UNL     1      12.330  79.567  -2.245  1.00  0.00    -0.022 A 
ATOM     14  C   UNL     1      11.231  78.745  -2.583  1.00  0.00     0.058 A 
ATOM     15  C   UNL     1      12.190  80.515  -1.190  1.00  0.00     0.012 A 
ATOM     16  C   UNL     1      10.056  78.881  -1.851  1.00  0.00     0.166 A 
ATOM     17  C   UNL     1      10.982  80.618  -0.476  1.00  0.00     0.051 A 
ATOM     18  C   UNL     1       9.937  79.776  -0.841  1.00  0.00     0.165 A 
ATOM     19  O   UNL     1       8.870  78.188  -1.994  1.00  0.00    -0.454 OA
ATOM     20  O   UNL     1       8.669  79.694  -0.297  1.00  0.00    -0.454 OA
ATOM     21  C   UNL     1       7.948  78.681  -1.011  1.00  0.00     0.468 C 
ENDBRANCH  12  13
ENDBRANCH   2  11
TORSDOF 3
ENDMDL
MODEL 13
REMARK VINA RESULT:    -7.819      2.106      2.870
REMARK INTER + INTRA:          -9.616
REMARK INTER:                  -9.499
REMARK INTRA:                  -0.117
REMARK UNBOUND:                -0.426
REMARK SMILES O=C(/C=C/C=C/c1ccc2c(c1)OCO2)N1CCCCC1
REMARK SMILES IDX 3 1 4 2 2 3 1 4 16 5 17 6 21 7 18 8 20 9 19 10 5 11 6 12
REMARK SMILES IDX 7 13 12 14 8 15 11 16 9 17 10 18 13 19 15 20 14 21
REMARK H PARENT
REMARK Flexibility Score: inf
ROOT
ATOM      1  C   UNL     1      12.255  78.455  -1.973  1.00  0.00     0.071 C 
ATOM      2  C   UNL     1      12.532  78.455  -3.281  1.00  0.00     0.006 C 
ENDROOT
BRANCH   1   3
ATOM      3  C   UNL     1      10.900  78.198  -1.450  1.00  0.00     0.246 C 
ATOM      4  O   UNL     1      10.286  79.136  -0.873  1.00  0.00    -0.270 OA
ATOM      5  N   UNL     1      10.272  76.911  -1.575  1.00  0.00    -0.339 N 
ATOM      6  C   UNL     1       9.465  76.399  -0.462  1.00  0.00     0.120 C 
ATOM      7  C   UNL     1      10.039  76.348  -2.911  1.00  0.00     0.120 C 
ATOM      8  C   UNL     1       9.542  74.870  -0.411  1.00  0.00     0.022 C 
ATOM      9  C   UNL     1      10.122  74.820  -2.865  1.00  0.00     0.022 C 
ATOM     10  C   UNL     1       9.204  74.257  -1.775  1.00  0.00     0.004 C 
ENDBRANCH   1   3
BRANCH   2  11
ATOM     11  C   UNL     1      13.900  78.699  -3.767  1.00  0.00     0.001 C 
ATOM     12  C   UNL     1      14.114  79.414  -4.879  1.00  0.00     0.008 C 
BRANCH  12  13
ATOM     13  C   UNL     1      15.461  79.713  -5.422  1.00  0.00    -0.022 A 
ATOM     14  C   UNL     1      16.239  80.704  -4.781  1.00  0.00     0.058 A 
ATOM     15  C   UNL     1      15.980  79.065  -6.580  1.00  0.00     0.012 A 
ATOM     16  C   UNL     1      17.498  80.991  -5.297  1.00  0.00     0.166 A 
ATOM     17  C   UNL     1      17.260  79.388  -7.068  1.00  0.00     0.051 A 
ATOM     18  C   UNL     1      17.988  80.360  -6.392  1.00  0.00     0.165 A 
ATOM     19  O   UNL     1      18.428  81.904  -4.838  1.00  0.00    -0.454 OA
ATOM     20  O   UNL     1      19.251  80.844  -6.678  1.00  0.00    -0.454 OA
ATOM     21  C   UNL     1      19.573  81.841  -5.699  1.00  0.00     0.468 C 
ENDBRANCH  12  13
ENDBRANCH   2  11
TORSDOF 3
ENDMDL
MODEL 14
REMARK VINA RESULT:    -7.379      3.437     10.075
REMARK INTER + INTRA:          -9.099
REMARK INTER:                  -8.664
REMARK INTRA:                  -0.434
REMARK UNBOUND:                -0.426
REMARK SMILES O=C(/C=C/C=C/c1ccc2c(c1)OCO2)N1CCCCC1
REMARK SMILES IDX 3 1 4 2 2 3 1 4 16 5 17 6 21 7 18 8 20 9 19 10 5 11 6 12
REMARK SMILES IDX 7 13 12 14 8 15 11 16 9 17 10 18 13 19 15 20 14 21
REMARK H PARENT
REMARK Flexibility Score: inf
ROOT
ATOM      1  C   UNL     1      12.811  79.240  -1.732  1.00  0.00     0.071 C 
ATOM      2  C   UNL     1      11.717  79.612  -2.403  1.00  0.00     0.006 C 
ENDROOT
BRANCH   1   3
ATOM      3  C   UNL     1      14.174  79.548  -2.205  1.00  0.00     0.246 C 
ATOM      4  O   UNL     1      15.023  79.968  -1.373  1.00  0.00    -0.270 OA
ATOM      5  N   UNL     1      14.551  79.388  -3.584  1.00  0.00    -0.339 N 
ATOM      6  C   UNL     1      15.440  80.379  -4.200  1.00  0.00     0.120 C 
ATOM      7  C   UNL     1      14.458  78.062  -4.209  1.00  0.00     0.120 C 
ATOM      8  C   UNL     1      15.122  80.521  -5.692  1.00  0.00     0.022 C 
ATOM      9  C   UNL     1      14.134  78.199  -5.698  1.00  0.00     0.022 C 
ATOM     10  C   UNL     1      15.119  79.153  -6.384  1.00  0.00     0.004 C 
ENDBRANCH   1   3
BRANCH   2  11
ATOM     11  C   UNL     1      10.371  79.303  -1.892  1.00  0.00     0.001 C 
ATOM     12  C   UNL     1      10.144  78.179  -1.201  1.00  0.00     0.008 C 
BRANCH  12  13
ATOM     13  C   UNL     1       8.821  77.805  -0.642  1.00  0.00    -0.022 A 
ATOM     14  C   UNL     1       8.488  76.433  -0.567  1.00  0.00     0.058 A 
ATOM     15  C   UNL     1       7.870  78.776  -0.214  1.00  0.00     0.012 A 
ATOM     16  C   UNL     1       7.243  76.084  -0.053  1.00  0.00     0.166 A 
ATOM     17  C   UNL     1       6.622  78.376   0.300  1.00  0.00     0.051 A 
ATOM     18  C   UNL     1       6.350  77.014   0.365  1.00  0.00     0.165 A 
ATOM     19  O   UNL     1       6.709  74.822   0.122  1.00  0.00    -0.454 OA
ATOM     20  O   UNL     1       5.208  76.386   0.822  1.00  0.00    -0.454 OA
ATOM     21  C   UNL     1       5.397  74.971   0.684  1.00  0.00     0.468 C 
ENDBRANCH  12  13
ENDBRANCH   2  11
TORSDOF 3
ENDMDL
