MODEL 1
REMARK VINA RESULT:    -8.406      0.000      0.000
REMARK INTER + INTRA:         -16.350
REMARK INTER:                 -13.811
REMARK INTRA:                  -2.539
REMARK UNBOUND:                -2.539
REMARK SMILES COc1cc(Nc2ncc(F)c(Nc3ccc4c(n3)N(COP(=O)(O)O)C(=O)C(C)(C)O4)n2)cc(OC)c1OC
REMARK SMILES IDX 14 1 19 2 18 3 17 4 32 5 29 6 30 7 31 8 27 9 28 10 20 11
REMARK SMILES IDX 16 12 15 13 13 14 12 16 7 17 8 18 33 19 9 20 10 21 11 22
REMARK SMILES IDX 6 23 5 25 3 26 4 27 38 28 35 29 34 30 2 31 1 32 39 33 40 34
REMARK SMILES IDX 36 35 37 36 21 37 22 38 23 39 24 40 25 41 26 43
REMARK H PARENT 13 15 6 24 25 42 26 44
REMARK Flexibility Score: inf
ROOT
ATOM      1  C   UNL     1      28.452  12.838   9.976  1.00  0.00     0.134 A 
ATOM      2  N   UNL     1      27.896  11.611   9.780  1.00  0.00    -0.209 NA
ATOM      3  C   UNL     1      26.670  11.280  10.276  1.00  0.00     0.182 A 
ATOM      4  C   UNL     1      25.952  12.219  11.024  1.00  0.00     0.164 A 
ATOM      5  O   UNL     1      24.689  11.897  11.527  1.00  0.00    -0.474 OA
ATOM      6  C   UNL     1      23.888  10.831  11.004  1.00  0.00     0.182 C 
ATOM      7  C   UNL     1      22.991  10.315  12.139  1.00  0.00     0.067 C 
ATOM      8  C   UNL     1      23.022  11.387   9.865  1.00  0.00     0.067 C 
ATOM      9  C   UNL     1      24.756   9.708  10.462  1.00  0.00     0.273 C 
ATOM     10  O   UNL     1      24.250   8.566  10.277  1.00  0.00    -0.270 OA
ATOM     11  N   UNL     1      26.121   9.966  10.072  1.00  0.00    -0.265 N 
ATOM     12  C   UNL     1      26.514  13.472  11.276  1.00  0.00     0.054 A 
ATOM     13  C   UNL     1      27.768  13.789  10.753  1.00  0.00     0.051 A 
ENDROOT
BRANCH   1  14
ATOM     14  N   UNL     1      29.753  13.109   9.436  1.00  0.00    -0.322 N 
ATOM     15  H   UNL     1      29.804  13.593   8.512  1.00  0.00     0.170 HD
BRANCH  14  16
ATOM     16  C   UNL     1      30.989  12.732  10.063  1.00  0.00     0.173 A 
ATOM     17  C   UNL     1      32.517  11.008  10.635  1.00  0.00     0.229 A 
ATOM     18  N   UNL     1      33.379  11.930  11.144  1.00  0.00    -0.218 NA
ATOM     19  N   UNL     1      31.343  11.419  10.084  1.00  0.00    -0.192 NA
ATOM     20  C   UNL     1      33.079  13.254  11.131  1.00  0.00     0.158 A 
ATOM     21  C   UNL     1      31.875  13.689  10.582  1.00  0.00     0.184 A 
ATOM     22  F   UNL     1      31.609  15.017  10.511  1.00  0.00    -0.201 F 
BRANCH  17  23
ATOM     23  N   UNL     1      32.856   9.613  10.618  1.00  0.00    -0.324 N 
ATOM     24  H   UNL     1      32.563   9.039  11.440  1.00  0.00     0.170 HD
BRANCH  23  25
ATOM     25  C   UNL     1      33.442   8.934   9.493  1.00  0.00     0.049 A 
ATOM     26  C   UNL     1      33.519   6.981   8.040  1.00  0.00     0.166 A 
ATOM     27  C   UNL     1      32.964   7.673   9.130  1.00  0.00     0.076 A 
ATOM     28  C   UNL     1      34.577   7.549   7.312  1.00  0.00     0.203 A 
ATOM     29  C   UNL     1      35.091   8.816   7.692  1.00  0.00     0.166 A 
ATOM     30  C   UNL     1      34.522   9.487   8.792  1.00  0.00     0.076 A 
BRANCH  26  31
ATOM     31  O   UNL     1      33.043   5.720   7.643  1.00  0.00    -0.493 OA
ATOM     32  C   UNL     1      33.417   4.486   8.246  1.00  0.00     0.278 C 
ENDBRANCH  26  31
BRANCH  28  33
ATOM     33  O   UNL     1      35.070   6.799   6.227  1.00  0.00    -0.490 OA
ATOM     34  C   UNL     1      34.809   7.029   4.847  1.00  0.00     0.278 C 
ENDBRANCH  28  33
BRANCH  29  35
ATOM     35  O   UNL     1      36.159   9.382   6.977  1.00  0.00    -0.493 OA
ATOM     36  C   UNL     1      37.362   9.876   7.558  1.00  0.00     0.278 C 
ENDBRANCH  29  35
ENDBRANCH  23  25
ENDBRANCH  17  23
ENDBRANCH  14  16
ENDBRANCH   1  14
BRANCH  11  37
ATOM     37  C   UNL     1      26.903   8.941   9.369  1.00  0.00     0.303 C 
BRANCH  37  38
ATOM     38  O   UNL     1      27.515   8.101  10.320  1.00  0.00    -0.265 OA
BRANCH  38  39
ATOM     39  P   UNL     1      29.205   8.317  10.232  1.00  0.00     0.471 P 
ATOM     40  O   UNL     1      29.590   8.766   8.838  1.00  0.00    -0.228 OA
BRANCH  39  41
ATOM     41  O   UNL     1      30.017   6.878  10.622  1.00  0.00    -0.303 OA
ATOM     42  H   UNL     1      30.658   6.733   9.880  1.00  0.00     0.223 HD
ENDBRANCH  39  41
BRANCH  39  43
ATOM     43  O   UNL     1      29.656   9.513  11.341  1.00  0.00    -0.303 OA
ATOM     44  H   UNL     1      30.542   9.223  11.677  1.00  0.00     0.223 HD
ENDBRANCH  39  43
ENDBRANCH  38  39
ENDBRANCH  37  38
ENDBRANCH  11  37
TORSDOF 12
ENDMDL
MODEL 2
REMARK VINA RESULT:    -8.377      1.498      8.615
REMARK INTER + INTRA:         -16.303
REMARK INTER:                 -14.154
REMARK INTRA:                  -2.149
REMARK UNBOUND:                -2.539
REMARK SMILES COc1cc(Nc2ncc(F)c(Nc3ccc4c(n3)N(COP(=O)(O)O)C(=O)C(C)(C)O4)n2)cc(OC)c1OC
REMARK SMILES IDX 14 1 19 2 18 3 17 4 32 5 29 6 30 7 31 8 27 9 28 10 20 11
REMARK SMILES IDX 16 12 15 13 13 14 12 16 7 17 8 18 33 19 9 20 10 21 11 22
REMARK SMILES IDX 6 23 5 25 3 26 4 27 38 28 35 29 34 30 2 31 1 32 39 33 40 34
REMARK SMILES IDX 36 35 37 36 21 37 22 38 23 39 24 40 25 41 26 43
REMARK H PARENT 13 15 6 24 25 42 26 44
REMARK Flexibility Score: inf
ROOT
ATOM      1  C   UNL     1      33.889  11.516  10.157  1.00  0.00     0.134 A 
ATOM      2  N   UNL     1      33.610  10.212   9.885  1.00  0.00    -0.209 NA
ATOM      3  C   UNL     1      34.300   9.501   8.949  1.00  0.00     0.182 A 
ATOM      4  C   UNL     1      35.324  10.122   8.226  1.00  0.00     0.164 A 
ATOM      5  O   UNL     1      36.047   9.400   7.274  1.00  0.00    -0.474 OA
ATOM      6  C   UNL     1      36.104   7.969   7.254  1.00  0.00     0.182 C 
ATOM      7  C   UNL     1      36.333   7.525   5.802  1.00  0.00     0.067 C 
ATOM      8  C   UNL     1      37.281   7.518   8.131  1.00  0.00     0.067 C 
ATOM      9  C   UNL     1      34.822   7.362   7.799  1.00  0.00     0.273 C 
ATOM     10  O   UNL     1      34.555   6.153   7.553  1.00  0.00    -0.270 OA
ATOM     11  N   UNL     1      33.964   8.130   8.668  1.00  0.00    -0.265 N 
ATOM     12  C   UNL     1      35.605  11.470   8.454  1.00  0.00     0.054 A 
ATOM     13  C   UNL     1      34.889  12.175   9.421  1.00  0.00     0.051 A 
ENDROOT
BRANCH   1  14
ATOM     14  N   UNL     1      33.110  12.206  11.145  1.00  0.00    -0.322 N 
ATOM     15  H   UNL     1      33.473  12.221  12.125  1.00  0.00     0.170 HD
BRANCH  14  16
ATOM     16  C   UNL     1      31.852  12.846  10.888  1.00  0.00     0.173 A 
ATOM     17  C   UNL     1      29.696  12.738   9.901  1.00  0.00     0.229 A 
ATOM     18  N   UNL     1      29.381  13.950  10.434  1.00  0.00    -0.218 NA
ATOM     19  N   UNL     1      30.917  12.192  10.148  1.00  0.00    -0.192 NA
ATOM     20  C   UNL     1      30.273  14.635  11.193  1.00  0.00     0.158 A 
ATOM     21  C   UNL     1      31.533  14.096  11.445  1.00  0.00     0.184 A 
ATOM     22  F   UNL     1      32.397  14.753  12.258  1.00  0.00    -0.201 F 
BRANCH  17  23
ATOM     23  N   UNL     1      28.735  12.000   9.129  1.00  0.00    -0.324 N 
ATOM     24  H   UNL     1      29.060  11.591   8.225  1.00  0.00     0.170 HD
BRANCH  23  25
ATOM     25  C   UNL     1      27.409  11.674   9.583  1.00  0.00     0.049 A 
ATOM     26  C   UNL     1      25.643  10.019   9.854  1.00  0.00     0.166 A 
ATOM     27  C   UNL     1      26.935  10.369   9.427  1.00  0.00     0.076 A 
ATOM     28  C   UNL     1      24.806  10.989  10.430  1.00  0.00     0.203 A 
ATOM     29  C   UNL     1      25.266  12.325  10.564  1.00  0.00     0.166 A 
ATOM     30  C   UNL     1      26.564  12.652  10.123  1.00  0.00     0.076 A 
BRANCH  26  31
ATOM     31  O   UNL     1      25.150   8.710   9.726  1.00  0.00    -0.493 OA
ATOM     32  C   UNL     1      25.958   7.538   9.703  1.00  0.00     0.278 C 
ENDBRANCH  26  31
BRANCH  28  33
ATOM     33  O   UNL     1      23.531  10.557  10.842  1.00  0.00    -0.490 OA
ATOM     34  C   UNL     1      23.045  10.499  12.179  1.00  0.00     0.278 C 
ENDBRANCH  28  33
BRANCH  29  35
ATOM     35  O   UNL     1      24.429  13.302  11.125  1.00  0.00    -0.493 OA
ATOM     36  C   UNL     1      24.839  14.614  11.499  1.00  0.00     0.278 C 
ENDBRANCH  29  35
ENDBRANCH  23  25
ENDBRANCH  17  23
ENDBRANCH  14  16
ENDBRANCH   1  14
BRANCH  11  37
ATOM     37  C   UNL     1      32.832   7.492   9.352  1.00  0.00     0.303 C 
BRANCH  37  38
ATOM     38  O   UNL     1      31.723   7.479   8.485  1.00  0.00    -0.265 OA
BRANCH  38  39
ATOM     39  P   UNL     1      30.484   8.434   9.167  1.00  0.00     0.471 P 
ATOM     40  O   UNL     1      29.981   9.427   8.140  1.00  0.00    -0.228 OA
BRANCH  39  41
ATOM     41  O   UNL     1      31.045   9.256  10.541  1.00  0.00    -0.303 OA
ATOM     42  H   UNL     1      30.340   9.128  11.226  1.00  0.00     0.223 HD
ENDBRANCH  39  41
BRANCH  39  43
ATOM     43  O   UNL     1      29.208   7.419   9.622  1.00  0.00    -0.303 OA
ATOM     44  H   UNL     1      28.469   8.036   9.859  1.00  0.00     0.223 HD
ENDBRANCH  39  43
ENDBRANCH  38  39
ENDBRANCH  37  38
ENDBRANCH  11  37
TORSDOF 12
ENDMDL
MODEL 3
REMARK VINA RESULT:    -8.372      3.507      8.075
REMARK INTER + INTRA:         -16.294
REMARK INTER:                 -14.152
REMARK INTRA:                  -2.141
REMARK UNBOUND:                -2.539
REMARK SMILES COc1cc(Nc2ncc(F)c(Nc3ccc4c(n3)N(COP(=O)(O)O)C(=O)C(C)(C)O4)n2)cc(OC)c1OC
REMARK SMILES IDX 14 1 19 2 18 3 17 4 32 5 29 6 30 7 31 8 27 9 28 10 20 11
REMARK SMILES IDX 16 12 15 13 13 14 12 16 7 17 8 18 33 19 9 20 10 21 11 22
REMARK SMILES IDX 6 23 5 25 3 26 4 27 38 28 35 29 34 30 2 31 1 32 39 33 40 34
REMARK SMILES IDX 36 35 37 36 21 37 22 38 23 39 24 40 25 41 26 43
REMARK H PARENT 13 15 6 24 25 42 26 44
REMARK Flexibility Score: inf
ROOT
ATOM      1  C   UNL     1      34.526  10.576   9.536  1.00  0.00     0.134 A 
ATOM      2  N   UNL     1      33.763  11.549   8.967  1.00  0.00    -0.209 NA
ATOM      3  C   UNL     1      33.404  12.678   9.640  1.00  0.00     0.182 A 
ATOM      4  C   UNL     1      33.818  12.853  10.964  1.00  0.00     0.164 A 
ATOM      5  O   UNL     1      33.468  14.012  11.660  1.00  0.00    -0.474 OA
ATOM      6  C   UNL     1      33.064  15.224  11.010  1.00  0.00     0.182 C 
ATOM      7  C   UNL     1      32.128  15.981  11.963  1.00  0.00     0.067 C 
ATOM      8  C   UNL     1      34.317  16.065  10.729  1.00  0.00     0.067 C 
ATOM      9  C   UNL     1      32.360  14.931   9.696  1.00  0.00     0.273 C 
ATOM     10  O   UNL     1      31.650  15.827   9.160  1.00  0.00    -0.270 OA
ATOM     11  N   UNL     1      32.576  13.676   9.017  1.00  0.00    -0.265 N 
ATOM     12  C   UNL     1      34.567  11.854  11.588  1.00  0.00     0.054 A 
ATOM     13  C   UNL     1      34.926  10.709  10.877  1.00  0.00     0.051 A 
ENDROOT
BRANCH   1  14
ATOM     14  N   UNL     1      34.851   9.406   8.771  1.00  0.00    -0.322 N 
ATOM     15  H   UNL     1      35.742   9.415   8.224  1.00  0.00     0.170 HD
BRANCH  14  16
ATOM     16  C   UNL     1      34.022   8.238   8.678  1.00  0.00     0.173 A 
ATOM     17  C   UNL     1      31.995   7.150   9.264  1.00  0.00     0.229 A 
ATOM     18  N   UNL     1      32.326   6.091   8.474  1.00  0.00    -0.218 NA
ATOM     19  N   UNL     1      32.836   8.217   9.342  1.00  0.00    -0.192 NA
ATOM     20  C   UNL     1      33.491   6.071   7.779  1.00  0.00     0.158 A 
ATOM     21  C   UNL     1      34.368   7.151   7.858  1.00  0.00     0.184 A 
ATOM     22  F   UNL     1      35.499   7.157   7.110  1.00  0.00    -0.201 F 
BRANCH  17  23
ATOM     23  N   UNL     1      30.745   7.181   9.969  1.00  0.00    -0.324 N 
ATOM     24  H   UNL     1      30.574   6.431  10.676  1.00  0.00     0.170 HD
BRANCH  23  25
ATOM     25  C   UNL     1      29.784   8.247   9.868  1.00  0.00     0.049 A 
ATOM     26  C   UNL     1      29.308  10.635   9.835  1.00  0.00     0.166 A 
ATOM     27  C   UNL     1      30.222   9.572   9.924  1.00  0.00     0.076 A 
ATOM     28  C   UNL     1      27.934  10.372   9.702  1.00  0.00     0.203 A 
ATOM     29  C   UNL     1      27.475   9.030   9.675  1.00  0.00     0.166 A 
ATOM     30  C   UNL     1      28.411   7.981   9.773  1.00  0.00     0.076 A 
BRANCH  26  31
ATOM     31  O   UNL     1      29.725  11.976   9.870  1.00  0.00    -0.493 OA
ATOM     32  C   UNL     1      29.927  12.731  11.060  1.00  0.00     0.278 C 
ENDBRANCH  26  31
BRANCH  28  33
ATOM     33  O   UNL     1      27.084  11.491   9.607  1.00  0.00    -0.490 OA
ATOM     34  C   UNL     1      26.274  12.033  10.644  1.00  0.00     0.278 C 
ENDBRANCH  28  33
BRANCH  29  35
ATOM     35  O   UNL     1      26.102   8.760   9.558  1.00  0.00    -0.493 OA
ATOM     36  C   UNL     1      25.458   7.578  10.022  1.00  0.00     0.278 C 
ENDBRANCH  29  35
ENDBRANCH  23  25
ENDBRANCH  17  23
ENDBRANCH  14  16
ENDBRANCH   1  14
BRANCH  11  37
ATOM     37  C   UNL     1      32.057  13.464   7.660  1.00  0.00     0.303 C 
BRANCH  37  38
ATOM     38  O   UNL     1      32.951  14.037   6.735  1.00  0.00    -0.265 OA
BRANCH  38  39
ATOM     39  P   UNL     1      33.311  12.881   5.533  1.00  0.00     0.471 P 
ATOM     40  O   UNL     1      34.812  12.772   5.364  1.00  0.00    -0.228 OA
BRANCH  39  41
ATOM     41  O   UNL     1      32.590  13.302   4.056  1.00  0.00    -0.303 OA
ATOM     42  H   UNL     1      33.102  14.086   3.731  1.00  0.00     0.223 HD
ENDBRANCH  39  41
BRANCH  39  43
ATOM     43  O   UNL     1      32.703  11.381   6.028  1.00  0.00    -0.303 OA
ATOM     44  H   UNL     1      31.938  11.208   5.422  1.00  0.00     0.223 HD
ENDBRANCH  39  43
ENDBRANCH  38  39
ENDBRANCH  37  38
ENDBRANCH  11  37
TORSDOF 12
ENDMDL
MODEL 4
REMARK VINA RESULT:    -8.358      1.388      8.718
REMARK INTER + INTRA:         -16.271
REMARK INTER:                 -14.287
REMARK INTRA:                  -1.984
REMARK UNBOUND:                -2.539
REMARK SMILES COc1cc(Nc2ncc(F)c(Nc3ccc4c(n3)N(COP(=O)(O)O)C(=O)C(C)(C)O4)n2)cc(OC)c1OC
REMARK SMILES IDX 14 1 19 2 18 3 17 4 32 5 29 6 30 7 31 8 27 9 28 10 20 11
REMARK SMILES IDX 16 12 15 13 13 14 12 16 7 17 8 18 33 19 9 20 10 21 11 22
REMARK SMILES IDX 6 23 5 25 3 26 4 27 38 28 35 29 34 30 2 31 1 32 39 33 40 34
REMARK SMILES IDX 36 35 37 36 21 37 22 38 23 39 24 40 25 41 26 43
REMARK H PARENT 13 15 6 24 25 42 26 44
REMARK Flexibility Score: inf
ROOT
ATOM      1  C   UNL     1      33.742  11.146   9.578  1.00  0.00     0.134 A 
ATOM      2  N   UNL     1      33.333   9.851   9.490  1.00  0.00    -0.209 NA
ATOM      3  C   UNL     1      33.791   9.008   8.522  1.00  0.00     0.182 A 
ATOM      4  C   UNL     1      34.702   9.479   7.572  1.00  0.00     0.164 A 
ATOM      5  O   UNL     1      35.189   8.622   6.582  1.00  0.00    -0.474 OA
ATOM      6  C   UNL     1      35.148   7.194   6.695  1.00  0.00     0.182 C 
ATOM      7  C   UNL     1      35.077   6.611   5.276  1.00  0.00     0.067 C 
ATOM      8  C   UNL     1      36.434   6.725   7.389  1.00  0.00     0.067 C 
ATOM      9  C   UNL     1      33.952   6.743   7.515  1.00  0.00     0.273 C 
ATOM     10  O   UNL     1      33.565   5.543   7.440  1.00  0.00    -0.270 OA
ATOM     11  N   UNL     1      33.320   7.650   8.442  1.00  0.00    -0.265 N 
ATOM     12  C   UNL     1      35.108  10.814   7.611  1.00  0.00     0.054 A 
ATOM     13  C   UNL     1      34.630  11.656   8.615  1.00  0.00     0.051 A 
ENDROOT
BRANCH   1  14
ATOM     14  N   UNL     1      33.205  11.979  10.616  1.00  0.00    -0.322 N 
ATOM     15  H   UNL     1      33.750  12.063  11.503  1.00  0.00     0.170 HD
BRANCH  14  16
ATOM     16  C   UNL     1      31.954  12.679  10.532  1.00  0.00     0.173 A 
ATOM     17  C   UNL     1      29.705  12.710   9.771  1.00  0.00     0.229 A 
ATOM     18  N   UNL     1      29.497  13.894  10.410  1.00  0.00    -0.218 NA
ATOM     19  N   UNL     1      30.922  12.108   9.855  1.00  0.00    -0.192 NA
ATOM     20  C   UNL     1      30.490  14.497  11.112  1.00  0.00     0.158 A 
ATOM     21  C   UNL     1      31.745  13.898  11.197  1.00  0.00     0.184 A 
ATOM     22  F   UNL     1      32.714  14.470  11.955  1.00  0.00    -0.201 F 
BRANCH  17  23
ATOM     23  N   UNL     1      28.642  12.059   9.060  1.00  0.00    -0.324 N 
ATOM     24  H   UNL     1      28.880  11.609   8.148  1.00  0.00     0.170 HD
BRANCH  23  25
ATOM     25  C   UNL     1      27.315  11.868   9.582  1.00  0.00     0.049 A 
ATOM     26  C   UNL     1      25.414  12.743  10.828  1.00  0.00     0.166 A 
ATOM     27  C   UNL     1      26.706  12.901  10.299  1.00  0.00     0.076 A 
ATOM     28  C   UNL     1      24.724  11.532  10.652  1.00  0.00     0.203 A 
ATOM     29  C   UNL     1      25.346  10.465   9.951  1.00  0.00     0.166 A 
ATOM     30  C   UNL     1      26.645  10.646   9.436  1.00  0.00     0.076 A 
BRANCH  26  31
ATOM     31  O   UNL     1      24.773  13.773  11.537  1.00  0.00    -0.493 OA
ATOM     32  C   UNL     1      25.098  15.154  11.430  1.00  0.00     0.278 C 
ENDBRANCH  26  31
BRANCH  28  33
ATOM     33  O   UNL     1      23.430  11.457  11.201  1.00  0.00    -0.490 OA
ATOM     34  C   UNL     1      22.956  10.488  12.130  1.00  0.00     0.278 C 
ENDBRANCH  28  33
BRANCH  29  35
ATOM     35  O   UNL     1      24.669   9.247   9.785  1.00  0.00    -0.493 OA
ATOM     36  C   UNL     1      25.235   7.959  10.007  1.00  0.00     0.278 C 
ENDBRANCH  29  35
ENDBRANCH  23  25
ENDBRANCH  17  23
ENDBRANCH  14  16
ENDBRANCH   1  14
BRANCH  11  37
ATOM     37  C   UNL     1      32.294   7.169   9.375  1.00  0.00     0.303 C 
BRANCH  37  38
ATOM     38  O   UNL     1      31.062   7.088   8.698  1.00  0.00    -0.265 OA
BRANCH  38  39
ATOM     39  P   UNL     1      30.020   8.291   9.312  1.00  0.00     0.471 P 
ATOM     40  O   UNL     1      29.596   9.219   8.193  1.00  0.00    -0.228 OA
BRANCH  39  41
ATOM     41  O   UNL     1      30.783   9.178  10.542  1.00  0.00    -0.303 OA
ATOM     42  H   UNL     1      31.229   8.502  11.112  1.00  0.00     0.223 HD
ENDBRANCH  39  41
BRANCH  39  43
ATOM     43  O   UNL     1      28.646   7.540   9.954  1.00  0.00    -0.303 OA
ATOM     44  H   UNL     1      28.158   8.266  10.421  1.00  0.00     0.223 HD
ENDBRANCH  39  43
ENDBRANCH  38  39
ENDBRANCH  37  38
ENDBRANCH  11  37
TORSDOF 12
ENDMDL
MODEL 5
REMARK VINA RESULT:    -8.277      0.674      2.095
REMARK INTER + INTRA:         -16.138
REMARK INTER:                 -13.595
REMARK INTRA:                  -2.542
REMARK UNBOUND:                -2.539
REMARK SMILES COc1cc(Nc2ncc(F)c(Nc3ccc4c(n3)N(COP(=O)(O)O)C(=O)C(C)(C)O4)n2)cc(OC)c1OC
REMARK SMILES IDX 14 1 19 2 18 3 17 4 32 5 29 6 30 7 31 8 27 9 28 10 20 11
REMARK SMILES IDX 16 12 15 13 13 14 12 16 7 17 8 18 33 19 9 20 10 21 11 22
REMARK SMILES IDX 6 23 5 25 3 26 4 27 38 28 35 29 34 30 2 31 1 32 39 33 40 34
REMARK SMILES IDX 36 35 37 36 21 37 22 38 23 39 24 40 25 41 26 43
REMARK H PARENT 13 15 6 24 25 42 26 44
REMARK Flexibility Score: inf
ROOT
ATOM      1  C   UNL     1      28.786  12.780   9.866  1.00  0.00     0.134 A 
ATOM      2  N   UNL     1      28.167  11.580   9.697  1.00  0.00    -0.209 NA
ATOM      3  C   UNL     1      26.931  11.320  10.211  1.00  0.00     0.182 A 
ATOM      4  C   UNL     1      26.270  12.307  10.949  1.00  0.00     0.164 A 
ATOM      5  O   UNL     1      24.997  12.058  11.469  1.00  0.00    -0.474 OA
ATOM      6  C   UNL     1      24.138  11.024  10.974  1.00  0.00     0.182 C 
ATOM      7  C   UNL     1      23.228  10.574  12.126  1.00  0.00     0.067 C 
ATOM      8  C   UNL     1      23.290  11.604   9.833  1.00  0.00     0.067 C 
ATOM      9  C   UNL     1      24.943   9.850  10.443  1.00  0.00     0.273 C 
ATOM     10  O   UNL     1      24.378   8.732  10.283  1.00  0.00    -0.270 OA
ATOM     11  N   UNL     1      26.315  10.032  10.036  1.00  0.00    -0.265 N 
ATOM     12  C   UNL     1      26.896  13.534  11.174  1.00  0.00     0.054 A 
ATOM     13  C   UNL     1      28.159  13.778  10.633  1.00  0.00     0.051 A 
ENDROOT
BRANCH   1  14
ATOM     14  N   UNL     1      30.094  12.976   9.309  1.00  0.00    -0.322 N 
ATOM     15  H   UNL     1      30.160  13.446   8.378  1.00  0.00     0.170 HD
BRANCH  14  16
ATOM     16  C   UNL     1      31.315  12.542   9.928  1.00  0.00     0.173 A 
ATOM     17  C   UNL     1      32.780  10.754  10.467  1.00  0.00     0.229 A 
ATOM     18  N   UNL     1      33.675  11.635  10.992  1.00  0.00    -0.218 NA
ATOM     19  N   UNL     1      31.621  11.218   9.925  1.00  0.00    -0.192 NA
ATOM     20  C   UNL     1      33.423  12.968  11.004  1.00  0.00     0.158 A 
ATOM     21  C   UNL     1      32.236  13.457  10.464  1.00  0.00     0.184 A 
ATOM     22  F   UNL     1      32.018  14.795  10.418  1.00  0.00    -0.201 F 
BRANCH  17  23
ATOM     23  N   UNL     1      33.067   9.348  10.424  1.00  0.00    -0.324 N 
ATOM     24  H   UNL     1      32.855   8.789  11.281  1.00  0.00     0.170 HD
BRANCH  23  25
ATOM     25  C   UNL     1      33.493   8.643   9.244  1.00  0.00     0.049 A 
ATOM     26  C   UNL     1      34.715   8.642   7.137  1.00  0.00     0.166 A 
ATOM     27  C   UNL     1      34.288   9.301   8.303  1.00  0.00     0.076 A 
ATOM     28  C   UNL     1      34.330   7.312   6.900  1.00  0.00     0.203 A 
ATOM     29  C   UNL     1      33.496   6.645   7.835  1.00  0.00     0.166 A 
ATOM     30  C   UNL     1      33.077   7.328   8.993  1.00  0.00     0.076 A 
BRANCH  26  31
ATOM     31  O   UNL     1      35.530   9.276   6.185  1.00  0.00    -0.493 OA
ATOM     32  C   UNL     1      35.259  10.546   5.602  1.00  0.00     0.278 C 
ENDBRANCH  26  31
BRANCH  28  33
ATOM     33  O   UNL     1      34.808   6.719   5.716  1.00  0.00    -0.490 OA
ATOM     34  C   UNL     1      36.018   5.985   5.562  1.00  0.00     0.278 C 
ENDBRANCH  28  33
BRANCH  29  35
ATOM     35  O   UNL     1      33.095   5.320   7.596  1.00  0.00    -0.493 OA
ATOM     36  C   UNL     1      33.148   4.264   8.550  1.00  0.00     0.278 C 
ENDBRANCH  29  35
ENDBRANCH  23  25
ENDBRANCH  17  23
ENDBRANCH  14  16
ENDBRANCH   1  14
BRANCH  11  37
ATOM     37  C   UNL     1      27.037   8.956   9.343  1.00  0.00     0.303 C 
BRANCH  37  38
ATOM     38  O   UNL     1      27.643   8.122  10.302  1.00  0.00    -0.265 OA
BRANCH  38  39
ATOM     39  P   UNL     1      29.337   8.276  10.168  1.00  0.00     0.471 P 
ATOM     40  O   UNL     1      29.702   8.683   8.756  1.00  0.00    -0.228 OA
BRANCH  39  41
ATOM     41  O   UNL     1      30.108   6.818  10.568  1.00  0.00    -0.303 OA
ATOM     42  H   UNL     1      29.590   6.451  11.330  1.00  0.00     0.223 HD
ENDBRANCH  39  41
BRANCH  39  43
ATOM     43  O   UNL     1      29.856   9.479  11.240  1.00  0.00    -0.303 OA
ATOM     44  H   UNL     1      29.729   9.084  12.141  1.00  0.00     0.223 HD
ENDBRANCH  39  43
ENDBRANCH  38  39
ENDBRANCH  37  38
ENDBRANCH  11  37
TORSDOF 12
ENDMDL
MODEL 6
REMARK VINA RESULT:    -8.241      2.675      3.566
REMARK INTER + INTRA:         -16.079
REMARK INTER:                 -14.362
REMARK INTRA:                  -1.717
REMARK UNBOUND:                -2.539
REMARK SMILES COc1cc(Nc2ncc(F)c(Nc3ccc4c(n3)N(COP(=O)(O)O)C(=O)C(C)(C)O4)n2)cc(OC)c1OC
REMARK SMILES IDX 14 1 19 2 18 3 17 4 32 5 29 6 30 7 31 8 27 9 28 10 20 11
REMARK SMILES IDX 16 12 15 13 13 14 12 16 7 17 8 18 33 19 9 20 10 21 11 22
REMARK SMILES IDX 6 23 5 25 3 26 4 27 38 28 35 29 34 30 2 31 1 32 39 33 40 34
REMARK SMILES IDX 36 35 37 36 21 37 22 38 23 39 24 40 25 41 26 43
REMARK H PARENT 13 15 6 24 25 42 26 44
REMARK Flexibility Score: inf
ROOT
ATOM      1  C   UNL     1      26.278  12.716  10.335  1.00  0.00     0.134 A 
ATOM      2  N   UNL     1      26.624  11.455   9.955  1.00  0.00    -0.209 NA
ATOM      3  C   UNL     1      25.808  10.383  10.166  1.00  0.00     0.182 A 
ATOM      4  C   UNL     1      24.577  10.568  10.802  1.00  0.00     0.164 A 
ATOM      5  O   UNL     1      23.726   9.480  11.011  1.00  0.00    -0.474 OA
ATOM      6  C   UNL     1      23.823   8.257  10.271  1.00  0.00     0.182 C 
ATOM      7  C   UNL     1      23.296   7.123  11.162  1.00  0.00     0.067 C 
ATOM      8  C   UNL     1      22.954   8.381   9.012  1.00  0.00     0.067 C 
ATOM      9  C   UNL     1      25.258   7.981   9.855  1.00  0.00     0.273 C 
ATOM     10  O   UNL     1      25.588   6.815   9.502  1.00  0.00    -0.270 OA
ATOM     11  N   UNL     1      26.214   9.059   9.774  1.00  0.00    -0.265 N 
ATOM     12  C   UNL     1      24.213  11.843  11.240  1.00  0.00     0.054 A 
ATOM     13  C   UNL     1      25.062  12.925  11.008  1.00  0.00     0.051 A 
ENDROOT
BRANCH   1  14
ATOM     14  N   UNL     1      27.195  13.793  10.095  1.00  0.00    -0.322 N 
ATOM     15  H   UNL     1      26.934  14.501   9.372  1.00  0.00     0.170 HD
BRANCH  14  16
ATOM     16  C   UNL     1      28.461  13.948  10.755  1.00  0.00     0.173 A 
ATOM     17  C   UNL     1      30.609  13.059  11.234  1.00  0.00     0.229 A 
ATOM     18  N   UNL     1      30.943  14.201  11.896  1.00  0.00    -0.218 NA
ATOM     19  N   UNL     1      29.382  12.953  10.656  1.00  0.00    -0.192 NA
ATOM     20  C   UNL     1      30.064  15.229  12.009  1.00  0.00     0.158 A 
ATOM     21  C   UNL     1      28.799  15.130  11.433  1.00  0.00     0.184 A 
ATOM     22  F   UNL     1      27.949  16.185  11.491  1.00  0.00    -0.201 F 
BRANCH  17  23
ATOM     23  N   UNL     1      31.556  11.990  11.086  1.00  0.00    -0.324 N 
ATOM     24  H   UNL     1      31.293  11.059  11.482  1.00  0.00     0.170 HD
BRANCH  23  25
ATOM     25  C   UNL     1      32.767  12.079  10.315  1.00  0.00     0.049 A 
ATOM     26  C   UNL     1      33.887  12.728   8.252  1.00  0.00     0.166 A 
ATOM     27  C   UNL     1      32.723  12.633   9.033  1.00  0.00     0.076 A 
ATOM     28  C   UNL     1      35.110  12.251   8.751  1.00  0.00     0.203 A 
ATOM     29  C   UNL     1      35.160  11.659  10.039  1.00  0.00     0.166 A 
ATOM     30  C   UNL     1      33.978  11.569  10.801  1.00  0.00     0.076 A 
BRANCH  26  31
ATOM     31  O   UNL     1      33.872  13.298   6.968  1.00  0.00    -0.493 OA
ATOM     32  C   UNL     1      32.929  12.979   5.950  1.00  0.00     0.278 C 
ENDBRANCH  26  31
BRANCH  28  33
ATOM     33  O   UNL     1      36.232  12.394   7.912  1.00  0.00    -0.490 OA
ATOM     34  C   UNL     1      36.684  11.466   6.932  1.00  0.00     0.278 C 
ENDBRANCH  28  33
BRANCH  29  35
ATOM     35  O   UNL     1      36.376  11.165  10.537  1.00  0.00    -0.493 OA
ATOM     36  C   UNL     1      36.883   9.854  10.307  1.00  0.00     0.278 C 
ENDBRANCH  29  35
ENDBRANCH  23  25
ENDBRANCH  17  23
ENDBRANCH  14  16
ENDBRANCH   1  14
BRANCH  11  37
ATOM     37  C   UNL     1      27.542   8.837   9.189  1.00  0.00     0.303 C 
BRANCH  37  38
ATOM     38  O   UNL     1      28.298   8.033  10.064  1.00  0.00    -0.265 OA
BRANCH  38  39
ATOM     39  P   UNL     1      29.955   8.295   9.753  1.00  0.00     0.471 P 
ATOM     40  O   UNL     1      30.127   8.895   8.373  1.00  0.00    -0.228 OA
BRANCH  39  41
ATOM     41  O   UNL     1      30.825   6.842   9.865  1.00  0.00    -0.303 OA
ATOM     42  H   UNL     1      31.260   6.868  10.755  1.00  0.00     0.223 HD
ENDBRANCH  39  41
BRANCH  39  43
ATOM     43  O   UNL     1      30.556   9.380  10.904  1.00  0.00    -0.303 OA
ATOM     44  H   UNL     1      31.540   9.345  10.792  1.00  0.00     0.223 HD
ENDBRANCH  39  43
ENDBRANCH  38  39
ENDBRANCH  37  38
ENDBRANCH  11  37
TORSDOF 12
ENDMDL
MODEL 7
REMARK VINA RESULT:    -8.241      2.743      4.016
REMARK INTER + INTRA:         -16.079
REMARK INTER:                 -14.521
REMARK INTRA:                  -1.557
REMARK UNBOUND:                -2.539
REMARK SMILES COc1cc(Nc2ncc(F)c(Nc3ccc4c(n3)N(COP(=O)(O)O)C(=O)C(C)(C)O4)n2)cc(OC)c1OC
REMARK SMILES IDX 14 1 19 2 18 3 17 4 32 5 29 6 30 7 31 8 27 9 28 10 20 11
REMARK SMILES IDX 16 12 15 13 13 14 12 16 7 17 8 18 33 19 9 20 10 21 11 22
REMARK SMILES IDX 6 23 5 25 3 26 4 27 38 28 35 29 34 30 2 31 1 32 39 33 40 34
REMARK SMILES IDX 36 35 37 36 21 37 22 38 23 39 24 40 25 41 26 43
REMARK H PARENT 13 15 6 24 25 42 26 44
REMARK Flexibility Score: inf
ROOT
ATOM      1  C   UNL     1      24.997  13.060  10.929  1.00  0.00     0.134 A 
ATOM      2  N   UNL     1      25.608  11.957  10.415  1.00  0.00    -0.209 NA
ATOM      3  C   UNL     1      25.051  10.716  10.490  1.00  0.00     0.182 A 
ATOM      4  C   UNL     1      23.816  10.551  11.124  1.00  0.00     0.164 A 
ATOM      5  O   UNL     1      23.228   9.286  11.196  1.00  0.00    -0.474 OA
ATOM      6  C   UNL     1      23.585   8.207  10.325  1.00  0.00     0.182 C 
ATOM      7  C   UNL     1      23.329   6.891  11.074  1.00  0.00     0.067 C 
ATOM      8  C   UNL     1      22.697   8.278   9.074  1.00  0.00     0.067 C 
ATOM      9  C   UNL     1      25.041   8.303   9.902  1.00  0.00     0.273 C 
ATOM     10  O   UNL     1      25.617   7.286   9.424  1.00  0.00    -0.270 OA
ATOM     11  N   UNL     1      25.735   9.567   9.958  1.00  0.00    -0.265 N 
ATOM     12  C   UNL     1      23.184  11.656  11.698  1.00  0.00     0.054 A 
ATOM     13  C   UNL     1      23.772  12.918  11.603  1.00  0.00     0.051 A 
ENDROOT
BRANCH   1  14
ATOM     14  N   UNL     1      25.652  14.333  10.826  1.00  0.00    -0.322 N 
ATOM     15  H   UNL     1      25.050  15.183  10.742  1.00  0.00     0.170 HD
BRANCH  14  16
ATOM     16  C   UNL     1      27.075  14.516  10.798  1.00  0.00     0.173 A 
ATOM     17  C   UNL     1      29.233  13.540  10.643  1.00  0.00     0.229 A 
ATOM     18  N   UNL     1      29.801  14.777  10.632  1.00  0.00    -0.218 NA
ATOM     19  N   UNL     1      27.879  13.424  10.707  1.00  0.00    -0.192 NA
ATOM     20  C   UNL     1      29.041  15.899  10.705  1.00  0.00     0.158 A 
ATOM     21  C   UNL     1      27.654  15.796  10.782  1.00  0.00     0.184 A 
ATOM     22  F   UNL     1      26.895  16.920  10.788  1.00  0.00    -0.201 F 
BRANCH  17  23
ATOM     23  N   UNL     1      30.040  12.358  10.529  1.00  0.00    -0.324 N 
ATOM     24  H   UNL     1      29.668  11.480  10.957  1.00  0.00     0.170 HD
BRANCH  23  25
ATOM     25  C   UNL     1      31.248  12.272   9.752  1.00  0.00     0.049 A 
ATOM     26  C   UNL     1      33.673  12.061   9.678  1.00  0.00     0.166 A 
ATOM     27  C   UNL     1      32.475  12.141  10.407  1.00  0.00     0.076 A 
ATOM     28  C   UNL     1      33.648  12.127   8.275  1.00  0.00     0.203 A 
ATOM     29  C   UNL     1      32.410  12.291   7.601  1.00  0.00     0.166 A 
ATOM     30  C   UNL     1      31.223  12.375   8.355  1.00  0.00     0.076 A 
BRANCH  26  31
ATOM     31  O   UNL     1      34.918  11.910  10.312  1.00  0.00    -0.493 OA
ATOM     32  C   UNL     1      35.392  10.698  10.889  1.00  0.00     0.278 C 
ENDBRANCH  26  31
BRANCH  28  33
ATOM     33  O   UNL     1      34.889  12.027   7.616  1.00  0.00    -0.490 OA
ATOM     34  C   UNL     1      35.438  10.862   7.011  1.00  0.00     0.278 C 
ENDBRANCH  28  33
BRANCH  29  35
ATOM     35  O   UNL     1      32.380  12.373   6.200  1.00  0.00    -0.493 OA
ATOM     36  C   UNL     1      32.653  13.549   5.443  1.00  0.00     0.278 C 
ENDBRANCH  29  35
ENDBRANCH  23  25
ENDBRANCH  17  23
ENDBRANCH  14  16
ENDBRANCH   1  14
BRANCH  11  37
ATOM     37  C   UNL     1      27.073   9.710   9.372  1.00  0.00     0.303 C 
BRANCH  37  38
ATOM     38  O   UNL     1      28.030   9.270  10.307  1.00  0.00    -0.265 OA
BRANCH  38  39
ATOM     39  P   UNL     1      29.106   8.201   9.525  1.00  0.00     0.471 P 
ATOM     40  O   UNL     1      30.185   8.991   8.815  1.00  0.00    -0.228 OA
BRANCH  39  41
ATOM     41  O   UNL     1      28.280   7.221   8.413  1.00  0.00    -0.303 OA
ATOM     42  H   UNL     1      27.697   7.840   7.904  1.00  0.00     0.223 HD
ENDBRANCH  39  41
BRANCH  39  43
ATOM     43  O   UNL     1      29.827   7.211  10.693  1.00  0.00    -0.303 OA
ATOM     44  H   UNL     1      30.332   7.835  11.274  1.00  0.00     0.223 HD
ENDBRANCH  39  43
ENDBRANCH  38  39
ENDBRANCH  37  38
ENDBRANCH  11  37
TORSDOF 12
ENDMDL
MODEL 8
REMARK VINA RESULT:    -8.228      3.555      7.914
REMARK INTER + INTRA:         -16.057
REMARK INTER:                 -13.958
REMARK INTRA:                  -2.100
REMARK UNBOUND:                -2.539
REMARK SMILES COc1cc(Nc2ncc(F)c(Nc3ccc4c(n3)N(COP(=O)(O)O)C(=O)C(C)(C)O4)n2)cc(OC)c1OC
REMARK SMILES IDX 14 1 19 2 18 3 17 4 32 5 29 6 30 7 31 8 27 9 28 10 20 11
REMARK SMILES IDX 16 12 15 13 13 14 12 16 7 17 8 18 33 19 9 20 10 21 11 22
REMARK SMILES IDX 6 23 5 25 3 26 4 27 38 28 35 29 34 30 2 31 1 32 39 33 40 34
REMARK SMILES IDX 36 35 37 36 21 37 22 38 23 39 24 40 25 41 26 43
REMARK H PARENT 13 15 6 24 25 42 26 44
REMARK Flexibility Score: inf
ROOT
ATOM      1  C   UNL     1      34.513  10.538   9.444  1.00  0.00     0.134 A 
ATOM      2  N   UNL     1      33.814  11.576   8.909  1.00  0.00    -0.209 NA
ATOM      3  C   UNL     1      33.512  12.695   9.626  1.00  0.00     0.182 A 
ATOM      4  C   UNL     1      33.918  12.790  10.960  1.00  0.00     0.164 A 
ATOM      5  O   UNL     1      33.626  13.937  11.702  1.00  0.00    -0.474 OA
ATOM      6  C   UNL     1      33.300  15.196  11.100  1.00  0.00     0.182 C 
ATOM      7  C   UNL     1      32.397  15.966  12.075  1.00  0.00     0.067 C 
ATOM      8  C   UNL     1      34.603  15.975  10.867  1.00  0.00     0.067 C 
ATOM      9  C   UNL     1      32.598  15.000   9.767  1.00  0.00     0.273 C 
ATOM     10  O   UNL     1      31.946  15.957   9.263  1.00  0.00    -0.270 OA
ATOM     11  N   UNL     1      32.750  13.765   9.038  1.00  0.00    -0.265 N 
ATOM     12  C   UNL     1      34.601  11.724  11.549  1.00  0.00     0.054 A 
ATOM     13  C   UNL     1      34.903  10.591  10.793  1.00  0.00     0.051 A 
ENDROOT
BRANCH   1  14
ATOM     14  N   UNL     1      34.781   9.385   8.633  1.00  0.00    -0.322 N 
ATOM     15  H   UNL     1      35.618   9.414   8.008  1.00  0.00     0.170 HD
BRANCH  14  16
ATOM     16  C   UNL     1      33.960   8.207   8.596  1.00  0.00     0.173 A 
ATOM     17  C   UNL     1      31.949   7.128   9.248  1.00  0.00     0.229 A 
ATOM     18  N   UNL     1      32.278   6.042   8.497  1.00  0.00    -0.218 NA
ATOM     19  N   UNL     1      32.782   8.203   9.275  1.00  0.00    -0.192 NA
ATOM     20  C   UNL     1      33.435   6.004   7.788  1.00  0.00     0.158 A 
ATOM     21  C   UNL     1      34.304   7.092   7.815  1.00  0.00     0.184 A 
ATOM     22  F   UNL     1      35.426   7.076   7.053  1.00  0.00    -0.201 F 
BRANCH  17  23
ATOM     23  N   UNL     1      30.707   7.178   9.967  1.00  0.00    -0.324 N 
ATOM     24  H   UNL     1      30.521   6.415  10.656  1.00  0.00     0.170 HD
BRANCH  23  25
ATOM     25  C   UNL     1      29.775   8.273   9.902  1.00  0.00     0.049 A 
ATOM     26  C   UNL     1      27.473   9.050   9.734  1.00  0.00     0.166 A 
ATOM     27  C   UNL     1      28.408   8.003   9.806  1.00  0.00     0.076 A 
ATOM     28  C   UNL     1      27.910  10.385   9.743  1.00  0.00     0.203 A 
ATOM     29  C   UNL     1      29.299  10.669   9.810  1.00  0.00     0.166 A 
ATOM     30  C   UNL     1      30.217   9.602   9.874  1.00  0.00     0.076 A 
BRANCH  26  31
ATOM     31  O   UNL     1      26.092   8.805   9.656  1.00  0.00    -0.493 OA
ATOM     32  C   UNL     1      25.470   7.565   9.973  1.00  0.00     0.278 C 
ENDBRANCH  26  31
BRANCH  28  33
ATOM     33  O   UNL     1      26.912  11.376   9.681  1.00  0.00    -0.490 OA
ATOM     34  C   UNL     1      26.353  12.089  10.778  1.00  0.00     0.278 C 
ENDBRANCH  28  33
BRANCH  29  35
ATOM     35  O   UNL     1      29.743  12.001   9.803  1.00  0.00    -0.493 OA
ATOM     36  C   UNL     1      30.003  12.782  10.966  1.00  0.00     0.278 C 
ENDBRANCH  29  35
ENDBRANCH  23  25
ENDBRANCH  17  23
ENDBRANCH  14  16
ENDBRANCH   1  14
BRANCH  11  37
ATOM     37  C   UNL     1      32.238  13.640   7.667  1.00  0.00     0.303 C 
BRANCH  37  38
ATOM     38  O   UNL     1      33.226  14.085   6.768  1.00  0.00    -0.265 OA
BRANCH  38  39
ATOM     39  P   UNL     1      33.281  13.013   5.441  1.00  0.00     0.471 P 
ATOM     40  O   UNL     1      34.707  12.881   4.951  1.00  0.00    -0.228 OA
BRANCH  39  41
ATOM     41  O   UNL     1      32.284  13.562   4.182  1.00  0.00    -0.303 OA
ATOM     42  H   UNL     1      32.260  12.818   3.527  1.00  0.00     0.223 HD
ENDBRANCH  39  41
BRANCH  39  43
ATOM     43  O   UNL     1      32.730  11.496   5.950  1.00  0.00    -0.303 OA
ATOM     44  H   UNL     1      32.143  11.183   5.215  1.00  0.00     0.223 HD
ENDBRANCH  39  43
ENDBRANCH  38  39
ENDBRANCH  37  38
ENDBRANCH  11  37
TORSDOF 12
ENDMDL
MODEL 9
REMARK VINA RESULT:    -8.227      2.416      9.442
REMARK INTER + INTRA:         -16.056
REMARK INTER:                 -14.392
REMARK INTRA:                  -1.664
REMARK UNBOUND:                -2.539
REMARK SMILES COc1cc(Nc2ncc(F)c(Nc3ccc4c(n3)N(COP(=O)(O)O)C(=O)C(C)(C)O4)n2)cc(OC)c1OC
REMARK SMILES IDX 14 1 19 2 18 3 17 4 32 5 29 6 30 7 31 8 27 9 28 10 20 11
REMARK SMILES IDX 16 12 15 13 13 14 12 16 7 17 8 18 33 19 9 20 10 21 11 22
REMARK SMILES IDX 6 23 5 25 3 26 4 27 38 28 35 29 34 30 2 31 1 32 39 33 40 34
REMARK SMILES IDX 36 35 37 36 21 37 22 38 23 39 24 40 25 41 26 43
REMARK H PARENT 13 15 6 24 25 42 26 44
REMARK Flexibility Score: inf
ROOT
ATOM      1  C   UNL     1      32.653   7.848   9.088  1.00  0.00     0.134 A 
ATOM      2  N   UNL     1      33.482   8.635   8.349  1.00  0.00    -0.209 NA
ATOM      3  C   UNL     1      34.400   8.115   7.486  1.00  0.00     0.182 A 
ATOM      4  C   UNL     1      34.514   6.728   7.353  1.00  0.00     0.164 A 
ATOM      5  O   UNL     1      35.442   6.183   6.463  1.00  0.00    -0.474 OA
ATOM      6  C   UNL     1      36.009   6.922   5.374  1.00  0.00     0.182 C 
ATOM      7  C   UNL     1      37.398   6.337   5.080  1.00  0.00     0.067 C 
ATOM      8  C   UNL     1      35.101   6.754   4.148  1.00  0.00     0.067 C 
ATOM      9  C   UNL     1      36.115   8.399   5.712  1.00  0.00     0.273 C 
ATOM     10  O   UNL     1      36.881   9.137   5.032  1.00  0.00    -0.270 OA
ATOM     11  N   UNL     1      35.279   8.974   6.737  1.00  0.00    -0.265 N 
ATOM     12  C   UNL     1      33.706   5.894   8.128  1.00  0.00     0.054 A 
ATOM     13  C   UNL     1      32.770   6.450   9.000  1.00  0.00     0.051 A 
ENDROOT
BRANCH   1  14
ATOM     14  N   UNL     1      31.722   8.466   9.988  1.00  0.00    -0.322 N 
ATOM     15  H   UNL     1      31.222   7.850  10.668  1.00  0.00     0.170 HD
BRANCH  14  16
ATOM     16  C   UNL     1      31.404   9.866   9.995  1.00  0.00     0.173 A 
ATOM     17  C   UNL     1      29.866  11.590   9.448  1.00  0.00     0.229 A 
ATOM     18  N   UNL     1      30.666  12.508  10.057  1.00  0.00    -0.218 NA
ATOM     19  N   UNL     1      30.234  10.280   9.441  1.00  0.00    -0.192 NA
ATOM     20  C   UNL     1      31.837  12.143  10.638  1.00  0.00     0.158 A 
ATOM     21  C   UNL     1      32.233  10.807  10.628  1.00  0.00     0.184 A 
ATOM     22  F   UNL     1      33.370  10.437  11.268  1.00  0.00    -0.201 F 
BRANCH  17  23
ATOM     23  N   UNL     1      28.612  11.976   8.866  1.00  0.00    -0.324 N 
ATOM     24  H   UNL     1      28.643  12.477   7.951  1.00  0.00     0.170 HD
BRANCH  23  25
ATOM     25  C   UNL     1      27.325  11.597   9.387  1.00  0.00     0.049 A 
ATOM     26  C   UNL     1      25.634   9.878   9.730  1.00  0.00     0.166 A 
ATOM     27  C   UNL     1      26.888  10.279   9.238  1.00  0.00     0.076 A 
ATOM     28  C   UNL     1      24.798  10.811  10.367  1.00  0.00     0.203 A 
ATOM     29  C   UNL     1      25.220  12.160  10.496  1.00  0.00     0.166 A 
ATOM     30  C   UNL     1      26.478  12.538   9.989  1.00  0.00     0.076 A 
BRANCH  26  31
ATOM     31  O   UNL     1      25.179   8.555   9.609  1.00  0.00    -0.493 OA
ATOM     32  C   UNL     1      25.829   7.420  10.172  1.00  0.00     0.278 C 
ENDBRANCH  26  31
BRANCH  28  33
ATOM     33  O   UNL     1      23.563  10.329  10.842  1.00  0.00    -0.490 OA
ATOM     34  C   UNL     1      23.072  10.420  12.175  1.00  0.00     0.278 C 
ENDBRANCH  28  33
BRANCH  29  35
ATOM     35  O   UNL     1      24.382  13.100  11.117  1.00  0.00    -0.493 OA
ATOM     36  C   UNL     1      24.768  14.419  11.491  1.00  0.00     0.278 C 
ENDBRANCH  29  35
ENDBRANCH  23  25
ENDBRANCH  17  23
ENDBRANCH  14  16
ENDBRANCH   1  14
BRANCH  11  37
ATOM     37  C   UNL     1      35.234  10.429   6.935  1.00  0.00     0.303 C 
BRANCH  37  38
ATOM     38  O   UNL     1      34.700  11.031   5.780  1.00  0.00    -0.265 OA
BRANCH  38  39
ATOM     39  P   UNL     1      33.383  12.016   6.235  1.00  0.00     0.471 P 
ATOM     40  O   UNL     1      33.853  13.079   7.205  1.00  0.00    -0.228 OA
BRANCH  39  41
ATOM     41  O   UNL     1      32.153  11.086   6.945  1.00  0.00    -0.303 OA
ATOM     42  H   UNL     1      32.309  11.151   7.921  1.00  0.00     0.223 HD
ENDBRANCH  39  41
BRANCH  39  43
ATOM     43  O   UNL     1      32.767  12.768   4.850  1.00  0.00    -0.303 OA
ATOM     44  H   UNL     1      32.338  12.036   4.337  1.00  0.00     0.223 HD
ENDBRANCH  39  43
ENDBRANCH  38  39
ENDBRANCH  37  38
ENDBRANCH  11  37
TORSDOF 12
ENDMDL
MODEL 10
REMARK VINA RESULT:    -8.172      3.764      9.389
REMARK INTER + INTRA:         -15.966
REMARK INTER:                 -13.987
REMARK INTRA:                  -1.979
REMARK UNBOUND:                -2.539
REMARK SMILES COc1cc(Nc2ncc(F)c(Nc3ccc4c(n3)N(COP(=O)(O)O)C(=O)C(C)(C)O4)n2)cc(OC)c1OC
REMARK SMILES IDX 14 1 19 2 18 3 17 4 32 5 29 6 30 7 31 8 27 9 28 10 20 11
REMARK SMILES IDX 16 12 15 13 13 14 12 16 7 17 8 18 33 19 9 20 10 21 11 22
REMARK SMILES IDX 6 23 5 25 3 26 4 27 38 28 35 29 34 30 2 31 1 32 39 33 40 34
REMARK SMILES IDX 36 35 37 36 21 37 22 38 23 39 24 40 25 41 26 43
REMARK H PARENT 13 15 6 24 25 42 26 44
REMARK Flexibility Score: inf
ROOT
ATOM      1  C   UNL     1      33.167  11.117  10.790  1.00  0.00     0.134 A 
ATOM      2  N   UNL     1      32.928  12.395  11.193  1.00  0.00    -0.209 NA
ATOM      3  C   UNL     1      33.882  13.367  11.134  1.00  0.00     0.182 A 
ATOM      4  C   UNL     1      35.157  13.053  10.655  1.00  0.00     0.164 A 
ATOM      5  O   UNL     1      36.140  14.042  10.576  1.00  0.00    -0.474 OA
ATOM      6  C   UNL     1      35.839  15.443  10.562  1.00  0.00     0.182 C 
ATOM      7  C   UNL     1      37.039  16.189  11.165  1.00  0.00     0.067 C 
ATOM      8  C   UNL     1      35.629  15.881   9.106  1.00  0.00     0.067 C 
ATOM      9  C   UNL     1      34.578  15.741  11.354  1.00  0.00     0.273 C 
ATOM     10  O   UNL     1      34.347  16.923  11.733  1.00  0.00    -0.270 OA
ATOM     11  N   UNL     1      33.604  14.702  11.591  1.00  0.00    -0.265 N 
ATOM     12  C   UNL     1      35.445  11.741  10.272  1.00  0.00     0.054 A 
ATOM     13  C   UNL     1      34.450  10.765  10.337  1.00  0.00     0.051 A 
ENDROOT
BRANCH   1  14
ATOM     14  N   UNL     1      32.118  10.143  10.897  1.00  0.00    -0.322 N 
ATOM     15  H   UNL     1      32.179   9.447  11.674  1.00  0.00     0.170 HD
BRANCH  14  16
ATOM     16  C   UNL     1      31.010  10.038   9.991  1.00  0.00     0.173 A 
ATOM     17  C   UNL     1      29.012  10.986   9.127  1.00  0.00     0.229 A 
ATOM     18  N   UNL     1      28.914   9.974   8.222  1.00  0.00    -0.218 NA
ATOM     19  N   UNL     1      30.067  11.017   9.987  1.00  0.00    -0.192 NA
ATOM     20  C   UNL     1      29.838   8.982   8.175  1.00  0.00     0.158 A 
ATOM     21  C   UNL     1      30.917   8.993   9.057  1.00  0.00     0.184 A 
ATOM     22  F   UNL     1      31.873   8.036   8.963  1.00  0.00    -0.201 F 
BRANCH  17  23
ATOM     23  N   UNL     1      28.051  12.053   9.148  1.00  0.00    -0.324 N 
ATOM     24  H   UNL     1      28.257  12.895   8.565  1.00  0.00     0.170 HD
BRANCH  23  25
ATOM     25  C   UNL     1      26.772  11.979   9.802  1.00  0.00     0.049 A 
ATOM     26  C   UNL     1      24.741  10.722  10.282  1.00  0.00     0.166 A 
ATOM     27  C   UNL     1      25.998  10.824   9.662  1.00  0.00     0.076 A 
ATOM     28  C   UNL     1      24.242  11.795  11.041  1.00  0.00     0.203 A 
ATOM     29  C   UNL     1      25.007  12.984  11.163  1.00  0.00     0.166 A 
ATOM     30  C   UNL     1      26.261  13.064  10.526  1.00  0.00     0.076 A 
BRANCH  26  31
ATOM     31  O   UNL     1      23.953   9.565  10.173  1.00  0.00    -0.493 OA
ATOM     32  C   UNL     1      24.466   8.245  10.031  1.00  0.00     0.278 C 
ENDBRANCH  26  31
BRANCH  28  33
ATOM     33  O   UNL     1      22.982  11.611  11.640  1.00  0.00    -0.490 OA
ATOM     34  C   UNL     1      22.512  10.433  12.287  1.00  0.00     0.278 C 
ENDBRANCH  28  33
BRANCH  29  35
ATOM     35  O   UNL     1      24.507  14.065  11.906  1.00  0.00    -0.493 OA
ATOM     36  C   UNL     1      24.917  15.421  11.756  1.00  0.00     0.278 C 
ENDBRANCH  29  35
ENDBRANCH  23  25
ENDBRANCH  17  23
ENDBRANCH  14  16
ENDBRANCH   1  14
BRANCH  11  37
ATOM     37  C   UNL     1      32.299  15.024  12.182  1.00  0.00     0.303 C 
BRANCH  37  38
ATOM     38  O   UNL     1      31.508  15.676  11.216  1.00  0.00    -0.265 OA
BRANCH  38  39
ATOM     39  P   UNL     1      30.223  14.643  10.774  1.00  0.00     0.471 P 
ATOM     40  O   UNL     1      28.943  15.443  10.658  1.00  0.00    -0.228 OA
BRANCH  39  41
ATOM     41  O   UNL     1      30.029  13.401  11.915  1.00  0.00    -0.303 OA
ATOM     42  H   UNL     1      29.661  13.844  12.721  1.00  0.00     0.223 HD
ENDBRANCH  39  41
BRANCH  39  43
ATOM     43  O   UNL     1      30.579  13.951   9.271  1.00  0.00    -0.303 OA
ATOM     44  H   UNL     1      29.727  13.541   8.976  1.00  0.00     0.223 HD
ENDBRANCH  39  43
ENDBRANCH  38  39
ENDBRANCH  37  38
ENDBRANCH  11  37
TORSDOF 12
ENDMDL
MODEL 11
REMARK VINA RESULT:    -8.169      2.953      9.974
REMARK INTER + INTRA:         -15.961
REMARK INTER:                 -14.477
REMARK INTRA:                  -1.484
REMARK UNBOUND:                -2.539
REMARK SMILES COc1cc(Nc2ncc(F)c(Nc3ccc4c(n3)N(COP(=O)(O)O)C(=O)C(C)(C)O4)n2)cc(OC)c1OC
REMARK SMILES IDX 14 1 19 2 18 3 17 4 32 5 29 6 30 7 31 8 27 9 28 10 20 11
REMARK SMILES IDX 16 12 15 13 13 14 12 16 7 17 8 18 33 19 9 20 10 21 11 22
REMARK SMILES IDX 6 23 5 25 3 26 4 27 38 28 35 29 34 30 2 31 1 32 39 33 40 34
REMARK SMILES IDX 36 35 37 36 21 37 22 38 23 39 24 40 25 41 26 43
REMARK H PARENT 13 15 6 24 25 42 26 44
REMARK Flexibility Score: inf
ROOT
ATOM      1  C   UNL     1      32.800   5.976   8.370  1.00  0.00     0.134 A 
ATOM      2  N   UNL     1      33.500   6.603   7.385  1.00  0.00    -0.209 NA
ATOM      3  C   UNL     1      34.392   5.943   6.594  1.00  0.00     0.182 A 
ATOM      4  C   UNL     1      34.616   4.577   6.797  1.00  0.00     0.164 A 
ATOM      5  O   UNL     1      35.517   3.887   5.984  1.00  0.00    -0.474 OA
ATOM      6  C   UNL     1      35.935   4.362   4.698  1.00  0.00     0.182 C 
ATOM      7  C   UNL     1      37.344   3.814   4.428  1.00  0.00     0.067 C 
ATOM      8  C   UNL     1      34.955   3.832   3.642  1.00  0.00     0.067 C 
ATOM      9  C   UNL     1      35.937   5.880   4.651  1.00  0.00     0.273 C 
ATOM     10  O   UNL     1      36.584   6.472   3.741  1.00  0.00    -0.270 OA
ATOM     11  N   UNL     1      35.134   6.641   5.577  1.00  0.00    -0.265 N 
ATOM     12  C   UNL     1      33.943   3.916   7.826  1.00  0.00     0.054 A 
ATOM     13  C   UNL     1      33.031   4.611   8.619  1.00  0.00     0.051 A 
ENDROOT
BRANCH   1  14
ATOM     14  N   UNL     1      31.889   6.739   9.174  1.00  0.00    -0.322 N 
ATOM     15  H   UNL     1      31.410   6.249   9.963  1.00  0.00     0.170 HD
BRANCH  14  16
ATOM     16  C   UNL     1      31.566   8.120   8.950  1.00  0.00     0.173 A 
ATOM     17  C   UNL     1      29.936   9.740   8.357  1.00  0.00     0.229 A 
ATOM     18  N   UNL     1      30.829  10.739   8.598  1.00  0.00    -0.218 NA
ATOM     19  N   UNL     1      30.307   8.446   8.553  1.00  0.00    -0.192 NA
ATOM     20  C   UNL     1      32.093  10.466   9.011  1.00  0.00     0.158 A 
ATOM     21  C   UNL     1      32.492   9.145   9.204  1.00  0.00     0.184 A 
ATOM     22  F   UNL     1      33.734   8.879   9.680  1.00  0.00    -0.201 F 
BRANCH  17  23
ATOM     23  N   UNL     1      28.590  10.037   7.955  1.00  0.00    -0.324 N 
ATOM     24  H   UNL     1      28.349   9.899   6.948  1.00  0.00     0.170 HD
BRANCH  23  25
ATOM     25  C   UNL     1      27.527  10.373   8.866  1.00  0.00     0.049 A 
ATOM     26  C   UNL     1      25.600   9.668  10.178  1.00  0.00     0.166 A 
ATOM     27  C   UNL     1      26.652   9.372   9.295  1.00  0.00     0.076 A 
ATOM     28  C   UNL     1      25.410  10.985  10.628  1.00  0.00     0.203 A 
ATOM     29  C   UNL     1      26.274  12.015  10.174  1.00  0.00     0.166 A 
ATOM     30  C   UNL     1      27.317  11.693   9.284  1.00  0.00     0.076 A 
BRANCH  26  31
ATOM     31  O   UNL     1      24.719   8.676  10.639  1.00  0.00    -0.493 OA
ATOM     32  C   UNL     1      23.535   8.266   9.963  1.00  0.00     0.278 C 
ENDBRANCH  26  31
BRANCH  28  33
ATOM     33  O   UNL     1      24.342  11.198  11.521  1.00  0.00    -0.490 OA
ATOM     34  C   UNL     1      23.129  11.889  11.245  1.00  0.00     0.278 C 
ENDBRANCH  28  33
BRANCH  29  35
ATOM     35  O   UNL     1      26.079  13.336  10.608  1.00  0.00    -0.493 OA
ATOM     36  C   UNL     1      27.060  14.367  10.556  1.00  0.00     0.278 C 
ENDBRANCH  29  35
ENDBRANCH  23  25
ENDBRANCH  17  23
ENDBRANCH  14  16
ENDBRANCH   1  14
BRANCH  11  37
ATOM     37  C   UNL     1      34.978   8.092   5.415  1.00  0.00     0.303 C 
BRANCH  37  38
ATOM     38  O   UNL     1      35.962   8.745   6.182  1.00  0.00    -0.265 OA
BRANCH  38  39
ATOM     39  P   UNL     1      35.490  10.370   6.406  1.00  0.00     0.471 P 
ATOM     40  O   UNL     1      36.399  11.280   5.606  1.00  0.00    -0.228 OA
BRANCH  39  41
ATOM     41  O   UNL     1      35.546  10.793   8.048  1.00  0.00    -0.303 OA
ATOM     42  H   UNL     1      36.340  11.379   8.139  1.00  0.00     0.223 HD
ENDBRANCH  39  41
BRANCH  39  43
ATOM     43  O   UNL     1      33.902  10.552   5.850  1.00  0.00    -0.303 OA
ATOM     44  H   UNL     1      33.846   9.964   5.054  1.00  0.00     0.223 HD
ENDBRANCH  39  43
ENDBRANCH  38  39
ENDBRANCH  37  38
ENDBRANCH  11  37
TORSDOF 12
ENDMDL
MODEL 12
REMARK VINA RESULT:    -8.090      3.404      4.992
REMARK INTER + INTRA:         -15.831
REMARK INTER:                 -14.091
REMARK INTRA:                  -1.740
REMARK UNBOUND:                -2.539
REMARK SMILES COc1cc(Nc2ncc(F)c(Nc3ccc4c(n3)N(COP(=O)(O)O)C(=O)C(C)(C)O4)n2)cc(OC)c1OC
REMARK SMILES IDX 14 1 19 2 18 3 17 4 32 5 29 6 30 7 31 8 27 9 28 10 20 11
REMARK SMILES IDX 16 12 15 13 13 14 12 16 7 17 8 18 33 19 9 20 10 21 11 22
REMARK SMILES IDX 6 23 5 25 3 26 4 27 38 28 35 29 34 30 2 31 1 32 39 33 40 34
REMARK SMILES IDX 36 35 37 36 21 37 22 38 23 39 24 40 25 41 26 43
REMARK H PARENT 13 15 6 24 25 42 26 44
REMARK Flexibility Score: inf
ROOT
ATOM      1  C   UNL     1      26.660  12.645  11.022  1.00  0.00     0.134 A 
ATOM      2  N   UNL     1      27.619  13.589  10.823  1.00  0.00    -0.209 NA
ATOM      3  C   UNL     1      27.351  14.924  10.892  1.00  0.00     0.182 A 
ATOM      4  C   UNL     1      26.048  15.353  11.164  1.00  0.00     0.164 A 
ATOM      5  O   UNL     1      25.763  16.717  11.251  1.00  0.00    -0.474 OA
ATOM      6  C   UNL     1      26.766  17.713  11.485  1.00  0.00     0.182 C 
ATOM      7  C   UNL     1      26.289  19.024  10.843  1.00  0.00     0.067 C 
ATOM      8  C   UNL     1      26.921  17.899  13.001  1.00  0.00     0.067 C 
ATOM      9  C   UNL     1      28.103  17.291  10.901  1.00  0.00     0.273 C 
ATOM     10  O   UNL     1      29.000  18.160  10.712  1.00  0.00    -0.270 OA
ATOM     11  N   UNL     1      28.383  15.898  10.651  1.00  0.00    -0.265 N 
ATOM     12  C   UNL     1      25.034  14.408  11.333  1.00  0.00     0.054 A 
ATOM     13  C   UNL     1      25.335  13.047  11.263  1.00  0.00     0.051 A 
ENDROOT
BRANCH   1  14
ATOM     14  N   UNL     1      27.013  11.258  10.919  1.00  0.00    -0.322 N 
ATOM     15  H   UNL     1      26.564  10.591  11.586  1.00  0.00     0.170 HD
BRANCH  14  16
ATOM     16  C   UNL     1      27.965  10.728   9.984  1.00  0.00     0.173 A 
ATOM     17  C   UNL     1      29.976   9.522   9.616  1.00  0.00     0.229 A 
ATOM     18  N   UNL     1      29.783   9.593   8.271  1.00  0.00    -0.218 NA
ATOM     19  N   UNL     1      29.058  10.072  10.456  1.00  0.00    -0.192 NA
ATOM     20  C   UNL     1      28.699  10.223   7.750  1.00  0.00     0.158 A 
ATOM     21  C   UNL     1      27.757  10.802   8.597  1.00  0.00     0.184 A 
ATOM     22  F   UNL     1      26.642  11.372   8.075  1.00  0.00    -0.201 F 
BRANCH  17  23
ATOM     23  N   UNL     1      31.105   8.823  10.162  1.00  0.00    -0.324 N 
ATOM     24  H   UNL     1      31.101   8.635  11.190  1.00  0.00     0.170 HD
BRANCH  23  25
ATOM     25  C   UNL     1      32.162   8.248   9.373  1.00  0.00     0.049 A 
ATOM     26  C   UNL     1      33.098   6.314   8.226  1.00  0.00     0.166 A 
ATOM     27  C   UNL     1      32.079   6.907   8.991  1.00  0.00     0.076 A 
ATOM     28  C   UNL     1      34.223   7.066   7.849  1.00  0.00     0.203 A 
ATOM     29  C   UNL     1      34.332   8.420   8.259  1.00  0.00     0.166 A 
ATOM     30  C   UNL     1      33.300   8.990   9.030  1.00  0.00     0.076 A 
BRANCH  26  31
ATOM     31  O   UNL     1      33.028   4.973   7.814  1.00  0.00    -0.493 OA
ATOM     32  C   UNL     1      33.404   3.858   8.615  1.00  0.00     0.278 C 
ENDBRANCH  26  31
BRANCH  28  33
ATOM     33  O   UNL     1      35.193   6.403   7.073  1.00  0.00    -0.490 OA
ATOM     34  C   UNL     1      35.293   6.408   5.654  1.00  0.00     0.278 C 
ENDBRANCH  28  33
BRANCH  29  35
ATOM     35  O   UNL     1      35.461   9.173   7.899  1.00  0.00    -0.493 OA
ATOM     36  C   UNL     1      36.321   9.846   8.813  1.00  0.00     0.278 C 
ENDBRANCH  29  35
ENDBRANCH  23  25
ENDBRANCH  17  23
ENDBRANCH  14  16
ENDBRANCH   1  14
BRANCH  11  37
ATOM     37  C   UNL     1      29.733  15.463  10.273  1.00  0.00     0.303 C 
BRANCH  37  38
ATOM     38  O   UNL     1      30.640  15.867  11.272  1.00  0.00    -0.265 OA
BRANCH  38  39
ATOM     39  P   UNL     1      31.169  14.485  12.121  1.00  0.00     0.471 P 
ATOM     40  O   UNL     1      32.658  14.300  11.918  1.00  0.00    -0.228 OA
BRANCH  39  41
ATOM     41  O   UNL     1      30.337  13.101  11.597  1.00  0.00    -0.303 OA
ATOM     42  H   UNL     1      30.667  12.366  12.175  1.00  0.00     0.223 HD
ENDBRANCH  39  41
BRANCH  39  43
ATOM     43  O   UNL     1      30.862  14.713  13.770  1.00  0.00    -0.303 OA
ATOM     44  H   UNL     1      29.995  15.192  13.799  1.00  0.00     0.223 HD
ENDBRANCH  39  43
ENDBRANCH  38  39
ENDBRANCH  37  38
ENDBRANCH  11  37
TORSDOF 12
ENDMDL
MODEL 13
REMARK VINA RESULT:    -8.067      2.380      9.587
REMARK INTER + INTRA:         -15.794
REMARK INTER:                 -14.540
REMARK INTRA:                  -1.254
REMARK UNBOUND:                -2.539
REMARK SMILES COc1cc(Nc2ncc(F)c(Nc3ccc4c(n3)N(COP(=O)(O)O)C(=O)C(C)(C)O4)n2)cc(OC)c1OC
REMARK SMILES IDX 14 1 19 2 18 3 17 4 32 5 29 6 30 7 31 8 27 9 28 10 20 11
REMARK SMILES IDX 16 12 15 13 13 14 12 16 7 17 8 18 33 19 9 20 10 21 11 22
REMARK SMILES IDX 6 23 5 25 3 26 4 27 38 28 35 29 34 30 2 31 1 32 39 33 40 34
REMARK SMILES IDX 36 35 37 36 21 37 22 38 23 39 24 40 25 41 26 43
REMARK H PARENT 13 15 6 24 25 42 26 44
REMARK Flexibility Score: inf
ROOT
ATOM      1  C   UNL     1      32.623   7.928   9.128  1.00  0.00     0.134 A 
ATOM      2  N   UNL     1      33.459   8.704   8.384  1.00  0.00    -0.209 NA
ATOM      3  C   UNL     1      34.358   8.172   7.509  1.00  0.00     0.182 A 
ATOM      4  C   UNL     1      34.445   6.783   7.368  1.00  0.00     0.164 A 
ATOM      5  O   UNL     1      35.353   6.226   6.465  1.00  0.00    -0.474 OA
ATOM      6  C   UNL     1      35.922   6.960   5.374  1.00  0.00     0.182 C 
ATOM      7  C   UNL     1      37.297   6.352   5.063  1.00  0.00     0.067 C 
ATOM      8  C   UNL     1      34.998   6.816   4.157  1.00  0.00     0.067 C 
ATOM      9  C   UNL     1      36.058   8.433   5.718  1.00  0.00     0.273 C 
ATOM     10  O   UNL     1      36.831   9.161   5.034  1.00  0.00    -0.270 OA
ATOM     11  N   UNL     1      35.244   9.019   6.755  1.00  0.00    -0.265 N 
ATOM     12  C   UNL     1      33.629   5.960   8.148  1.00  0.00     0.054 A 
ATOM     13  C   UNL     1      32.713   6.529   9.033  1.00  0.00     0.051 A 
ENDROOT
BRANCH   1  14
ATOM     14  N   UNL     1      31.713   8.559  10.041  1.00  0.00    -0.322 N 
ATOM     15  H   UNL     1      31.246   7.956  10.756  1.00  0.00     0.170 HD
BRANCH  14  16
ATOM     16  C   UNL     1      31.374   9.954  10.019  1.00  0.00     0.173 A 
ATOM     17  C   UNL     1      29.786  11.637   9.490  1.00  0.00     0.229 A 
ATOM     18  N   UNL     1      30.599  12.585  10.032  1.00  0.00    -0.218 NA
ATOM     19  N   UNL     1      30.173  10.333   9.506  1.00  0.00    -0.192 NA
ATOM     20  C   UNL     1      31.800  12.256  10.571  1.00  0.00     0.158 A 
ATOM     21  C   UNL     1      32.216  10.926  10.584  1.00  0.00     0.184 A 
ATOM     22  F   UNL     1      33.386  10.592  11.183  1.00  0.00    -0.201 F 
BRANCH  17  23
ATOM     23  N   UNL     1      28.501  11.987   8.954  1.00  0.00    -0.324 N 
ATOM     24  H   UNL     1      28.480  12.420   8.004  1.00  0.00     0.170 HD
BRANCH  23  25
ATOM     25  C   UNL     1      27.246  11.653   9.574  1.00  0.00     0.049 A 
ATOM     26  C   UNL     1      25.298  12.355  10.857  1.00  0.00     0.166 A 
ATOM     27  C   UNL     1      26.524  12.649  10.236  1.00  0.00     0.076 A 
ATOM     28  C   UNL     1      24.793  11.045  10.829  1.00  0.00     0.203 A 
ATOM     29  C   UNL     1      25.533  10.019  10.186  1.00  0.00     0.166 A 
ATOM     30  C   UNL     1      26.762  10.338   9.576  1.00  0.00     0.076 A 
BRANCH  26  31
ATOM     31  O   UNL     1      24.545  13.342  11.513  1.00  0.00    -0.493 OA
ATOM     32  C   UNL     1      24.857  14.731  11.517  1.00  0.00     0.278 C 
ENDBRANCH  26  31
BRANCH  28  33
ATOM     33  O   UNL     1      23.553  10.833  11.463  1.00  0.00    -0.490 OA
ATOM     34  C   UNL     1      22.699   9.706  11.305  1.00  0.00     0.278 C 
ENDBRANCH  28  33
BRANCH  29  35
ATOM     35  O   UNL     1      25.041   8.705  10.168  1.00  0.00    -0.493 OA
ATOM     36  C   UNL     1      25.798   7.552   9.812  1.00  0.00     0.278 C 
ENDBRANCH  29  35
ENDBRANCH  23  25
ENDBRANCH  17  23
ENDBRANCH  14  16
ENDBRANCH   1  14
BRANCH  11  37
ATOM     37  C   UNL     1      35.228  10.472   6.961  1.00  0.00     0.303 C 
BRANCH  37  38
ATOM     38  O   UNL     1      34.713  11.092   5.806  1.00  0.00    -0.265 OA
BRANCH  38  39
ATOM     39  P   UNL     1      33.365  12.039   6.248  1.00  0.00     0.471 P 
ATOM     40  O   UNL     1      33.798  13.125   7.211  1.00  0.00    -0.228 OA
BRANCH  39  41
ATOM     41  O   UNL     1      32.162  11.079   6.961  1.00  0.00    -0.303 OA
ATOM     42  H   UNL     1      31.959  11.516   7.827  1.00  0.00     0.223 HD
ENDBRANCH  39  41
BRANCH  39  43
ATOM     43  O   UNL     1      32.731  12.760   4.854  1.00  0.00    -0.303 OA
ATOM     44  H   UNL     1      31.749  12.655   4.942  1.00  0.00     0.223 HD
ENDBRANCH  39  43
ENDBRANCH  38  39
ENDBRANCH  37  38
ENDBRANCH  11  37
TORSDOF 12
ENDMDL
MODEL 14
REMARK VINA RESULT:    -8.032      3.635      6.279
REMARK INTER + INTRA:         -15.735
REMARK INTER:                 -12.946
REMARK INTRA:                  -2.789
REMARK UNBOUND:                -2.539
REMARK SMILES COc1cc(Nc2ncc(F)c(Nc3ccc4c(n3)N(COP(=O)(O)O)C(=O)C(C)(C)O4)n2)cc(OC)c1OC
REMARK SMILES IDX 14 1 19 2 18 3 17 4 32 5 29 6 30 7 31 8 27 9 28 10 20 11
REMARK SMILES IDX 16 12 15 13 13 14 12 16 7 17 8 18 33 19 9 20 10 21 11 22
REMARK SMILES IDX 6 23 5 25 3 26 4 27 38 28 35 29 34 30 2 31 1 32 39 33 40 34
REMARK SMILES IDX 36 35 37 36 21 37 22 38 23 39 24 40 25 41 26 43
REMARK H PARENT 13 15 6 24 25 42 26 44
REMARK Flexibility Score: inf
ROOT
ATOM      1  C   UNL     1      29.965  12.813   9.698  1.00  0.00     0.134 A 
ATOM      2  N   UNL     1      31.132  13.224   9.131  1.00  0.00    -0.209 NA
ATOM      3  C   UNL     1      32.047  13.971   9.810  1.00  0.00     0.182 A 
ATOM      4  C   UNL     1      31.788  14.346  11.132  1.00  0.00     0.164 A 
ATOM      5  O   UNL     1      32.724  15.101  11.843  1.00  0.00    -0.474 OA
ATOM      6  C   UNL     1      34.105  15.184  11.473  1.00  0.00     0.182 C 
ATOM      7  C   UNL     1      34.642  16.539  11.957  1.00  0.00     0.067 C 
ATOM      8  C   UNL     1      34.863  14.043  12.166  1.00  0.00     0.067 C 
ATOM      9  C   UNL     1      34.279  15.050   9.970  1.00  0.00     0.273 C 
ATOM     10  O   UNL     1      35.357  15.429   9.433  1.00  0.00    -0.270 OA
ATOM     11  N   UNL     1      33.260  14.411   9.172  1.00  0.00    -0.265 N 
ATOM     12  C   UNL     1      30.582  13.974  11.728  1.00  0.00     0.054 A 
ATOM     13  C   UNL     1      29.663  13.204  11.014  1.00  0.00     0.051 A 
ENDROOT
BRANCH   1  14
ATOM     14  N   UNL     1      29.042  12.041   8.917  1.00  0.00    -0.322 N 
ATOM     15  H   UNL     1      28.495  12.539   8.179  1.00  0.00     0.170 HD
BRANCH  14  16
ATOM     16  C   UNL     1      28.793  10.639   9.101  1.00  0.00     0.173 A 
ATOM     17  C   UNL     1      29.646   8.492   9.648  1.00  0.00     0.229 A 
ATOM     18  N   UNL     1      28.393   7.967   9.574  1.00  0.00    -0.218 NA
ATOM     19  N   UNL     1      29.830   9.823   9.429  1.00  0.00    -0.192 NA
ATOM     20  C   UNL     1      27.323   8.743   9.265  1.00  0.00     0.158 A 
ATOM     21  C   UNL     1      27.497  10.104   9.027  1.00  0.00     0.184 A 
ATOM     22  F   UNL     1      26.417  10.888   8.785  1.00  0.00    -0.201 F 
BRANCH  17  23
ATOM     23  N   UNL     1      30.769   7.674  10.010  1.00  0.00    -0.324 N 
ATOM     24  H   UNL     1      30.631   6.987  10.785  1.00  0.00     0.170 HD
BRANCH  23  25
ATOM     25  C   UNL     1      32.014   7.641   9.290  1.00  0.00     0.049 A 
ATOM     26  C   UNL     1      33.570   6.427   7.861  1.00  0.00     0.166 A 
ATOM     27  C   UNL     1      32.358   6.494   8.569  1.00  0.00     0.076 A 
ATOM     28  C   UNL     1      34.458   7.515   7.884  1.00  0.00     0.203 A 
ATOM     29  C   UNL     1      34.133   8.672   8.638  1.00  0.00     0.166 A 
ATOM     30  C   UNL     1      32.915   8.713   9.345  1.00  0.00     0.076 A 
BRANCH  26  31
ATOM     31  O   UNL     1      33.929   5.294   7.114  1.00  0.00    -0.493 OA
ATOM     32  C   UNL     1      34.259   4.026   7.672  1.00  0.00     0.278 C 
ENDBRANCH  26  31
BRANCH  28  33
ATOM     33  O   UNL     1      35.645   7.375   7.140  1.00  0.00    -0.490 OA
ATOM     34  C   UNL     1      36.925   7.009   7.643  1.00  0.00     0.278 C 
ENDBRANCH  28  33
BRANCH  29  35
ATOM     35  O   UNL     1      35.024   9.756   8.678  1.00  0.00    -0.493 OA
ATOM     36  C   UNL     1      35.443  10.428   9.862  1.00  0.00     0.278 C 
ENDBRANCH  29  35
ENDBRANCH  23  25
ENDBRANCH  17  23
ENDBRANCH  14  16
ENDBRANCH   1  14
BRANCH  11  37
ATOM     37  C   UNL     1      33.504  14.104   7.757  1.00  0.00     0.303 C 
BRANCH  37  38
ATOM     38  O   UNL     1      34.006  12.792   7.654  1.00  0.00    -0.265 OA
BRANCH  38  39
ATOM     39  P   UNL     1      33.127  11.963   6.450  1.00  0.00     0.471 P 
ATOM     40  O   UNL     1      32.757  12.921   5.337  1.00  0.00    -0.228 OA
BRANCH  39  41
ATOM     41  O   UNL     1      31.724  11.264   7.102  1.00  0.00    -0.303 OA
ATOM     42  H   UNL     1      30.994  11.521   6.484  1.00  0.00     0.223 HD
ENDBRANCH  39  41
BRANCH  39  43
ATOM     43  O   UNL     1      34.104  10.734   5.817  1.00  0.00    -0.303 OA
ATOM     44  H   UNL     1      35.030  11.074   5.918  1.00  0.00     0.223 HD
ENDBRANCH  39  43
ENDBRANCH  38  39
ENDBRANCH  37  38
ENDBRANCH  11  37
TORSDOF 12
ENDMDL
MODEL 15
REMARK VINA RESULT:    -7.964      3.504      5.477
REMARK INTER + INTRA:         -15.623
REMARK INTER:                 -13.852
REMARK INTRA:                  -1.772
REMARK UNBOUND:                -2.539
REMARK SMILES COc1cc(Nc2ncc(F)c(Nc3ccc4c(n3)N(COP(=O)(O)O)C(=O)C(C)(C)O4)n2)cc(OC)c1OC
REMARK SMILES IDX 14 1 19 2 18 3 17 4 32 5 29 6 30 7 31 8 27 9 28 10 20 11
REMARK SMILES IDX 16 12 15 13 13 14 12 16 7 17 8 18 33 19 9 20 10 21 11 22
REMARK SMILES IDX 6 23 5 25 3 26 4 27 38 28 35 29 34 30 2 31 1 32 39 33 40 34
REMARK SMILES IDX 36 35 37 36 21 37 22 38 23 39 24 40 25 41 26 43
REMARK H PARENT 13 15 6 24 25 42 26 44
REMARK Flexibility Score: inf
ROOT
ATOM      1  C   UNL     1      27.822   8.237   9.590  1.00  0.00     0.134 A 
ATOM      2  N   UNL     1      27.859   9.590   9.737  1.00  0.00    -0.209 NA
ATOM      3  C   UNL     1      26.749  10.318  10.050  1.00  0.00     0.182 A 
ATOM      4  C   UNL     1      25.523   9.668  10.219  1.00  0.00     0.164 A 
ATOM      5  O   UNL     1      24.382  10.401  10.553  1.00  0.00    -0.474 OA
ATOM      6  C   UNL     1      24.435  11.709  11.136  1.00  0.00     0.182 C 
ATOM      7  C   UNL     1      23.159  12.459  10.727  1.00  0.00     0.067 C 
ATOM      8  C   UNL     1      24.487  11.559  12.663  1.00  0.00     0.067 C 
ATOM      9  C   UNL     1      25.668  12.465  10.672  1.00  0.00     0.273 C 
ATOM     10  O   UNL     1      25.711  13.721  10.804  1.00  0.00    -0.270 OA
ATOM     11  N   UNL     1      26.817  11.750  10.173  1.00  0.00    -0.265 N 
ATOM     12  C   UNL     1      25.445   8.286  10.035  1.00  0.00     0.054 A 
ATOM     13  C   UNL     1      26.595   7.563   9.720  1.00  0.00     0.051 A 
ENDROOT
BRANCH   1  14
ATOM     14  N   UNL     1      29.027   7.539   9.244  1.00  0.00    -0.322 N 
ATOM     15  H   UNL     1      28.935   6.569   8.868  1.00  0.00     0.170 HD
BRANCH  14  16
ATOM     16  C   UNL     1      30.351   8.070   9.410  1.00  0.00     0.173 A 
ATOM     17  C   UNL     1      31.733   9.856  10.142  1.00  0.00     0.229 A 
ATOM     18  N   UNL     1      32.844   9.122   9.860  1.00  0.00    -0.218 NA
ATOM     19  N   UNL     1      30.502   9.316   9.932  1.00  0.00    -0.192 NA
ATOM     20  C   UNL     1      32.747   7.867   9.352  1.00  0.00     0.158 A 
ATOM     21  C   UNL     1      31.493   7.305   9.120  1.00  0.00     0.184 A 
ATOM     22  F   UNL     1      31.400   6.027   8.676  1.00  0.00    -0.201 F 
BRANCH  17  23
ATOM     23  N   UNL     1      31.841  11.169  10.712  1.00  0.00    -0.324 N 
ATOM     24  H   UNL     1      31.252  11.378  11.548  1.00  0.00     0.170 HD
BRANCH  23  25
ATOM     25  C   UNL     1      32.802  12.156  10.297  1.00  0.00     0.049 A 
ATOM     26  C   UNL     1      33.737  13.549   8.531  1.00  0.00     0.166 A 
ATOM     27  C   UNL     1      32.807  12.590   8.969  1.00  0.00     0.076 A 
ATOM     28  C   UNL     1      34.684  14.071   9.427  1.00  0.00     0.203 A 
ATOM     29  C   UNL     1      34.707  13.614  10.770  1.00  0.00     0.166 A 
ATOM     30  C   UNL     1      33.770  12.648  11.184  1.00  0.00     0.076 A 
BRANCH  26  31
ATOM     31  O   UNL     1      33.750  14.015   7.206  1.00  0.00    -0.493 OA
ATOM     32  C   UNL     1      33.073  13.391   6.120  1.00  0.00     0.278 C 
ENDBRANCH  26  31
BRANCH  28  33
ATOM     33  O   UNL     1      35.573  15.035   8.914  1.00  0.00    -0.490 OA
ATOM     34  C   UNL     1      36.922  14.821   8.516  1.00  0.00     0.278 C 
ENDBRANCH  28  33
BRANCH  29  35
ATOM     35  O   UNL     1      35.662  14.120  11.666  1.00  0.00    -0.493 OA
ATOM     36  C   UNL     1      35.559  15.361  12.357  1.00  0.00     0.278 C 
ENDBRANCH  29  35
ENDBRANCH  23  25
ENDBRANCH  17  23
ENDBRANCH  14  16
ENDBRANCH   1  14
BRANCH  11  37
ATOM     37  C   UNL     1      28.078  12.455   9.908  1.00  0.00     0.303 C 
BRANCH  37  38
ATOM     38  O   UNL     1      28.807  12.555  11.108  1.00  0.00    -0.265 OA
BRANCH  38  39
ATOM     39  P   UNL     1      29.463  14.126  11.220  1.00  0.00     0.471 P 
ATOM     40  O   UNL     1      30.531  14.158  12.293  1.00  0.00    -0.228 OA
BRANCH  39  41
ATOM     41  O   UNL     1      28.252  15.261  11.575  1.00  0.00    -0.303 OA
ATOM     42  H   UNL     1      28.122  15.204  12.556  1.00  0.00     0.223 HD
ENDBRANCH  39  41
BRANCH  39  43
ATOM     43  O   UNL     1      30.165  14.525   9.733  1.00  0.00    -0.303 OA
ATOM     44  H   UNL     1      31.128  14.645   9.934  1.00  0.00     0.223 HD
ENDBRANCH  39  43
ENDBRANCH  38  39
ENDBRANCH  37  38
ENDBRANCH  11  37
TORSDOF 12
ENDMDL
