MODEL 1
REMARK VINA RESULT:    -8.808      0.000      0.000
REMARK INTER + INTRA:         -16.390
REMARK INTER:                 -14.473
REMARK INTRA:                  -1.917
REMARK UNBOUND:                -1.917
REMARK SMILES COc1cc(Nc2ncc(F)c(Nc3ccc4c(n3)N(COP(=O)(O)O)C(=O)C(C)(C)O4)n2)cc(OC)c1OC
REMARK SMILES IDX 14 1 19 2 18 3 17 4 32 5 29 6 30 7 31 8 27 9 28 10 20 11
REMARK SMILES IDX 16 12 15 13 13 14 12 16 7 17 8 18 33 19 9 20 10 21 11 22
REMARK SMILES IDX 6 23 5 25 3 26 4 27 38 28 35 29 34 30 2 31 1 32 39 33 40 34
REMARK SMILES IDX 36 35 37 36 21 37 22 38 23 39 24 40 25 41 26 43
REMARK H PARENT 13 15 6 24 25 42 26 44
REMARK Flexibility Score: inf
ROOT
ATOM      1  C   UNL     1      25.826  24.077   8.898  1.00  0.00     0.134 A 
ATOM      2  N   UNL     1      25.862  22.810   9.394  1.00  0.00    -0.209 NA
ATOM      3  C   UNL     1      25.129  22.434  10.480  1.00  0.00     0.182 A 
ATOM      4  C   UNL     1      24.317  23.373  11.123  1.00  0.00     0.164 A 
ATOM      5  O   UNL     1      23.550  22.996  12.229  1.00  0.00    -0.474 OA
ATOM      6  C   UNL     1      23.211  21.635  12.518  1.00  0.00     0.182 C 
ATOM      7  C   UNL     1      23.026  21.508  14.037  1.00  0.00     0.067 C 
ATOM      8  C   UNL     1      21.896  21.299  11.801  1.00  0.00     0.067 C 
ATOM      9  C   UNL     1      24.293  20.686  12.034  1.00  0.00     0.273 C 
ATOM     10  O   UNL     1      24.335  19.508  12.489  1.00  0.00    -0.270 OA
ATOM     11  N   UNL     1      25.209  21.092  10.995  1.00  0.00    -0.265 N 
ATOM     12  C   UNL     1      24.290  24.690  10.662  1.00  0.00     0.054 A 
ATOM     13  C   UNL     1      25.045  25.050   9.546  1.00  0.00     0.051 A 
ENDROOT
BRANCH   1  14
ATOM     14  N   UNL     1      26.638  24.405   7.761  1.00  0.00    -0.322 N 
ATOM     15  H   UNL     1      26.264  24.170   6.814  1.00  0.00     0.170 HD
BRANCH  14  16
ATOM     16  C   UNL     1      27.941  25.002   7.836  1.00  0.00     0.173 A 
ATOM     17  C   UNL     1      30.297  24.715   7.806  1.00  0.00     0.229 A 
ATOM     18  N   UNL     1      30.470  26.064   7.866  1.00  0.00    -0.218 NA
ATOM     19  N   UNL     1      29.038  24.201   7.772  1.00  0.00    -0.192 NA
ATOM     20  C   UNL     1      29.408  26.907   7.915  1.00  0.00     0.158 A 
ATOM     21  C   UNL     1      28.112  26.395   7.893  1.00  0.00     0.184 A 
ATOM     22  F   UNL     1      27.053  27.243   7.875  1.00  0.00    -0.201 F 
BRANCH  17  23
ATOM     23  N   UNL     1      31.425  23.831   7.718  1.00  0.00    -0.324 N 
ATOM     24  H   UNL     1      31.661  23.269   8.566  1.00  0.00     0.170 HD
BRANCH  23  25
ATOM     25  C   UNL     1      32.156  23.567   6.507  1.00  0.00     0.049 A 
ATOM     26  C   UNL     1      33.937  24.186   4.965  1.00  0.00     0.166 A 
ATOM     27  C   UNL     1      33.207  24.413   6.144  1.00  0.00     0.076 A 
ATOM     28  C   UNL     1      33.603  23.109   4.128  1.00  0.00     0.203 A 
ATOM     29  C   UNL     1      32.518  22.262   4.471  1.00  0.00     0.166 A 
ATOM     30  C   UNL     1      31.798  22.513   5.655  1.00  0.00     0.076 A 
BRANCH  26  31
ATOM     31  O   UNL     1      35.009  25.011   4.588  1.00  0.00    -0.493 OA
ATOM     32  C   UNL     1      34.882  26.365   4.167  1.00  0.00     0.278 C 
ENDBRANCH  26  31
BRANCH  28  33
ATOM     33  O   UNL     1      34.389  22.942   2.971  1.00  0.00    -0.490 OA
ATOM     34  C   UNL     1      34.056  23.355   1.651  1.00  0.00     0.278 C 
ENDBRANCH  28  33
BRANCH  29  35
ATOM     35  O   UNL     1      32.169  21.193   3.630  1.00  0.00    -0.493 OA
ATOM     36  C   UNL     1      31.049  21.174   2.751  1.00  0.00     0.278 C 
ENDBRANCH  29  35
ENDBRANCH  23  25
ENDBRANCH  17  23
ENDBRANCH  14  16
ENDBRANCH   1  14
BRANCH  11  37
ATOM     37  C   UNL     1      26.127  20.122  10.387  1.00  0.00     0.303 C 
BRANCH  37  38
ATOM     38  O   UNL     1      25.410  19.323   9.476  1.00  0.00    -0.265 OA
BRANCH  38  39
ATOM     39  P   UNL     1      26.354  19.116   8.070  1.00  0.00     0.471 P 
ATOM     40  O   UNL     1      27.475  18.137   8.347  1.00  0.00    -0.228 OA
BRANCH  39  41
ATOM     41  O   UNL     1      26.995  20.599   7.551  1.00  0.00    -0.303 OA
ATOM     42  H   UNL     1      26.797  20.643   6.581  1.00  0.00     0.223 HD
ENDBRANCH  39  41
BRANCH  39  43
ATOM     43  O   UNL     1      25.367  18.491   6.844  1.00  0.00    -0.303 OA
ATOM     44  H   UNL     1      25.491  17.509   6.900  1.00  0.00     0.223 HD
ENDBRANCH  39  43
ENDBRANCH  38  39
ENDBRANCH  37  38
ENDBRANCH  11  37
TORSDOF 12
ENDMDL
MODEL 2
REMARK VINA RESULT:    -8.734      0.121      1.996
REMARK INTER + INTRA:         -16.267
REMARK INTER:                 -14.378
REMARK INTRA:                  -1.889
REMARK UNBOUND:                -1.917
REMARK SMILES COc1cc(Nc2ncc(F)c(Nc3ccc4c(n3)N(COP(=O)(O)O)C(=O)C(C)(C)O4)n2)cc(OC)c1OC
REMARK SMILES IDX 14 1 19 2 18 3 17 4 32 5 29 6 30 7 31 8 27 9 28 10 20 11
REMARK SMILES IDX 16 12 15 13 13 14 12 16 7 17 8 18 33 19 9 20 10 21 11 22
REMARK SMILES IDX 6 23 5 25 3 26 4 27 38 28 35 29 34 30 2 31 1 32 39 33 40 34
REMARK SMILES IDX 36 35 37 36 21 37 22 38 23 39 24 40 25 41 26 43
REMARK H PARENT 13 15 6 24 25 42 26 44
REMARK Flexibility Score: inf
ROOT
ATOM      1  C   UNL     1      25.873  24.188   8.905  1.00  0.00     0.134 A 
ATOM      2  N   UNL     1      25.906  22.924   9.409  1.00  0.00    -0.209 NA
ATOM      3  C   UNL     1      25.171  22.555  10.496  1.00  0.00     0.182 A 
ATOM      4  C   UNL     1      24.360  23.500  11.133  1.00  0.00     0.164 A 
ATOM      5  O   UNL     1      23.591  23.131  12.240  1.00  0.00    -0.474 OA
ATOM      6  C   UNL     1      23.249  21.772  12.536  1.00  0.00     0.182 C 
ATOM      7  C   UNL     1      23.062  21.654  14.056  1.00  0.00     0.067 C 
ATOM      8  C   UNL     1      21.934  21.435  11.820  1.00  0.00     0.067 C 
ATOM      9  C   UNL     1      24.330  20.818  12.058  1.00  0.00     0.273 C 
ATOM     10  O   UNL     1      24.368  19.643  12.520  1.00  0.00    -0.270 OA
ATOM     11  N   UNL     1      25.247  21.217  11.018  1.00  0.00    -0.265 N 
ATOM     12  C   UNL     1      24.337  24.815  10.664  1.00  0.00     0.054 A 
ATOM     13  C   UNL     1      25.094  25.167   9.547  1.00  0.00     0.051 A 
ENDROOT
BRANCH   1  14
ATOM     14  N   UNL     1      26.686  24.508   7.767  1.00  0.00    -0.322 N 
ATOM     15  H   UNL     1      26.298  24.301   6.819  1.00  0.00     0.170 HD
BRANCH  14  16
ATOM     16  C   UNL     1      28.009  25.061   7.841  1.00  0.00     0.173 A 
ATOM     17  C   UNL     1      30.354  24.698   7.786  1.00  0.00     0.229 A 
ATOM     18  N   UNL     1      30.572  26.039   7.868  1.00  0.00    -0.218 NA
ATOM     19  N   UNL     1      29.079  24.226   7.755  1.00  0.00    -0.192 NA
ATOM     20  C   UNL     1      29.538  26.915   7.940  1.00  0.00     0.158 A 
ATOM     21  C   UNL     1      28.226  26.446   7.921  1.00  0.00     0.184 A 
ATOM     22  F   UNL     1      27.196  27.328   7.927  1.00  0.00    -0.201 F 
BRANCH  17  23
ATOM     23  N   UNL     1      31.451  23.779   7.674  1.00  0.00    -0.324 N 
ATOM     24  H   UNL     1      31.636  23.151   8.488  1.00  0.00     0.170 HD
BRANCH  23  25
ATOM     25  C   UNL     1      32.216  23.571   6.472  1.00  0.00     0.049 A 
ATOM     26  C   UNL     1      32.628  22.266   4.458  1.00  0.00     0.166 A 
ATOM     27  C   UNL     1      31.897  22.500   5.635  1.00  0.00     0.076 A 
ATOM     28  C   UNL     1      33.702  23.105   4.119  1.00  0.00     0.203 A 
ATOM     29  C   UNL     1      34.054  24.178   4.979  1.00  0.00     0.166 A 
ATOM     30  C   UNL     1      33.310  24.388   6.156  1.00  0.00     0.076 A 
BRANCH  26  31
ATOM     31  O   UNL     1      32.316  21.207   3.590  1.00  0.00    -0.493 OA
ATOM     32  C   UNL     1      31.147  21.141   2.780  1.00  0.00     0.278 C 
ENDBRANCH  26  31
BRANCH  28  33
ATOM     33  O   UNL     1      34.377  22.813   2.918  1.00  0.00    -0.490 OA
ATOM     34  C   UNL     1      34.120  23.382   1.639  1.00  0.00     0.278 C 
ENDBRANCH  28  33
BRANCH  29  35
ATOM     35  O   UNL     1      35.137  25.011   4.653  1.00  0.00    -0.493 OA
ATOM     36  C   UNL     1      35.027  26.363   4.217  1.00  0.00     0.278 C 
ENDBRANCH  29  35
ENDBRANCH  23  25
ENDBRANCH  17  23
ENDBRANCH  14  16
ENDBRANCH   1  14
BRANCH  11  37
ATOM     37  C   UNL     1      26.164  20.240  10.416  1.00  0.00     0.303 C 
BRANCH  37  38
ATOM     38  O   UNL     1      25.443  19.430   9.518  1.00  0.00    -0.265 OA
BRANCH  38  39
ATOM     39  P   UNL     1      26.385  19.197   8.115  1.00  0.00     0.471 P 
ATOM     40  O   UNL     1      27.519  18.240   8.415  1.00  0.00    -0.228 OA
BRANCH  39  41
ATOM     41  O   UNL     1      27.006  20.674   7.555  1.00  0.00    -0.303 OA
ATOM     42  H   UNL     1      26.638  21.360   8.168  1.00  0.00     0.223 HD
ENDBRANCH  39  41
BRANCH  39  43
ATOM     43  O   UNL     1      25.403  18.528   6.910  1.00  0.00    -0.303 OA
ATOM     44  H   UNL     1      26.037  18.220   6.213  1.00  0.00     0.223 HD
ENDBRANCH  39  43
ENDBRANCH  38  39
ENDBRANCH  37  38
ENDBRANCH  11  37
TORSDOF 12
ENDMDL
MODEL 3
REMARK VINA RESULT:    -8.068      2.927      4.519
REMARK INTER + INTRA:         -15.173
REMARK INTER:                 -13.379
REMARK INTRA:                  -1.795
REMARK UNBOUND:                -1.917
REMARK SMILES COc1cc(Nc2ncc(F)c(Nc3ccc4c(n3)N(COP(=O)(O)O)C(=O)C(C)(C)O4)n2)cc(OC)c1OC
REMARK SMILES IDX 14 1 19 2 18 3 17 4 32 5 29 6 30 7 31 8 27 9 28 10 20 11
REMARK SMILES IDX 16 12 15 13 13 14 12 16 7 17 8 18 33 19 9 20 10 21 11 22
REMARK SMILES IDX 6 23 5 25 3 26 4 27 38 28 35 29 34 30 2 31 1 32 39 33 40 34
REMARK SMILES IDX 36 35 37 36 21 37 22 38 23 39 24 40 25 41 26 43
REMARK H PARENT 13 15 6 24 25 42 26 44
REMARK Flexibility Score: inf
ROOT
ATOM      1  C   UNL     1      26.533  23.686   8.084  1.00  0.00     0.134 A 
ATOM      2  N   UNL     1      26.429  22.530   8.795  1.00  0.00    -0.209 NA
ATOM      3  C   UNL     1      25.779  22.468   9.991  1.00  0.00     0.182 A 
ATOM      4  C   UNL     1      25.203  23.625  10.525  1.00  0.00     0.164 A 
ATOM      5  O   UNL     1      24.522  23.572  11.743  1.00  0.00    -0.474 OA
ATOM      6  C   UNL     1      24.011  22.355  12.301  1.00  0.00     0.182 C 
ATOM      7  C   UNL     1      23.988  22.510  13.829  1.00  0.00     0.067 C 
ATOM      8  C   UNL     1      22.585  22.141  11.775  1.00  0.00     0.067 C 
ATOM      9  C   UNL     1      24.869  21.166  11.901  1.00  0.00     0.273 C 
ATOM     10  O   UNL     1      24.780  20.089  12.554  1.00  0.00    -0.270 OA
ATOM     11  N   UNL     1      25.708  21.234  10.729  1.00  0.00    -0.265 N 
ATOM     12  C   UNL     1      25.329  24.834   9.839  1.00  0.00     0.054 A 
ATOM     13  C   UNL     1      25.994  24.872   8.614  1.00  0.00     0.051 A 
ENDROOT
BRANCH   1  14
ATOM     14  N   UNL     1      27.247  23.679   6.839  1.00  0.00    -0.322 N 
ATOM     15  H   UNL     1      26.750  23.310   5.997  1.00  0.00     0.170 HD
BRANCH  14  16
ATOM     16  C   UNL     1      28.606  24.113   6.678  1.00  0.00     0.173 A 
ATOM     17  C   UNL     1      30.117  25.872   6.173  1.00  0.00     0.229 A 
ATOM     18  N   UNL     1      31.171  25.057   6.448  1.00  0.00    -0.218 NA
ATOM     19  N   UNL     1      28.849  25.398   6.309  1.00  0.00    -0.192 NA
ATOM     20  C   UNL     1      30.981  23.771   6.835  1.00  0.00     0.158 A 
ATOM     21  C   UNL     1      29.689  23.267   6.968  1.00  0.00     0.184 A 
ATOM     22  F   UNL     1      29.503  22.001   7.419  1.00  0.00    -0.201 F 
BRANCH  17  23
ATOM     23  N   UNL     1      30.323  27.243   5.798  1.00  0.00    -0.324 N 
ATOM     24  H   UNL     1      29.577  27.701   5.228  1.00  0.00     0.170 HD
BRANCH  23  25
ATOM     25  C   UNL     1      31.411  28.058   6.270  1.00  0.00     0.049 A 
ATOM     26  C   UNL     1      32.424  29.354   8.066  1.00  0.00     0.166 A 
ATOM     27  C   UNL     1      31.380  28.550   7.577  1.00  0.00     0.076 A 
ATOM     28  C   UNL     1      33.507  29.684   7.234  1.00  0.00     0.203 A 
ATOM     29  C   UNL     1      33.532  29.214   5.895  1.00  0.00     0.166 A 
ATOM     30  C   UNL     1      32.471  28.416   5.426  1.00  0.00     0.076 A 
BRANCH  26  31
ATOM     31  O   UNL     1      32.426  29.846   9.382  1.00  0.00    -0.493 OA
ATOM     32  C   UNL     1      31.324  29.763  10.280  1.00  0.00     0.278 C 
ENDBRANCH  26  31
BRANCH  28  33
ATOM     33  O   UNL     1      34.518  30.483   7.801  1.00  0.00    -0.490 OA
ATOM     34  C   UNL     1      34.619  31.901   7.732  1.00  0.00     0.278 C 
ENDBRANCH  28  33
BRANCH  29  35
ATOM     35  O   UNL     1      34.604  29.554   5.053  1.00  0.00    -0.493 OA
ATOM     36  C   UNL     1      34.617  30.653   4.147  1.00  0.00     0.278 C 
ENDBRANCH  29  35
ENDBRANCH  23  25
ENDBRANCH  17  23
ENDBRANCH  14  16
ENDBRANCH   1  14
BRANCH  11  37
ATOM     37  C   UNL     1      26.386  20.033  10.227  1.00  0.00     0.303 C 
BRANCH  37  38
ATOM     38  O   UNL     1      25.498  19.319   9.400  1.00  0.00    -0.265 OA
BRANCH  38  39
ATOM     39  P   UNL     1      26.308  18.905   7.956  1.00  0.00     0.471 P 
ATOM     40  O   UNL     1      27.322  17.815   8.235  1.00  0.00    -0.228 OA
BRANCH  39  41
ATOM     41  O   UNL     1      27.082  20.260   7.290  1.00  0.00    -0.303 OA
ATOM     42  H   UNL     1      28.023  20.197   7.593  1.00  0.00     0.223 HD
ENDBRANCH  39  41
BRANCH  39  43
ATOM     43  O   UNL     1      25.170  18.326   6.845  1.00  0.00    -0.303 OA
ATOM     44  H   UNL     1      25.680  17.707   6.263  1.00  0.00     0.223 HD
ENDBRANCH  39  43
ENDBRANCH  38  39
ENDBRANCH  37  38
ENDBRANCH  11  37
TORSDOF 12
ENDMDL
MODEL 4
REMARK VINA RESULT:    -8.064      3.326     10.366
REMARK INTER + INTRA:         -15.166
REMARK INTER:                 -13.694
REMARK INTRA:                  -1.471
REMARK UNBOUND:                -1.917
REMARK SMILES COc1cc(Nc2ncc(F)c(Nc3ccc4c(n3)N(COP(=O)(O)O)C(=O)C(C)(C)O4)n2)cc(OC)c1OC
REMARK SMILES IDX 14 1 19 2 18 3 17 4 32 5 29 6 30 7 31 8 27 9 28 10 20 11
REMARK SMILES IDX 16 12 15 13 13 14 12 16 7 17 8 18 33 19 9 20 10 21 11 22
REMARK SMILES IDX 6 23 5 25 3 26 4 27 38 28 35 29 34 30 2 31 1 32 39 33 40 34
REMARK SMILES IDX 36 35 37 36 21 37 22 38 23 39 24 40 25 41 26 43
REMARK H PARENT 13 15 6 24 25 42 26 44
REMARK Flexibility Score: inf
ROOT
ATOM      1  C   UNL     1      27.847  22.524   7.131  1.00  0.00     0.134 A 
ATOM      2  N   UNL     1      29.153  22.733   6.806  1.00  0.00    -0.209 NA
ATOM      3  C   UNL     1      29.687  23.984   6.713  1.00  0.00     0.182 A 
ATOM      4  C   UNL     1      28.876  25.099   6.944  1.00  0.00     0.164 A 
ATOM      5  O   UNL     1      29.415  26.386   6.864  1.00  0.00    -0.474 OA
ATOM      6  C   UNL     1      30.819  26.653   6.963  1.00  0.00     0.182 C 
ATOM      7  C   UNL     1      31.112  27.935   6.169  1.00  0.00     0.067 C 
ATOM      8  C   UNL     1      31.170  26.863   8.443  1.00  0.00     0.067 C 
ATOM      9  C   UNL     1      31.637  25.494   6.422  1.00  0.00     0.273 C 
ATOM     10  O   UNL     1      32.849  25.678   6.118  1.00  0.00    -0.270 OA
ATOM     11  N   UNL     1      31.065  24.172   6.343  1.00  0.00    -0.265 N 
ATOM     12  C   UNL     1      27.524  24.918   7.238  1.00  0.00     0.054 A 
ATOM     13  C   UNL     1      27.001  23.628   7.334  1.00  0.00     0.051 A 
ENDROOT
BRANCH   1  14
ATOM     14  N   UNL     1      27.351  21.179   7.195  1.00  0.00    -0.322 N 
ATOM     15  H   UNL     1      27.202  20.673   6.293  1.00  0.00     0.170 HD
BRANCH  14  16
ATOM     16  C   UNL     1      27.014  20.493   8.410  1.00  0.00     0.173 A 
ATOM     17  C   UNL     1      26.261  20.622  10.658  1.00  0.00     0.229 A 
ATOM     18  N   UNL     1      26.250  19.263  10.741  1.00  0.00    -0.218 NA
ATOM     19  N   UNL     1      26.624  21.220   9.491  1.00  0.00    -0.192 NA
ATOM     20  C   UNL     1      26.615  18.493   9.685  1.00  0.00     0.158 A 
ATOM     21  C   UNL     1      27.000  19.091   8.487  1.00  0.00     0.184 A 
ATOM     22  F   UNL     1      27.300  18.317   7.414  1.00  0.00    -0.201 F 
BRANCH  17  23
ATOM     23  N   UNL     1      25.839  21.431  11.767  1.00  0.00    -0.324 N 
ATOM     24  H   UNL     1      26.569  22.002  12.248  1.00  0.00     0.170 HD
BRANCH  23  25
ATOM     25  C   UNL     1      24.468  21.612  12.163  1.00  0.00     0.049 A 
ATOM     26  C   UNL     1      22.663  21.123  13.724  1.00  0.00     0.166 A 
ATOM     27  C   UNL     1      23.998  20.972  13.313  1.00  0.00     0.076 A 
ATOM     28  C   UNL     1      21.780  21.912  12.969  1.00  0.00     0.203 A 
ATOM     29  C   UNL     1      22.239  22.541  11.782  1.00  0.00     0.166 A 
ATOM     30  C   UNL     1      23.580  22.369  11.388  1.00  0.00     0.076 A 
BRANCH  26  31
ATOM     31  O   UNL     1      22.172  20.506  14.886  1.00  0.00    -0.493 OA
ATOM     32  C   UNL     1      21.815  19.131  14.985  1.00  0.00     0.278 C 
ENDBRANCH  26  31
BRANCH  28  33
ATOM     33  O   UNL     1      20.462  22.023  13.453  1.00  0.00    -0.490 OA
ATOM     34  C   UNL     1      19.957  23.036  14.316  1.00  0.00     0.278 C 
ENDBRANCH  28  33
BRANCH  29  35
ATOM     35  O   UNL     1      21.356  23.317  11.014  1.00  0.00    -0.493 OA
ATOM     36  C   UNL     1      21.402  24.736  10.901  1.00  0.00     0.278 C 
ENDBRANCH  29  35
ENDBRANCH  23  25
ENDBRANCH  17  23
ENDBRANCH  14  16
ENDBRANCH   1  14
BRANCH  11  37
ATOM     37  C   UNL     1      31.904  23.014   6.007  1.00  0.00     0.303 C 
BRANCH  37  38
ATOM     38  O   UNL     1      32.227  23.066   4.638  1.00  0.00    -0.265 OA
BRANCH  38  39
ATOM     39  P   UNL     1      31.458  21.766   3.845  1.00  0.00     0.471 P 
ATOM     40  O   UNL     1      31.962  21.667   2.420  1.00  0.00    -0.228 OA
BRANCH  39  41
ATOM     41  O   UNL     1      29.773  21.970   3.849  1.00  0.00    -0.303 OA
ATOM     42  H   UNL     1      29.613  22.800   4.367  1.00  0.00     0.223 HD
ENDBRANCH  39  41
BRANCH  39  43
ATOM     43  O   UNL     1      31.835  20.334   4.664  1.00  0.00    -0.303 OA
ATOM     44  H   UNL     1      32.795  20.180   4.470  1.00  0.00     0.223 HD
ENDBRANCH  39  43
ENDBRANCH  38  39
ENDBRANCH  37  38
ENDBRANCH  11  37
TORSDOF 12
ENDMDL
MODEL 5
REMARK VINA RESULT:    -8.029      2.870      4.421
REMARK INTER + INTRA:         -15.109
REMARK INTER:                 -13.285
REMARK INTRA:                  -1.824
REMARK UNBOUND:                -1.917
REMARK SMILES COc1cc(Nc2ncc(F)c(Nc3ccc4c(n3)N(COP(=O)(O)O)C(=O)C(C)(C)O4)n2)cc(OC)c1OC
REMARK SMILES IDX 14 1 19 2 18 3 17 4 32 5 29 6 30 7 31 8 27 9 28 10 20 11
REMARK SMILES IDX 16 12 15 13 13 14 12 16 7 17 8 18 33 19 9 20 10 21 11 22
REMARK SMILES IDX 6 23 5 25 3 26 4 27 38 28 35 29 34 30 2 31 1 32 39 33 40 34
REMARK SMILES IDX 36 35 37 36 21 37 22 38 23 39 24 40 25 41 26 43
REMARK H PARENT 13 15 6 24 25 42 26 44
REMARK Flexibility Score: inf
ROOT
ATOM      1  C   UNL     1      26.384  23.428   8.200  1.00  0.00     0.134 A 
ATOM      2  N   UNL     1      26.265  22.253   8.876  1.00  0.00    -0.209 NA
ATOM      3  C   UNL     1      25.601  22.161  10.063  1.00  0.00     0.182 A 
ATOM      4  C   UNL     1      25.027  23.306  10.623  1.00  0.00     0.164 A 
ATOM      5  O   UNL     1      24.332  23.222  11.832  1.00  0.00    -0.474 OA
ATOM      6  C   UNL     1      23.807  21.993  12.349  1.00  0.00     0.182 C 
ATOM      7  C   UNL     1      23.767  22.105  13.880  1.00  0.00     0.067 C 
ATOM      8  C   UNL     1      22.386  21.804  11.801  1.00  0.00     0.067 C 
ATOM      9  C   UNL     1      24.661  20.811  11.925  1.00  0.00     0.273 C 
ATOM     10  O   UNL     1      24.558  19.717  12.546  1.00  0.00    -0.270 OA
ATOM     11  N   UNL     1      25.514  20.907  10.765  1.00  0.00    -0.265 N 
ATOM     12  C   UNL     1      25.167  24.534   9.974  1.00  0.00     0.054 A 
ATOM     13  C   UNL     1      25.847  24.602   8.757  1.00  0.00     0.051 A 
ENDROOT
BRANCH   1  14
ATOM     14  N   UNL     1      27.112  23.452   6.964  1.00  0.00    -0.322 N 
ATOM     15  H   UNL     1      26.622  23.113   6.105  1.00  0.00     0.170 HD
BRANCH  14  16
ATOM     16  C   UNL     1      28.476  23.878   6.830  1.00  0.00     0.173 A 
ATOM     17  C   UNL     1      30.006  25.599   6.253  1.00  0.00     0.229 A 
ATOM     18  N   UNL     1      31.048  24.815   6.643  1.00  0.00    -0.218 NA
ATOM     19  N   UNL     1      28.734  25.131   6.368  1.00  0.00    -0.192 NA
ATOM     20  C   UNL     1      30.843  23.563   7.126  1.00  0.00     0.158 A 
ATOM     21  C   UNL     1      29.546  23.065   7.239  1.00  0.00     0.184 A 
ATOM     22  F   UNL     1      29.341  21.840   7.784  1.00  0.00    -0.201 F 
BRANCH  17  23
ATOM     23  N   UNL     1      30.228  26.935   5.776  1.00  0.00    -0.324 N 
ATOM     24  H   UNL     1      29.572  27.299   5.049  1.00  0.00     0.170 HD
BRANCH  23  25
ATOM     25  C   UNL     1      31.196  27.844   6.330  1.00  0.00     0.049 A 
ATOM     26  C   UNL     1      33.287  29.069   6.089  1.00  0.00     0.166 A 
ATOM     27  C   UNL     1      32.320  28.190   5.575  1.00  0.00     0.076 A 
ATOM     28  C   UNL     1      33.140  29.600   7.381  1.00  0.00     0.203 A 
ATOM     29  C   UNL     1      32.018  29.230   8.168  1.00  0.00     0.166 A 
ATOM     30  C   UNL     1      31.065  28.342   7.633  1.00  0.00     0.076 A 
BRANCH  26  31
ATOM     31  O   UNL     1      34.416  29.447   5.342  1.00  0.00    -0.493 OA
ATOM     32  C   UNL     1      34.444  30.513   4.400  1.00  0.00     0.278 C 
ENDBRANCH  26  31
BRANCH  28  33
ATOM     33  O   UNL     1      34.145  30.483   7.819  1.00  0.00    -0.490 OA
ATOM     34  C   UNL     1      35.245  30.165   8.665  1.00  0.00     0.278 C 
ENDBRANCH  28  33
BRANCH  29  35
ATOM     35  O   UNL     1      31.873  29.745   9.466  1.00  0.00    -0.493 OA
ATOM     36  C   UNL     1      31.080  30.876   9.815  1.00  0.00     0.278 C 
ENDBRANCH  29  35
ENDBRANCH  23  25
ENDBRANCH  17  23
ENDBRANCH  14  16
ENDBRANCH   1  14
BRANCH  11  37
ATOM     37  C   UNL     1      26.191  19.716  10.235  1.00  0.00     0.303 C 
BRANCH  37  38
ATOM     38  O   UNL     1      25.349  19.093   9.294  1.00  0.00    -0.265 OA
BRANCH  38  39
ATOM     39  P   UNL     1      26.267  18.712   7.907  1.00  0.00     0.471 P 
ATOM     40  O   UNL     1      27.428  17.820   8.293  1.00  0.00    -0.228 OA
BRANCH  39  41
ATOM     41  O   UNL     1      26.844  20.122   7.161  1.00  0.00    -0.303 OA
ATOM     42  H   UNL     1      27.641  19.836   6.646  1.00  0.00     0.223 HD
ENDBRANCH  39  41
BRANCH  39  43
ATOM     43  O   UNL     1      25.276  17.883   6.814  1.00  0.00    -0.303 OA
ATOM     44  H   UNL     1      25.237  18.470   6.016  1.00  0.00     0.223 HD
ENDBRANCH  39  43
ENDBRANCH  38  39
ENDBRANCH  37  38
ENDBRANCH  11  37
TORSDOF 12
ENDMDL
MODEL 6
REMARK VINA RESULT:    -7.931      2.481      4.255
REMARK INTER + INTRA:         -14.948
REMARK INTER:                 -13.846
REMARK INTRA:                  -1.102
REMARK UNBOUND:                -1.917
REMARK SMILES COc1cc(Nc2ncc(F)c(Nc3ccc4c(n3)N(COP(=O)(O)O)C(=O)C(C)(C)O4)n2)cc(OC)c1OC
REMARK SMILES IDX 14 1 19 2 18 3 17 4 32 5 29 6 30 7 31 8 27 9 28 10 20 11
REMARK SMILES IDX 16 12 15 13 13 14 12 16 7 17 8 18 33 19 9 20 10 21 11 22
REMARK SMILES IDX 6 23 5 25 3 26 4 27 38 28 35 29 34 30 2 31 1 32 39 33 40 34
REMARK SMILES IDX 36 35 37 36 21 37 22 38 23 39 24 40 25 41 26 43
REMARK H PARENT 13 15 6 24 25 42 26 44
REMARK Flexibility Score: inf
ROOT
ATOM      1  C   UNL     1      29.307  23.521  10.323  1.00  0.00     0.134 A 
ATOM      2  N   UNL     1      28.122  22.902  10.581  1.00  0.00    -0.209 NA
ATOM      3  C   UNL     1      27.752  21.750   9.953  1.00  0.00     0.182 A 
ATOM      4  C   UNL     1      28.602  21.179   9.002  1.00  0.00     0.164 A 
ATOM      5  O   UNL     1      28.241  19.992   8.361  1.00  0.00    -0.474 OA
ATOM      6  C   UNL     1      27.259  19.088   8.884  1.00  0.00     0.182 C 
ATOM      7  C   UNL     1      26.621  18.348   7.700  1.00  0.00     0.067 C 
ATOM      8  C   UNL     1      27.965  18.087   9.809  1.00  0.00     0.067 C 
ATOM      9  C   UNL     1      26.199  19.831   9.679  1.00  0.00     0.273 C 
ATOM     10  O   UNL     1      25.097  19.266   9.923  1.00  0.00    -0.270 OA
ATOM     11  N   UNL     1      26.481  21.134  10.231  1.00  0.00    -0.265 N 
ATOM     12  C   UNL     1      29.806  21.813   8.686  1.00  0.00     0.054 A 
ATOM     13  C   UNL     1      30.165  22.988   9.346  1.00  0.00     0.051 A 
ENDROOT
BRANCH   1  14
ATOM     14  N   UNL     1      29.623  24.740  11.012  1.00  0.00    -0.322 N 
ATOM     15  H   UNL     1      29.377  24.802  12.026  1.00  0.00     0.170 HD
BRANCH  14  16
ATOM     16  C   UNL     1      30.222  25.890  10.397  1.00  0.00     0.173 A 
ATOM     17  C   UNL     1      31.257  26.849   8.488  1.00  0.00     0.229 A 
ATOM     18  N   UNL     1      31.289  28.062   9.104  1.00  0.00    -0.218 NA
ATOM     19  N   UNL     1      30.708  25.783   9.132  1.00  0.00    -0.192 NA
ATOM     20  C   UNL     1      30.802  28.224  10.361  1.00  0.00     0.158 A 
ATOM     21  C   UNL     1      30.248  27.140  11.038  1.00  0.00     0.184 A 
ATOM     22  F   UNL     1      29.702  27.320  12.266  1.00  0.00    -0.201 F 
BRANCH  17  23
ATOM     23  N   UNL     1      31.741  26.692   7.145  1.00  0.00    -0.324 N 
ATOM     24  H   UNL     1      32.206  27.517   6.704  1.00  0.00     0.170 HD
BRANCH  23  25
ATOM     25  C   UNL     1      31.753  25.444   6.429  1.00  0.00     0.049 A 
ATOM     26  C   UNL     1      33.005  23.747   5.209  1.00  0.00     0.166 A 
ATOM     27  C   UNL     1      32.960  24.959   5.919  1.00  0.00     0.076 A 
ATOM     28  C   UNL     1      31.826  23.016   4.992  1.00  0.00     0.203 A 
ATOM     29  C   UNL     1      30.590  23.515   5.478  1.00  0.00     0.166 A 
ATOM     30  C   UNL     1      30.570  24.735   6.181  1.00  0.00     0.076 A 
BRANCH  26  31
ATOM     31  O   UNL     1      34.209  23.230   4.704  1.00  0.00    -0.493 OA
ATOM     32  C   UNL     1      34.707  23.469   3.392  1.00  0.00     0.278 C 
ENDBRANCH  26  31
BRANCH  28  33
ATOM     33  O   UNL     1      31.956  21.807   4.283  1.00  0.00    -0.490 OA
ATOM     34  C   UNL     1      31.428  21.517   2.993  1.00  0.00     0.278 C 
ENDBRANCH  28  33
BRANCH  29  35
ATOM     35  O   UNL     1      29.405  22.796   5.250  1.00  0.00    -0.493 OA
ATOM     36  C   UNL     1      28.127  23.138   5.776  1.00  0.00     0.278 C 
ENDBRANCH  29  35
ENDBRANCH  23  25
ENDBRANCH  17  23
ENDBRANCH  14  16
ENDBRANCH   1  14
BRANCH  11  37
ATOM     37  C   UNL     1      25.539  21.772  11.159  1.00  0.00     0.303 C 
BRANCH  37  38
ATOM     38  O   UNL     1      24.386  22.156  10.447  1.00  0.00    -0.265 OA
BRANCH  38  39
ATOM     39  P   UNL     1      23.015  21.825  11.408  1.00  0.00     0.471 P 
ATOM     40  O   UNL     1      21.885  22.757  11.022  1.00  0.00    -0.228 OA
BRANCH  39  41
ATOM     41  O   UNL     1      23.377  22.005  13.056  1.00  0.00    -0.303 OA
ATOM     42  H   UNL     1      24.245  21.543  13.184  1.00  0.00     0.223 HD
ENDBRANCH  39  41
BRANCH  39  43
ATOM     43  O   UNL     1      22.532  20.228  11.128  1.00  0.00    -0.303 OA
ATOM     44  H   UNL     1      22.889  20.012  10.229  1.00  0.00     0.223 HD
ENDBRANCH  39  43
ENDBRANCH  38  39
ENDBRANCH  37  38
ENDBRANCH  11  37
TORSDOF 12
ENDMDL
MODEL 7
REMARK VINA RESULT:    -7.906      2.505      4.557
REMARK INTER + INTRA:         -14.907
REMARK INTER:                 -13.713
REMARK INTRA:                  -1.193
REMARK UNBOUND:                -1.917
REMARK SMILES COc1cc(Nc2ncc(F)c(Nc3ccc4c(n3)N(COP(=O)(O)O)C(=O)C(C)(C)O4)n2)cc(OC)c1OC
REMARK SMILES IDX 14 1 19 2 18 3 17 4 32 5 29 6 30 7 31 8 27 9 28 10 20 11
REMARK SMILES IDX 16 12 15 13 13 14 12 16 7 17 8 18 33 19 9 20 10 21 11 22
REMARK SMILES IDX 6 23 5 25 3 26 4 27 38 28 35 29 34 30 2 31 1 32 39 33 40 34
REMARK SMILES IDX 36 35 37 36 21 37 22 38 23 39 24 40 25 41 26 43
REMARK H PARENT 13 15 6 24 25 42 26 44
REMARK Flexibility Score: inf
ROOT
ATOM      1  C   UNL     1      29.386  23.679  10.358  1.00  0.00     0.134 A 
ATOM      2  N   UNL     1      28.210  23.044  10.616  1.00  0.00    -0.209 NA
ATOM      3  C   UNL     1      27.878  21.860  10.028  1.00  0.00     0.182 A 
ATOM      4  C   UNL     1      28.761  21.270   9.117  1.00  0.00     0.164 A 
ATOM      5  O   UNL     1      28.439  20.051   8.518  1.00  0.00    -0.474 OA
ATOM      6  C   UNL     1      27.467  19.147   9.057  1.00  0.00     0.182 C 
ATOM      7  C   UNL     1      26.871  18.345   7.891  1.00  0.00     0.067 C 
ATOM      8  C   UNL     1      28.174  18.199  10.036  1.00  0.00     0.067 C 
ATOM      9  C   UNL     1      26.374  19.897   9.799  1.00  0.00     0.273 C 
ATOM     10  O   UNL     1      25.279  19.317  10.043  1.00  0.00    -0.270 OA
ATOM     11  N   UNL     1      26.616  21.227  10.304  1.00  0.00    -0.265 N 
ATOM     12  C   UNL     1      29.957  21.918   8.801  1.00  0.00     0.054 A 
ATOM     13  C   UNL     1      30.277  23.126   9.421  1.00  0.00     0.051 A 
ENDROOT
BRANCH   1  14
ATOM     14  N   UNL     1      29.660  24.931  11.003  1.00  0.00    -0.322 N 
ATOM     15  H   UNL     1      29.365  25.039  11.999  1.00  0.00     0.170 HD
BRANCH  14  16
ATOM     16  C   UNL     1      30.282  26.056  10.364  1.00  0.00     0.173 A 
ATOM     17  C   UNL     1      31.318  26.961   8.429  1.00  0.00     0.229 A 
ATOM     18  N   UNL     1      31.390  28.181   9.028  1.00  0.00    -0.218 NA
ATOM     19  N   UNL     1      30.750  25.919   9.095  1.00  0.00    -0.192 NA
ATOM     20  C   UNL     1      30.922  28.373  10.287  1.00  0.00     0.158 A 
ATOM     21  C   UNL     1      30.348  27.314  10.986  1.00  0.00     0.184 A 
ATOM     22  F   UNL     1      29.823  27.526  12.219  1.00  0.00    -0.201 F 
BRANCH  17  23
ATOM     23  N   UNL     1      31.781  26.772   7.083  1.00  0.00    -0.324 N 
ATOM     24  H   UNL     1      32.279  27.571   6.631  1.00  0.00     0.170 HD
BRANCH  23  25
ATOM     25  C   UNL     1      31.729  25.520   6.376  1.00  0.00     0.049 A 
ATOM     26  C   UNL     1      30.421  23.633   5.563  1.00  0.00     0.166 A 
ATOM     27  C   UNL     1      30.505  24.860   6.242  1.00  0.00     0.076 A 
ATOM     28  C   UNL     1      31.577  23.049   5.021  1.00  0.00     0.203 A 
ATOM     29  C   UNL     1      32.831  23.696   5.178  1.00  0.00     0.166 A 
ATOM     30  C   UNL     1      32.890  24.922   5.869  1.00  0.00     0.076 A 
BRANCH  26  31
ATOM     31  O   UNL     1      29.199  22.959   5.400  1.00  0.00    -0.493 OA
ATOM     32  C   UNL     1      28.012  23.243   6.132  1.00  0.00     0.278 C 
ENDBRANCH  26  31
BRANCH  28  33
ATOM     33  O   UNL     1      31.409  21.825   4.345  1.00  0.00    -0.490 OA
ATOM     34  C   UNL     1      31.373  21.632   2.935  1.00  0.00     0.278 C 
ENDBRANCH  28  33
BRANCH  29  35
ATOM     35  O   UNL     1      33.993  23.109   4.652  1.00  0.00    -0.493 OA
ATOM     36  C   UNL     1      34.788  23.661   3.608  1.00  0.00     0.278 C 
ENDBRANCH  29  35
ENDBRANCH  23  25
ENDBRANCH  17  23
ENDBRANCH  14  16
ENDBRANCH   1  14
BRANCH  11  37
ATOM     37  C   UNL     1      25.640  21.880  11.185  1.00  0.00     0.303 C 
BRANCH  37  38
ATOM     38  O   UNL     1      24.514  22.250  10.425  1.00  0.00    -0.265 OA
BRANCH  38  39
ATOM     39  P   UNL     1      23.108  21.916  11.334  1.00  0.00     0.471 P 
ATOM     40  O   UNL     1      22.012  22.889  10.953  1.00  0.00    -0.228 OA
BRANCH  39  41
ATOM     41  O   UNL     1      23.426  22.024  12.997  1.00  0.00    -0.303 OA
ATOM     42  H   UNL     1      22.603  21.695  13.441  1.00  0.00     0.223 HD
ENDBRANCH  39  41
BRANCH  39  43
ATOM     43  O   UNL     1      22.596  20.343  10.978  1.00  0.00    -0.303 OA
ATOM     44  H   UNL     1      22.550  20.312   9.988  1.00  0.00     0.223 HD
ENDBRANCH  39  43
ENDBRANCH  38  39
ENDBRANCH  37  38
ENDBRANCH  11  37
TORSDOF 12
ENDMDL
MODEL 8
REMARK VINA RESULT:    -7.820      3.421      6.136
REMARK INTER + INTRA:         -14.766
REMARK INTER:                 -13.646
REMARK INTRA:                  -1.120
REMARK UNBOUND:                -1.917
REMARK SMILES COc1cc(Nc2ncc(F)c(Nc3ccc4c(n3)N(COP(=O)(O)O)C(=O)C(C)(C)O4)n2)cc(OC)c1OC
REMARK SMILES IDX 14 1 19 2 18 3 17 4 32 5 29 6 30 7 31 8 27 9 28 10 20 11
REMARK SMILES IDX 16 12 15 13 13 14 12 16 7 17 8 18 33 19 9 20 10 21 11 22
REMARK SMILES IDX 6 23 5 25 3 26 4 27 38 28 35 29 34 30 2 31 1 32 39 33 40 34
REMARK SMILES IDX 36 35 37 36 21 37 22 38 23 39 24 40 25 41 26 43
REMARK H PARENT 13 15 6 24 25 42 26 44
REMARK Flexibility Score: inf
ROOT
ATOM      1  C   UNL     1      31.242  22.801   6.860  1.00  0.00     0.134 A 
ATOM      2  N   UNL     1      30.054  22.212   7.170  1.00  0.00    -0.209 NA
ATOM      3  C   UNL     1      29.156  22.788   8.018  1.00  0.00     0.182 A 
ATOM      4  C   UNL     1      29.455  24.021   8.606  1.00  0.00     0.164 A 
ATOM      5  O   UNL     1      28.538  24.628   9.466  1.00  0.00    -0.474 OA
ATOM      6  C   UNL     1      27.144  24.295   9.485  1.00  0.00     0.182 C 
ATOM      7  C   UNL     1      26.614  24.566  10.901  1.00  0.00     0.067 C 
ATOM      8  C   UNL     1      26.417  25.191   8.473  1.00  0.00     0.067 C 
ATOM      9  C   UNL     1      26.924  22.841   9.105  1.00  0.00     0.273 C 
ATOM     10  O   UNL     1      25.826  22.285   9.388  1.00  0.00    -0.270 OA
ATOM     11  N   UNL     1      27.920  22.127   8.344  1.00  0.00    -0.265 N 
ATOM     12  C   UNL     1      30.683  24.630   8.340  1.00  0.00     0.054 A 
ATOM     13  C   UNL     1      31.584  24.023   7.464  1.00  0.00     0.051 A 
ENDROOT
BRANCH   1  14
ATOM     14  N   UNL     1      32.145  22.127   5.971  1.00  0.00    -0.322 N 
ATOM     15  H   UNL     1      32.296  21.103   6.117  1.00  0.00     0.170 HD
BRANCH  14  16
ATOM     16  C   UNL     1      32.880  22.768   4.918  1.00  0.00     0.173 A 
ATOM     17  C   UNL     1      34.281  24.558   4.235  1.00  0.00     0.229 A 
ATOM     18  N   UNL     1      34.395  24.007   2.995  1.00  0.00    -0.218 NA
ATOM     19  N   UNL     1      33.542  23.925   5.185  1.00  0.00    -0.192 NA
ATOM     20  C   UNL     1      33.767  22.845   2.684  1.00  0.00     0.158 A 
ATOM     21  C   UNL     1      32.996  22.191   3.643  1.00  0.00     0.184 A 
ATOM     22  F   UNL     1      32.425  20.997   3.348  1.00  0.00    -0.201 F 
BRANCH  17  23
ATOM     23  N   UNL     1      34.977  25.768   4.570  1.00  0.00    -0.324 N 
ATOM     24  H   UNL     1      36.012  25.781   4.429  1.00  0.00     0.170 HD
BRANCH  23  25
ATOM     25  C   UNL     1      34.332  26.997   4.949  1.00  0.00     0.049 A 
ATOM     26  C   UNL     1      32.339  28.151   5.744  1.00  0.00     0.166 A 
ATOM     27  C   UNL     1      33.001  26.969   5.373  1.00  0.00     0.076 A 
ATOM     28  C   UNL     1      33.012  29.383   5.678  1.00  0.00     0.203 A 
ATOM     29  C   UNL     1      34.354  29.427   5.220  1.00  0.00     0.166 A 
ATOM     30  C   UNL     1      34.993  28.228   4.847  1.00  0.00     0.076 A 
BRANCH  26  31
ATOM     31  O   UNL     1      31.008  28.146   6.190  1.00  0.00    -0.493 OA
ATOM     32  C   UNL     1      30.607  27.957   7.543  1.00  0.00     0.278 C 
ENDBRANCH  26  31
BRANCH  28  33
ATOM     33  O   UNL     1      32.285  30.521   6.078  1.00  0.00    -0.490 OA
ATOM     34  C   UNL     1      32.401  31.210   7.318  1.00  0.00     0.278 C 
ENDBRANCH  28  33
BRANCH  29  35
ATOM     35  O   UNL     1      35.027  30.657   5.137  1.00  0.00    -0.493 OA
ATOM     36  C   UNL     1      34.873  31.604   4.084  1.00  0.00     0.278 C 
ENDBRANCH  29  35
ENDBRANCH  23  25
ENDBRANCH  17  23
ENDBRANCH  14  16
ENDBRANCH   1  14
BRANCH  11  37
ATOM     37  C   UNL     1      27.634  20.791   7.807  1.00  0.00     0.303 C 
BRANCH  37  38
ATOM     38  O   UNL     1      28.201  19.824   8.660  1.00  0.00    -0.265 OA
BRANCH  38  39
ATOM     39  P   UNL     1      27.019  18.646   9.015  1.00  0.00     0.471 P 
ATOM     40  O   UNL     1      26.968  17.622   7.900  1.00  0.00    -0.228 OA
BRANCH  39  41
ATOM     41  O   UNL     1      25.494  19.364   9.211  1.00  0.00    -0.303 OA
ATOM     42  H   UNL     1      25.449  19.621  10.167  1.00  0.00     0.223 HD
ENDBRANCH  39  41
BRANCH  39  43
ATOM     43  O   UNL     1      27.446  17.870  10.457  1.00  0.00    -0.303 OA
ATOM     44  H   UNL     1      28.349  17.501  10.285  1.00  0.00     0.223 HD
ENDBRANCH  39  43
ENDBRANCH  38  39
ENDBRANCH  37  38
ENDBRANCH  11  37
TORSDOF 12
ENDMDL
MODEL 9
REMARK VINA RESULT:    -7.814      1.497      2.620
REMARK INTER + INTRA:         -14.755
REMARK INTER:                 -13.192
REMARK INTRA:                  -1.563
REMARK UNBOUND:                -1.917
REMARK SMILES COc1cc(Nc2ncc(F)c(Nc3ccc4c(n3)N(COP(=O)(O)O)C(=O)C(C)(C)O4)n2)cc(OC)c1OC
REMARK SMILES IDX 14 1 19 2 18 3 17 4 32 5 29 6 30 7 31 8 27 9 28 10 20 11
REMARK SMILES IDX 16 12 15 13 13 14 12 16 7 17 8 18 33 19 9 20 10 21 11 22
REMARK SMILES IDX 6 23 5 25 3 26 4 27 38 28 35 29 34 30 2 31 1 32 39 33 40 34
REMARK SMILES IDX 36 35 37 36 21 37 22 38 23 39 24 40 25 41 26 43
REMARK H PARENT 13 15 6 24 25 42 26 44
REMARK Flexibility Score: inf
ROOT
ATOM      1  C   UNL     1      25.651  24.806  10.628  1.00  0.00     0.134 A 
ATOM      2  N   UNL     1      25.858  23.461  10.591  1.00  0.00    -0.209 NA
ATOM      3  C   UNL     1      25.087  22.587  11.299  1.00  0.00     0.182 A 
ATOM      4  C   UNL     1      24.053  23.076  12.104  1.00  0.00     0.164 A 
ATOM      5  O   UNL     1      23.247  22.190  12.824  1.00  0.00    -0.474 OA
ATOM      6  C   UNL     1      23.127  20.801  12.498  1.00  0.00     0.182 C 
ATOM      7  C   UNL     1      22.799  20.039  13.791  1.00  0.00     0.067 C 
ATOM      8  C   UNL     1      21.982  20.636  11.489  1.00  0.00     0.067 C 
ATOM      9  C   UNL     1      24.409  20.270  11.880  1.00  0.00     0.273 C 
ATOM     10  O   UNL     1      24.610  19.024  11.841  1.00  0.00    -0.270 OA
ATOM     11  N   UNL     1      25.347  21.173  11.258  1.00  0.00    -0.265 N 
ATOM     12  C   UNL     1      23.843  24.453  12.194  1.00  0.00     0.054 A 
ATOM     13  C   UNL     1      24.642  25.326  11.456  1.00  0.00     0.051 A 
ENDROOT
BRANCH   1  14
ATOM     14  N   UNL     1      26.513  25.665   9.868  1.00  0.00    -0.322 N 
ATOM     15  H   UNL     1      26.122  26.576   9.538  1.00  0.00     0.170 HD
BRANCH  14  16
ATOM     16  C   UNL     1      27.864  25.346   9.501  1.00  0.00     0.173 A 
ATOM     17  C   UNL     1      29.448  24.950   7.778  1.00  0.00     0.229 A 
ATOM     18  N   UNL     1      30.440  24.840   8.704  1.00  0.00    -0.218 NA
ATOM     19  N   UNL     1      28.178  25.219   8.185  1.00  0.00    -0.192 NA
ATOM     20  C   UNL     1      30.181  24.974  10.029  1.00  0.00     0.158 A 
ATOM     21  C   UNL     1      28.883  25.238  10.462  1.00  0.00     0.184 A 
ATOM     22  F   UNL     1      28.640  25.437  11.781  1.00  0.00    -0.201 F 
BRANCH  17  23
ATOM     23  N   UNL     1      29.734  24.843   6.375  1.00  0.00    -0.324 N 
ATOM     24  H   UNL     1      29.095  25.342   5.717  1.00  0.00     0.170 HD
BRANCH  23  25
ATOM     25  C   UNL     1      30.911  24.217   5.833  1.00  0.00     0.049 A 
ATOM     26  C   UNL     1      31.939  22.307   4.724  1.00  0.00     0.166 A 
ATOM     27  C   UNL     1      30.808  22.949   5.257  1.00  0.00     0.076 A 
ATOM     28  C   UNL     1      33.194  22.935   4.781  1.00  0.00     0.203 A 
ATOM     29  C   UNL     1      33.316  24.210   5.391  1.00  0.00     0.166 A 
ATOM     30  C   UNL     1      32.168  24.829   5.924  1.00  0.00     0.076 A 
BRANCH  26  31
ATOM     31  O   UNL     1      31.857  21.041   4.123  1.00  0.00    -0.493 OA
ATOM     32  C   UNL     1      31.433  20.804   2.785  1.00  0.00     0.278 C 
ENDBRANCH  26  31
BRANCH  28  33
ATOM     33  O   UNL     1      34.276  22.233   4.214  1.00  0.00    -0.490 OA
ATOM     34  C   UNL     1      34.790  22.385   2.896  1.00  0.00     0.278 C 
ENDBRANCH  28  33
BRANCH  29  35
ATOM     35  O   UNL     1      34.571  24.835   5.465  1.00  0.00    -0.493 OA
ATOM     36  C   UNL     1      35.099  25.727   4.488  1.00  0.00     0.278 C 
ENDBRANCH  29  35
ENDBRANCH  23  25
ENDBRANCH  17  23
ENDBRANCH  14  16
ENDBRANCH   1  14
BRANCH  11  37
ATOM     37  C   UNL     1      26.486  20.654  10.491  1.00  0.00     0.303 C 
BRANCH  37  38
ATOM     38  O   UNL     1      26.035  20.246   9.221  1.00  0.00    -0.265 OA
BRANCH  38  39
ATOM     39  P   UNL     1      26.571  18.651   8.936  1.00  0.00     0.471 P 
ATOM     40  O   UNL     1      25.429  17.819   8.392  1.00  0.00    -0.228 OA
BRANCH  39  41
ATOM     41  O   UNL     1      27.167  17.952  10.363  1.00  0.00    -0.303 OA
ATOM     42  H   UNL     1      26.803  18.509  11.097  1.00  0.00     0.223 HD
ENDBRANCH  39  41
BRANCH  39  43
ATOM     43  O   UNL     1      27.815  18.696   7.790  1.00  0.00    -0.303 OA
ATOM     44  H   UNL     1      27.620  17.940   7.179  1.00  0.00     0.223 HD
ENDBRANCH  39  43
ENDBRANCH  38  39
ENDBRANCH  37  38
ENDBRANCH  11  37
TORSDOF 12
ENDMDL
MODEL 10
REMARK VINA RESULT:    -7.811      3.480     10.434
REMARK INTER + INTRA:         -14.751
REMARK INTER:                 -13.493
REMARK INTRA:                  -1.258
REMARK UNBOUND:                -1.917
REMARK SMILES COc1cc(Nc2ncc(F)c(Nc3ccc4c(n3)N(COP(=O)(O)O)C(=O)C(C)(C)O4)n2)cc(OC)c1OC
REMARK SMILES IDX 14 1 19 2 18 3 17 4 32 5 29 6 30 7 31 8 27 9 28 10 20 11
REMARK SMILES IDX 16 12 15 13 13 14 12 16 7 17 8 18 33 19 9 20 10 21 11 22
REMARK SMILES IDX 6 23 5 25 3 26 4 27 38 28 35 29 34 30 2 31 1 32 39 33 40 34
REMARK SMILES IDX 36 35 37 36 21 37 22 38 23 39 24 40 25 41 26 43
REMARK H PARENT 13 15 6 24 25 42 26 44
REMARK Flexibility Score: inf
ROOT
ATOM      1  C   UNL     1      27.824  22.497   7.197  1.00  0.00     0.134 A 
ATOM      2  N   UNL     1      29.128  22.696   6.862  1.00  0.00    -0.209 NA
ATOM      3  C   UNL     1      29.666  23.943   6.743  1.00  0.00     0.182 A 
ATOM      4  C   UNL     1      28.860  25.065   6.959  1.00  0.00     0.164 A 
ATOM      5  O   UNL     1      29.402  26.348   6.853  1.00  0.00    -0.474 OA
ATOM      6  C   UNL     1      30.807  26.613   6.940  1.00  0.00     0.182 C 
ATOM      7  C   UNL     1      31.100  27.879   6.121  1.00  0.00     0.067 C 
ATOM      8  C   UNL     1      31.167  26.849   8.414  1.00  0.00     0.067 C 
ATOM      9  C   UNL     1      31.619  25.442   6.415  1.00  0.00     0.273 C 
ATOM     10  O   UNL     1      32.830  25.617   6.101  1.00  0.00    -0.270 OA
ATOM     11  N   UNL     1      31.042  24.120   6.363  1.00  0.00    -0.265 N 
ATOM     12  C   UNL     1      27.508  24.893   7.264  1.00  0.00     0.054 A 
ATOM     13  C   UNL     1      26.982  23.607   7.385  1.00  0.00     0.051 A 
ENDROOT
BRANCH   1  14
ATOM     14  N   UNL     1      27.324  21.155   7.288  1.00  0.00    -0.322 N 
ATOM     15  H   UNL     1      27.192  20.624   6.398  1.00  0.00     0.170 HD
BRANCH  14  16
ATOM     16  C   UNL     1      26.961  20.504   8.515  1.00  0.00     0.173 A 
ATOM     17  C   UNL     1      25.746  20.571  10.554  1.00  0.00     0.229 A 
ATOM     18  N   UNL     1      26.130  19.295  10.834  1.00  0.00    -0.218 NA
ATOM     19  N   UNL     1      26.149  21.153   9.392  1.00  0.00    -0.192 NA
ATOM     20  C   UNL     1      26.927  18.599   9.984  1.00  0.00     0.158 A 
ATOM     21  C   UNL     1      27.357  19.186   8.795  1.00  0.00     0.184 A 
ATOM     22  F   UNL     1      28.098  18.464   7.918  1.00  0.00    -0.201 F 
BRANCH  17  23
ATOM     23  N   UNL     1      24.875  21.290  11.439  1.00  0.00    -0.324 N 
ATOM     24  H   UNL     1      24.371  22.118  11.049  1.00  0.00     0.170 HD
BRANCH  23  25
ATOM     25  C   UNL     1      24.545  20.865  12.774  1.00  0.00     0.049 A 
ATOM     26  C   UNL     1      24.887  21.071  15.177  1.00  0.00     0.166 A 
ATOM     27  C   UNL     1      25.182  21.468  13.861  1.00  0.00     0.076 A 
ATOM     28  C   UNL     1      23.954  20.048  15.410  1.00  0.00     0.203 A 
ATOM     29  C   UNL     1      23.323  19.408  14.312  1.00  0.00     0.166 A 
ATOM     30  C   UNL     1      23.641  19.819  13.002  1.00  0.00     0.076 A 
BRANCH  26  31
ATOM     31  O   UNL     1      25.501  21.675  16.287  1.00  0.00    -0.493 OA
ATOM     32  C   UNL     1      26.905  21.850  16.441  1.00  0.00     0.278 C 
ENDBRANCH  26  31
BRANCH  28  33
ATOM     33  O   UNL     1      23.704  19.717  16.756  1.00  0.00    -0.490 OA
ATOM     34  C   UNL     1      22.607  20.156  17.549  1.00  0.00     0.278 C 
ENDBRANCH  28  33
BRANCH  29  35
ATOM     35  O   UNL     1      22.401  18.374  14.538  1.00  0.00    -0.493 OA
ATOM     36  C   UNL     1      20.985  18.510  14.468  1.00  0.00     0.278 C 
ENDBRANCH  29  35
ENDBRANCH  23  25
ENDBRANCH  17  23
ENDBRANCH  14  16
ENDBRANCH   1  14
BRANCH  11  37
ATOM     37  C   UNL     1      31.875  22.954   6.043  1.00  0.00     0.303 C 
BRANCH  37  38
ATOM     38  O   UNL     1      32.239  23.011   4.684  1.00  0.00    -0.265 OA
BRANCH  38  39
ATOM     39  P   UNL     1      31.456  21.742   3.855  1.00  0.00     0.471 P 
ATOM     40  O   UNL     1      31.960  21.677   2.428  1.00  0.00    -0.228 OA
BRANCH  39  41
ATOM     41  O   UNL     1      29.774  21.962   3.866  1.00  0.00    -0.303 OA
ATOM     42  H   UNL     1      29.575  22.485   3.048  1.00  0.00     0.223 HD
ENDBRANCH  39  41
BRANCH  39  43
ATOM     43  O   UNL     1      31.819  20.283   4.634  1.00  0.00    -0.303 OA
ATOM     44  H   UNL     1      30.974  19.766   4.604  1.00  0.00     0.223 HD
ENDBRANCH  39  43
ENDBRANCH  38  39
ENDBRANCH  37  38
ENDBRANCH  11  37
TORSDOF 12
ENDMDL
MODEL 11
REMARK VINA RESULT:    -7.811      3.149     10.225
REMARK INTER + INTRA:         -14.751
REMARK INTER:                 -13.169
REMARK INTRA:                  -1.582
REMARK UNBOUND:                -1.917
REMARK SMILES COc1cc(Nc2ncc(F)c(Nc3ccc4c(n3)N(COP(=O)(O)O)C(=O)C(C)(C)O4)n2)cc(OC)c1OC
REMARK SMILES IDX 14 1 19 2 18 3 17 4 32 5 29 6 30 7 31 8 27 9 28 10 20 11
REMARK SMILES IDX 16 12 15 13 13 14 12 16 7 17 8 18 33 19 9 20 10 21 11 22
REMARK SMILES IDX 6 23 5 25 3 26 4 27 38 28 35 29 34 30 2 31 1 32 39 33 40 34
REMARK SMILES IDX 36 35 37 36 21 37 22 38 23 39 24 40 25 41 26 43
REMARK H PARENT 13 15 6 24 25 42 26 44
REMARK Flexibility Score: inf
ROOT
ATOM      1  C   UNL     1      27.892  23.052   7.082  1.00  0.00     0.134 A 
ATOM      2  N   UNL     1      29.205  23.150   6.737  1.00  0.00    -0.209 NA
ATOM      3  C   UNL     1      29.829  24.352   6.582  1.00  0.00     0.182 A 
ATOM      4  C   UNL     1      29.106  25.534   6.770  1.00  0.00     0.164 A 
ATOM      5  O   UNL     1      29.737  26.772   6.627  1.00  0.00    -0.474 OA
ATOM      6  C   UNL     1      31.158  26.938   6.702  1.00  0.00     0.182 C 
ATOM      7  C   UNL     1      31.535  28.158   5.848  1.00  0.00     0.067 C 
ATOM      8  C   UNL     1      31.541  27.187   8.167  1.00  0.00     0.067 C 
ATOM      9  C   UNL     1      31.882  25.698   6.206  1.00  0.00     0.273 C 
ATOM     10  O   UNL     1      33.100  25.778   5.884  1.00  0.00    -0.270 OA
ATOM     11  N   UNL     1      31.213  24.420   6.193  1.00  0.00    -0.265 N 
ATOM     12  C   UNL     1      27.747  25.466   7.084  1.00  0.00     0.054 A 
ATOM     13  C   UNL     1      27.132  24.224   7.242  1.00  0.00     0.051 A 
ENDROOT
BRANCH   1  14
ATOM     14  N   UNL     1      27.299  21.752   7.212  1.00  0.00    -0.322 N 
ATOM     15  H   UNL     1      26.838  21.343   6.368  1.00  0.00     0.170 HD
BRANCH  14  16
ATOM     16  C   UNL     1      27.265  20.991   8.428  1.00  0.00     0.173 A 
ATOM     17  C   UNL     1      25.970  19.896  10.090  1.00  0.00     0.229 A 
ATOM     18  N   UNL     1      27.106  19.448  10.691  1.00  0.00    -0.218 NA
ATOM     19  N   UNL     1      26.062  20.645   8.957  1.00  0.00    -0.192 NA
ATOM     20  C   UNL     1      28.331  19.752  10.193  1.00  0.00     0.158 A 
ATOM     21  C   UNL     1      28.441  20.528   9.041  1.00  0.00     0.184 A 
ATOM     22  F   UNL     1      29.665  20.774   8.509  1.00  0.00    -0.201 F 
BRANCH  17  23
ATOM     23  N   UNL     1      24.676  19.541  10.600  1.00  0.00    -0.324 N 
ATOM     24  H   UNL     1      24.270  18.632  10.285  1.00  0.00     0.170 HD
BRANCH  23  25
ATOM     25  C   UNL     1      23.974  20.281  11.615  1.00  0.00     0.049 A 
ATOM     26  C   UNL     1      22.992  22.379  12.369  1.00  0.00     0.166 A 
ATOM     27  C   UNL     1      23.671  21.627  11.395  1.00  0.00     0.076 A 
ATOM     28  C   UNL     1      22.623  21.783  13.586  1.00  0.00     0.203 A 
ATOM     29  C   UNL     1      22.952  20.425  13.832  1.00  0.00     0.166 A 
ATOM     30  C   UNL     1      23.639  19.694  12.843  1.00  0.00     0.076 A 
BRANCH  26  31
ATOM     31  O   UNL     1      22.660  23.728  12.163  1.00  0.00    -0.493 OA
ATOM     32  C   UNL     1      21.757  24.199  11.169  1.00  0.00     0.278 C 
ENDBRANCH  26  31
BRANCH  28  33
ATOM     33  O   UNL     1      21.935  22.599  14.504  1.00  0.00    -0.490 OA
ATOM     34  C   UNL     1      22.495  23.281  15.621  1.00  0.00     0.278 C 
ENDBRANCH  28  33
BRANCH  29  35
ATOM     35  O   UNL     1      22.600  19.829  15.053  1.00  0.00    -0.493 OA
ATOM     36  C   UNL     1      22.943  18.503  15.446  1.00  0.00     0.278 C 
ENDBRANCH  29  35
ENDBRANCH  23  25
ENDBRANCH  17  23
ENDBRANCH  14  16
ENDBRANCH   1  14
BRANCH  11  37
ATOM     37  C   UNL     1      31.960  23.189   5.902  1.00  0.00     0.303 C 
BRANCH  37  38
ATOM     38  O   UNL     1      32.237  23.138   4.523  1.00  0.00    -0.265 OA
BRANCH  38  39
ATOM     39  P   UNL     1      31.395  21.819   3.844  1.00  0.00     0.471 P 
ATOM     40  O   UNL     1      31.801  21.644   2.396  1.00  0.00    -0.228 OA
BRANCH  39  41
ATOM     41  O   UNL     1      29.718  22.055   3.951  1.00  0.00    -0.303 OA
ATOM     42  H   UNL     1      29.602  22.816   4.576  1.00  0.00     0.223 HD
ENDBRANCH  39  41
BRANCH  39  43
ATOM     43  O   UNL     1      31.803  20.418   4.703  1.00  0.00    -0.303 OA
ATOM     44  H   UNL     1      32.716  20.592   5.046  1.00  0.00     0.223 HD
ENDBRANCH  39  43
ENDBRANCH  38  39
ENDBRANCH  37  38
ENDBRANCH  11  37
TORSDOF 12
ENDMDL
MODEL 12
REMARK VINA RESULT:    -7.779      3.438      5.898
REMARK INTER + INTRA:         -14.698
REMARK INTER:                 -13.526
REMARK INTRA:                  -1.171
REMARK UNBOUND:                -1.917
REMARK SMILES COc1cc(Nc2ncc(F)c(Nc3ccc4c(n3)N(COP(=O)(O)O)C(=O)C(C)(C)O4)n2)cc(OC)c1OC
REMARK SMILES IDX 14 1 19 2 18 3 17 4 32 5 29 6 30 7 31 8 27 9 28 10 20 11
REMARK SMILES IDX 16 12 15 13 13 14 12 16 7 17 8 18 33 19 9 20 10 21 11 22
REMARK SMILES IDX 6 23 5 25 3 26 4 27 38 28 35 29 34 30 2 31 1 32 39 33 40 34
REMARK SMILES IDX 36 35 37 36 21 37 22 38 23 39 24 40 25 41 26 43
REMARK H PARENT 13 15 6 24 25 42 26 44
REMARK Flexibility Score: inf
ROOT
ATOM      1  C   UNL     1      31.288  22.820   6.838  1.00  0.00     0.134 A 
ATOM      2  N   UNL     1      30.109  22.215   7.147  1.00  0.00    -0.209 NA
ATOM      3  C   UNL     1      29.202  22.778   7.995  1.00  0.00     0.182 A 
ATOM      4  C   UNL     1      29.484  24.015   8.583  1.00  0.00     0.164 A 
ATOM      5  O   UNL     1      28.557  24.610   9.442  1.00  0.00    -0.474 OA
ATOM      6  C   UNL     1      27.169  24.257   9.461  1.00  0.00     0.182 C 
ATOM      7  C   UNL     1      26.634  24.521  10.876  1.00  0.00     0.067 C 
ATOM      8  C   UNL     1      26.429  25.143   8.448  1.00  0.00     0.067 C 
ATOM      9  C   UNL     1      26.969  22.800   9.080  1.00  0.00     0.273 C 
ATOM     10  O   UNL     1      25.878  22.229   9.363  1.00  0.00    -0.270 OA
ATOM     11  N   UNL     1      27.976  22.100   8.320  1.00  0.00    -0.265 N 
ATOM     12  C   UNL     1      30.703  24.642   8.317  1.00  0.00     0.054 A 
ATOM     13  C   UNL     1      31.612  24.048   7.442  1.00  0.00     0.051 A 
ENDROOT
BRANCH   1  14
ATOM     14  N   UNL     1      32.201  22.159   5.950  1.00  0.00    -0.322 N 
ATOM     15  H   UNL     1      32.390  21.145   6.115  1.00  0.00     0.170 HD
BRANCH  14  16
ATOM     16  C   UNL     1      32.897  22.803   4.871  1.00  0.00     0.173 A 
ATOM     17  C   UNL     1      34.234  24.619   4.130  1.00  0.00     0.229 A 
ATOM     18  N   UNL     1      34.339  24.049   2.898  1.00  0.00    -0.218 NA
ATOM     19  N   UNL     1      33.531  23.982   5.106  1.00  0.00    -0.192 NA
ATOM     20  C   UNL     1      33.737  22.866   2.618  1.00  0.00     0.158 A 
ATOM     21  C   UNL     1      33.005  22.207   3.604  1.00  0.00     0.184 A 
ATOM     22  F   UNL     1      32.461  20.993   3.340  1.00  0.00    -0.201 F 
BRANCH  17  23
ATOM     23  N   UNL     1      34.902  25.853   4.431  1.00  0.00    -0.324 N 
ATOM     24  H   UNL     1      35.914  25.924   4.181  1.00  0.00     0.170 HD
BRANCH  23  25
ATOM     25  C   UNL     1      34.242  27.035   4.919  1.00  0.00     0.049 A 
ATOM     26  C   UNL     1      34.298  29.431   5.353  1.00  0.00     0.166 A 
ATOM     27  C   UNL     1      34.912  28.260   4.878  1.00  0.00     0.076 A 
ATOM     28  C   UNL     1      33.001  29.377   5.890  1.00  0.00     0.203 A 
ATOM     29  C   UNL     1      32.324  28.132   5.966  1.00  0.00     0.166 A 
ATOM     30  C   UNL     1      32.963  26.971   5.489  1.00  0.00     0.076 A 
BRANCH  26  31
ATOM     31  O   UNL     1      34.944  30.677   5.305  1.00  0.00    -0.493 OA
ATOM     32  C   UNL     1      34.958  31.540   4.172  1.00  0.00     0.278 C 
ENDBRANCH  26  31
BRANCH  28  33
ATOM     33  O   UNL     1      32.451  30.594   6.333  1.00  0.00    -0.490 OA
ATOM     34  C   UNL     1      31.484  31.387   5.653  1.00  0.00     0.278 C 
ENDBRANCH  28  33
BRANCH  29  35
ATOM     35  O   UNL     1      31.034  28.069   6.517  1.00  0.00    -0.493 OA
ATOM     36  C   UNL     1      30.739  28.057   7.910  1.00  0.00     0.278 C 
ENDBRANCH  29  35
ENDBRANCH  23  25
ENDBRANCH  17  23
ENDBRANCH  14  16
ENDBRANCH   1  14
BRANCH  11  37
ATOM     37  C   UNL     1      27.708  20.760   7.783  1.00  0.00     0.303 C 
BRANCH  37  38
ATOM     38  O   UNL     1      28.236  19.800   8.668  1.00  0.00    -0.265 OA
BRANCH  38  39
ATOM     39  P   UNL     1      27.022  18.654   9.019  1.00  0.00     0.471 P 
ATOM     40  O   UNL     1      26.951  17.628   7.907  1.00  0.00    -0.228 OA
BRANCH  39  41
ATOM     41  O   UNL     1      25.515  19.411   9.205  1.00  0.00    -0.303 OA
ATOM     42  H   UNL     1      25.471  19.672  10.160  1.00  0.00     0.223 HD
ENDBRANCH  39  41
BRANCH  39  43
ATOM     43  O   UNL     1      27.421  17.870  10.466  1.00  0.00    -0.303 OA
ATOM     44  H   UNL     1      28.315  17.477  10.299  1.00  0.00     0.223 HD
ENDBRANCH  39  43
ENDBRANCH  38  39
ENDBRANCH  37  38
ENDBRANCH  11  37
TORSDOF 12
ENDMDL
MODEL 13
REMARK VINA RESULT:    -7.770      3.538      9.003
REMARK INTER + INTRA:         -14.683
REMARK INTER:                 -12.892
REMARK INTRA:                  -1.792
REMARK UNBOUND:                -1.917
REMARK SMILES COc1cc(Nc2ncc(F)c(Nc3ccc4c(n3)N(COP(=O)(O)O)C(=O)C(C)(C)O4)n2)cc(OC)c1OC
REMARK SMILES IDX 14 1 19 2 18 3 17 4 32 5 29 6 30 7 31 8 27 9 28 10 20 11
REMARK SMILES IDX 16 12 15 13 13 14 12 16 7 17 8 18 33 19 9 20 10 21 11 22
REMARK SMILES IDX 6 23 5 25 3 26 4 27 38 28 35 29 34 30 2 31 1 32 39 33 40 34
REMARK SMILES IDX 36 35 37 36 21 37 22 38 23 39 24 40 25 41 26 43
REMARK H PARENT 13 15 6 24 25 42 26 44
REMARK Flexibility Score: inf
ROOT
ATOM      1  C   UNL     1      27.842  22.560   7.149  1.00  0.00     0.134 A 
ATOM      2  N   UNL     1      29.148  22.764   6.823  1.00  0.00    -0.209 NA
ATOM      3  C   UNL     1      29.675  24.013   6.680  1.00  0.00     0.182 A 
ATOM      4  C   UNL     1      28.856  25.132   6.861  1.00  0.00     0.164 A 
ATOM      5  O   UNL     1      29.387  26.418   6.731  1.00  0.00    -0.474 OA
ATOM      6  C   UNL     1      30.789  26.698   6.826  1.00  0.00     0.182 C 
ATOM      7  C   UNL     1      31.078  27.947   5.981  1.00  0.00     0.067 C 
ATOM      8  C   UNL     1      31.130  26.972   8.298  1.00  0.00     0.067 C 
ATOM      9  C   UNL     1      31.617  25.522   6.338  1.00  0.00     0.273 C 
ATOM     10  O   UNL     1      32.829  25.702   6.033  1.00  0.00    -0.270 OA
ATOM     11  N   UNL     1      31.054  24.194   6.311  1.00  0.00    -0.265 N 
ATOM     12  C   UNL     1      27.503  24.954   7.155  1.00  0.00     0.054 A 
ATOM     13  C   UNL     1      26.988  23.666   7.302  1.00  0.00     0.051 A 
ENDROOT
BRANCH   1  14
ATOM     14  N   UNL     1      27.353  21.216   7.267  1.00  0.00    -0.322 N 
ATOM     15  H   UNL     1      27.245  20.660   6.389  1.00  0.00     0.170 HD
BRANCH  14  16
ATOM     16  C   UNL     1      26.971  20.594   8.503  1.00  0.00     0.173 A 
ATOM     17  C   UNL     1      25.959  20.805  10.640  1.00  0.00     0.229 A 
ATOM     18  N   UNL     1      26.113  19.469  10.853  1.00  0.00    -0.218 NA
ATOM     19  N   UNL     1      26.372  21.348   9.463  1.00  0.00    -0.192 NA
ATOM     20  C   UNL     1      26.691  18.671   9.920  1.00  0.00     0.158 A 
ATOM     21  C   UNL     1      27.130  19.215   8.715  1.00  0.00     0.184 A 
ATOM     22  F   UNL     1      27.646  18.403   7.758  1.00  0.00    -0.201 F 
BRANCH  17  23
ATOM     23  N   UNL     1      25.314  21.637  11.615  1.00  0.00    -0.324 N 
ATOM     24  H   UNL     1      25.068  21.200  12.531  1.00  0.00     0.170 HD
BRANCH  23  25
ATOM     25  C   UNL     1      25.116  23.055  11.468  1.00  0.00     0.049 A 
ATOM     26  C   UNL     1      26.063  25.295  11.343  1.00  0.00     0.166 A 
ATOM     27  C   UNL     1      26.223  23.906  11.478  1.00  0.00     0.076 A 
ATOM     28  C   UNL     1      24.777  25.845  11.210  1.00  0.00     0.203 A 
ATOM     29  C   UNL     1      23.643  24.992  11.229  1.00  0.00     0.166 A 
ATOM     30  C   UNL     1      23.830  23.603  11.372  1.00  0.00     0.076 A 
BRANCH  26  31
ATOM     31  O   UNL     1      27.162  26.170  11.331  1.00  0.00    -0.493 OA
ATOM     32  C   UNL     1      28.405  25.901  10.693  1.00  0.00     0.278 C 
ENDBRANCH  26  31
BRANCH  28  33
ATOM     33  O   UNL     1      24.701  27.243  11.066  1.00  0.00    -0.490 OA
ATOM     34  C   UNL     1      24.549  27.966   9.849  1.00  0.00     0.278 C 
ENDBRANCH  28  33
BRANCH  29  35
ATOM     35  O   UNL     1      22.354  25.537  11.112  1.00  0.00    -0.493 OA
ATOM     36  C   UNL     1      21.204  24.828  10.662  1.00  0.00     0.278 C 
ENDBRANCH  29  35
ENDBRANCH  23  25
ENDBRANCH  17  23
ENDBRANCH  14  16
ENDBRANCH   1  14
BRANCH  11  37
ATOM     37  C   UNL     1      31.901  23.029   6.028  1.00  0.00     0.303 C 
BRANCH  37  38
ATOM     38  O   UNL     1      32.268  23.051   4.669  1.00  0.00    -0.265 OA
BRANCH  38  39
ATOM     39  P   UNL     1      31.469  21.774   3.866  1.00  0.00     0.471 P 
ATOM     40  O   UNL     1      31.964  21.680   2.438  1.00  0.00    -0.228 OA
BRANCH  39  41
ATOM     41  O   UNL     1      29.789  22.010   3.883  1.00  0.00    -0.303 OA
ATOM     42  H   UNL     1      29.654  22.942   3.572  1.00  0.00     0.223 HD
ENDBRANCH  39  41
BRANCH  39  43
ATOM     43  O   UNL     1      31.824  20.326   4.668  1.00  0.00    -0.303 OA
ATOM     44  H   UNL     1      31.468  19.617   4.074  1.00  0.00     0.223 HD
ENDBRANCH  39  43
ENDBRANCH  38  39
ENDBRANCH  37  38
ENDBRANCH  11  37
TORSDOF 12
ENDMDL
MODEL 14
REMARK VINA RESULT:    -7.676      3.537      9.213
REMARK INTER + INTRA:         -14.528
REMARK INTER:                 -12.811
REMARK INTRA:                  -1.717
REMARK UNBOUND:                -1.917
REMARK SMILES COc1cc(Nc2ncc(F)c(Nc3ccc4c(n3)N(COP(=O)(O)O)C(=O)C(C)(C)O4)n2)cc(OC)c1OC
REMARK SMILES IDX 14 1 19 2 18 3 17 4 32 5 29 6 30 7 31 8 27 9 28 10 20 11
REMARK SMILES IDX 16 12 15 13 13 14 12 16 7 17 8 18 33 19 9 20 10 21 11 22
REMARK SMILES IDX 6 23 5 25 3 26 4 27 38 28 35 29 34 30 2 31 1 32 39 33 40 34
REMARK SMILES IDX 36 35 37 36 21 37 22 38 23 39 24 40 25 41 26 43
REMARK H PARENT 13 15 6 24 25 42 26 44
REMARK Flexibility Score: inf
ROOT
ATOM      1  C   UNL     1      27.846  22.503   7.186  1.00  0.00     0.134 A 
ATOM      2  N   UNL     1      29.148  22.721   6.854  1.00  0.00    -0.209 NA
ATOM      3  C   UNL     1      29.666  23.976   6.728  1.00  0.00     0.182 A 
ATOM      4  C   UNL     1      28.841  25.086   6.935  1.00  0.00     0.164 A 
ATOM      5  O   UNL     1      29.362  26.377   6.823  1.00  0.00    -0.474 OA
ATOM      6  C   UNL     1      30.763  26.666   6.912  1.00  0.00     0.182 C 
ATOM      7  C   UNL     1      31.037  27.931   6.086  1.00  0.00     0.067 C 
ATOM      8  C   UNL     1      31.114  26.916   8.385  1.00  0.00     0.067 C 
ATOM      9  C   UNL     1      31.595  25.504   6.397  1.00  0.00     0.273 C 
ATOM     10  O   UNL     1      32.804  25.697   6.085  1.00  0.00    -0.270 OA
ATOM     11  N   UNL     1      31.040  24.173   6.351  1.00  0.00    -0.265 N 
ATOM     12  C   UNL     1      27.491  24.894   7.237  1.00  0.00     0.054 A 
ATOM     13  C   UNL     1      26.986  23.600   7.365  1.00  0.00     0.051 A 
ENDROOT
BRANCH   1  14
ATOM     14  N   UNL     1      27.368  21.153   7.284  1.00  0.00    -0.322 N 
ATOM     15  H   UNL     1      27.280  20.604   6.400  1.00  0.00     0.170 HD
BRANCH  14  16
ATOM     16  C   UNL     1      26.971  20.518   8.509  1.00  0.00     0.173 A 
ATOM     17  C   UNL     1      26.001  20.720  10.666  1.00  0.00     0.229 A 
ATOM     18  N   UNL     1      26.088  19.373  10.840  1.00  0.00    -0.218 NA
ATOM     19  N   UNL     1      26.425  21.274   9.498  1.00  0.00    -0.192 NA
ATOM     20  C   UNL     1      26.611  18.573   9.877  1.00  0.00     0.158 A 
ATOM     21  C   UNL     1      27.060  19.126   8.680  1.00  0.00     0.184 A 
ATOM     22  F   UNL     1      27.520  18.316   7.694  1.00  0.00    -0.201 F 
BRANCH  17  23
ATOM     23  N   UNL     1      25.414  21.557  11.674  1.00  0.00    -0.324 N 
ATOM     24  H   UNL     1      25.183  21.113  12.590  1.00  0.00     0.170 HD
BRANCH  23  25
ATOM     25  C   UNL     1      25.255  22.982  11.553  1.00  0.00     0.049 A 
ATOM     26  C   UNL     1      23.846  24.887  10.987  1.00  0.00     0.166 A 
ATOM     27  C   UNL     1      24.032  23.500  11.122  1.00  0.00     0.076 A 
ATOM     28  C   UNL     1      24.902  25.768  11.272  1.00  0.00     0.203 A 
ATOM     29  C   UNL     1      26.159  25.250  11.681  1.00  0.00     0.166 A 
ATOM     30  C   UNL     1      26.321  23.857  11.802  1.00  0.00     0.076 A 
BRANCH  26  31
ATOM     31  O   UNL     1      22.620  25.433  10.574  1.00  0.00    -0.493 OA
ATOM     32  C   UNL     1      21.342  24.926  10.942  1.00  0.00     0.278 C 
ENDBRANCH  26  31
BRANCH  28  33
ATOM     33  O   UNL     1      24.634  27.142  11.125  1.00  0.00    -0.490 OA
ATOM     34  C   UNL     1      24.943  27.952   9.996  1.00  0.00     0.278 C 
ENDBRANCH  28  33
BRANCH  29  35
ATOM     35  O   UNL     1      27.223  26.126  11.952  1.00  0.00    -0.493 OA
ATOM     36  C   UNL     1      27.319  26.967  13.098  1.00  0.00     0.278 C 
ENDBRANCH  29  35
ENDBRANCH  23  25
ENDBRANCH  17  23
ENDBRANCH  14  16
ENDBRANCH   1  14
BRANCH  11  37
ATOM     37  C   UNL     1      31.893  23.019   6.041  1.00  0.00     0.303 C 
BRANCH  37  38
ATOM     38  O   UNL     1      32.246  23.065   4.679  1.00  0.00    -0.265 OA
BRANCH  38  39
ATOM     39  P   UNL     1      31.451  21.792   3.866  1.00  0.00     0.471 P 
ATOM     40  O   UNL     1      31.942  21.715   2.435  1.00  0.00    -0.228 OA
BRANCH  39  41
ATOM     41  O   UNL     1      29.770  22.020   3.889  1.00  0.00    -0.303 OA
ATOM     42  H   UNL     1      29.572  22.409   4.779  1.00  0.00     0.223 HD
ENDBRANCH  39  41
BRANCH  39  43
ATOM     43  O   UNL     1      31.815  20.338   4.652  1.00  0.00    -0.303 OA
ATOM     44  H   UNL     1      32.714  20.091   4.317  1.00  0.00     0.223 HD
ENDBRANCH  39  43
ENDBRANCH  38  39
ENDBRANCH  37  38
ENDBRANCH  11  37
TORSDOF 12
ENDMDL
MODEL 15
REMARK VINA RESULT:    -7.643      3.077     10.386
REMARK INTER + INTRA:         -14.474
REMARK INTER:                 -12.234
REMARK INTRA:                  -2.240
REMARK UNBOUND:                -1.917
REMARK SMILES COc1cc(Nc2ncc(F)c(Nc3ccc4c(n3)N(COP(=O)(O)O)C(=O)C(C)(C)O4)n2)cc(OC)c1OC
REMARK SMILES IDX 14 1 19 2 18 3 17 4 32 5 29 6 30 7 31 8 27 9 28 10 20 11
REMARK SMILES IDX 16 12 15 13 13 14 12 16 7 17 8 18 33 19 9 20 10 21 11 22
REMARK SMILES IDX 6 23 5 25 3 26 4 27 38 28 35 29 34 30 2 31 1 32 39 33 40 34
REMARK SMILES IDX 36 35 37 36 21 37 22 38 23 39 24 40 25 41 26 43
REMARK H PARENT 13 15 6 24 25 42 26 44
REMARK Flexibility Score: inf
ROOT
ATOM      1  C   UNL     1      26.018  24.409  10.460  1.00  0.00     0.134 A 
ATOM      2  N   UNL     1      26.864  23.386  10.159  1.00  0.00    -0.209 NA
ATOM      3  C   UNL     1      27.772  23.468   9.146  1.00  0.00     0.182 A 
ATOM      4  C   UNL     1      27.841  24.631   8.374  1.00  0.00     0.164 A 
ATOM      5  O   UNL     1      28.777  24.733   7.341  1.00  0.00    -0.474 OA
ATOM      6  C   UNL     1      29.946  23.908   7.261  1.00  0.00     0.182 C 
ATOM      7  C   UNL     1      30.323  23.769   5.779  1.00  0.00     0.067 C 
ATOM      8  C   UNL     1      31.082  24.600   8.028  1.00  0.00     0.067 C 
ATOM      9  C   UNL     1      29.696  22.542   7.876  1.00  0.00     0.273 C 
ATOM     10  O   UNL     1      30.474  21.587   7.602  1.00  0.00    -0.270 OA
ATOM     11  N   UNL     1      28.635  22.358   8.837  1.00  0.00    -0.265 N 
ATOM     12  C   UNL     1      26.959  25.682   8.632  1.00  0.00     0.054 A 
ATOM     13  C   UNL     1      26.042  25.577   9.678  1.00  0.00     0.051 A 
ENDROOT
BRANCH   1  14
ATOM     14  N   UNL     1      25.077  24.245  11.531  1.00  0.00    -0.322 N 
ATOM     15  H   UNL     1      25.378  24.531  12.490  1.00  0.00     0.170 HD
BRANCH  14  16
ATOM     16  C   UNL     1      23.764  23.683  11.382  1.00  0.00     0.173 A 
ATOM     17  C   UNL     1      22.359  21.774  11.511  1.00  0.00     0.229 A 
ATOM     18  N   UNL     1      21.273  22.544  11.223  1.00  0.00    -0.218 NA
ATOM     19  N   UNL     1      23.586  22.354  11.606  1.00  0.00    -0.192 NA
ATOM     20  C   UNL     1      21.396  23.878  11.008  1.00  0.00     0.158 A 
ATOM     21  C   UNL     1      22.648  24.484  11.089  1.00  0.00     0.184 A 
ATOM     22  F   UNL     1      22.757  25.828  10.939  1.00  0.00    -0.201 F 
BRANCH  17  23
ATOM     23  N   UNL     1      22.218  20.370  11.774  1.00  0.00    -0.324 N 
ATOM     24  H   UNL     1      22.096  19.738  10.951  1.00  0.00     0.170 HD
BRANCH  23  25
ATOM     25  C   UNL     1      22.372  19.768  13.072  1.00  0.00     0.049 A 
ATOM     26  C   UNL     1      23.793  19.260  14.983  1.00  0.00     0.166 A 
ATOM     27  C   UNL     1      23.608  19.843  13.718  1.00  0.00     0.076 A 
ATOM     28  C   UNL     1      22.733  18.580  15.606  1.00  0.00     0.203 A 
ATOM     29  C   UNL     1      21.483  18.471  14.944  1.00  0.00     0.166 A 
ATOM     30  C   UNL     1      21.324  19.059  13.674  1.00  0.00     0.076 A 
BRANCH  26  31
ATOM     31  O   UNL     1      25.020  19.338  15.662  1.00  0.00    -0.493 OA
ATOM     32  C   UNL     1      25.466  20.468  16.404  1.00  0.00     0.278 C 
ENDBRANCH  26  31
BRANCH  28  33
ATOM     33  O   UNL     1      22.995  18.034  16.877  1.00  0.00    -0.490 OA
ATOM     34  C   UNL     1      22.464  18.482  18.119  1.00  0.00     0.278 C 
ENDBRANCH  28  33
BRANCH  29  35
ATOM     35  O   UNL     1      20.425  17.779  15.554  1.00  0.00    -0.493 OA
ATOM     36  C   UNL     1      20.207  16.374  15.465  1.00  0.00     0.278 C 
ENDBRANCH  29  35
ENDBRANCH  23  25
ENDBRANCH  17  23
ENDBRANCH  14  16
ENDBRANCH   1  14
BRANCH  11  37
ATOM     37  C   UNL     1      28.510  21.097   9.578  1.00  0.00     0.303 C 
BRANCH  37  38
ATOM     38  O   UNL     1      27.801  20.171   8.789  1.00  0.00    -0.265 OA
BRANCH  38  39
ATOM     39  P   UNL     1      26.544  19.501   9.728  1.00  0.00     0.471 P 
ATOM     40  O   UNL     1      25.435  19.012   8.821  1.00  0.00    -0.228 OA
BRANCH  39  41
ATOM     41  O   UNL     1      25.935  20.645  10.823  1.00  0.00    -0.303 OA
ATOM     42  H   UNL     1      26.501  21.450  10.700  1.00  0.00     0.223 HD
ENDBRANCH  39  41
BRANCH  39  43
ATOM     43  O   UNL     1      27.162  18.188  10.599  1.00  0.00    -0.303 OA
ATOM     44  H   UNL     1      27.009  18.425  11.550  1.00  0.00     0.223 HD
ENDBRANCH  39  43
ENDBRANCH  38  39
ENDBRANCH  37  38
ENDBRANCH  11  37
TORSDOF 12
ENDMDL
