MODEL 1
REMARK VINA RESULT:    -8.040      0.000      0.000
REMARK INTER + INTRA:         -14.225
REMARK INTER:                 -12.270
REMARK INTRA:                  -1.954
REMARK UNBOUND:                -1.954
REMARK SMILES CCc1nc(C(N)=O)c(Nc2ccc(N3CCC(N4CCN(C)CC4)CC3)c(OC)c2)nc1NC1CCOCC1
REMARK SMILES IDX 10 1 9 3 3 4 33 5 4 6 32 7 5 8 2 9 1 10 34 11 35 13 36 14
REMARK SMILES IDX 40 15 37 16 39 17 38 18 6 19 7 20 8 21 11 24 12 25 31 26
REMARK SMILES IDX 13 27 28 28 14 29 29 30 30 31 15 32 16 33 27 34 17 35 26 36
REMARK SMILES IDX 18 37 19 38 20 39 25 40 21 41 24 42 22 43 23 44
REMARK H PARENT 10 2 34 12 7 22 7 23
REMARK Flexibility Score: inf
ROOT
ATOM      1  N   UNL     1      24.897  24.614  10.263  1.00  0.00    -0.338 N 
ATOM      2  H   UNL     1      24.643  25.626  10.312  1.00  0.00     0.168 HD
ENDROOT
BRANCH   1   3
ATOM      3  C   UNL     1      25.881  24.235   9.292  1.00  0.00     0.164 A 
ATOM      4  C   UNL     1      27.657  23.435   7.327  1.00  0.00     0.084 A 
ATOM      5  C   UNL     1      26.834  22.490   7.977  1.00  0.00     0.150 A 
ATOM      6  N   UNL     1      27.579  24.739   7.705  1.00  0.00    -0.240 NA
ATOM      7  N   UNL     1      25.976  22.929   8.937  1.00  0.00    -0.209 NA
ATOM      8  C   UNL     1      26.724  25.179   8.666  1.00  0.00     0.171 A 
BRANCH   4   9
ATOM      9  C   UNL     1      28.660  23.063   6.266  1.00  0.00     0.057 C 
ATOM     10  C   UNL     1      30.024  22.756   6.877  1.00  0.00     0.011 C 
ENDBRANCH   4   9
BRANCH   5  11
ATOM     11  N   UNL     1      26.869  21.089   7.646  1.00  0.00    -0.366 N 
ATOM     12  H   UNL     1      26.260  20.726   6.881  1.00  0.00     0.162 HD
BRANCH  11  13
ATOM     13  C   UNL     1      27.689  20.128   8.400  1.00  0.00     0.085 C 
ATOM     14  C   UNL     1      27.510  20.333   9.914  1.00  0.00     0.053 C 
ATOM     15  C   UNL     1      27.315  18.678   8.018  1.00  0.00     0.053 C 
ATOM     16  C   UNL     1      26.102  19.897  10.387  1.00  0.00     0.162 C 
ATOM     17  C   UNL     1      26.155  18.136   8.876  1.00  0.00     0.162 C 
ATOM     18  O   UNL     1      25.372  19.192   9.395  1.00  0.00    -0.381 OA
ENDBRANCH  11  13
ENDBRANCH   5  11
BRANCH   8  19
ATOM     19  C   UNL     1      26.738  26.616   9.027  1.00  0.00     0.271 C 
ATOM     20  N   UNL     1      26.629  27.618   8.013  1.00  0.00    -0.364 N 
ATOM     21  O   UNL     1      26.866  26.977  10.229  1.00  0.00    -0.268 OA
ATOM     22  H   UNL     1      26.520  27.364   7.006  1.00  0.00     0.160 HD
ATOM     23  H   UNL     1      26.639  28.630   8.276  1.00  0.00     0.160 HD
ENDBRANCH   8  19
ENDBRANCH   1   3
BRANCH   1  24
ATOM     24  C   UNL     1      24.458  23.743  11.323  1.00  0.00     0.043 A 
ATOM     25  C   UNL     1      25.312  23.498  12.407  1.00  0.00     0.028 A 
ATOM     26  C   UNL     1      23.200  23.111  11.286  1.00  0.00     0.074 A 
ATOM     27  C   UNL     1      24.920  22.646  13.440  1.00  0.00     0.032 A 
ATOM     28  C   UNL     1      22.798  22.247  12.324  1.00  0.00     0.144 A 
ATOM     29  C   UNL     1      23.667  22.018  13.409  1.00  0.00     0.079 A 
BRANCH  28  30
ATOM     30  O   UNL     1      21.558  21.585  12.297  1.00  0.00    -0.495 OA
ATOM     31  C   UNL     1      21.333  20.312  11.703  1.00  0.00     0.278 C 
ENDBRANCH  28  30
BRANCH  29  32
ATOM     32  N   UNL     1      23.292  21.131  14.478  1.00  0.00    -0.368 N 
ATOM     33  C   UNL     1      23.821  19.764  14.548  1.00  0.00     0.118 C 
ATOM     34  C   UNL     1      22.483  21.628  15.597  1.00  0.00     0.118 C 
ATOM     35  C   UNL     1      22.684  18.777  14.833  1.00  0.00     0.040 C 
ATOM     36  C   UNL     1      21.325  20.665  15.869  1.00  0.00     0.040 C 
ATOM     37  C   UNL     1      21.861  19.223  16.060  1.00  0.00     0.060 C 
BRANCH  37  38
ATOM     38  N   UNL     1      20.804  18.224  16.375  1.00  0.00    -0.298 NA
ATOM     39  C   UNL     1      20.666  17.844  17.805  1.00  0.00     0.100 C 
ATOM     40  C   UNL     1      20.823  17.075  15.441  1.00  0.00     0.100 C 
ATOM     41  C   UNL     1      21.127  16.404  18.066  1.00  0.00     0.099 C 
ATOM     42  C   UNL     1      19.921  15.939  15.942  1.00  0.00     0.099 C 
ATOM     43  N   UNL     1      20.334  15.433  17.277  1.00  0.00    -0.304 NA
ATOM     44  C   UNL     1      21.054  14.154  17.169  1.00  0.00     0.105 C 
ENDBRANCH  37  38
ENDBRANCH  29  32
ENDBRANCH   1  24
TORSDOF 9
ENDMDL
MODEL 2
REMARK VINA RESULT:    -8.001      3.208     10.611
REMARK INTER + INTRA:         -14.165
REMARK INTER:                 -12.625
REMARK INTRA:                  -1.541
REMARK UNBOUND:                -1.954
REMARK SMILES CCc1nc(C(N)=O)c(Nc2ccc(N3CCC(N4CCN(C)CC4)CC3)c(OC)c2)nc1NC1CCOCC1
REMARK SMILES IDX 10 1 9 3 3 4 33 5 4 6 32 7 5 8 2 9 1 10 34 11 35 13 36 14
REMARK SMILES IDX 40 15 37 16 39 17 38 18 6 19 7 20 8 21 11 24 12 25 31 26
REMARK SMILES IDX 13 27 28 28 14 29 29 30 30 31 15 32 16 33 27 34 17 35 26 36
REMARK SMILES IDX 18 37 19 38 20 39 25 40 21 41 24 42 22 43 23 44
REMARK H PARENT 10 2 34 12 7 22 7 23
REMARK Flexibility Score: inf
ROOT
ATOM      1  N   UNL     1      24.666  24.759  10.738  1.00  0.00    -0.338 N 
ATOM      2  H   UNL     1      24.006  25.568  10.750  1.00  0.00     0.168 HD
ENDROOT
BRANCH   1   3
ATOM      3  C   UNL     1      24.189  23.518  11.271  1.00  0.00     0.164 A 
ATOM      4  C   UNL     1      23.427  21.072  12.315  1.00  0.00     0.084 A 
ATOM      5  C   UNL     1      24.213  21.138  11.144  1.00  0.00     0.150 A 
ATOM      6  N   UNL     1      23.031  22.232  12.902  1.00  0.00    -0.240 NA
ATOM      7  N   UNL     1      24.564  22.363  10.666  1.00  0.00    -0.209 NA
ATOM      8  C   UNL     1      23.378  23.457  12.424  1.00  0.00     0.171 A 
BRANCH   4   9
ATOM      9  C   UNL     1      22.960  19.774  12.922  1.00  0.00     0.057 C 
ATOM     10  C   UNL     1      21.438  19.717  13.002  1.00  0.00     0.011 C 
ENDBRANCH   4   9
BRANCH   5  11
ATOM     11  N   UNL     1      24.660  19.955  10.454  1.00  0.00    -0.366 N 
ATOM     12  H   UNL     1      23.988  19.420   9.863  1.00  0.00     0.162 HD
BRANCH  11  13
ATOM     13  C   UNL     1      26.026  19.431  10.606  1.00  0.00     0.085 C 
ATOM     14  C   UNL     1      26.165  18.069   9.904  1.00  0.00     0.053 C 
ATOM     15  C   UNL     1      27.057  20.427  10.032  1.00  0.00     0.053 C 
ATOM     16  C   UNL     1      26.114  18.213   8.364  1.00  0.00     0.162 C 
ATOM     17  C   UNL     1      27.298  20.203   8.525  1.00  0.00     0.162 C 
ATOM     18  O   UNL     1      26.191  19.561   7.925  1.00  0.00    -0.381 OA
ENDBRANCH  11  13
ENDBRANCH   5  11
BRANCH   8  19
ATOM     19  C   UNL     1      22.868  24.662  13.120  1.00  0.00     0.271 C 
ATOM     20  N   UNL     1      21.463  24.918  13.190  1.00  0.00    -0.364 N 
ATOM     21  O   UNL     1      23.665  25.490  13.641  1.00  0.00    -0.268 OA
ATOM     22  H   UNL     1      20.769  24.259  12.773  1.00  0.00     0.160 HD
ATOM     23  H   UNL     1      21.111  25.769  13.683  1.00  0.00     0.160 HD
ENDBRANCH   8  19
ENDBRANCH   1   3
BRANCH   1  24
ATOM     24  C   UNL     1      25.875  24.872   9.961  1.00  0.00     0.043 A 
ATOM     25  C   UNL     1      25.824  25.474   8.697  1.00  0.00     0.028 A 
ATOM     26  C   UNL     1      27.104  24.369  10.431  1.00  0.00     0.074 A 
ATOM     27  C   UNL     1      26.975  25.583   7.915  1.00  0.00     0.032 A 
ATOM     28  C   UNL     1      28.270  24.471   9.646  1.00  0.00     0.144 A 
ATOM     29  C   UNL     1      28.201  25.086   8.382  1.00  0.00     0.079 A 
BRANCH  28  30
ATOM     30  O   UNL     1      29.503  23.954  10.082  1.00  0.00    -0.495 OA
ATOM     31  C   UNL     1      29.946  22.621   9.857  1.00  0.00     0.278 C 
ENDBRANCH  28  30
BRANCH  29  32
ATOM     32  N   UNL     1      29.371  25.195   7.550  1.00  0.00    -0.368 N 
ATOM     33  C   UNL     1      29.364  24.708   6.166  1.00  0.00     0.118 C 
ATOM     34  C   UNL     1      30.549  25.926   8.030  1.00  0.00     0.118 C 
ATOM     35  C   UNL     1      30.623  23.877   5.897  1.00  0.00     0.040 C 
ATOM     36  C   UNL     1      31.810  25.091   7.796  1.00  0.00     0.040 C 
ATOM     37  C   UNL     1      31.893  24.651   6.311  1.00  0.00     0.060 C 
BRANCH  37  38
ATOM     38  N   UNL     1      33.115  23.870   5.982  1.00  0.00    -0.298 NA
ATOM     39  C   UNL     1      34.230  24.628   5.357  1.00  0.00     0.100 C 
ATOM     40  C   UNL     1      32.797  22.591   5.305  1.00  0.00     0.100 C 
ATOM     41  C   UNL     1      34.434  24.246   3.885  1.00  0.00     0.099 C 
ATOM     42  C   UNL     1      34.063  21.938   4.732  1.00  0.00     0.099 C 
ATOM     43  N   UNL     1      34.751  22.806   3.741  1.00  0.00    -0.304 NA
ATOM     44  C   UNL     1      34.489  22.361   2.363  1.00  0.00     0.105 C 
ENDBRANCH  37  38
ENDBRANCH  29  32
ENDBRANCH   1  24
TORSDOF 9
ENDMDL
MODEL 3
REMARK VINA RESULT:    -7.990      3.987     11.894
REMARK INTER + INTRA:         -14.148
REMARK INTER:                 -12.098
REMARK INTRA:                  -2.050
REMARK UNBOUND:                -1.954
REMARK SMILES CCc1nc(C(N)=O)c(Nc2ccc(N3CCC(N4CCN(C)CC4)CC3)c(OC)c2)nc1NC1CCOCC1
REMARK SMILES IDX 10 1 9 3 3 4 33 5 4 6 32 7 5 8 2 9 1 10 34 11 35 13 36 14
REMARK SMILES IDX 40 15 37 16 39 17 38 18 6 19 7 20 8 21 11 24 12 25 31 26
REMARK SMILES IDX 13 27 28 28 14 29 29 30 30 31 15 32 16 33 27 34 17 35 26 36
REMARK SMILES IDX 18 37 19 38 20 39 25 40 21 41 24 42 22 43 23 44
REMARK H PARENT 10 2 34 12 7 22 7 23
REMARK Flexibility Score: inf
ROOT
ATOM      1  N   UNL     1      27.591  21.318   7.615  1.00  0.00    -0.338 N 
ATOM      2  H   UNL     1      27.702  20.597   6.868  1.00  0.00     0.168 HD
ENDROOT
BRANCH   1   3
ATOM      3  C   UNL     1      26.784  20.968   8.746  1.00  0.00     0.164 A 
ATOM      4  C   UNL     1      25.118  20.414  10.885  1.00  0.00     0.084 A 
ATOM      5  C   UNL     1      25.671  21.703  10.721  1.00  0.00     0.150 A 
ATOM      6  N   UNL     1      25.443  19.446   9.987  1.00  0.00    -0.240 NA
ATOM      7  N   UNL     1      26.485  21.930   9.655  1.00  0.00    -0.209 NA
ATOM      8  C   UNL     1      26.258  19.670   8.923  1.00  0.00     0.171 A 
BRANCH   4   9
ATOM      9  C   UNL     1      24.223  20.041  12.038  1.00  0.00     0.057 C 
ATOM     10  C   UNL     1      22.764  20.364  11.732  1.00  0.00     0.011 C 
ENDBRANCH   4   9
BRANCH   5  11
ATOM     11  N   UNL     1      25.389  22.778  11.637  1.00  0.00    -0.366 N 
ATOM     12  H   UNL     1      25.943  22.862  12.517  1.00  0.00     0.162 HD
BRANCH  11  13
ATOM     13  C   UNL     1      24.293  23.733  11.408  1.00  0.00     0.085 C 
ATOM     14  C   UNL     1      23.713  24.223  12.746  1.00  0.00     0.053 C 
ATOM     15  C   UNL     1      24.787  24.937  10.576  1.00  0.00     0.053 C 
ATOM     16  C   UNL     1      24.706  25.144  13.496  1.00  0.00     0.162 C 
ATOM     17  C   UNL     1      25.375  26.051  11.466  1.00  0.00     0.162 C 
ATOM     18  O   UNL     1      25.818  25.530  12.703  1.00  0.00    -0.381 OA
ENDBRANCH  11  13
ENDBRANCH   5  11
BRANCH   8  19
ATOM     19  C   UNL     1      26.576  18.539   8.019  1.00  0.00     0.271 C 
ATOM     20  N   UNL     1      25.527  17.752   7.448  1.00  0.00    -0.364 N 
ATOM     21  O   UNL     1      27.773  18.241   7.757  1.00  0.00    -0.268 OA
ATOM     22  H   UNL     1      24.522  17.965   7.638  1.00  0.00     0.160 HD
ATOM     23  H   UNL     1      25.758  16.957   6.811  1.00  0.00     0.160 HD
ENDBRANCH   8  19
ENDBRANCH   1   3
BRANCH   1  24
ATOM     24  C   UNL     1      28.452  22.474   7.588  1.00  0.00     0.043 A 
ATOM     25  C   UNL     1      29.833  22.304   7.760  1.00  0.00     0.028 A 
ATOM     26  C   UNL     1      27.938  23.773   7.416  1.00  0.00     0.074 A 
ATOM     27  C   UNL     1      30.689  23.406   7.754  1.00  0.00     0.032 A 
ATOM     28  C   UNL     1      28.795  24.892   7.413  1.00  0.00     0.144 A 
ATOM     29  C   UNL     1      30.181  24.701   7.579  1.00  0.00     0.079 A 
BRANCH  28  30
ATOM     30  O   UNL     1      28.304  26.201   7.269  1.00  0.00    -0.495 OA
ATOM     31  C   UNL     1      27.421  26.838   8.184  1.00  0.00     0.278 C 
ENDBRANCH  28  30
BRANCH  29  32
ATOM     32  N   UNL     1      31.082  25.823   7.594  1.00  0.00    -0.368 N 
ATOM     33  C   UNL     1      31.463  26.472   8.854  1.00  0.00     0.118 C 
ATOM     34  C   UNL     1      31.747  26.248   6.357  1.00  0.00     0.118 C 
ATOM     35  C   UNL     1      31.353  27.994   8.712  1.00  0.00     0.040 C 
ATOM     36  C   UNL     1      31.616  27.764   6.189  1.00  0.00     0.040 C 
ATOM     37  C   UNL     1      32.116  28.489   7.465  1.00  0.00     0.060 C 
BRANCH  37  38
ATOM     38  N   UNL     1      32.066  29.972   7.374  1.00  0.00    -0.298 NA
ATOM     39  C   UNL     1      30.849  30.623   7.925  1.00  0.00     0.100 C 
ATOM     40  C   UNL     1      32.464  30.466   6.035  1.00  0.00     0.100 C 
ATOM     41  C   UNL     1      29.966  31.222   6.823  1.00  0.00     0.099 C 
ATOM     42  C   UNL     1      32.143  31.959   5.876  1.00  0.00     0.099 C 
ATOM     43  N   UNL     1      30.696  32.250   6.046  1.00  0.00    -0.304 NA
ATOM     44  C   UNL     1      30.037  32.473   4.749  1.00  0.00     0.105 C 
ENDBRANCH  37  38
ENDBRANCH  29  32
ENDBRANCH   1  24
TORSDOF 9
ENDMDL
MODEL 4
REMARK VINA RESULT:    -7.918      4.357     12.374
REMARK INTER + INTRA:         -14.038
REMARK INTER:                 -11.985
REMARK INTRA:                  -2.054
REMARK UNBOUND:                -1.954
REMARK SMILES CCc1nc(C(N)=O)c(Nc2ccc(N3CCC(N4CCN(C)CC4)CC3)c(OC)c2)nc1NC1CCOCC1
REMARK SMILES IDX 10 1 9 3 3 4 33 5 4 6 32 7 5 8 2 9 1 10 34 11 35 13 36 14
REMARK SMILES IDX 40 15 37 16 39 17 38 18 6 19 7 20 8 21 11 24 12 25 31 26
REMARK SMILES IDX 13 27 28 28 14 29 29 30 30 31 15 32 16 33 27 34 17 35 26 36
REMARK SMILES IDX 18 37 19 38 20 39 25 40 21 41 24 42 22 43 23 44
REMARK H PARENT 10 2 34 12 7 22 7 23
REMARK Flexibility Score: inf
ROOT
ATOM      1  N   UNL     1      28.140  21.055   8.020  1.00  0.00    -0.338 N 
ATOM      2  H   UNL     1      28.659  20.270   7.569  1.00  0.00     0.168 HD
ENDROOT
BRANCH   1   3
ATOM      3  C   UNL     1      27.181  20.711   9.026  1.00  0.00     0.164 A 
ATOM      4  C   UNL     1      25.248  20.192  10.937  1.00  0.00     0.084 A 
ATOM      5  C   UNL     1      26.027  21.367  11.007  1.00  0.00     0.150 A 
ATOM      6  N   UNL     1      25.485  19.310   9.930  1.00  0.00    -0.240 NA
ATOM      7  N   UNL     1      26.966  21.581  10.046  1.00  0.00    -0.209 NA
ATOM      8  C   UNL     1      26.425  19.521   8.971  1.00  0.00     0.171 A 
BRANCH   4   9
ATOM      9  C   UNL     1      24.196  19.838  11.956  1.00  0.00     0.057 C 
ATOM     10  C   UNL     1      22.833  20.401  11.563  1.00  0.00     0.011 C 
ENDBRANCH   4   9
BRANCH   5  11
ATOM     11  N   UNL     1      25.849  22.343  12.051  1.00  0.00    -0.366 N 
ATOM     12  H   UNL     1      26.420  22.275  12.921  1.00  0.00     0.162 HD
BRANCH  11  13
ATOM     13  C   UNL     1      24.832  23.403  11.965  1.00  0.00     0.085 C 
ATOM     14  C   UNL     1      25.231  24.608  12.834  1.00  0.00     0.053 C 
ATOM     15  C   UNL     1      24.639  23.852  10.500  1.00  0.00     0.053 C 
ATOM     16  C   UNL     1      26.444  25.365  12.239  1.00  0.00     0.162 C 
ATOM     17  C   UNL     1      25.626  24.969  10.103  1.00  0.00     0.162 C 
ATOM     18  O   UNL     1      26.776  24.944  10.924  1.00  0.00    -0.381 OA
ENDBRANCH  11  13
ENDBRANCH   5  11
BRANCH   8  19
ATOM     19  C   UNL     1      26.627  18.482   7.932  1.00  0.00     0.271 C 
ATOM     20  N   UNL     1      25.510  17.939   7.224  1.00  0.00    -0.364 N 
ATOM     21  O   UNL     1      27.783  18.048   7.674  1.00  0.00    -0.268 OA
ATOM     22  H   UNL     1      24.537  18.272   7.406  1.00  0.00     0.160 HD
ATOM     23  H   UNL     1      25.660  17.209   6.493  1.00  0.00     0.160 HD
ENDBRANCH   8  19
ENDBRANCH   1   3
BRANCH   1  24
ATOM     24  C   UNL     1      28.607  22.402   7.801  1.00  0.00     0.043 A 
ATOM     25  C   UNL     1      27.680  23.405   7.486  1.00  0.00     0.028 A 
ATOM     26  C   UNL     1      29.974  22.730   7.874  1.00  0.00     0.074 A 
ATOM     27  C   UNL     1      28.104  24.714   7.253  1.00  0.00     0.032 A 
ATOM     28  C   UNL     1      30.411  24.049   7.637  1.00  0.00     0.144 A 
ATOM     29  C   UNL     1      29.464  25.045   7.328  1.00  0.00     0.079 A 
BRANCH  28  30
ATOM     30  O   UNL     1      31.772  24.397   7.678  1.00  0.00    -0.495 OA
ATOM     31  C   UNL     1      32.692  24.190   6.613  1.00  0.00     0.278 C 
ENDBRANCH  28  30
BRANCH  29  32
ATOM     32  N   UNL     1      29.878  26.399   7.068  1.00  0.00    -0.368 N 
ATOM     33  C   UNL     1      30.228  26.836   5.711  1.00  0.00     0.118 C 
ATOM     34  C   UNL     1      29.821  27.404   8.136  1.00  0.00     0.118 C 
ATOM     35  C   UNL     1      31.540  27.627   5.738  1.00  0.00     0.040 C 
ATOM     36  C   UNL     1      31.140  28.178   8.192  1.00  0.00     0.040 C 
ATOM     37  C   UNL     1      31.485  28.752   6.794  1.00  0.00     0.060 C 
BRANCH  37  38
ATOM     38  N   UNL     1      32.733  29.560   6.765  1.00  0.00    -0.298 NA
ATOM     39  C   UNL     1      32.618  30.962   7.247  1.00  0.00     0.100 C 
ATOM     40  C   UNL     1      33.465  29.417   5.486  1.00  0.00     0.100 C 
ATOM     41  C   UNL     1      32.763  31.977   6.106  1.00  0.00     0.099 C 
ATOM     42  C   UNL     1      34.587  30.458   5.369  1.00  0.00     0.099 C 
ATOM     43  N   UNL     1      34.077  31.852   5.436  1.00  0.00    -0.304 NA
ATOM     44  C   UNL     1      34.031  32.473   4.103  1.00  0.00     0.105 C 
ENDBRANCH  37  38
ENDBRANCH  29  32
ENDBRANCH   1  24
TORSDOF 9
ENDMDL
MODEL 5
REMARK VINA RESULT:    -7.911      3.806      7.267
REMARK INTER + INTRA:         -14.027
REMARK INTER:                 -12.201
REMARK INTRA:                  -1.826
REMARK UNBOUND:                -1.954
REMARK SMILES CCc1nc(C(N)=O)c(Nc2ccc(N3CCC(N4CCN(C)CC4)CC3)c(OC)c2)nc1NC1CCOCC1
REMARK SMILES IDX 10 1 9 3 3 4 33 5 4 6 32 7 5 8 2 9 1 10 34 11 35 13 36 14
REMARK SMILES IDX 40 15 37 16 39 17 38 18 6 19 7 20 8 21 11 24 12 25 31 26
REMARK SMILES IDX 13 27 28 28 14 29 29 30 30 31 15 32 16 33 27 34 17 35 26 36
REMARK SMILES IDX 18 37 19 38 20 39 25 40 21 41 24 42 22 43 23 44
REMARK H PARENT 10 2 34 12 7 22 7 23
REMARK Flexibility Score: inf
ROOT
ATOM      1  N   UNL     1      29.166  23.074   5.482  1.00  0.00    -0.338 N 
ATOM      2  H   UNL     1      28.579  23.177   4.625  1.00  0.00     0.168 HD
ENDROOT
BRANCH   1   3
ATOM      3  C   UNL     1      30.511  23.562   5.415  1.00  0.00     0.164 A 
ATOM      4  C   UNL     1      33.110  24.512   5.454  1.00  0.00     0.084 A 
ATOM      5  C   UNL     1      32.070  25.244   6.066  1.00  0.00     0.150 A 
ATOM      6  N   UNL     1      32.804  23.347   4.822  1.00  0.00    -0.240 NA
ATOM      7  N   UNL     1      30.807  24.739   6.023  1.00  0.00    -0.209 NA
ATOM      8  C   UNL     1      31.543  22.843   4.775  1.00  0.00     0.171 A 
BRANCH   4   9
ATOM      9  C   UNL     1      34.540  24.983   5.420  1.00  0.00     0.057 C 
ATOM     10  C   UNL     1      34.806  25.856   4.196  1.00  0.00     0.011 C 
ENDBRANCH   4   9
BRANCH   5  11
ATOM     11  N   UNL     1      32.308  26.494   6.742  1.00  0.00    -0.366 N 
ATOM     12  H   UNL     1      32.990  26.531   7.530  1.00  0.00     0.162 HD
BRANCH  11  13
ATOM     13  C   UNL     1      31.568  27.720   6.402  1.00  0.00     0.085 C 
ATOM     14  C   UNL     1      30.529  28.044   7.489  1.00  0.00     0.053 C 
ATOM     15  C   UNL     1      32.539  28.909   6.230  1.00  0.00     0.053 C 
ATOM     16  C   UNL     1      31.202  28.506   8.804  1.00  0.00     0.162 C 
ATOM     17  C   UNL     1      32.817  29.625   7.567  1.00  0.00     0.162 C 
ATOM     18  O   UNL     1      32.592  28.759   8.661  1.00  0.00    -0.381 OA
ENDBRANCH  11  13
ENDBRANCH   5  11
BRANCH   8  19
ATOM     19  C   UNL     1      31.309  21.581   4.034  1.00  0.00     0.271 C 
ATOM     20  N   UNL     1      32.052  20.403   4.357  1.00  0.00    -0.364 N 
ATOM     21  O   UNL     1      30.468  21.532   3.095  1.00  0.00    -0.268 OA
ATOM     22  H   UNL     1      32.757  20.399   5.128  1.00  0.00     0.160 HD
ATOM     23  H   UNL     1      31.881  19.517   3.831  1.00  0.00     0.160 HD
ENDBRANCH   8  19
ENDBRANCH   1   3
BRANCH   1  24
ATOM     24  C   UNL     1      28.519  22.709   6.718  1.00  0.00     0.043 A 
ATOM     25  C   UNL     1      27.182  23.072   6.924  1.00  0.00     0.028 A 
ATOM     26  C   UNL     1      29.206  22.018   7.734  1.00  0.00     0.074 A 
ATOM     27  C   UNL     1      26.534  22.747   8.116  1.00  0.00     0.032 A 
ATOM     28  C   UNL     1      28.561  21.689   8.943  1.00  0.00     0.144 A 
ATOM     29  C   UNL     1      27.213  22.055   9.129  1.00  0.00     0.079 A 
BRANCH  28  30
ATOM     30  O   UNL     1      29.231  21.021   9.982  1.00  0.00    -0.495 OA
ATOM     31  C   UNL     1      30.609  21.187  10.293  1.00  0.00     0.278 C 
ENDBRANCH  28  30
BRANCH  29  32
ATOM     32  N   UNL     1      26.529  21.746  10.357  1.00  0.00    -0.368 N 
ATOM     33  C   UNL     1      26.055  20.385  10.637  1.00  0.00     0.118 C 
ATOM     34  C   UNL     1      26.418  22.759  11.413  1.00  0.00     0.118 C 
ATOM     35  C   UNL     1      24.612  20.429  11.152  1.00  0.00     0.040 C 
ATOM     36  C   UNL     1      24.972  22.834  11.912  1.00  0.00     0.040 C 
ATOM     37  C   UNL     1      24.475  21.424  12.324  1.00  0.00     0.060 C 
BRANCH  37  38
ATOM     38  N   UNL     1      23.090  21.409  12.865  1.00  0.00    -0.298 NA
ATOM     39  C   UNL     1      22.964  21.359  14.346  1.00  0.00     0.100 C 
ATOM     40  C   UNL     1      22.218  20.448  12.150  1.00  0.00     0.100 C 
ATOM     41  C   UNL     1      22.424  20.008  14.834  1.00  0.00     0.099 C 
ATOM     42  C   UNL     1      20.889  20.247  12.893  1.00  0.00     0.099 C 
ATOM     43  N   UNL     1      21.081  19.731  14.272  1.00  0.00    -0.304 NA
ATOM     44  C   UNL     1      20.781  18.292  14.355  1.00  0.00     0.105 C 
ENDBRANCH  37  38
ENDBRANCH  29  32
ENDBRANCH   1  24
TORSDOF 9
ENDMDL
MODEL 6
REMARK VINA RESULT:    -7.784      4.238     12.144
REMARK INTER + INTRA:         -13.833
REMARK INTER:                 -11.885
REMARK INTRA:                  -1.948
REMARK UNBOUND:                -1.954
REMARK SMILES CCc1nc(C(N)=O)c(Nc2ccc(N3CCC(N4CCN(C)CC4)CC3)c(OC)c2)nc1NC1CCOCC1
REMARK SMILES IDX 10 1 9 3 3 4 33 5 4 6 32 7 5 8 2 9 1 10 34 11 35 13 36 14
REMARK SMILES IDX 40 15 37 16 39 17 38 18 6 19 7 20 8 21 11 24 12 25 31 26
REMARK SMILES IDX 13 27 28 28 14 29 29 30 30 31 15 32 16 33 27 34 17 35 26 36
REMARK SMILES IDX 18 37 19 38 20 39 25 40 21 41 24 42 22 43 23 44
REMARK H PARENT 10 2 34 12 7 22 7 23
REMARK Flexibility Score: inf
ROOT
ATOM      1  N   UNL     1      28.254  20.883   8.698  1.00  0.00    -0.338 N 
ATOM      2  H   UNL     1      28.904  20.092   8.492  1.00  0.00     0.168 HD
ENDROOT
BRANCH   1   3
ATOM      3  C   UNL     1      27.148  20.611   9.566  1.00  0.00     0.164 A 
ATOM      4  C   UNL     1      24.951  20.238  11.207  1.00  0.00     0.084 A 
ATOM      5  C   UNL     1      25.831  21.321  11.422  1.00  0.00     0.150 A 
ATOM      6  N   UNL     1      25.220  19.369  10.196  1.00  0.00    -0.240 NA
ATOM      7  N   UNL     1      26.898  21.465  10.591  1.00  0.00    -0.209 NA
ATOM      8  C   UNL     1      26.287  19.510   9.367  1.00  0.00     0.171 A 
BRANCH   4   9
ATOM      9  C   UNL     1      23.751  19.966  12.076  1.00  0.00     0.057 C 
ATOM     10  C   UNL     1      22.500  20.638  11.518  1.00  0.00     0.011 C 
ENDBRANCH   4   9
BRANCH   5  11
ATOM     11  N   UNL     1      25.625  22.276  12.480  1.00  0.00    -0.366 N 
ATOM     12  H   UNL     1      25.298  21.947  13.414  1.00  0.00     0.162 HD
BRANCH  11  13
ATOM     13  C   UNL     1      25.796  23.723  12.272  1.00  0.00     0.085 C 
ATOM     14  C   UNL     1      24.926  24.208  11.099  1.00  0.00     0.053 C 
ATOM     15  C   UNL     1      25.434  24.503  13.555  1.00  0.00     0.053 C 
ATOM     16  C   UNL     1      23.420  24.175  11.455  1.00  0.00     0.162 C 
ATOM     17  C   UNL     1      23.931  24.840  13.620  1.00  0.00     0.162 C 
ATOM     18  O   UNL     1      23.175  23.940  12.834  1.00  0.00    -0.381 OA
ENDBRANCH  11  13
ENDBRANCH   5  11
BRANCH   8  19
ATOM     19  C   UNL     1      26.510  18.490   8.314  1.00  0.00     0.271 C 
ATOM     20  N   UNL     1      25.400  17.829   7.700  1.00  0.00    -0.364 N 
ATOM     21  O   UNL     1      27.679  18.175   7.961  1.00  0.00    -0.268 OA
ATOM     22  H   UNL     1      24.416  18.061   7.962  1.00  0.00     0.160 HD
ATOM     23  H   UNL     1      25.565  17.112   6.959  1.00  0.00     0.160 HD
ENDBRANCH   8  19
ENDBRANCH   1   3
BRANCH   1  24
ATOM     24  C   UNL     1      28.657  22.217   8.327  1.00  0.00     0.043 A 
ATOM     25  C   UNL     1      30.002  22.587   8.453  1.00  0.00     0.028 A 
ATOM     26  C   UNL     1      27.726  23.166   7.862  1.00  0.00     0.074 A 
ATOM     27  C   UNL     1      30.419  23.875   8.117  1.00  0.00     0.032 A 
ATOM     28  C   UNL     1      28.137  24.471   7.523  1.00  0.00     0.144 A 
ATOM     29  C   UNL     1      29.495  24.822   7.650  1.00  0.00     0.079 A 
BRANCH  28  30
ATOM     30  O   UNL     1      27.224  25.444   7.081  1.00  0.00    -0.495 OA
ATOM     31  C   UNL     1      26.381  26.208   7.934  1.00  0.00     0.278 C 
ENDBRANCH  28  30
BRANCH  29  32
ATOM     32  N   UNL     1      29.947  26.149   7.325  1.00  0.00    -0.368 N 
ATOM     33  C   UNL     1      30.248  26.529   5.939  1.00  0.00     0.118 C 
ATOM     34  C   UNL     1      29.978  27.190   8.359  1.00  0.00     0.118 C 
ATOM     35  C   UNL     1      31.589  27.268   5.879  1.00  0.00     0.040 C 
ATOM     36  C   UNL     1      31.326  27.913   8.329  1.00  0.00     0.040 C 
ATOM     37  C   UNL     1      31.626  28.428   6.897  1.00  0.00     0.060 C 
BRANCH  37  38
ATOM     38  N   UNL     1      32.900  29.185   6.783  1.00  0.00    -0.298 NA
ATOM     39  C   UNL     1      32.912  30.544   7.386  1.00  0.00     0.100 C 
ATOM     40  C   UNL     1      33.470  29.122   5.418  1.00  0.00     0.100 C 
ATOM     41  C   UNL     1      32.972  31.647   6.320  1.00  0.00     0.099 C 
ATOM     42  C   UNL     1      34.622  30.125   5.251  1.00  0.00     0.099 C 
ATOM     43  N   UNL     1      34.193  31.527   5.489  1.00  0.00    -0.304 NA
ATOM     44  C   UNL     1      34.023  32.260   4.224  1.00  0.00     0.105 C 
ENDBRANCH  37  38
ENDBRANCH  29  32
ENDBRANCH   1  24
TORSDOF 9
ENDMDL
MODEL 7
REMARK VINA RESULT:    -7.774      2.427     10.732
REMARK INTER + INTRA:         -13.818
REMARK INTER:                 -11.968
REMARK INTRA:                  -1.850
REMARK UNBOUND:                -1.954
REMARK SMILES CCc1nc(C(N)=O)c(Nc2ccc(N3CCC(N4CCN(C)CC4)CC3)c(OC)c2)nc1NC1CCOCC1
REMARK SMILES IDX 10 1 9 3 3 4 33 5 4 6 32 7 5 8 2 9 1 10 34 11 35 13 36 14
REMARK SMILES IDX 40 15 37 16 39 17 38 18 6 19 7 20 8 21 11 24 12 25 31 26
REMARK SMILES IDX 13 27 28 28 14 29 29 30 30 31 15 32 16 33 27 34 17 35 26 36
REMARK SMILES IDX 18 37 19 38 20 39 25 40 21 41 24 42 22 43 23 44
REMARK H PARENT 10 2 34 12 7 22 7 23
REMARK Flexibility Score: inf
ROOT
ATOM      1  N   UNL     1      21.657  20.636  12.458  1.00  0.00    -0.338 N 
ATOM      2  H   UNL     1      20.829  20.460  11.847  1.00  0.00     0.168 HD
ENDROOT
BRANCH   1   3
ATOM      3  C   UNL     1      21.504  20.369  13.858  1.00  0.00     0.164 A 
ATOM      4  C   UNL     1      21.357  19.774  16.556  1.00  0.00     0.084 A 
ATOM      5  C   UNL     1      21.496  18.744  15.601  1.00  0.00     0.150 A 
ATOM      6  N   UNL     1      21.270  21.060  16.121  1.00  0.00    -0.240 NA
ATOM      7  N   UNL     1      21.564  19.082  14.286  1.00  0.00    -0.209 NA
ATOM      8  C   UNL     1      21.334  21.400  14.807  1.00  0.00     0.171 A 
BRANCH   4   9
ATOM      9  C   UNL     1      21.248  19.517  18.037  1.00  0.00     0.057 C 
ATOM     10  C   UNL     1      19.856  19.863  18.558  1.00  0.00     0.011 C 
ENDBRANCH   4   9
BRANCH   5  11
ATOM     11  N   UNL     1      21.579  17.356  15.979  1.00  0.00    -0.366 N 
ATOM     12  H   UNL     1      22.389  17.026  16.547  1.00  0.00     0.162 HD
BRANCH  11  13
ATOM     13  C   UNL     1      20.589  16.363  15.533  1.00  0.00     0.085 C 
ATOM     14  C   UNL     1      20.782  15.032  16.280  1.00  0.00     0.053 C 
ATOM     15  C   UNL     1      19.154  16.890  15.757  1.00  0.00     0.053 C 
ATOM     16  C   UNL     1      20.376  15.149  17.769  1.00  0.00     0.162 C 
ATOM     17  C   UNL     1      18.632  16.558  17.169  1.00  0.00     0.162 C 
ATOM     18  O   UNL     1      19.701  16.361  18.072  1.00  0.00    -0.381 OA
ENDBRANCH  11  13
ENDBRANCH   5  11
BRANCH   8  19
ATOM     19  C   UNL     1      21.198  22.828  14.434  1.00  0.00     0.271 C 
ATOM     20  N   UNL     1      19.928  23.355  14.041  1.00  0.00    -0.364 N 
ATOM     21  O   UNL     1      22.201  23.593  14.438  1.00  0.00    -0.268 OA
ATOM     22  H   UNL     1      19.072  22.758  14.025  1.00  0.00     0.160 HD
ATOM     23  H   UNL     1      19.840  24.363  13.780  1.00  0.00     0.160 HD
ENDBRANCH   8  19
ENDBRANCH   1   3
BRANCH   1  24
ATOM     24  C   UNL     1      22.936  20.865  11.834  1.00  0.00     0.043 A 
ATOM     25  C   UNL     1      23.206  22.117  11.265  1.00  0.00     0.028 A 
ATOM     26  C   UNL     1      23.913  19.854  11.760  1.00  0.00     0.074 A 
ATOM     27  C   UNL     1      24.429  22.363  10.640  1.00  0.00     0.032 A 
ATOM     28  C   UNL     1      25.150  20.092  11.127  1.00  0.00     0.144 A 
ATOM     29  C   UNL     1      25.406  21.359  10.568  1.00  0.00     0.079 A 
BRANCH  28  30
ATOM     30  O   UNL     1      26.131  19.092  11.018  1.00  0.00    -0.495 OA
ATOM     31  C   UNL     1      26.167  18.103   9.997  1.00  0.00     0.278 C 
ENDBRANCH  28  30
BRANCH  29  32
ATOM     32  N   UNL     1      26.653  21.632   9.903  1.00  0.00    -0.368 N 
ATOM     33  C   UNL     1      27.818  22.122  10.650  1.00  0.00     0.118 C 
ATOM     34  C   UNL     1      26.822  21.289   8.487  1.00  0.00     0.118 C 
ATOM     35  C   UNL     1      28.453  23.305   9.912  1.00  0.00     0.040 C 
ATOM     36  C   UNL     1      27.427  22.476   7.733  1.00  0.00     0.040 C 
ATOM     37  C   UNL     1      28.726  22.951   8.434  1.00  0.00     0.060 C 
BRANCH  37  38
ATOM     38  N   UNL     1      29.408  24.077   7.742  1.00  0.00    -0.298 NA
ATOM     39  C   UNL     1      29.419  24.023   6.256  1.00  0.00     0.100 C 
ATOM     40  C   UNL     1      30.721  24.394   8.347  1.00  0.00     0.100 C 
ATOM     41  C   UNL     1      30.822  23.749   5.700  1.00  0.00     0.099 C 
ATOM     42  C   UNL     1      31.522  25.359   7.460  1.00  0.00     0.099 C 
ATOM     43  N   UNL     1      31.779  24.804   6.106  1.00  0.00    -0.304 NA
ATOM     44  C   UNL     1      33.161  24.317   5.978  1.00  0.00     0.105 C 
ENDBRANCH  37  38
ENDBRANCH  29  32
ENDBRANCH   1  24
TORSDOF 9
ENDMDL
MODEL 8
REMARK VINA RESULT:    -7.569      3.934     11.918
REMARK INTER + INTRA:         -13.506
REMARK INTER:                 -11.548
REMARK INTRA:                  -1.958
REMARK UNBOUND:                -1.954
REMARK SMILES CCc1nc(C(N)=O)c(Nc2ccc(N3CCC(N4CCN(C)CC4)CC3)c(OC)c2)nc1NC1CCOCC1
REMARK SMILES IDX 10 1 9 3 3 4 33 5 4 6 32 7 5 8 2 9 1 10 34 11 35 13 36 14
REMARK SMILES IDX 40 15 37 16 39 17 38 18 6 19 7 20 8 21 11 24 12 25 31 26
REMARK SMILES IDX 13 27 28 28 14 29 29 30 30 31 15 32 16 33 27 34 17 35 26 36
REMARK SMILES IDX 18 37 19 38 20 39 25 40 21 41 24 42 22 43 23 44
REMARK H PARENT 10 2 34 12 7 22 7 23
REMARK Flexibility Score: inf
ROOT
ATOM      1  N   UNL     1      27.945  20.866   9.909  1.00  0.00    -0.338 N 
ATOM      2  H   UNL     1      28.447  19.967  10.082  1.00  0.00     0.168 HD
ENDROOT
BRANCH   1   3
ATOM      3  C   UNL     1      26.592  20.958  10.372  1.00  0.00     0.164 A 
ATOM      4  C   UNL     1      23.957  21.264  11.159  1.00  0.00     0.084 A 
ATOM      5  C   UNL     1      24.866  22.339  11.265  1.00  0.00     0.150 A 
ATOM      6  N   UNL     1      24.408  20.071  10.689  1.00  0.00    -0.240 NA
ATOM      7  N   UNL     1      26.152  22.143  10.866  1.00  0.00    -0.209 NA
ATOM      8  C   UNL     1      25.694  19.872  10.293  1.00  0.00     0.171 A 
BRANCH   4   9
ATOM      9  C   UNL     1      22.516  21.357  11.590  1.00  0.00     0.057 C 
ATOM     10  C   UNL     1      22.116  20.159  12.445  1.00  0.00     0.011 C 
ENDBRANCH   4   9
BRANCH   5  11
ATOM     11  N   UNL     1      24.470  23.630  11.767  1.00  0.00    -0.366 N 
ATOM     12  H   UNL     1      24.598  23.849  12.778  1.00  0.00     0.162 HD
BRANCH  11  13
ATOM     13  C   UNL     1      23.824  24.637  10.911  1.00  0.00     0.085 C 
ATOM     14  C   UNL     1      23.022  25.637  11.761  1.00  0.00     0.053 C 
ATOM     15  C   UNL     1      24.878  25.389  10.068  1.00  0.00     0.053 C 
ATOM     16  C   UNL     1      23.952  26.559  12.587  1.00  0.00     0.162 C 
ATOM     17  C   UNL     1      25.452  26.609  10.817  1.00  0.00     0.162 C 
ATOM     18  O   UNL     1      25.318  26.454  12.215  1.00  0.00    -0.381 OA
ENDBRANCH  11  13
ENDBRANCH   5  11
BRANCH   8  19
ATOM     19  C   UNL     1      26.094  18.524   9.825  1.00  0.00     0.271 C 
ATOM     20  N   UNL     1      25.484  17.949   8.667  1.00  0.00    -0.364 N 
ATOM     21  O   UNL     1      26.961  17.856  10.453  1.00  0.00    -0.268 OA
ATOM     22  H   UNL     1      24.763  18.468   8.118  1.00  0.00     0.160 HD
ATOM     23  H   UNL     1      25.772  16.998   8.343  1.00  0.00     0.160 HD
ENDBRANCH   8  19
ENDBRANCH   1   3
BRANCH   1  24
ATOM     24  C   UNL     1      28.711  22.008   9.477  1.00  0.00     0.043 A 
ATOM     25  C   UNL     1      29.936  22.286  10.098  1.00  0.00     0.028 A 
ATOM     26  C   UNL     1      28.246  22.867   8.463  1.00  0.00     0.074 A 
ATOM     27  C   UNL     1      30.692  23.393   9.712  1.00  0.00     0.032 A 
ATOM     28  C   UNL     1      29.001  23.990   8.069  1.00  0.00     0.144 A 
ATOM     29  C   UNL     1      30.235  24.249   8.699  1.00  0.00     0.079 A 
BRANCH  28  30
ATOM     30  O   UNL     1      28.548  24.877   7.077  1.00  0.00    -0.495 OA
ATOM     31  C   UNL     1      27.555  25.876   7.278  1.00  0.00     0.278 C 
ENDBRANCH  28  30
BRANCH  29  32
ATOM     32  N   UNL     1      31.024  25.394   8.330  1.00  0.00    -0.368 N 
ATOM     33  C   UNL     1      30.975  26.633   9.116  1.00  0.00     0.118 C 
ATOM     34  C   UNL     1      32.002  25.294   7.241  1.00  0.00     0.118 C 
ATOM     35  C   UNL     1      30.824  27.839   8.183  1.00  0.00     0.040 C 
ATOM     36  C   UNL     1      31.838  26.477   6.284  1.00  0.00     0.040 C 
ATOM     37  C   UNL     1      31.893  27.812   7.070  1.00  0.00     0.060 C 
BRANCH  37  38
ATOM     38  N   UNL     1      31.787  29.022   6.211  1.00  0.00    -0.298 NA
ATOM     39  C   UNL     1      33.070  29.629   5.771  1.00  0.00     0.100 C 
ATOM     40  C   UNL     1      30.803  29.997   6.735  1.00  0.00     0.100 C 
ATOM     41  C   UNL     1      33.328  30.984   6.444  1.00  0.00     0.099 C 
ATOM     42  C   UNL     1      30.908  31.341   5.999  1.00  0.00     0.099 C 
ATOM     43  N   UNL     1      32.255  31.955   6.129  1.00  0.00    -0.304 NA
ATOM     44  C   UNL     1      32.254  33.051   7.111  1.00  0.00     0.105 C 
ENDBRANCH  37  38
ENDBRANCH  29  32
ENDBRANCH   1  24
TORSDOF 9
ENDMDL
MODEL 9
REMARK VINA RESULT:    -7.506      3.195     10.591
REMARK INTER + INTRA:         -13.409
REMARK INTER:                 -11.564
REMARK INTRA:                  -1.845
REMARK UNBOUND:                -1.954
REMARK SMILES CCc1nc(C(N)=O)c(Nc2ccc(N3CCC(N4CCN(C)CC4)CC3)c(OC)c2)nc1NC1CCOCC1
REMARK SMILES IDX 10 1 9 3 3 4 33 5 4 6 32 7 5 8 2 9 1 10 34 11 35 13 36 14
REMARK SMILES IDX 40 15 37 16 39 17 38 18 6 19 7 20 8 21 11 24 12 25 31 26
REMARK SMILES IDX 13 27 28 28 14 29 29 30 30 31 15 32 16 33 27 34 17 35 26 36
REMARK SMILES IDX 18 37 19 38 20 39 25 40 21 41 24 42 22 43 23 44
REMARK H PARENT 10 2 34 12 7 22 7 23
REMARK Flexibility Score: inf
ROOT
ATOM      1  N   UNL     1      24.221  19.586  11.761  1.00  0.00    -0.338 N 
ATOM      2  H   UNL     1      23.916  18.618  11.517  1.00  0.00     0.168 HD
ENDROOT
BRANCH   1   3
ATOM      3  C   UNL     1      23.669  20.164  12.950  1.00  0.00     0.164 A 
ATOM      4  C   UNL     1      22.745  21.367  15.264  1.00  0.00     0.084 A 
ATOM      5  C   UNL     1      23.941  20.618  15.274  1.00  0.00     0.150 A 
ATOM      6  N   UNL     1      22.044  21.463  14.103  1.00  0.00    -0.240 NA
ATOM      7  N   UNL     1      24.357  20.044  14.113  1.00  0.00    -0.209 NA
ATOM      8  C   UNL     1      22.456  20.887  12.943  1.00  0.00     0.171 A 
BRANCH   4   9
ATOM      9  C   UNL     1      22.176  22.028  16.493  1.00  0.00     0.057 C 
ATOM     10  C   UNL     1      21.000  21.234  17.054  1.00  0.00     0.011 C 
ENDBRANCH   4   9
BRANCH   5  11
ATOM     11  N   UNL     1      24.733  20.456  16.466  1.00  0.00    -0.366 N 
ATOM     12  H   UNL     1      25.568  21.063  16.616  1.00  0.00     0.162 HD
BRANCH  11  13
ATOM     13  C   UNL     1      24.446  19.409  17.460  1.00  0.00     0.085 C 
ATOM     14  C   UNL     1      25.251  18.135  17.153  1.00  0.00     0.053 C 
ATOM     15  C   UNL     1      24.773  19.909  18.885  1.00  0.00     0.053 C 
ATOM     16  C   UNL     1      26.762  18.336  17.421  1.00  0.00     0.162 C 
ATOM     17  C   UNL     1      26.246  19.654  19.261  1.00  0.00     0.162 C 
ATOM     18  O   UNL     1      27.053  19.545  18.105  1.00  0.00    -0.381 OA
ENDBRANCH  11  13
ENDBRANCH   5  11
BRANCH   8  19
ATOM     19  C   UNL     1      21.603  21.024  11.739  1.00  0.00     0.271 C 
ATOM     20  N   UNL     1      21.055  22.295  11.380  1.00  0.00    -0.364 N 
ATOM     21  O   UNL     1      21.331  20.020  11.025  1.00  0.00    -0.268 OA
ATOM     22  H   UNL     1      21.256  23.152  11.942  1.00  0.00     0.160 HD
ATOM     23  H   UNL     1      20.455  22.384  10.529  1.00  0.00     0.160 HD
ENDBRANCH   8  19
ENDBRANCH   1   3
BRANCH   1  24
ATOM     24  C   UNL     1      25.346  20.151  11.058  1.00  0.00     0.043 A 
ATOM     25  C   UNL     1      25.616  21.520  11.185  1.00  0.00     0.028 A 
ATOM     26  C   UNL     1      26.167  19.364  10.228  1.00  0.00     0.074 A 
ATOM     27  C   UNL     1      26.688  22.097  10.504  1.00  0.00     0.032 A 
ATOM     28  C   UNL     1      27.250  19.940   9.534  1.00  0.00     0.144 A 
ATOM     29  C   UNL     1      27.511  21.316   9.679  1.00  0.00     0.079 A 
BRANCH  28  30
ATOM     30  O   UNL     1      28.069  19.181   8.680  1.00  0.00    -0.495 OA
ATOM     31  C   UNL     1      27.636  18.043   7.945  1.00  0.00     0.278 C 
ENDBRANCH  28  30
BRANCH  29  32
ATOM     32  N   UNL     1      28.601  21.938   8.975  1.00  0.00    -0.368 N 
ATOM     33  C   UNL     1      29.940  22.017   9.570  1.00  0.00     0.118 C 
ATOM     34  C   UNL     1      28.423  22.380   7.587  1.00  0.00     0.118 C 
ATOM     35  C   UNL     1      30.502  23.433   9.410  1.00  0.00     0.040 C 
ATOM     36  C   UNL     1      28.952  23.807   7.423  1.00  0.00     0.040 C 
ATOM     37  C   UNL     1      30.410  23.900   7.941  1.00  0.00     0.060 C 
BRANCH  37  38
ATOM     38  N   UNL     1      31.022  25.246   7.779  1.00  0.00    -0.298 NA
ATOM     39  C   UNL     1      31.477  25.915   9.027  1.00  0.00     0.100 C 
ATOM     40  C   UNL     1      30.233  26.116   6.878  1.00  0.00     0.100 C 
ATOM     41  C   UNL     1      30.602  27.123   9.385  1.00  0.00     0.099 C 
ATOM     42  C   UNL     1      30.722  27.570   6.942  1.00  0.00     0.099 C 
ATOM     43  N   UNL     1      30.625  28.142   8.310  1.00  0.00    -0.304 NA
ATOM     44  C   UNL     1      29.467  29.042   8.436  1.00  0.00     0.105 C 
ENDBRANCH  37  38
ENDBRANCH  29  32
ENDBRANCH   1  24
TORSDOF 9
ENDMDL
MODEL 10
REMARK VINA RESULT:    -7.455      2.823     10.523
REMARK INTER + INTRA:         -13.332
REMARK INTER:                 -11.433
REMARK INTRA:                  -1.899
REMARK UNBOUND:                -1.954
REMARK SMILES CCc1nc(C(N)=O)c(Nc2ccc(N3CCC(N4CCN(C)CC4)CC3)c(OC)c2)nc1NC1CCOCC1
REMARK SMILES IDX 10 1 9 3 3 4 33 5 4 6 32 7 5 8 2 9 1 10 34 11 35 13 36 14
REMARK SMILES IDX 40 15 37 16 39 17 38 18 6 19 7 20 8 21 11 24 12 25 31 26
REMARK SMILES IDX 13 27 28 28 14 29 29 30 30 31 15 32 16 33 27 34 17 35 26 36
REMARK SMILES IDX 18 37 19 38 20 39 25 40 21 41 24 42 22 43 23 44
REMARK H PARENT 10 2 34 12 7 22 7 23
REMARK Flexibility Score: inf
ROOT
ATOM      1  N   UNL     1      23.993  19.438  12.179  1.00  0.00    -0.338 N 
ATOM      2  H   UNL     1      23.995  18.425  11.922  1.00  0.00     0.168 HD
ENDROOT
BRANCH   1   3
ATOM      3  C   UNL     1      23.201  19.823  13.308  1.00  0.00     0.164 A 
ATOM      4  C   UNL     1      21.805  20.644  15.552  1.00  0.00     0.084 A 
ATOM      5  C   UNL     1      22.972  19.859  15.681  1.00  0.00     0.150 A 
ATOM      6  N   UNL     1      21.368  20.964  14.306  1.00  0.00    -0.240 NA
ATOM      7  N   UNL     1      23.625  19.478  14.550  1.00  0.00    -0.209 NA
ATOM      8  C   UNL     1      22.018  20.581  13.175  1.00  0.00     0.171 A 
BRANCH   4   9
ATOM      9  C   UNL     1      20.988  21.104  16.731  1.00  0.00     0.057 C 
ATOM     10  C   UNL     1      20.328  22.452  16.454  1.00  0.00     0.011 C 
ENDBRANCH   4   9
BRANCH   5  11
ATOM     11  N   UNL     1      23.492  19.464  16.965  1.00  0.00    -0.366 N 
ATOM     12  H   UNL     1      23.267  18.518  17.342  1.00  0.00     0.162 HD
BRANCH  11  13
ATOM     13  C   UNL     1      24.281  20.380  17.804  1.00  0.00     0.085 C 
ATOM     14  C   UNL     1      25.197  19.590  18.755  1.00  0.00     0.053 C 
ATOM     15  C   UNL     1      25.126  21.328  16.925  1.00  0.00     0.053 C 
ATOM     16  C   UNL     1      26.344  18.888  17.990  1.00  0.00     0.162 C 
ATOM     17  C   UNL     1      26.494  20.715  16.566  1.00  0.00     0.162 C 
ATOM     18  O   UNL     1      26.452  19.304  16.637  1.00  0.00    -0.381 OA
ENDBRANCH  11  13
ENDBRANCH   5  11
BRANCH   8  19
ATOM     19  C   UNL     1      21.441  20.956  11.862  1.00  0.00     0.271 C 
ATOM     20  N   UNL     1      21.014  22.298  11.614  1.00  0.00    -0.364 N 
ATOM     21  O   UNL     1      21.299  20.093  10.952  1.00  0.00    -0.268 OA
ATOM     22  H   UNL     1      21.114  23.043  12.339  1.00  0.00     0.160 HD
ATOM     23  H   UNL     1      20.609  22.554  10.686  1.00  0.00     0.160 HD
ENDBRANCH   8  19
ENDBRANCH   1   3
BRANCH   1  24
ATOM     24  C   UNL     1      24.971  20.303  11.569  1.00  0.00     0.043 A 
ATOM     25  C   UNL     1      25.148  21.599  12.072  1.00  0.00     0.028 A 
ATOM     26  C   UNL     1      25.737  19.887  10.463  1.00  0.00     0.074 A 
ATOM     27  C   UNL     1      26.075  22.465  11.492  1.00  0.00     0.032 A 
ATOM     28  C   UNL     1      26.673  20.757   9.868  1.00  0.00     0.144 A 
ATOM     29  C   UNL     1      26.843  22.053  10.393  1.00  0.00     0.079 A 
BRANCH  28  30
ATOM     30  O   UNL     1      27.432  20.375   8.748  1.00  0.00    -0.495 OA
ATOM     31  C   UNL     1      27.230  19.179   8.005  1.00  0.00     0.278 C 
ENDBRANCH  28  30
BRANCH  29  32
ATOM     32  N   UNL     1      27.781  22.971   9.801  1.00  0.00    -0.368 N 
ATOM     33  C   UNL     1      27.328  24.055   8.922  1.00  0.00     0.118 C 
ATOM     34  C   UNL     1      29.197  22.922  10.182  1.00  0.00     0.118 C 
ATOM     35  C   UNL     1      28.197  24.104   7.661  1.00  0.00     0.040 C 
ATOM     36  C   UNL     1      30.074  22.938   8.927  1.00  0.00     0.040 C 
ATOM     37  C   UNL     1      29.696  24.141   8.026  1.00  0.00     0.060 C 
BRANCH  37  38
ATOM     38  N   UNL     1      30.531  24.261   6.801  1.00  0.00    -0.298 NA
ATOM     39  C   UNL     1      30.101  23.450   5.632  1.00  0.00     0.100 C 
ATOM     40  C   UNL     1      31.979  24.176   7.098  1.00  0.00     0.100 C 
ATOM     41  C   UNL     1      31.075  22.300   5.338  1.00  0.00     0.099 C 
ATOM     42  C   UNL     1      32.802  24.025   5.810  1.00  0.00     0.099 C 
ATOM     43  N   UNL     1      32.434  22.808   5.042  1.00  0.00    -0.304 NA
ATOM     44  C   UNL     1      33.429  21.738   5.220  1.00  0.00     0.105 C 
ENDBRANCH  37  38
ENDBRANCH  29  32
ENDBRANCH   1  24
TORSDOF 9
ENDMDL
MODEL 11
REMARK VINA RESULT:    -7.431      1.384      2.061
REMARK INTER + INTRA:         -13.295
REMARK INTER:                 -11.548
REMARK INTRA:                  -1.747
REMARK UNBOUND:                -1.954
REMARK SMILES CCc1nc(C(N)=O)c(Nc2ccc(N3CCC(N4CCN(C)CC4)CC3)c(OC)c2)nc1NC1CCOCC1
REMARK SMILES IDX 10 1 9 3 3 4 33 5 4 6 32 7 5 8 2 9 1 10 34 11 35 13 36 14
REMARK SMILES IDX 40 15 37 16 39 17 38 18 6 19 7 20 8 21 11 24 12 25 31 26
REMARK SMILES IDX 13 27 28 28 14 29 29 30 30 31 15 32 16 33 27 34 17 35 26 36
REMARK SMILES IDX 18 37 19 38 20 39 25 40 21 41 24 42 22 43 23 44
REMARK H PARENT 10 2 34 12 7 22 7 23
REMARK Flexibility Score: inf
ROOT
ATOM      1  N   UNL     1      24.595  23.795  10.546  1.00  0.00    -0.338 N 
ATOM      2  H   UNL     1      24.050  24.666  10.362  1.00  0.00     0.168 HD
ENDROOT
BRANCH   1   3
ATOM      3  C   UNL     1      25.769  23.579   9.753  1.00  0.00     0.164 A 
ATOM      4  C   UNL     1      27.935  23.124   8.093  1.00  0.00     0.084 A 
ATOM      5  C   UNL     1      26.982  22.108   8.323  1.00  0.00     0.150 A 
ATOM      6  N   UNL     1      27.782  24.318   8.724  1.00  0.00    -0.240 NA
ATOM      7  N   UNL     1      25.933  22.377   9.146  1.00  0.00    -0.209 NA
ATOM      8  C   UNL     1      26.736  24.587   9.551  1.00  0.00     0.171 A 
BRANCH   4   9
ATOM      9  C   UNL     1      29.148  22.934   7.219  1.00  0.00     0.057 C 
ATOM     10  C   UNL     1      30.333  22.410   8.024  1.00  0.00     0.011 C 
ENDBRANCH   4   9
BRANCH   5  11
ATOM     11  N   UNL     1      27.081  20.811   7.704  1.00  0.00    -0.366 N 
ATOM     12  H   UNL     1      26.640  20.650   6.773  1.00  0.00     0.162 HD
BRANCH  11  13
ATOM     13  C   UNL     1      27.731  19.673   8.375  1.00  0.00     0.085 C 
ATOM     14  C   UNL     1      27.424  19.686   9.882  1.00  0.00     0.053 C 
ATOM     15  C   UNL     1      27.263  18.339   7.753  1.00  0.00     0.053 C 
ATOM     16  C   UNL     1      25.942  19.341  10.166  1.00  0.00     0.162 C 
ATOM     17  C   UNL     1      25.978  17.809   8.422  1.00  0.00     0.162 C 
ATOM     18  O   UNL     1      25.250  18.861   9.023  1.00  0.00    -0.381 OA
ENDBRANCH  11  13
ENDBRANCH   5  11
BRANCH   8  19
ATOM     19  C   UNL     1      26.677  25.910  10.216  1.00  0.00     0.271 C 
ATOM     20  N   UNL     1      26.532  27.104   9.442  1.00  0.00    -0.364 N 
ATOM     21  O   UNL     1      26.775  26.005  11.470  1.00  0.00    -0.268 OA
ATOM     22  H   UNL     1      26.446  27.071   8.402  1.00  0.00     0.160 HD
ATOM     23  H   UNL     1      26.490  28.033   9.918  1.00  0.00     0.160 HD
ENDBRANCH   8  19
ENDBRANCH   1   3
BRANCH   1  24
ATOM     24  C   UNL     1      24.293  23.032  11.731  1.00  0.00     0.043 A 
ATOM     25  C   UNL     1      23.390  21.964  11.647  1.00  0.00     0.028 A 
ATOM     26  C   UNL     1      24.864  23.350  12.978  1.00  0.00     0.074 A 
ATOM     27  C   UNL     1      23.065  21.218  12.780  1.00  0.00     0.032 A 
ATOM     28  C   UNL     1      24.539  22.604  14.130  1.00  0.00     0.144 A 
ATOM     29  C   UNL     1      23.635  21.528  14.024  1.00  0.00     0.079 A 
BRANCH  28  30
ATOM     30  O   UNL     1      25.075  22.916  15.390  1.00  0.00    -0.495 OA
ATOM     31  C   UNL     1      26.302  22.403  15.897  1.00  0.00     0.278 C 
ENDBRANCH  28  30
BRANCH  29  32
ATOM     32  N   UNL     1      23.272  20.754  15.181  1.00  0.00    -0.368 N 
ATOM     33  C   UNL     1      24.033  19.558  15.561  1.00  0.00     0.118 C 
ATOM     34  C   UNL     1      22.217  21.230  16.084  1.00  0.00     0.118 C 
ATOM     35  C   UNL     1      23.073  18.406  15.877  1.00  0.00     0.040 C 
ATOM     36  C   UNL     1      21.235  20.095  16.380  1.00  0.00     0.040 C 
ATOM     37  C   UNL     1      21.998  18.847  16.893  1.00  0.00     0.060 C 
BRANCH  37  38
ATOM     38  N   UNL     1      21.114  17.705  17.250  1.00  0.00    -0.298 NA
ATOM     39  C   UNL     1      21.105  16.561  16.301  1.00  0.00     0.100 C 
ATOM     40  C   UNL     1      19.767  18.150  17.676  1.00  0.00     0.100 C 
ATOM     41  C   UNL     1      19.774  16.449  15.545  1.00  0.00     0.099 C 
ATOM     42  C   UNL     1      18.796  16.964  17.772  1.00  0.00     0.099 C 
ATOM     43  N   UNL     1      18.640  16.252  16.477  1.00  0.00    -0.304 NA
ATOM     44  C   UNL     1      17.372  16.605  15.819  1.00  0.00     0.105 C 
ENDBRANCH  37  38
ENDBRANCH  29  32
ENDBRANCH   1  24
TORSDOF 9
ENDMDL
MODEL 12
REMARK VINA RESULT:    -7.401      3.689      6.631
REMARK INTER + INTRA:         -13.250
REMARK INTER:                 -11.099
REMARK INTRA:                  -2.151
REMARK UNBOUND:                -1.954
REMARK SMILES CCc1nc(C(N)=O)c(Nc2ccc(N3CCC(N4CCN(C)CC4)CC3)c(OC)c2)nc1NC1CCOCC1
REMARK SMILES IDX 10 1 9 3 3 4 33 5 4 6 32 7 5 8 2 9 1 10 34 11 35 13 36 14
REMARK SMILES IDX 40 15 37 16 39 17 38 18 6 19 7 20 8 21 11 24 12 25 31 26
REMARK SMILES IDX 13 27 28 28 14 29 29 30 30 31 15 32 16 33 27 34 17 35 26 36
REMARK SMILES IDX 18 37 19 38 20 39 25 40 21 41 24 42 22 43 23 44
REMARK H PARENT 10 2 34 12 7 22 7 23
REMARK Flexibility Score: inf
ROOT
ATOM      1  N   UNL     1      26.213  20.156  11.032  1.00  0.00    -0.338 N 
ATOM      2  H   UNL     1      26.279  19.118  11.129  1.00  0.00     0.168 HD
ENDROOT
BRANCH   1   3
ATOM      3  C   UNL     1      27.129  20.787  10.129  1.00  0.00     0.164 A 
ATOM      4  C   UNL     1      29.019  21.985   8.501  1.00  0.00     0.084 A 
ATOM      5  C   UNL     1      28.742  22.508   9.783  1.00  0.00     0.150 A 
ATOM      6  N   UNL     1      28.320  20.900   8.073  1.00  0.00    -0.240 NA
ATOM      7  N   UNL     1      27.805  21.886  10.548  1.00  0.00    -0.209 NA
ATOM      8  C   UNL     1      27.381  20.279   8.836  1.00  0.00     0.171 A 
BRANCH   4   9
ATOM      9  C   UNL     1      30.018  22.603   7.558  1.00  0.00     0.057 C 
ATOM     10  C   UNL     1      29.327  23.471   6.510  1.00  0.00     0.011 C 
ENDBRANCH   4   9
BRANCH   5  11
ATOM     11  N   UNL     1      29.427  23.664  10.303  1.00  0.00    -0.366 N 
ATOM     12  H   UNL     1      30.457  23.624  10.458  1.00  0.00     0.162 HD
BRANCH  11  13
ATOM     13  C   UNL     1      28.709  24.888  10.691  1.00  0.00     0.085 C 
ATOM     14  C   UNL     1      29.699  25.976  11.142  1.00  0.00     0.053 C 
ATOM     15  C   UNL     1      27.852  25.410   9.517  1.00  0.00     0.053 C 
ATOM     16  C   UNL     1      30.524  26.526   9.952  1.00  0.00     0.162 C 
ATOM     17  C   UNL     1      28.652  26.348   8.591  1.00  0.00     0.162 C 
ATOM     18  O   UNL     1      30.039  26.096   8.689  1.00  0.00    -0.381 OA
ENDBRANCH  11  13
ENDBRANCH   5  11
BRANCH   8  19
ATOM     19  C   UNL     1      26.653  19.122   8.265  1.00  0.00     0.271 C 
ATOM     20  N   UNL     1      27.339  18.161   7.458  1.00  0.00    -0.364 N 
ATOM     21  O   UNL     1      25.416  18.979   8.464  1.00  0.00    -0.268 OA
ATOM     22  H   UNL     1      28.363  18.241   7.270  1.00  0.00     0.160 HD
ATOM     23  H   UNL     1      26.819  17.347   7.060  1.00  0.00     0.160 HD
ENDBRANCH   8  19
ENDBRANCH   1   3
BRANCH   1  24
ATOM     24  C   UNL     1      25.063  20.826  11.585  1.00  0.00     0.043 A 
ATOM     25  C   UNL     1      23.798  20.586  11.033  1.00  0.00     0.028 A 
ATOM     26  C   UNL     1      25.183  21.737  12.653  1.00  0.00     0.074 A 
ATOM     27  C   UNL     1      22.669  21.232  11.538  1.00  0.00     0.032 A 
ATOM     28  C   UNL     1      24.049  22.397  13.166  1.00  0.00     0.144 A 
ATOM     29  C   UNL     1      22.784  22.137  12.603  1.00  0.00     0.079 A 
BRANCH  28  30
ATOM     30  O   UNL     1      24.145  23.328  14.214  1.00  0.00    -0.495 OA
ATOM     31  C   UNL     1      24.658  24.648  14.079  1.00  0.00     0.278 C 
ENDBRANCH  28  30
BRANCH  29  32
ATOM     32  N   UNL     1      21.607  22.803  13.095  1.00  0.00    -0.368 N 
ATOM     33  C   UNL     1      21.222  24.127  12.593  1.00  0.00     0.118 C 
ATOM     34  C   UNL     1      20.694  22.106  14.008  1.00  0.00     0.118 C 
ATOM     35  C   UNL     1      20.869  25.049  13.765  1.00  0.00     0.040 C 
ATOM     36  C   UNL     1      20.361  23.007  15.200  1.00  0.00     0.040 C 
ATOM     37  C   UNL     1      19.842  24.381  14.703  1.00  0.00     0.060 C 
BRANCH  37  38
ATOM     38  N   UNL     1      19.450  25.309  15.798  1.00  0.00    -0.298 NA
ATOM     39  C   UNL     1      17.992  25.550  15.963  1.00  0.00     0.100 C 
ATOM     40  C   UNL     1      20.274  26.539  15.813  1.00  0.00     0.100 C 
ATOM     41  C   UNL     1      17.595  26.976  15.557  1.00  0.00     0.099 C 
ATOM     42  C   UNL     1      19.681  27.592  16.760  1.00  0.00     0.099 C 
ATOM     43  N   UNL     1      18.301  27.987  16.378  1.00  0.00    -0.304 NA
ATOM     44  C   UNL     1      18.283  29.295  15.704  1.00  0.00     0.105 C 
ENDBRANCH  37  38
ENDBRANCH  29  32
ENDBRANCH   1  24
TORSDOF 9
ENDMDL
MODEL 13
REMARK VINA RESULT:    -7.324      2.897     10.650
REMARK INTER + INTRA:         -13.132
REMARK INTER:                 -10.881
REMARK INTRA:                  -2.251
REMARK UNBOUND:                -1.954
REMARK SMILES CCc1nc(C(N)=O)c(Nc2ccc(N3CCC(N4CCN(C)CC4)CC3)c(OC)c2)nc1NC1CCOCC1
REMARK SMILES IDX 10 1 9 3 3 4 33 5 4 6 32 7 5 8 2 9 1 10 34 11 35 13 36 14
REMARK SMILES IDX 40 15 37 16 39 17 38 18 6 19 7 20 8 21 11 24 12 25 31 26
REMARK SMILES IDX 13 27 28 28 14 29 29 30 30 31 15 32 16 33 27 34 17 35 26 36
REMARK SMILES IDX 18 37 19 38 20 39 25 40 21 41 24 42 22 43 23 44
REMARK H PARENT 10 2 34 12 7 22 7 23
REMARK Flexibility Score: inf
ROOT
ATOM      1  N   UNL     1      24.333  19.699  11.463  1.00  0.00    -0.338 N 
ATOM      2  H   UNL     1      24.070  18.714  11.237  1.00  0.00     0.168 HD
ENDROOT
BRANCH   1   3
ATOM      3  C   UNL     1      23.862  20.231  12.707  1.00  0.00     0.164 A 
ATOM      4  C   UNL     1      23.092  21.352  15.117  1.00  0.00     0.084 A 
ATOM      5  C   UNL     1      24.313  20.651  15.010  1.00  0.00     0.150 A 
ATOM      6  N   UNL     1      22.292  21.441  14.021  1.00  0.00    -0.240 NA
ATOM      7  N   UNL     1      24.651  20.117  13.805  1.00  0.00    -0.209 NA
ATOM      8  C   UNL     1      22.626  20.905  12.818  1.00  0.00     0.171 A 
BRANCH   4   9
ATOM      9  C   UNL     1      22.604  21.966  16.403  1.00  0.00     0.057 C 
ATOM     10  C   UNL     1      21.423  21.187  16.975  1.00  0.00     0.011 C 
ENDBRANCH   4   9
BRANCH   5  11
ATOM     11  N   UNL     1      25.209  20.499  16.127  1.00  0.00    -0.366 N 
ATOM     12  H   UNL     1      25.674  21.340  16.532  1.00  0.00     0.162 HD
BRANCH  11  13
ATOM     13  C   UNL     1      25.549  19.179  16.682  1.00  0.00     0.085 C 
ATOM     14  C   UNL     1      26.420  19.329  17.941  1.00  0.00     0.053 C 
ATOM     15  C   UNL     1      24.267  18.386  17.020  1.00  0.00     0.053 C 
ATOM     16  C   UNL     1      25.613  19.908  19.128  1.00  0.00     0.162 C 
ATOM     17  C   UNL     1      23.759  18.690  18.444  1.00  0.00     0.162 C 
ATOM     18  O   UNL     1      24.215  19.953  18.886  1.00  0.00    -0.381 OA
ENDBRANCH  11  13
ENDBRANCH   5  11
BRANCH   8  19
ATOM     19  C   UNL     1      21.669  21.030  11.693  1.00  0.00     0.271 C 
ATOM     20  N   UNL     1      21.110  22.302  11.356  1.00  0.00    -0.364 N 
ATOM     21  O   UNL     1      21.319  20.015  11.030  1.00  0.00    -0.268 OA
ATOM     22  H   UNL     1      21.374  23.167  11.877  1.00  0.00     0.160 HD
ATOM     23  H   UNL     1      20.437  22.382  10.561  1.00  0.00     0.160 HD
ENDBRANCH   8  19
ENDBRANCH   1   3
BRANCH   1  24
ATOM     24  C   UNL     1      25.346  20.340  10.663  1.00  0.00     0.043 A 
ATOM     25  C   UNL     1      26.229  19.551   9.914  1.00  0.00     0.028 A 
ATOM     26  C   UNL     1      25.486  21.741  10.634  1.00  0.00     0.074 A 
ATOM     27  C   UNL     1      27.230  20.143   9.143  1.00  0.00     0.032 A 
ATOM     28  C   UNL     1      26.496  22.347   9.860  1.00  0.00     0.144 A 
ATOM     29  C   UNL     1      27.370  21.538   9.108  1.00  0.00     0.079 A 
BRANCH  28  30
ATOM     30  O   UNL     1      26.672  23.741   9.834  1.00  0.00    -0.495 OA
ATOM     31  C   UNL     1      27.405  24.482  10.803  1.00  0.00     0.278 C 
ENDBRANCH  28  30
BRANCH  29  32
ATOM     32  N   UNL     1      28.420  22.124   8.318  1.00  0.00    -0.368 N 
ATOM     33  C   UNL     1      29.826  22.004   8.719  1.00  0.00     0.118 C 
ATOM     34  C   UNL     1      28.111  22.733   7.019  1.00  0.00     0.118 C 
ATOM     35  C   UNL     1      30.518  23.368   8.618  1.00  0.00     0.040 C 
ATOM     36  C   UNL     1      28.771  24.111   6.920  1.00  0.00     0.040 C 
ATOM     37  C   UNL     1      30.286  24.002   7.230  1.00  0.00     0.060 C 
BRANCH  37  38
ATOM     38  N   UNL     1      31.019  25.291   7.113  1.00  0.00    -0.298 NA
ATOM     39  C   UNL     1      31.632  25.813   8.362  1.00  0.00     0.100 C 
ATOM     40  C   UNL     1      30.257  26.302   6.343  1.00  0.00     0.100 C 
ATOM     41  C   UNL     1      30.916  27.069   8.876  1.00  0.00     0.099 C 
ATOM     42  C   UNL     1      30.897  27.692   6.469  1.00  0.00     0.099 C 
ATOM     43  N   UNL     1      30.962  28.162   7.877  1.00  0.00    -0.304 NA
ATOM     44  C   UNL     1      29.916  29.157   8.161  1.00  0.00     0.105 C 
ENDBRANCH  37  38
ENDBRANCH  29  32
ENDBRANCH   1  24
TORSDOF 9
ENDMDL
MODEL 14
REMARK VINA RESULT:    -7.305      4.370      8.340
REMARK INTER + INTRA:         -13.103
REMARK INTER:                 -11.232
REMARK INTRA:                  -1.871
REMARK UNBOUND:                -1.954
REMARK SMILES CCc1nc(C(N)=O)c(Nc2ccc(N3CCC(N4CCN(C)CC4)CC3)c(OC)c2)nc1NC1CCOCC1
REMARK SMILES IDX 10 1 9 3 3 4 33 5 4 6 32 7 5 8 2 9 1 10 34 11 35 13 36 14
REMARK SMILES IDX 40 15 37 16 39 17 38 18 6 19 7 20 8 21 11 24 12 25 31 26
REMARK SMILES IDX 13 27 28 28 14 29 29 30 30 31 15 32 16 33 27 34 17 35 26 36
REMARK SMILES IDX 18 37 19 38 20 39 25 40 21 41 24 42 22 43 23 44
REMARK H PARENT 10 2 34 12 7 22 7 23
REMARK Flexibility Score: inf
ROOT
ATOM      1  N   UNL     1      32.123  24.254   5.806  1.00  0.00    -0.338 N 
ATOM      2  H   UNL     1      32.700  23.609   5.221  1.00  0.00     0.168 HD
ENDROOT
BRANCH   1   3
ATOM      3  C   UNL     1      32.390  25.657   5.689  1.00  0.00     0.164 A 
ATOM      4  C   UNL     1      32.885  28.378   5.630  1.00  0.00     0.084 A 
ATOM      5  C   UNL     1      31.667  27.882   6.144  1.00  0.00     0.150 A 
ATOM      6  N   UNL     1      33.795  27.495   5.141  1.00  0.00    -0.240 NA
ATOM      7  N   UNL     1      31.467  26.537   6.153  1.00  0.00    -0.209 NA
ATOM      8  C   UNL     1      33.596  26.151   5.146  1.00  0.00     0.171 A 
BRANCH   4   9
ATOM      9  C   UNL     1      33.207  29.848   5.549  1.00  0.00     0.057 C 
ATOM     10  C   UNL     1      34.400  30.103   4.632  1.00  0.00     0.011 C 
ENDBRANCH   4   9
BRANCH   5  11
ATOM     11  N   UNL     1      30.645  28.752   6.666  1.00  0.00    -0.366 N 
ATOM     12  H   UNL     1      29.802  28.959   6.089  1.00  0.00     0.162 HD
BRANCH  11  13
ATOM     13  C   UNL     1      30.779  29.421   7.970  1.00  0.00     0.085 C 
ATOM     14  C   UNL     1      29.429  30.005   8.421  1.00  0.00     0.053 C 
ATOM     15  C   UNL     1      31.309  28.435   9.034  1.00  0.00     0.053 C 
ATOM     16  C   UNL     1      28.425  28.891   8.805  1.00  0.00     0.162 C 
ATOM     17  C   UNL     1      30.167  27.656   9.718  1.00  0.00     0.162 C 
ATOM     18  O   UNL     1      29.022  27.605   8.890  1.00  0.00    -0.381 OA
ENDBRANCH  11  13
ENDBRANCH   5  11
BRANCH   8  19
ATOM     19  C   UNL     1      34.638  25.274   4.560  1.00  0.00     0.271 C 
ATOM     20  N   UNL     1      35.247  25.610   3.311  1.00  0.00    -0.364 N 
ATOM     21  O   UNL     1      34.987  24.211   5.143  1.00  0.00    -0.268 OA
ATOM     22  H   UNL     1      34.989  26.481   2.796  1.00  0.00     0.160 HD
ATOM     23  H   UNL     1      35.982  24.988   2.905  1.00  0.00     0.160 HD
ENDBRANCH   8  19
ENDBRANCH   1   3
BRANCH   1  24
ATOM     24  C   UNL     1      30.952  23.726   6.460  1.00  0.00     0.043 A 
ATOM     25  C   UNL     1      29.745  23.652   5.752  1.00  0.00     0.028 A 
ATOM     26  C   UNL     1      30.985  23.303   7.803  1.00  0.00     0.074 A 
ATOM     27  C   UNL     1      28.592  23.160   6.364  1.00  0.00     0.032 A 
ATOM     28  C   UNL     1      29.824  22.808   8.431  1.00  0.00     0.144 A 
ATOM     29  C   UNL     1      28.622  22.735   7.700  1.00  0.00     0.079 A 
BRANCH  28  30
ATOM     30  O   UNL     1      29.825  22.404   9.777  1.00  0.00    -0.495 OA
ATOM     31  C   UNL     1      30.397  21.193  10.257  1.00  0.00     0.278 C 
ENDBRANCH  28  30
BRANCH  29  32
ATOM     32  N   UNL     1      27.415  22.247   8.314  1.00  0.00    -0.368 N 
ATOM     33  C   UNL     1      26.326  23.161   8.675  1.00  0.00     0.118 C 
ATOM     34  C   UNL     1      27.197  20.803   8.462  1.00  0.00     0.118 C 
ATOM     35  C   UNL     1      25.840  22.862  10.097  1.00  0.00     0.040 C 
ATOM     36  C   UNL     1      26.742  20.489   9.889  1.00  0.00     0.040 C 
ATOM     37  C   UNL     1      25.517  21.362  10.265  1.00  0.00     0.060 C 
BRANCH  37  38
ATOM     38  N   UNL     1      24.978  21.090  11.624  1.00  0.00    -0.298 NA
ATOM     39  C   UNL     1      24.083  19.910  11.751  1.00  0.00     0.100 C 
ATOM     40  C   UNL     1      24.463  22.315  12.279  1.00  0.00     0.100 C 
ATOM     41  C   UNL     1      22.627  20.316  12.016  1.00  0.00     0.099 C 
ATOM     42  C   UNL     1      23.669  21.973  13.548  1.00  0.00     0.099 C 
ATOM     43  N   UNL     1      22.504  21.095  13.270  1.00  0.00    -0.304 NA
ATOM     44  C   UNL     1      21.244  21.855  13.277  1.00  0.00     0.105 C 
ENDBRANCH  37  38
ENDBRANCH  29  32
ENDBRANCH   1  24
TORSDOF 9
ENDMDL
MODEL 15
REMARK VINA RESULT:    -7.304      8.416     14.870
REMARK INTER + INTRA:         -13.102
REMARK INTER:                 -11.178
REMARK INTRA:                  -1.924
REMARK UNBOUND:                -1.954
REMARK SMILES CCc1nc(C(N)=O)c(Nc2ccc(N3CCC(N4CCN(C)CC4)CC3)c(OC)c2)nc1NC1CCOCC1
REMARK SMILES IDX 10 1 9 3 3 4 33 5 4 6 32 7 5 8 2 9 1 10 34 11 35 13 36 14
REMARK SMILES IDX 40 15 37 16 39 17 38 18 6 19 7 20 8 21 11 24 12 25 31 26
REMARK SMILES IDX 13 27 28 28 14 29 29 30 30 31 15 32 16 33 27 34 17 35 26 36
REMARK SMILES IDX 18 37 19 38 20 39 25 40 21 41 24 42 22 43 23 44
REMARK H PARENT 10 2 34 12 7 22 7 23
REMARK Flexibility Score: inf
ROOT
ATOM      1  N   UNL     1      30.423  28.225   6.525  1.00  0.00    -0.338 N 
ATOM      2  H   UNL     1      29.721  28.777   5.983  1.00  0.00     0.168 HD
ENDROOT
BRANCH   1   3
ATOM      3  C   UNL     1      30.149  26.832   6.719  1.00  0.00     0.164 A 
ATOM      4  C   UNL     1      29.781  24.121   7.133  1.00  0.00     0.084 A 
ATOM      5  C   UNL     1      30.729  24.580   6.193  1.00  0.00     0.150 A 
ATOM      6  N   UNL     1      29.036  25.035   7.810  1.00  0.00    -0.240 NA
ATOM      7  N   UNL     1      30.876  25.922   6.022  1.00  0.00    -0.209 NA
ATOM      8  C   UNL     1      29.179  26.376   7.638  1.00  0.00     0.171 A 
BRANCH   4   9
ATOM      9  C   UNL     1      29.517  22.660   7.391  1.00  0.00     0.057 C 
ATOM     10  C   UNL     1      30.005  22.245   8.775  1.00  0.00     0.011 C 
ENDBRANCH   4   9
BRANCH   5  11
ATOM     11  N   UNL     1      31.546  23.676   5.425  1.00  0.00    -0.366 N 
ATOM     12  H   UNL     1      31.168  23.261   4.547  1.00  0.00     0.162 HD
BRANCH  11  13
ATOM     13  C   UNL     1      32.884  23.259   5.874  1.00  0.00     0.085 C 
ATOM     14  C   UNL     1      33.234  21.869   5.317  1.00  0.00     0.053 C 
ATOM     15  C   UNL     1      33.950  24.287   5.433  1.00  0.00     0.053 C 
ATOM     16  C   UNL     1      33.476  21.911   3.788  1.00  0.00     0.162 C 
ATOM     17  C   UNL     1      34.491  23.986   4.021  1.00  0.00     0.162 C 
ATOM     18  O   UNL     1      33.561  23.231   3.272  1.00  0.00    -0.381 OA
ENDBRANCH  11  13
ENDBRANCH   5  11
BRANCH   8  19
ATOM     19  C   UNL     1      28.295  27.289   8.401  1.00  0.00     0.271 C 
ATOM     20  N   UNL     1      26.924  27.449   8.028  1.00  0.00    -0.364 N 
ATOM     21  O   UNL     1      28.744  27.953   9.375  1.00  0.00    -0.268 OA
ATOM     22  H   UNL     1      26.512  26.918   7.229  1.00  0.00     0.160 HD
ATOM     23  H   UNL     1      26.307  28.094   8.571  1.00  0.00     0.160 HD
ENDBRANCH   8  19
ENDBRANCH   1   3
BRANCH   1  24
ATOM     24  C   UNL     1      31.707  28.821   6.794  1.00  0.00     0.043 A 
ATOM     25  C   UNL     1      32.023  29.205   8.104  1.00  0.00     0.028 A 
ATOM     26  C   UNL     1      32.644  29.050   5.768  1.00  0.00     0.074 A 
ATOM     27  C   UNL     1      33.252  29.800   8.393  1.00  0.00     0.032 A 
ATOM     28  C   UNL     1      33.887  29.653   6.050  1.00  0.00     0.144 A 
ATOM     29  C   UNL     1      34.190  30.026   7.374  1.00  0.00     0.079 A 
BRANCH  28  30
ATOM     30  O   UNL     1      34.828  29.916   5.040  1.00  0.00    -0.495 OA
ATOM     31  C   UNL     1      34.703  30.944   4.065  1.00  0.00     0.278 C 
ENDBRANCH  28  30
BRANCH  29  32
ATOM     32  N   UNL     1      35.444  30.655   7.694  1.00  0.00    -0.368 N 
ATOM     33  C   UNL     1      36.649  29.857   7.944  1.00  0.00     0.118 C 
ATOM     34  C   UNL     1      35.569  32.116   7.637  1.00  0.00     0.118 C 
ATOM     35  C   UNL     1      37.356  30.358   9.208  1.00  0.00     0.040 C 
ATOM     36  C   UNL     1      36.245  32.631   8.910  1.00  0.00     0.040 C 
ATOM     37  C   UNL     1      37.583  31.884   9.145  1.00  0.00     0.060 C 
BRANCH  37  38
ATOM     38  N   UNL     1      38.333  32.352  10.341  1.00  0.00    -0.298 NA
ATOM     39  C   UNL     1      39.799  32.529  10.168  1.00  0.00     0.100 C 
ATOM     40  C   UNL     1      37.952  31.615  11.567  1.00  0.00     0.100 C 
ATOM     41  C   UNL     1      40.602  31.475  10.942  1.00  0.00     0.099 C 
ATOM     42  C   UNL     1      38.921  31.916  12.719  1.00  0.00     0.099 C 
ATOM     43  N   UNL     1      40.322  31.544  12.395  1.00  0.00    -0.304 NA
ATOM     44  C   UNL     1      40.709  30.284  13.049  1.00  0.00     0.105 C 
ENDBRANCH  37  38
ENDBRANCH  29  32
ENDBRANCH   1  24
TORSDOF 9
ENDMDL
