MODEL 1
REMARK VINA RESULT:    -9.457      0.000      0.000
REMARK INTER + INTRA:         -15.606
REMARK INTER:                 -13.880
REMARK INTRA:                  -1.726
REMARK UNBOUND:                -1.726
REMARK SMILES COc1cc(N2CCC(N3CCN(C)CC3)CC2)ccc1Nc1ncc(Cl)c(Nc2ccccc2P(C)(C)=O)n1
REMARK SMILES IDX 23 1 24 2 25 3 26 4 27 5 28 6 40 7 22 8 21 10 3 11 4 12 5 13
REMARK SMILES IDX 20 14 19 15 2 16 1 17 6 18 7 19 18 20 8 21 17 22 9 23 10 24
REMARK SMILES IDX 11 25 16 26 12 27 15 28 13 29 14 30 29 31 30 33 31 34 35 35
REMARK SMILES IDX 32 36 34 37 33 38 36 39 37 40 38 41 39 42
REMARK H PARENT 22 9 29 32
REMARK Flexibility Score: inf
ROOT
ATOM      1  C   UNL     1      23.963  20.029  11.607  1.00  0.00     0.229 A 
ATOM      2  N   UNL     1      23.221  20.992  10.997  1.00  0.00    -0.220 NA
ATOM      3  C   UNL     1      22.176  21.580  11.637  1.00  0.00     0.139 A 
ATOM      4  C   UNL     1      21.855  21.210  12.946  1.00  0.00     0.102 A 
ATOM      5  Cl  UNL     1      20.440  21.923  13.711  1.00  0.00    -0.079 Cl
ATOM      6  C   UNL     1      22.649  20.233  13.575  1.00  0.00     0.154 A 
ATOM      7  N   UNL     1      23.675  19.664  12.883  1.00  0.00    -0.194 NA
ENDROOT
BRANCH   1   8
ATOM      8  N   UNL     1      25.076  19.428  10.931  1.00  0.00    -0.321 N 
ATOM      9  H   UNL     1      25.180  18.390  11.001  1.00  0.00     0.170 HD
BRANCH   8  10
ATOM     10  C   UNL     1      26.048  20.171  10.172  1.00  0.00     0.084 A 
ATOM     11  C   UNL     1      26.269  19.855   8.817  1.00  0.00     0.144 A 
ATOM     12  C   UNL     1      27.181  20.624   8.066  1.00  0.00     0.074 A 
ATOM     13  C   UNL     1      27.861  21.700   8.652  1.00  0.00     0.040 A 
ATOM     14  C   UNL     1      26.730  21.256  10.749  1.00  0.00     0.032 A 
ATOM     15  C   UNL     1      27.632  22.010   9.998  1.00  0.00     0.028 A 
BRANCH  11  16
ATOM     16  O   UNL     1      25.573  18.772   8.256  1.00  0.00    -0.494 OA
ATOM     17  C   UNL     1      26.097  17.914   7.245  1.00  0.00     0.278 C 
ENDBRANCH  11  16
BRANCH  13  18
ATOM     18  N   UNL     1      28.747  22.509   7.862  1.00  0.00    -0.371 N 
ATOM     19  C   UNL     1      28.221  23.247   6.705  1.00  0.00     0.118 C 
ATOM     20  C   UNL     1      30.146  22.685   8.274  1.00  0.00     0.118 C 
ATOM     21  C   UNL     1      29.250  23.223   5.570  1.00  0.00     0.040 C 
ATOM     22  C   UNL     1      30.780  23.864   7.531  1.00  0.00     0.040 C 
ATOM     23  C   UNL     1      30.679  23.702   5.983  1.00  0.00     0.060 C 
BRANCH  23  24
ATOM     24  N   UNL     1      31.703  22.790   5.375  1.00  0.00    -0.298 NA
ATOM     25  C   UNL     1      33.052  23.393   5.268  1.00  0.00     0.100 C 
ATOM     26  C   UNL     1      31.245  22.366   4.027  1.00  0.00     0.100 C 
ATOM     27  C   UNL     1      34.055  22.438   4.592  1.00  0.00     0.099 C 
ATOM     28  C   UNL     1      32.236  21.393   3.375  1.00  0.00     0.099 C 
ATOM     29  N   UNL     1      33.592  21.961   3.279  1.00  0.00    -0.304 NA
ATOM     30  C   UNL     1      33.710  22.989   2.230  1.00  0.00     0.105 C 
ENDBRANCH  23  24
ENDBRANCH  13  18
ENDBRANCH   8  10
ENDBRANCH   1   8
BRANCH   6  31
ATOM     31  N   UNL     1      22.386  19.786  14.912  1.00  0.00    -0.338 N 
ATOM     32  H   UNL     1      22.518  20.482  15.680  1.00  0.00     0.168 HD
BRANCH  31  33
ATOM     33  C   UNL     1      21.688  18.566  15.217  1.00  0.00     0.050 A 
ATOM     34  C   UNL     1      20.597  18.171  14.422  1.00  0.00     0.027 A 
ATOM     35  C   UNL     1      22.065  17.767  16.324  1.00  0.00     0.035 A 
ATOM     36  C   UNL     1      19.894  16.999  14.713  1.00  0.00     0.002 A 
ATOM     37  C   UNL     1      21.345  16.592  16.602  1.00  0.00     0.014 A 
ATOM     38  C   UNL     1      20.268  16.211  15.799  1.00  0.00     0.001 A 
BRANCH  35  39
ATOM     39  P   UNL     1      23.496  18.192  17.346  1.00  0.00     0.111 P 
ATOM     40  C   UNL     1      23.975  16.760  18.358  1.00  0.00     0.087 C 
ATOM     41  C   UNL     1      23.155  19.580  18.469  1.00  0.00     0.087 C 
ATOM     42  O   UNL     1      24.660  18.580  16.458  1.00  0.00    -0.319 OA
ENDBRANCH  35  39
ENDBRANCH  31  33
ENDBRANCH   6  31
TORSDOF 8
ENDMDL
MODEL 2
REMARK VINA RESULT:    -9.273      1.156      1.319
REMARK INTER + INTRA:         -15.336
REMARK INTER:                 -13.653
REMARK INTRA:                  -1.682
REMARK UNBOUND:                -1.726
REMARK SMILES COc1cc(N2CCC(N3CCN(C)CC3)CC2)ccc1Nc1ncc(Cl)c(Nc2ccccc2P(C)(C)=O)n1
REMARK SMILES IDX 23 1 24 2 25 3 26 4 27 5 28 6 40 7 22 8 21 10 3 11 4 12 5 13
REMARK SMILES IDX 20 14 19 15 2 16 1 17 6 18 7 19 18 20 8 21 17 22 9 23 10 24
REMARK SMILES IDX 11 25 16 26 12 27 15 28 13 29 14 30 29 31 30 33 31 34 35 35
REMARK SMILES IDX 32 36 34 37 33 38 36 39 37 40 38 41 39 42
REMARK H PARENT 22 9 29 32
REMARK Flexibility Score: inf
ROOT
ATOM      1  C   UNL     1      23.958  19.944  11.679  1.00  0.00     0.229 A 
ATOM      2  N   UNL     1      23.103  20.760  11.008  1.00  0.00    -0.220 NA
ATOM      3  C   UNL     1      22.049  21.340  11.639  1.00  0.00     0.139 A 
ATOM      4  C   UNL     1      21.834  21.114  13.001  1.00  0.00     0.102 A 
ATOM      5  Cl  UNL     1      20.408  21.804  13.765  1.00  0.00    -0.079 Cl
ATOM      6  C   UNL     1      22.744  20.290  13.690  1.00  0.00     0.154 A 
ATOM      7  N   UNL     1      23.774  19.721  13.006  1.00  0.00    -0.194 NA
ENDROOT
BRANCH   1   8
ATOM      8  N   UNL     1      25.080  19.352  11.009  1.00  0.00    -0.321 N 
ATOM      9  H   UNL     1      25.209  18.318  11.105  1.00  0.00     0.170 HD
BRANCH   8  10
ATOM     10  C   UNL     1      26.027  20.097  10.223  1.00  0.00     0.084 A 
ATOM     11  C   UNL     1      26.215  19.777   8.863  1.00  0.00     0.144 A 
ATOM     12  C   UNL     1      27.103  20.549   8.086  1.00  0.00     0.074 A 
ATOM     13  C   UNL     1      27.791  21.631   8.650  1.00  0.00     0.040 A 
ATOM     14  C   UNL     1      26.718  21.188  10.778  1.00  0.00     0.032 A 
ATOM     15  C   UNL     1      27.595  21.945  10.000  1.00  0.00     0.028 A 
BRANCH  11  16
ATOM     16  O   UNL     1      25.512  18.688   8.324  1.00  0.00    -0.494 OA
ATOM     17  C   UNL     1      25.989  17.865   7.263  1.00  0.00     0.278 C 
ENDBRANCH  11  16
BRANCH  13  18
ATOM     18  N   UNL     1      28.651  22.442   7.835  1.00  0.00    -0.371 N 
ATOM     19  C   UNL     1      28.103  23.129   6.658  1.00  0.00     0.118 C 
ATOM     20  C   UNL     1      30.045  22.672   8.238  1.00  0.00     0.118 C 
ATOM     21  C   UNL     1      29.130  23.103   5.521  1.00  0.00     0.040 C 
ATOM     22  C   UNL     1      30.642  23.847   7.459  1.00  0.00     0.040 C 
ATOM     23  C   UNL     1      30.545  23.636   5.917  1.00  0.00     0.060 C 
BRANCH  23  24
ATOM     24  N   UNL     1      31.595  22.737   5.333  1.00  0.00    -0.298 NA
ATOM     25  C   UNL     1      32.941  23.352   5.273  1.00  0.00     0.100 C 
ATOM     26  C   UNL     1      31.182  22.319   3.969  1.00  0.00     0.100 C 
ATOM     27  C   UNL     1      33.973  22.411   4.621  1.00  0.00     0.099 C 
ATOM     28  C   UNL     1      32.201  21.359   3.342  1.00  0.00     0.099 C 
ATOM     29  N   UNL     1      33.554  21.940   3.291  1.00  0.00    -0.304 NA
ATOM     30  C   UNL     1      33.695  22.976   2.253  1.00  0.00     0.105 C 
ENDBRANCH  23  24
ENDBRANCH  13  18
ENDBRANCH   8  10
ENDBRANCH   1   8
BRANCH   6  31
ATOM     31  N   UNL     1      22.595  19.996  15.086  1.00  0.00    -0.338 N 
ATOM     32  H   UNL     1      23.016  20.672  15.761  1.00  0.00     0.168 HD
BRANCH  31  33
ATOM     33  C   UNL     1      21.673  19.015  15.596  1.00  0.00     0.050 A 
ATOM     34  C   UNL     1      21.374  17.876  14.827  1.00  0.00     0.027 A 
ATOM     35  C   UNL     1      21.039  19.192  16.850  1.00  0.00     0.035 A 
ATOM     36  C   UNL     1      20.468  16.922  15.295  1.00  0.00     0.002 A 
ATOM     37  C   UNL     1      20.130  18.222  17.304  1.00  0.00     0.014 A 
ATOM     38  C   UNL     1      19.848  17.093  16.531  1.00  0.00     0.001 A 
BRANCH  35  39
ATOM     39  P   UNL     1      21.429  20.606  17.909  1.00  0.00     0.111 P 
ATOM     40  C   UNL     1      21.003  20.218  19.633  1.00  0.00     0.087 C 
ATOM     41  C   UNL     1      20.512  22.101  17.430  1.00  0.00     0.087 C 
ATOM     42  O   UNL     1      22.910  20.916  17.823  1.00  0.00    -0.319 OA
ENDBRANCH  35  39
ENDBRANCH  31  33
ENDBRANCH   6  31
TORSDOF 8
ENDMDL
MODEL 3
REMARK VINA RESULT:    -9.031      1.300      2.195
REMARK INTER + INTRA:         -14.980
REMARK INTER:                 -13.282
REMARK INTRA:                  -1.699
REMARK UNBOUND:                -1.726
REMARK SMILES COc1cc(N2CCC(N3CCN(C)CC3)CC2)ccc1Nc1ncc(Cl)c(Nc2ccccc2P(C)(C)=O)n1
REMARK SMILES IDX 23 1 24 2 25 3 26 4 27 5 28 6 40 7 22 8 21 10 3 11 4 12 5 13
REMARK SMILES IDX 20 14 19 15 2 16 1 17 6 18 7 19 18 20 8 21 17 22 9 23 10 24
REMARK SMILES IDX 11 25 16 26 12 27 15 28 13 29 14 30 29 31 30 33 31 34 35 35
REMARK SMILES IDX 32 36 34 37 33 38 36 39 37 40 38 41 39 42
REMARK H PARENT 22 9 29 32
REMARK Flexibility Score: inf
ROOT
ATOM      1  C   UNL     1      24.012  20.005  11.747  1.00  0.00     0.229 A 
ATOM      2  N   UNL     1      22.897  20.454  11.111  1.00  0.00    -0.220 NA
ATOM      3  C   UNL     1      21.882  21.035  11.804  1.00  0.00     0.139 A 
ATOM      4  C   UNL     1      21.977  21.192  13.189  1.00  0.00     0.102 A 
ATOM      5  Cl  UNL     1      20.607  21.862  14.067  1.00  0.00    -0.079 Cl
ATOM      6  C   UNL     1      23.149  20.749  13.831  1.00  0.00     0.154 A 
ATOM      7  N   UNL     1      24.129  20.160  13.092  1.00  0.00    -0.194 NA
ENDROOT
BRANCH   1   8
ATOM      8  N   UNL     1      25.086  19.411  11.005  1.00  0.00    -0.321 N 
ATOM      9  H   UNL     1      25.158  18.368  11.011  1.00  0.00     0.170 HD
BRANCH   8  10
ATOM     10  C   UNL     1      26.061  20.167  10.264  1.00  0.00     0.084 A 
ATOM     11  C   UNL     1      26.527  19.685   9.025  1.00  0.00     0.144 A 
ATOM     12  C   UNL     1      27.439  20.459   8.278  1.00  0.00     0.074 A 
ATOM     13  C   UNL     1      27.878  21.702   8.754  1.00  0.00     0.040 A 
ATOM     14  C   UNL     1      26.502  21.418  10.729  1.00  0.00     0.032 A 
ATOM     15  C   UNL     1      27.406  22.176   9.983  1.00  0.00     0.028 A 
BRANCH  11  16
ATOM     16  O   UNL     1      26.070  18.437   8.573  1.00  0.00    -0.494 OA
ATOM     17  C   UNL     1      26.185  17.974   7.230  1.00  0.00     0.278 C 
ENDBRANCH  11  16
BRANCH  13  18
ATOM     18  N   UNL     1      28.765  22.505   7.959  1.00  0.00    -0.371 N 
ATOM     19  C   UNL     1      28.235  23.261   6.817  1.00  0.00     0.118 C 
ATOM     20  C   UNL     1      30.171  22.656   8.353  1.00  0.00     0.118 C 
ATOM     21  C   UNL     1      29.248  23.233   5.667  1.00  0.00     0.040 C 
ATOM     22  C   UNL     1      30.813  23.834   7.613  1.00  0.00     0.040 C 
ATOM     23  C   UNL     1      30.689  23.687   6.065  1.00  0.00     0.060 C 
BRANCH  23  24
ATOM     24  N   UNL     1      31.691  22.766   5.434  1.00  0.00    -0.298 NA
ATOM     25  C   UNL     1      33.047  23.351   5.311  1.00  0.00     0.100 C 
ATOM     26  C   UNL     1      31.206  22.357   4.091  1.00  0.00     0.100 C 
ATOM     27  C   UNL     1      34.026  22.388   4.613  1.00  0.00     0.099 C 
ATOM     28  C   UNL     1      32.174  21.375   3.418  1.00  0.00     0.099 C 
ATOM     29  N   UNL     1      33.535  21.926   3.304  1.00  0.00    -0.304 NA
ATOM     30  C   UNL     1      33.651  22.960   2.259  1.00  0.00     0.105 C 
ENDBRANCH  23  24
ENDBRANCH  13  18
ENDBRANCH   8  10
ENDBRANCH   1   8
BRANCH   6  31
ATOM     31  N   UNL     1      23.327  20.863  15.249  1.00  0.00    -0.338 N 
ATOM     32  H   UNL     1      22.692  21.518  15.757  1.00  0.00     0.168 HD
BRANCH  31  33
ATOM     33  C   UNL     1      24.105  19.935  16.027  1.00  0.00     0.050 A 
ATOM     34  C   UNL     1      25.480  20.164  16.213  1.00  0.00     0.027 A 
ATOM     35  C   UNL     1      23.513  18.777  16.587  1.00  0.00     0.035 A 
ATOM     36  C   UNL     1      26.257  19.266  16.948  1.00  0.00     0.002 A 
ATOM     37  C   UNL     1      24.311  17.884  17.324  1.00  0.00     0.014 A 
ATOM     38  C   UNL     1      25.673  18.130  17.504  1.00  0.00     0.001 A 
BRANCH  35  39
ATOM     39  P   UNL     1      21.739  18.460  16.433  1.00  0.00     0.111 P 
ATOM     40  C   UNL     1      21.228  17.219  17.660  1.00  0.00     0.087 C 
ATOM     41  C   UNL     1      21.290  17.834  14.786  1.00  0.00     0.087 C 
ATOM     42  O   UNL     1      20.968  19.741  16.675  1.00  0.00    -0.319 OA
ENDBRANCH  35  39
ENDBRANCH  31  33
ENDBRANCH   6  31
TORSDOF 8
ENDMDL
MODEL 4
REMARK VINA RESULT:    -9.008      2.005      2.676
REMARK INTER + INTRA:         -14.948
REMARK INTER:                 -13.198
REMARK INTRA:                  -1.750
REMARK UNBOUND:                -1.726
REMARK SMILES COc1cc(N2CCC(N3CCN(C)CC3)CC2)ccc1Nc1ncc(Cl)c(Nc2ccccc2P(C)(C)=O)n1
REMARK SMILES IDX 23 1 24 2 25 3 26 4 27 5 28 6 40 7 22 8 21 10 3 11 4 12 5 13
REMARK SMILES IDX 20 14 19 15 2 16 1 17 6 18 7 19 18 20 8 21 17 22 9 23 10 24
REMARK SMILES IDX 11 25 16 26 12 27 15 28 13 29 14 30 29 31 30 33 31 34 35 35
REMARK SMILES IDX 32 36 34 37 33 38 36 39 37 40 38 41 39 42
REMARK H PARENT 22 9 29 32
REMARK Flexibility Score: inf
ROOT
ATOM      1  C   UNL     1      24.116  19.915  11.681  1.00  0.00     0.229 A 
ATOM      2  N   UNL     1      22.971  20.320  11.068  1.00  0.00    -0.220 NA
ATOM      3  C   UNL     1      21.973  20.913  11.773  1.00  0.00     0.139 A 
ATOM      4  C   UNL     1      22.114  21.130  13.146  1.00  0.00     0.102 A 
ATOM      5  Cl  UNL     1      20.765  21.815  14.045  1.00  0.00    -0.079 Cl
ATOM      6  C   UNL     1      23.316  20.732  13.762  1.00  0.00     0.154 A 
ATOM      7  N   UNL     1      24.278  20.128  13.013  1.00  0.00    -0.194 NA
ENDROOT
BRANCH   1   8
ATOM      8  N   UNL     1      25.173  19.307  10.925  1.00  0.00    -0.321 N 
ATOM      9  H   UNL     1      25.232  18.263  10.932  1.00  0.00     0.170 HD
BRANCH   8  10
ATOM     10  C   UNL     1      26.146  20.051  10.170  1.00  0.00     0.084 A 
ATOM     11  C   UNL     1      26.318  19.786   8.796  1.00  0.00     0.144 A 
ATOM     12  C   UNL     1      27.233  20.558   8.051  1.00  0.00     0.074 A 
ATOM     13  C   UNL     1      27.965  21.586   8.661  1.00  0.00     0.040 A 
ATOM     14  C   UNL     1      26.880  21.088  10.771  1.00  0.00     0.032 A 
ATOM     15  C   UNL     1      27.784  21.845  10.025  1.00  0.00     0.028 A 
BRANCH  11  16
ATOM     16  O   UNL     1      25.572  18.751   8.212  1.00  0.00    -0.494 OA
ATOM     17  C   UNL     1      26.085  17.829   7.254  1.00  0.00     0.278 C 
ENDBRANCH  11  16
BRANCH  13  18
ATOM     18  N   UNL     1      28.853  22.400   7.880  1.00  0.00    -0.371 N 
ATOM     19  C   UNL     1      28.329  23.158   6.736  1.00  0.00     0.118 C 
ATOM     20  C   UNL     1      30.255  22.559   8.289  1.00  0.00     0.118 C 
ATOM     21  C   UNL     1      29.354  23.143   5.596  1.00  0.00     0.040 C 
ATOM     22  C   UNL     1      30.896  23.744   7.561  1.00  0.00     0.040 C 
ATOM     23  C   UNL     1      30.788  23.606   6.011  1.00  0.00     0.060 C 
BRANCH  23  24
ATOM     24  N   UNL     1      31.803  22.695   5.386  1.00  0.00    -0.298 NA
ATOM     25  C   UNL     1      33.165  23.274   5.318  1.00  0.00     0.100 C 
ATOM     26  C   UNL     1      31.355  22.325   4.018  1.00  0.00     0.100 C 
ATOM     27  C   UNL     1      34.159  22.323   4.623  1.00  0.00     0.099 C 
ATOM     28  C   UNL     1      32.337  21.355   3.347  1.00  0.00     0.099 C 
ATOM     29  N   UNL     1      33.704  21.900   3.289  1.00  0.00    -0.304 NA
ATOM     30  C   UNL     1      33.857  22.961   2.276  1.00  0.00     0.105 C 
ENDBRANCH  23  24
ENDBRANCH  13  18
ENDBRANCH   8  10
ENDBRANCH   1   8
BRANCH   6  31
ATOM     31  N   UNL     1      23.542  20.907  15.167  1.00  0.00    -0.338 N 
ATOM     32  H   UNL     1      22.863  21.506  15.687  1.00  0.00     0.168 HD
BRANCH  31  33
ATOM     33  C   UNL     1      24.449  20.092  15.932  1.00  0.00     0.050 A 
ATOM     34  C   UNL     1      24.119  18.751  16.202  1.00  0.00     0.027 A 
ATOM     35  C   UNL     1      25.657  20.625  16.442  1.00  0.00     0.035 A 
ATOM     36  C   UNL     1      24.976  17.948  16.959  1.00  0.00     0.002 A 
ATOM     37  C   UNL     1      26.506  19.803  17.201  1.00  0.00     0.014 A 
ATOM     38  C   UNL     1      26.167  18.472  17.456  1.00  0.00     0.001 A 
BRANCH  35  39
ATOM     39  P   UNL     1      26.163  22.324  16.077  1.00  0.00     0.111 P 
ATOM     40  C   UNL     1      27.880  22.582  16.614  1.00  0.00     0.087 C 
ATOM     41  C   UNL     1      25.122  23.550  16.923  1.00  0.00     0.087 C 
ATOM     42  O   UNL     1      26.068  22.575  14.586  1.00  0.00    -0.319 OA
ENDBRANCH  35  39
ENDBRANCH  31  33
ENDBRANCH   6  31
TORSDOF 8
ENDMDL
MODEL 5
REMARK VINA RESULT:    -8.502      1.536      2.125
REMARK INTER + INTRA:         -14.204
REMARK INTER:                 -12.741
REMARK INTRA:                  -1.463
REMARK UNBOUND:                -1.726
REMARK SMILES COc1cc(N2CCC(N3CCN(C)CC3)CC2)ccc1Nc1ncc(Cl)c(Nc2ccccc2P(C)(C)=O)n1
REMARK SMILES IDX 23 1 24 2 25 3 26 4 27 5 28 6 40 7 22 8 21 10 3 11 4 12 5 13
REMARK SMILES IDX 20 14 19 15 2 16 1 17 6 18 7 19 18 20 8 21 17 22 9 23 10 24
REMARK SMILES IDX 11 25 16 26 12 27 15 28 13 29 14 30 29 31 30 33 31 34 35 35
REMARK SMILES IDX 32 36 34 37 33 38 36 39 37 40 38 41 39 42
REMARK H PARENT 22 9 29 32
REMARK Flexibility Score: inf
ROOT
ATOM      1  C   UNL     1      24.123  19.874  11.665  1.00  0.00     0.229 A 
ATOM      2  N   UNL     1      23.162  20.496  10.932  1.00  0.00    -0.220 NA
ATOM      3  C   UNL     1      22.014  20.935  11.512  1.00  0.00     0.139 A 
ATOM      4  C   UNL     1      21.809  20.763  12.884  1.00  0.00     0.102 A 
ATOM      5  Cl  UNL     1      20.273  21.258  13.585  1.00  0.00    -0.079 Cl
ATOM      6  C   UNL     1      22.825  20.143  13.636  1.00  0.00     0.154 A 
ATOM      7  N   UNL     1      23.949  19.708  13.002  1.00  0.00    -0.194 NA
ENDROOT
BRANCH   1   8
ATOM      8  N   UNL     1      25.340  19.432  11.048  1.00  0.00    -0.321 N 
ATOM      9  H   UNL     1      25.646  18.449  11.233  1.00  0.00     0.170 HD
BRANCH   8  10
ATOM     10  C   UNL     1      26.155  20.262  10.199  1.00  0.00     0.084 A 
ATOM     11  C   UNL     1      26.582  21.524  10.657  1.00  0.00     0.144 A 
ATOM     12  C   UNL     1      27.427  22.307   9.842  1.00  0.00     0.074 A 
ATOM     13  C   UNL     1      27.847  21.838   8.590  1.00  0.00     0.040 A 
ATOM     14  C   UNL     1      26.587  19.798   8.945  1.00  0.00     0.032 A 
ATOM     15  C   UNL     1      27.421  20.580   8.146  1.00  0.00     0.028 A 
BRANCH  11  16
ATOM     16  O   UNL     1      26.146  21.968  11.915  1.00  0.00    -0.494 OA
ATOM     17  C   UNL     1      25.545  23.238  12.158  1.00  0.00     0.278 C 
ENDBRANCH  11  16
BRANCH  13  18
ATOM     18  N   UNL     1      28.750  22.620   7.794  1.00  0.00    -0.371 N 
ATOM     19  C   UNL     1      28.249  23.326   6.607  1.00  0.00     0.118 C 
ATOM     20  C   UNL     1      30.142  22.802   8.225  1.00  0.00     0.118 C 
ATOM     21  C   UNL     1      29.298  23.266   5.491  1.00  0.00     0.040 C 
ATOM     22  C   UNL     1      30.795  23.958   7.461  1.00  0.00     0.040 C 
ATOM     23  C   UNL     1      30.721  23.751   5.917  1.00  0.00     0.060 C 
BRANCH  23  24
ATOM     24  N   UNL     1      31.752  22.818   5.353  1.00  0.00    -0.298 NA
ATOM     25  C   UNL     1      33.107  23.410   5.259  1.00  0.00     0.100 C 
ATOM     26  C   UNL     1      31.319  22.361   4.008  1.00  0.00     0.100 C 
ATOM     27  C   UNL     1      34.118  22.433   4.629  1.00  0.00     0.099 C 
ATOM     28  C   UNL     1      32.318  21.366   3.402  1.00  0.00     0.099 C 
ATOM     29  N   UNL     1      33.678  21.925   3.319  1.00  0.00    -0.304 NA
ATOM     30  C   UNL     1      33.824  22.924   2.246  1.00  0.00     0.105 C 
ENDBRANCH  23  24
ENDBRANCH  13  18
ENDBRANCH   8  10
ENDBRANCH   1   8
BRANCH   6  31
ATOM     31  N   UNL     1      22.696  19.918  15.046  1.00  0.00    -0.338 N 
ATOM     32  H   UNL     1      23.097  20.642  15.681  1.00  0.00     0.168 HD
BRANCH  31  33
ATOM     33  C   UNL     1      21.813  18.934  15.614  1.00  0.00     0.050 A 
ATOM     34  C   UNL     1      21.688  17.674  15.000  1.00  0.00     0.027 A 
ATOM     35  C   UNL     1      21.043  19.223  16.767  1.00  0.00     0.035 A 
ATOM     36  C   UNL     1      20.822  16.712  15.524  1.00  0.00     0.002 A 
ATOM     37  C   UNL     1      20.177  18.242  17.280  1.00  0.00     0.014 A 
ATOM     38  C   UNL     1      20.070  16.994  16.662  1.00  0.00     0.001 A 
BRANCH  35  39
ATOM     39  P   UNL     1      21.206  20.802  17.634  1.00  0.00     0.111 P 
ATOM     40  C   UNL     1      22.575  20.710  18.827  1.00  0.00     0.087 C 
ATOM     41  C   UNL     1      19.698  21.246  18.548  1.00  0.00     0.087 C 
ATOM     42  O   UNL     1      21.493  21.905  16.637  1.00  0.00    -0.319 OA
ENDBRANCH  35  39
ENDBRANCH  31  33
ENDBRANCH   6  31
TORSDOF 8
ENDMDL
MODEL 6
REMARK VINA RESULT:    -8.452      1.954      2.951
REMARK INTER + INTRA:         -14.131
REMARK INTER:                 -12.527
REMARK INTRA:                  -1.603
REMARK UNBOUND:                -1.726
REMARK SMILES COc1cc(N2CCC(N3CCN(C)CC3)CC2)ccc1Nc1ncc(Cl)c(Nc2ccccc2P(C)(C)=O)n1
REMARK SMILES IDX 23 1 24 2 25 3 26 4 27 5 28 6 40 7 22 8 21 10 3 11 4 12 5 13
REMARK SMILES IDX 20 14 19 15 2 16 1 17 6 18 7 19 18 20 8 21 17 22 9 23 10 24
REMARK SMILES IDX 11 25 16 26 12 27 15 28 13 29 14 30 29 31 30 33 31 34 35 35
REMARK SMILES IDX 32 36 34 37 33 38 36 39 37 40 38 41 39 42
REMARK H PARENT 22 9 29 32
REMARK Flexibility Score: inf
ROOT
ATOM      1  C   UNL     1      23.708  20.162  11.495  1.00  0.00     0.229 A 
ATOM      2  N   UNL     1      22.941  21.172  11.005  1.00  0.00    -0.220 NA
ATOM      3  C   UNL     1      21.981  21.756  11.769  1.00  0.00     0.139 A 
ATOM      4  C   UNL     1      21.775  21.332  13.084  1.00  0.00     0.102 A 
ATOM      5  Cl  UNL     1      20.462  22.044  14.014  1.00  0.00    -0.079 Cl
ATOM      6  C   UNL     1      22.595  20.304  13.589  1.00  0.00     0.154 A 
ATOM      7  N   UNL     1      23.531  19.743  12.776  1.00  0.00    -0.194 NA
ENDROOT
BRANCH   1   8
ATOM      8  N   UNL     1      24.732  19.565  10.688  1.00  0.00    -0.321 N 
ATOM      9  H   UNL     1      24.592  18.574  10.386  1.00  0.00     0.170 HD
BRANCH   8  10
ATOM     10  C   UNL     1      25.930  20.250  10.280  1.00  0.00     0.084 A 
ATOM     11  C   UNL     1      26.755  19.687   9.285  1.00  0.00     0.144 A 
ATOM     12  C   UNL     1      27.896  20.392   8.851  1.00  0.00     0.074 A 
ATOM     13  C   UNL     1      28.212  21.645   9.393  1.00  0.00     0.040 A 
ATOM     14  C   UNL     1      26.252  21.510  10.813  1.00  0.00     0.032 A 
ATOM     15  C   UNL     1      27.384  22.199  10.377  1.00  0.00     0.028 A 
BRANCH  11  16
ATOM     16  O   UNL     1      26.414  18.431   8.760  1.00  0.00    -0.494 OA
ATOM     17  C   UNL     1      25.997  18.205   7.416  1.00  0.00     0.278 C 
ENDBRANCH  11  16
BRANCH  13  18
ATOM     18  N   UNL     1      29.346  22.377   8.904  1.00  0.00    -0.371 N 
ATOM     19  C   UNL     1      30.401  22.795   9.837  1.00  0.00     0.118 C 
ATOM     20  C   UNL     1      29.505  22.610   7.462  1.00  0.00     0.118 C 
ATOM     21  C   UNL     1      30.912  24.186   9.447  1.00  0.00     0.040 C 
ATOM     22  C   UNL     1      30.937  23.050   7.143  1.00  0.00     0.040 C 
ATOM     23  C   UNL     1      31.353  24.316   7.954  1.00  0.00     0.060 C 
BRANCH  23  24
ATOM     24  N   UNL     1      30.848  25.616   7.399  1.00  0.00    -0.298 NA
ATOM     25  C   UNL     1      31.779  26.260   6.444  1.00  0.00     0.100 C 
ATOM     26  C   UNL     1      30.564  26.551   8.518  1.00  0.00     0.100 C 
ATOM     27  C   UNL     1      31.240  27.614   5.942  1.00  0.00     0.099 C 
ATOM     28  C   UNL     1      30.000  27.884   8.009  1.00  0.00     0.099 C 
ATOM     29  N   UNL     1      30.899  28.533   7.039  1.00  0.00    -0.304 NA
ATOM     30  C   UNL     1      32.091  29.128   7.670  1.00  0.00     0.105 C 
ENDBRANCH  23  24
ENDBRANCH  13  18
ENDBRANCH   8  10
ENDBRANCH   1   8
BRANCH   6  31
ATOM     31  N   UNL     1      22.446  19.801  14.923  1.00  0.00    -0.338 N 
ATOM     32  H   UNL     1      22.674  20.453  15.705  1.00  0.00     0.168 HD
BRANCH  31  33
ATOM     33  C   UNL     1      21.741  18.586  15.238  1.00  0.00     0.050 A 
ATOM     34  C   UNL     1      20.641  18.196  14.453  1.00  0.00     0.027 A 
ATOM     35  C   UNL     1      22.120  17.789  16.346  1.00  0.00     0.035 A 
ATOM     36  C   UNL     1      19.932  17.032  14.753  1.00  0.00     0.002 A 
ATOM     37  C   UNL     1      21.394  16.621  16.633  1.00  0.00     0.014 A 
ATOM     38  C   UNL     1      20.308  16.245  15.840  1.00  0.00     0.001 A 
BRANCH  35  39
ATOM     39  P   UNL     1      23.562  18.207  17.355  1.00  0.00     0.111 P 
ATOM     40  C   UNL     1      24.058  16.765  18.344  1.00  0.00     0.087 C 
ATOM     41  C   UNL     1      23.229  19.581  18.498  1.00  0.00     0.087 C 
ATOM     42  O   UNL     1      24.714  18.611  16.458  1.00  0.00    -0.319 OA
ENDBRANCH  35  39
ENDBRANCH  31  33
ENDBRANCH   6  31
TORSDOF 8
ENDMDL
MODEL 7
REMARK VINA RESULT:    -8.368      4.270     12.588
REMARK INTER + INTRA:         -14.008
REMARK INTER:                 -13.306
REMARK INTRA:                  -0.702
REMARK UNBOUND:                -1.726
REMARK SMILES COc1cc(N2CCC(N3CCN(C)CC3)CC2)ccc1Nc1ncc(Cl)c(Nc2ccccc2P(C)(C)=O)n1
REMARK SMILES IDX 23 1 24 2 25 3 26 4 27 5 28 6 40 7 22 8 21 10 3 11 4 12 5 13
REMARK SMILES IDX 20 14 19 15 2 16 1 17 6 18 7 19 18 20 8 21 17 22 9 23 10 24
REMARK SMILES IDX 11 25 16 26 12 27 15 28 13 29 14 30 29 31 30 33 31 34 35 35
REMARK SMILES IDX 32 36 34 37 33 38 36 39 37 40 38 41 39 42
REMARK H PARENT 22 9 29 32
REMARK Flexibility Score: inf
ROOT
ATOM      1  C   UNL     1      28.778  23.081   6.727  1.00  0.00     0.229 A 
ATOM      2  N   UNL     1      28.397  24.382   6.624  1.00  0.00    -0.220 NA
ATOM      3  C   UNL     1      29.314  25.368   6.443  1.00  0.00     0.139 A 
ATOM      4  C   UNL     1      30.673  25.055   6.348  1.00  0.00     0.102 A 
ATOM      5  Cl  UNL     1      31.841  26.363   6.210  1.00  0.00    -0.079 Cl
ATOM      6  C   UNL     1      31.051  23.701   6.428  1.00  0.00     0.154 A 
ATOM      7  N   UNL     1      30.093  22.755   6.625  1.00  0.00    -0.194 NA
ENDROOT
BRANCH   1   8
ATOM      8  N   UNL     1      27.801  22.045   6.897  1.00  0.00    -0.321 N 
ATOM      9  H   UNL     1      27.625  21.410   6.085  1.00  0.00     0.170 HD
BRANCH   8  10
ATOM     10  C   UNL     1      27.056  21.839   8.111  1.00  0.00     0.084 A 
ATOM     11  C   UNL     1      27.149  20.607   8.789  1.00  0.00     0.144 A 
ATOM     12  C   UNL     1      26.461  20.432  10.007  1.00  0.00     0.074 A 
ATOM     13  C   UNL     1      25.696  21.472  10.551  1.00  0.00     0.040 A 
ATOM     14  C   UNL     1      26.291  22.878   8.667  1.00  0.00     0.032 A 
ATOM     15  C   UNL     1      25.613  22.695   9.873  1.00  0.00     0.028 A 
BRANCH  11  16
ATOM     16  O   UNL     1      27.924  19.582   8.221  1.00  0.00    -0.494 OA
ATOM     17  C   UNL     1      27.483  18.238   8.051  1.00  0.00     0.278 C 
ENDBRANCH  11  16
BRANCH  13  18
ATOM     18  N   UNL     1      25.044  21.301  11.819  1.00  0.00    -0.371 N 
ATOM     19  C   UNL     1      24.886  22.452  12.717  1.00  0.00     0.118 C 
ATOM     20  C   UNL     1      24.442  20.007  12.167  1.00  0.00     0.118 C 
ATOM     21  C   UNL     1      25.084  22.003  14.169  1.00  0.00     0.040 C 
ATOM     22  C   UNL     1      23.489  20.161  13.356  1.00  0.00     0.040 C 
ATOM     23  C   UNL     1      24.198  20.788  14.596  1.00  0.00     0.060 C 
BRANCH  23  24
ATOM     24  N   UNL     1      25.025  19.831  15.403  1.00  0.00    -0.298 NA
ATOM     25  C   UNL     1      24.223  18.896  16.226  1.00  0.00     0.100 C 
ATOM     26  C   UNL     1      25.946  20.597  16.282  1.00  0.00     0.100 C 
ATOM     27  C   UNL     1      25.116  17.969  17.074  1.00  0.00     0.099 C 
ATOM     28  C   UNL     1      26.849  19.664  17.100  1.00  0.00     0.099 C 
ATOM     29  N   UNL     1      26.074  18.709  17.910  1.00  0.00    -0.304 NA
ATOM     30  C   UNL     1      25.437  19.334  19.083  1.00  0.00     0.105 C 
ENDBRANCH  23  24
ENDBRANCH  13  18
ENDBRANCH   8  10
ENDBRANCH   1   8
BRANCH   6  31
ATOM     31  N   UNL     1      32.423  23.291   6.350  1.00  0.00    -0.338 N 
ATOM     32  H   UNL     1      32.741  22.566   7.030  1.00  0.00     0.168 HD
BRANCH  31  33
ATOM     33  C   UNL     1      33.279  23.594   5.233  1.00  0.00     0.050 A 
ATOM     34  C   UNL     1      34.200  24.652   5.330  1.00  0.00     0.027 A 
ATOM     35  C   UNL     1      33.189  22.860   4.025  1.00  0.00     0.035 A 
ATOM     36  C   UNL     1      35.026  24.975   4.251  1.00  0.00     0.002 A 
ATOM     37  C   UNL     1      34.028  23.199   2.951  1.00  0.00     0.014 A 
ATOM     38  C   UNL     1      34.942  24.249   3.064  1.00  0.00     0.001 A 
BRANCH  35  39
ATOM     39  P   UNL     1      32.066  21.451   3.863  1.00  0.00     0.111 P 
ATOM     40  C   UNL     1      32.621  20.378   2.504  1.00  0.00     0.087 C 
ATOM     41  C   UNL     1      30.360  21.966   3.507  1.00  0.00     0.087 C 
ATOM     42  O   UNL     1      32.058  20.653   5.151  1.00  0.00    -0.319 OA
ENDBRANCH  35  39
ENDBRANCH  31  33
ENDBRANCH   6  31
TORSDOF 8
ENDMDL
MODEL 8
REMARK VINA RESULT:    -8.305      2.578      3.657
REMARK INTER + INTRA:         -13.915
REMARK INTER:                 -12.125
REMARK INTRA:                  -1.790
REMARK UNBOUND:                -1.726
REMARK SMILES COc1cc(N2CCC(N3CCN(C)CC3)CC2)ccc1Nc1ncc(Cl)c(Nc2ccccc2P(C)(C)=O)n1
REMARK SMILES IDX 23 1 24 2 25 3 26 4 27 5 28 6 40 7 22 8 21 10 3 11 4 12 5 13
REMARK SMILES IDX 20 14 19 15 2 16 1 17 6 18 7 19 18 20 8 21 17 22 9 23 10 24
REMARK SMILES IDX 11 25 16 26 12 27 15 28 13 29 14 30 29 31 30 33 31 34 35 35
REMARK SMILES IDX 32 36 34 37 33 38 36 39 37 40 38 41 39 42
REMARK H PARENT 22 9 29 32
REMARK Flexibility Score: inf
ROOT
ATOM      1  C   UNL     1      24.559  20.098  11.400  1.00  0.00     0.229 A 
ATOM      2  N   UNL     1      23.251  20.117  11.031  1.00  0.00    -0.220 NA
ATOM      3  C   UNL     1      22.277  20.446  11.920  1.00  0.00     0.139 A 
ATOM      4  C   UNL     1      22.610  20.785  13.234  1.00  0.00     0.102 A 
ATOM      5  Cl  UNL     1      21.319  21.115  14.383  1.00  0.00    -0.079 Cl
ATOM      6  C   UNL     1      23.971  20.790  13.595  1.00  0.00     0.154 A 
ATOM      7  N   UNL     1      24.905  20.437  12.670  1.00  0.00    -0.194 NA
ENDROOT
BRANCH   1   8
ATOM      8  N   UNL     1      25.582  19.769  10.450  1.00  0.00    -0.321 N 
ATOM      9  H   UNL     1      25.612  18.786  10.095  1.00  0.00     0.170 HD
BRANCH   8  10
ATOM     10  C   UNL     1      26.559  20.709   9.968  1.00  0.00     0.084 A 
ATOM     11  C   UNL     1      27.885  20.288   9.745  1.00  0.00     0.144 A 
ATOM     12  C   UNL     1      28.823  21.200   9.219  1.00  0.00     0.074 A 
ATOM     13  C   UNL     1      28.446  22.514   8.911  1.00  0.00     0.040 A 
ATOM     14  C   UNL     1      26.189  22.027   9.650  1.00  0.00     0.032 A 
ATOM     15  C   UNL     1      27.125  22.922   9.131  1.00  0.00     0.028 A 
BRANCH  11  16
ATOM     16  O   UNL     1      28.235  18.965  10.063  1.00  0.00    -0.494 OA
ATOM     17  C   UNL     1      28.105  17.861   9.172  1.00  0.00     0.278 C 
ENDBRANCH  11  16
BRANCH  13  18
ATOM     18  N   UNL     1      29.396  23.418   8.326  1.00  0.00    -0.371 N 
ATOM     19  C   UNL     1      29.008  24.231   7.165  1.00  0.00     0.118 C 
ATOM     20  C   UNL     1      30.712  23.608   8.950  1.00  0.00     0.118 C 
ATOM     21  C   UNL     1      30.189  24.340   6.195  1.00  0.00     0.040 C 
ATOM     22  C   UNL     1      31.389  24.867   8.404  1.00  0.00     0.040 C 
ATOM     23  C   UNL     1      31.520  24.833   6.850  1.00  0.00     0.060 C 
BRANCH  23  24
ATOM     24  N   UNL     1      32.663  24.012   6.329  1.00  0.00    -0.298 NA
ATOM     25  C   UNL     1      33.546  24.744   5.391  1.00  0.00     0.100 C 
ATOM     26  C   UNL     1      32.131  22.797   5.659  1.00  0.00     0.100 C 
ATOM     27  C   UNL     1      34.673  23.846   4.846  1.00  0.00     0.099 C 
ATOM     28  C   UNL     1      33.262  21.896   5.146  1.00  0.00     0.099 C 
ATOM     29  N   UNL     1      34.168  22.609   4.229  1.00  0.00    -0.304 NA
ATOM     30  C   UNL     1      33.574  22.842   2.900  1.00  0.00     0.105 C 
ENDBRANCH  23  24
ENDBRANCH  13  18
ENDBRANCH   8  10
ENDBRANCH   1   8
BRANCH   6  31
ATOM     31  N   UNL     1      24.402  21.116  14.923  1.00  0.00    -0.338 N 
ATOM     32  H   UNL     1      24.206  20.415  15.672  1.00  0.00     0.168 HD
BRANCH  31  33
ATOM     33  C   UNL     1      25.322  22.182  15.218  1.00  0.00     0.050 A 
ATOM     34  C   UNL     1      25.189  23.418  14.560  1.00  0.00     0.027 A 
ATOM     35  C   UNL     1      26.380  21.998  16.142  1.00  0.00     0.035 A 
ATOM     36  C   UNL     1      26.083  24.460  14.818  1.00  0.00     0.002 A 
ATOM     37  C   UNL     1      27.270  23.058  16.389  1.00  0.00     0.014 A 
ATOM     38  C   UNL     1      27.120  24.281  15.731  1.00  0.00     0.001 A 
BRANCH  35  39
ATOM     39  P   UNL     1      26.566  20.452  17.063  1.00  0.00     0.111 P 
ATOM     40  C   UNL     1      25.710  20.583  18.662  1.00  0.00     0.087 C 
ATOM     41  C   UNL     1      28.308  20.051  17.393  1.00  0.00     0.087 C 
ATOM     42  O   UNL     1      25.962  19.311  16.271  1.00  0.00    -0.319 OA
ENDBRANCH  35  39
ENDBRANCH  31  33
ENDBRANCH   6  31
TORSDOF 8
ENDMDL
MODEL 9
REMARK VINA RESULT:    -8.274      4.126     12.752
REMARK INTER + INTRA:         -13.870
REMARK INTER:                 -12.168
REMARK INTRA:                  -1.702
REMARK UNBOUND:                -1.726
REMARK SMILES COc1cc(N2CCC(N3CCN(C)CC3)CC2)ccc1Nc1ncc(Cl)c(Nc2ccccc2P(C)(C)=O)n1
REMARK SMILES IDX 23 1 24 2 25 3 26 4 27 5 28 6 40 7 22 8 21 10 3 11 4 12 5 13
REMARK SMILES IDX 20 14 19 15 2 16 1 17 6 18 7 19 18 20 8 21 17 22 9 23 10 24
REMARK SMILES IDX 11 25 16 26 12 27 15 28 13 29 14 30 29 31 30 33 31 34 35 35
REMARK SMILES IDX 32 36 34 37 33 38 36 39 37 40 38 41 39 42
REMARK H PARENT 22 9 29 32
REMARK Flexibility Score: inf
ROOT
ATOM      1  C   UNL     1      24.984  20.184  11.249  1.00  0.00     0.229 A 
ATOM      2  N   UNL     1      25.052  18.828  11.175  1.00  0.00    -0.220 NA
ATOM      3  C   UNL     1      25.834  18.216  10.248  1.00  0.00     0.139 A 
ATOM      4  C   UNL     1      26.596  18.978   9.358  1.00  0.00     0.102 A 
ATOM      5  Cl  UNL     1      27.525  18.155   8.111  1.00  0.00    -0.079 Cl
ATOM      6  C   UNL     1      26.538  20.380   9.465  1.00  0.00     0.154 A 
ATOM      7  N   UNL     1      25.726  20.943  10.401  1.00  0.00    -0.194 NA
ENDROOT
BRANCH   1   8
ATOM      8  N   UNL     1      24.171  20.821  12.244  1.00  0.00    -0.321 N 
ATOM      9  H   UNL     1      24.205  21.865  12.299  1.00  0.00     0.170 HD
BRANCH   8  10
ATOM     10  C   UNL     1      23.323  20.107  13.162  1.00  0.00     0.084 A 
ATOM     11  C   UNL     1      23.801  19.778  14.446  1.00  0.00     0.144 A 
ATOM     12  C   UNL     1      22.944  19.129  15.359  1.00  0.00     0.074 A 
ATOM     13  C   UNL     1      21.625  18.817  15.004  1.00  0.00     0.040 A 
ATOM     14  C   UNL     1      21.996  19.795  12.817  1.00  0.00     0.032 A 
ATOM     15  C   UNL     1      21.157  19.152  13.728  1.00  0.00     0.028 A 
BRANCH  11  16
ATOM     16  O   UNL     1      25.126  20.104  14.775  1.00  0.00    -0.494 OA
ATOM     17  C   UNL     1      25.501  21.138  15.681  1.00  0.00     0.278 C 
ENDBRANCH  11  16
BRANCH  13  18
ATOM     18  N   UNL     1      20.747  18.204  15.961  1.00  0.00    -0.371 N 
ATOM     19  C   UNL     1      20.256  18.987  17.103  1.00  0.00     0.118 C 
ATOM     20  C   UNL     1      20.255  16.839  15.739  1.00  0.00     0.118 C 
ATOM     21  C   UNL     1      20.198  18.096  18.349  1.00  0.00     0.040 C 
ATOM     22  C   UNL     1      19.060  16.543  16.649  1.00  0.00     0.040 C 
ATOM     23  C   UNL     1      19.404  16.765  18.155  1.00  0.00     0.060 C 
BRANCH  23  24
ATOM     24  N   UNL     1      20.156  15.640  18.804  1.00  0.00    -0.298 NA
ATOM     25  C   UNL     1      21.599  15.615  18.471  1.00  0.00     0.100 C 
ATOM     26  C   UNL     1      19.538  14.346  18.415  1.00  0.00     0.100 C 
ATOM     27  C   UNL     1      22.317  14.415  19.120  1.00  0.00     0.099 C 
ATOM     28  C   UNL     1      20.241  13.161  19.090  1.00  0.00     0.099 C 
ATOM     29  N   UNL     1      21.683  13.128  18.792  1.00  0.00    -0.304 NA
ATOM     30  C   UNL     1      21.976  12.687  17.416  1.00  0.00     0.105 C 
ENDBRANCH  23  24
ENDBRANCH  13  18
ENDBRANCH   8  10
ENDBRANCH   1   8
BRANCH   6  31
ATOM     31  N   UNL     1      27.279  21.239   8.587  1.00  0.00    -0.338 N 
ATOM     32  H   UNL     1      26.870  21.421   7.644  1.00  0.00     0.168 HD
BRANCH  31  33
ATOM     33  C   UNL     1      28.367  22.073   9.026  1.00  0.00     0.050 A 
ATOM     34  C   UNL     1      29.518  21.481   9.579  1.00  0.00     0.027 A 
ATOM     35  C   UNL     1      28.288  23.484   8.936  1.00  0.00     0.035 A 
ATOM     36  C   UNL     1      30.577  22.273  10.029  1.00  0.00     0.002 A 
ATOM     37  C   UNL     1      29.363  24.264   9.394  1.00  0.00     0.014 A 
ATOM     38  C   UNL     1      30.500  23.661   9.935  1.00  0.00     0.001 A 
BRANCH  35  39
ATOM     39  P   UNL     1      26.860  24.298   8.179  1.00  0.00     0.111 P 
ATOM     40  C   UNL     1      27.382  25.858   7.405  1.00  0.00     0.087 C 
ATOM     41  C   UNL     1      25.563  24.684   9.393  1.00  0.00     0.087 C 
ATOM     42  O   UNL     1      26.260  23.397   7.120  1.00  0.00    -0.319 OA
ENDBRANCH  35  39
ENDBRANCH  31  33
ENDBRANCH   6  31
TORSDOF 8
ENDMDL
MODEL 10
REMARK VINA RESULT:    -8.241      2.222      3.726
REMARK INTER + INTRA:         -13.821
REMARK INTER:                 -12.313
REMARK INTRA:                  -1.508
REMARK UNBOUND:                -1.726
REMARK SMILES COc1cc(N2CCC(N3CCN(C)CC3)CC2)ccc1Nc1ncc(Cl)c(Nc2ccccc2P(C)(C)=O)n1
REMARK SMILES IDX 23 1 24 2 25 3 26 4 27 5 28 6 40 7 22 8 21 10 3 11 4 12 5 13
REMARK SMILES IDX 20 14 19 15 2 16 1 17 6 18 7 19 18 20 8 21 17 22 9 23 10 24
REMARK SMILES IDX 11 25 16 26 12 27 15 28 13 29 14 30 29 31 30 33 31 34 35 35
REMARK SMILES IDX 32 36 34 37 33 38 36 39 37 40 38 41 39 42
REMARK H PARENT 22 9 29 32
REMARK Flexibility Score: inf
ROOT
ATOM      1  C   UNL     1      24.035  19.957  11.700  1.00  0.00     0.229 A 
ATOM      2  N   UNL     1      22.974  20.465  11.018  1.00  0.00    -0.220 NA
ATOM      3  C   UNL     1      21.949  21.072  11.671  1.00  0.00     0.139 A 
ATOM      4  C   UNL     1      21.975  21.194  13.063  1.00  0.00     0.102 A 
ATOM      5  Cl  UNL     1      20.588  21.900  13.883  1.00  0.00    -0.079 Cl
ATOM      6  C   UNL     1      23.093  20.689  13.754  1.00  0.00     0.154 A 
ATOM      7  N   UNL     1      24.086  20.076  13.053  1.00  0.00    -0.194 NA
ENDROOT
BRANCH   1   8
ATOM      8  N   UNL     1      25.123  19.336  11.001  1.00  0.00    -0.321 N 
ATOM      9  H   UNL     1      25.218  18.298  11.082  1.00  0.00     0.170 HD
BRANCH   8  10
ATOM     10  C   UNL     1      26.080  20.059  10.206  1.00  0.00     0.084 A 
ATOM     11  C   UNL     1      26.277  19.708   8.856  1.00  0.00     0.144 A 
ATOM     12  C   UNL     1      27.175  20.458   8.068  1.00  0.00     0.074 A 
ATOM     13  C   UNL     1      27.864  21.549   8.614  1.00  0.00     0.040 A 
ATOM     14  C   UNL     1      26.771  21.159  10.742  1.00  0.00     0.032 A 
ATOM     15  C   UNL     1      27.659  21.894   9.955  1.00  0.00     0.028 A 
BRANCH  11  16
ATOM     16  O   UNL     1      25.572  18.610   8.336  1.00  0.00    -0.494 OA
ATOM     17  C   UNL     1      26.026  17.800   7.255  1.00  0.00     0.278 C 
ENDBRANCH  11  16
BRANCH  13  18
ATOM     18  N   UNL     1      28.734  22.338   7.787  1.00  0.00    -0.371 N 
ATOM     19  C   UNL     1      30.188  22.269   7.988  1.00  0.00     0.118 C 
ATOM     20  C   UNL     1      28.181  23.124   6.677  1.00  0.00     0.118 C 
ATOM     21  C   UNL     1      30.800  23.661   7.796  1.00  0.00     0.040 C 
ATOM     22  C   UNL     1      29.294  23.557   5.718  1.00  0.00     0.040 C 
ATOM     23  C   UNL     1      30.417  24.355   6.450  1.00  0.00     0.060 C 
BRANCH  23  24
ATOM     24  N   UNL     1      30.100  25.799   6.709  1.00  0.00    -0.298 NA
ATOM     25  C   UNL     1      31.181  26.729   6.306  1.00  0.00     0.100 C 
ATOM     26  C   UNL     1      29.801  25.986   8.152  1.00  0.00     0.100 C 
ATOM     27  C   UNL     1      30.831  28.193   6.637  1.00  0.00     0.099 C 
ATOM     28  C   UNL     1      29.425  27.440   8.465  1.00  0.00     0.099 C 
ATOM     29  N   UNL     1      30.475  28.387   8.052  1.00  0.00    -0.304 NA
ATOM     30  C   UNL     1      31.652  28.362   8.940  1.00  0.00     0.105 C 
ENDBRANCH  23  24
ENDBRANCH  13  18
ENDBRANCH   8  10
ENDBRANCH   1   8
BRANCH   6  31
ATOM     31  N   UNL     1      23.199  20.762  15.182  1.00  0.00    -0.338 N 
ATOM     32  H   UNL     1      22.444  21.275  15.688  1.00  0.00     0.168 HD
BRANCH  31  33
ATOM     33  C   UNL     1      24.097  19.944  15.953  1.00  0.00     0.050 A 
ATOM     34  C   UNL     1      25.431  20.353  16.132  1.00  0.00     0.027 A 
ATOM     35  C   UNL     1      23.666  18.716  16.513  1.00  0.00     0.035 A 
ATOM     36  C   UNL     1      26.323  19.564  16.861  1.00  0.00     0.002 A 
ATOM     37  C   UNL     1      24.578  17.936  17.243  1.00  0.00     0.014 A 
ATOM     38  C   UNL     1      25.898  18.358  17.417  1.00  0.00     0.001 A 
BRANCH  35  39
ATOM     39  P   UNL     1      21.948  18.168  16.367  1.00  0.00     0.111 P 
ATOM     40  C   UNL     1      20.848  19.378  17.161  1.00  0.00     0.087 C 
ATOM     41  C   UNL     1      21.669  16.556  17.159  1.00  0.00     0.087 C 
ATOM     42  O   UNL     1      21.574  18.045  14.905  1.00  0.00    -0.319 OA
ENDBRANCH  35  39
ENDBRANCH  31  33
ENDBRANCH   6  31
TORSDOF 8
ENDMDL
MODEL 11
REMARK VINA RESULT:    -8.209      4.515     12.825
REMARK INTER + INTRA:         -13.775
REMARK INTER:                 -13.053
REMARK INTRA:                  -0.722
REMARK UNBOUND:                -1.726
REMARK SMILES COc1cc(N2CCC(N3CCN(C)CC3)CC2)ccc1Nc1ncc(Cl)c(Nc2ccccc2P(C)(C)=O)n1
REMARK SMILES IDX 23 1 24 2 25 3 26 4 27 5 28 6 40 7 22 8 21 10 3 11 4 12 5 13
REMARK SMILES IDX 20 14 19 15 2 16 1 17 6 18 7 19 18 20 8 21 17 22 9 23 10 24
REMARK SMILES IDX 11 25 16 26 12 27 15 28 13 29 14 30 29 31 30 33 31 34 35 35
REMARK SMILES IDX 32 36 34 37 33 38 36 39 37 40 38 41 39 42
REMARK H PARENT 22 9 29 32
REMARK Flexibility Score: inf
ROOT
ATOM      1  C   UNL     1      28.888  23.088   6.762  1.00  0.00     0.229 A 
ATOM      2  N   UNL     1      28.567  24.409   6.802  1.00  0.00    -0.220 NA
ATOM      3  C   UNL     1      29.522  25.366   6.665  1.00  0.00     0.139 A 
ATOM      4  C   UNL     1      30.857  25.004   6.469  1.00  0.00     0.102 A 
ATOM      5  Cl  UNL     1      32.080  26.266   6.390  1.00  0.00    -0.079 Cl
ATOM      6  C   UNL     1      31.172  23.633   6.401  1.00  0.00     0.154 A 
ATOM      7  N   UNL     1      30.179  22.715   6.559  1.00  0.00    -0.194 NA
ENDROOT
BRANCH   1   8
ATOM      8  N   UNL     1      27.871  22.085   6.887  1.00  0.00    -0.321 N 
ATOM      9  H   UNL     1      27.663  21.501   6.044  1.00  0.00     0.170 HD
BRANCH   8  10
ATOM     10  C   UNL     1      27.127  21.845   8.095  1.00  0.00     0.084 A 
ATOM     11  C   UNL     1      27.238  20.603   8.751  1.00  0.00     0.144 A 
ATOM     12  C   UNL     1      26.551  20.396   9.965  1.00  0.00     0.074 A 
ATOM     13  C   UNL     1      25.767  21.414  10.525  1.00  0.00     0.040 A 
ATOM     14  C   UNL     1      26.343  22.862   8.668  1.00  0.00     0.032 A 
ATOM     15  C   UNL     1      25.666  22.647   9.869  1.00  0.00     0.028 A 
BRANCH  11  16
ATOM     16  O   UNL     1      28.031  19.602   8.168  1.00  0.00    -0.494 OA
ATOM     17  C   UNL     1      27.682  18.220   8.125  1.00  0.00     0.278 C 
ENDBRANCH  11  16
BRANCH  13  18
ATOM     18  N   UNL     1      25.116  21.210  11.788  1.00  0.00    -0.371 N 
ATOM     19  C   UNL     1      24.266  20.028  11.986  1.00  0.00     0.118 C 
ATOM     20  C   UNL     1      25.386  22.119  12.910  1.00  0.00     0.118 C 
ATOM     21  C   UNL     1      23.048  20.407  12.835  1.00  0.00     0.040 C 
ATOM     22  C   UNL     1      24.908  21.502  14.228  1.00  0.00     0.040 C 
ATOM     23  C   UNL     1      23.395  21.123  14.180  1.00  0.00     0.060 C 
BRANCH  23  24
ATOM     24  N   UNL     1      22.449  22.267  14.391  1.00  0.00    -0.298 NA
ATOM     25  C   UNL     1      22.644  22.975  15.678  1.00  0.00     0.100 C 
ATOM     26  C   UNL     1      21.051  21.772  14.308  1.00  0.00     0.100 C 
ATOM     27  C   UNL     1      21.617  24.108  15.871  1.00  0.00     0.099 C 
ATOM     28  C   UNL     1      20.038  22.913  14.472  1.00  0.00     0.099 C 
ATOM     29  N   UNL     1      20.227  23.646  15.735  1.00  0.00    -0.304 NA
ATOM     30  C   UNL     1      19.764  22.891  16.913  1.00  0.00     0.105 C 
ENDBRANCH  23  24
ENDBRANCH  13  18
ENDBRANCH   8  10
ENDBRANCH   1   8
BRANCH   6  31
ATOM     31  N   UNL     1      32.516  23.172   6.211  1.00  0.00    -0.338 N 
ATOM     32  H   UNL     1      32.854  22.418   6.849  1.00  0.00     0.168 HD
BRANCH  31  33
ATOM     33  C   UNL     1      33.297  23.468   5.039  1.00  0.00     0.050 A 
ATOM     34  C   UNL     1      34.251  24.501   5.082  1.00  0.00     0.027 A 
ATOM     35  C   UNL     1      33.102  22.753   3.832  1.00  0.00     0.035 A 
ATOM     36  C   UNL     1      35.007  24.817   3.951  1.00  0.00     0.002 A 
ATOM     37  C   UNL     1      33.871  23.086   2.704  1.00  0.00     0.014 A 
ATOM     38  C   UNL     1      34.818  24.110   2.765  1.00  0.00     0.001 A 
BRANCH  35  39
ATOM     39  P   UNL     1      31.934  21.376   3.734  1.00  0.00     0.111 P 
ATOM     40  C   UNL     1      32.425  20.249   2.394  1.00  0.00     0.087 C 
ATOM     41  C   UNL     1      30.236  21.934   3.400  1.00  0.00     0.087 C 
ATOM     42  O   UNL     1      31.929  20.615   5.043  1.00  0.00    -0.319 OA
ENDBRANCH  35  39
ENDBRANCH  31  33
ENDBRANCH   6  31
TORSDOF 8
ENDMDL
MODEL 12
REMARK VINA RESULT:    -8.017      3.041      4.947
REMARK INTER + INTRA:         -13.493
REMARK INTER:                 -11.678
REMARK INTRA:                  -1.814
REMARK UNBOUND:                -1.726
REMARK SMILES COc1cc(N2CCC(N3CCN(C)CC3)CC2)ccc1Nc1ncc(Cl)c(Nc2ccccc2P(C)(C)=O)n1
REMARK SMILES IDX 23 1 24 2 25 3 26 4 27 5 28 6 40 7 22 8 21 10 3 11 4 12 5 13
REMARK SMILES IDX 20 14 19 15 2 16 1 17 6 18 7 19 18 20 8 21 17 22 9 23 10 24
REMARK SMILES IDX 11 25 16 26 12 27 15 28 13 29 14 30 29 31 30 33 31 34 35 35
REMARK SMILES IDX 32 36 34 37 33 38 36 39 37 40 38 41 39 42
REMARK H PARENT 22 9 29 32
REMARK Flexibility Score: inf
ROOT
ATOM      1  C   UNL     1      24.233  20.460  11.254  1.00  0.00     0.229 A 
ATOM      2  N   UNL     1      23.465  19.642  12.022  1.00  0.00    -0.220 NA
ATOM      3  C   UNL     1      22.357  20.112  12.653  1.00  0.00     0.139 A 
ATOM      4  C   UNL     1      21.982  21.450  12.511  1.00  0.00     0.102 A 
ATOM      5  Cl  UNL     1      20.597  22.048  13.417  1.00  0.00    -0.079 Cl
ATOM      6  C   UNL     1      22.770  22.279  11.691  1.00  0.00     0.154 A 
ATOM      7  N   UNL     1      23.879  21.762  11.093  1.00  0.00    -0.194 NA
ENDROOT
BRANCH   1   8
ATOM      8  N   UNL     1      25.389  19.950  10.575  1.00  0.00    -0.321 N 
ATOM      9  H   UNL     1      25.476  18.912  10.483  1.00  0.00     0.170 HD
BRANCH   8  10
ATOM     10  C   UNL     1      26.426  20.783  10.024  1.00  0.00     0.084 A 
ATOM     11  C   UNL     1      26.860  20.576   8.699  1.00  0.00     0.144 A 
ATOM     12  C   UNL     1      27.835  21.433   8.148  1.00  0.00     0.074 A 
ATOM     13  C   UNL     1      28.368  22.487   8.901  1.00  0.00     0.040 A 
ATOM     14  C   UNL     1      26.962  21.847  10.769  1.00  0.00     0.032 A 
ATOM     15  C   UNL     1      27.927  22.688  10.215  1.00  0.00     0.028 A 
BRANCH  11  16
ATOM     16  O   UNL     1      26.308  19.512   7.968  1.00  0.00    -0.494 OA
ATOM     17  C   UNL     1      26.966  18.271   7.729  1.00  0.00     0.278 C 
ENDBRANCH  11  16
BRANCH  13  18
ATOM     18  N   UNL     1      29.320  23.385   8.310  1.00  0.00    -0.371 N 
ATOM     19  C   UNL     1      28.931  24.201   7.152  1.00  0.00     0.118 C 
ATOM     20  C   UNL     1      30.640  23.567   8.928  1.00  0.00     0.118 C 
ATOM     21  C   UNL     1      30.107  24.302   6.175  1.00  0.00     0.040 C 
ATOM     22  C   UNL     1      31.323  24.823   8.378  1.00  0.00     0.040 C 
ATOM     23  C   UNL     1      31.444  24.787   6.823  1.00  0.00     0.060 C 
BRANCH  23  24
ATOM     24  N   UNL     1      32.579  23.960   6.296  1.00  0.00    -0.298 NA
ATOM     25  C   UNL     1      33.441  24.675   5.327  1.00  0.00     0.100 C 
ATOM     26  C   UNL     1      32.039  22.730   5.661  1.00  0.00     0.100 C 
ATOM     27  C   UNL     1      34.560  23.770   4.777  1.00  0.00     0.099 C 
ATOM     28  C   UNL     1      33.163  21.822   5.144  1.00  0.00     0.099 C 
ATOM     29  N   UNL     1      34.047  22.519   4.195  1.00  0.00    -0.304 NA
ATOM     30  C   UNL     1      33.426  22.723   2.874  1.00  0.00     0.105 C 
ENDBRANCH  23  24
ENDBRANCH  13  18
ENDBRANCH   8  10
ENDBRANCH   1   8
BRANCH   6  31
ATOM     31  N   UNL     1      22.465  23.666  11.496  1.00  0.00    -0.338 N 
ATOM     32  H   UNL     1      21.463  23.948  11.577  1.00  0.00     0.168 HD
BRANCH  31  33
ATOM     33  C   UNL     1      23.461  24.705  11.491  1.00  0.00     0.050 A 
ATOM     34  C   UNL     1      24.311  24.848  10.379  1.00  0.00     0.027 A 
ATOM     35  C   UNL     1      23.620  25.569  12.601  1.00  0.00     0.035 A 
ATOM     36  C   UNL     1      25.297  25.837  10.362  1.00  0.00     0.002 A 
ATOM     37  C   UNL     1      24.618  26.558  12.566  1.00  0.00     0.014 A 
ATOM     38  C   UNL     1      25.450  26.691  11.452  1.00  0.00     0.001 A 
BRANCH  35  39
ATOM     39  P   UNL     1      22.518  25.472  14.033  1.00  0.00     0.111 P 
ATOM     40  C   UNL     1      22.634  27.006  15.002  1.00  0.00     0.087 C 
ATOM     41  C   UNL     1      22.936  24.086  15.132  1.00  0.00     0.087 C 
ATOM     42  O   UNL     1      21.089  25.289  13.567  1.00  0.00    -0.319 OA
ENDBRANCH  35  39
ENDBRANCH  31  33
ENDBRANCH   6  31
TORSDOF 8
ENDMDL
MODEL 13
REMARK VINA RESULT:    -7.977      9.311     13.870
REMARK INTER + INTRA:         -13.433
REMARK INTER:                 -11.896
REMARK INTRA:                  -1.537
REMARK UNBOUND:                -1.726
REMARK SMILES COc1cc(N2CCC(N3CCN(C)CC3)CC2)ccc1Nc1ncc(Cl)c(Nc2ccccc2P(C)(C)=O)n1
REMARK SMILES IDX 23 1 24 2 25 3 26 4 27 5 28 6 40 7 22 8 21 10 3 11 4 12 5 13
REMARK SMILES IDX 20 14 19 15 2 16 1 17 6 18 7 19 18 20 8 21 17 22 9 23 10 24
REMARK SMILES IDX 11 25 16 26 12 27 15 28 13 29 14 30 29 31 30 33 31 34 35 35
REMARK SMILES IDX 32 36 34 37 33 38 36 39 37 40 38 41 39 42
REMARK H PARENT 22 9 29 32
REMARK Flexibility Score: inf
ROOT
ATOM      1  C   UNL     1      31.275  26.898   6.487  1.00  0.00     0.229 A 
ATOM      2  N   UNL     1      30.179  26.577   7.224  1.00  0.00    -0.220 NA
ATOM      3  C   UNL     1      29.959  25.299   7.630  1.00  0.00     0.139 A 
ATOM      4  C   UNL     1      30.870  24.291   7.305  1.00  0.00     0.102 A 
ATOM      5  Cl  UNL     1      30.508  22.632   7.766  1.00  0.00    -0.079 Cl
ATOM      6  C   UNL     1      32.016  24.643   6.566  1.00  0.00     0.154 A 
ATOM      7  N   UNL     1      32.180  25.935   6.170  1.00  0.00    -0.194 NA
ENDROOT
BRANCH   1   8
ATOM      8  N   UNL     1      31.510  28.253   6.079  1.00  0.00    -0.321 N 
ATOM      9  H   UNL     1      30.848  28.669   5.384  1.00  0.00     0.170 HD
BRANCH   8  10
ATOM     10  C   UNL     1      32.596  29.060   6.569  1.00  0.00     0.084 A 
ATOM     11  C   UNL     1      32.453  29.767   7.780  1.00  0.00     0.144 A 
ATOM     12  C   UNL     1      33.542  30.509   8.282  1.00  0.00     0.074 A 
ATOM     13  C   UNL     1      34.761  30.544   7.593  1.00  0.00     0.040 A 
ATOM     14  C   UNL     1      33.825  29.096   5.889  1.00  0.00     0.032 A 
ATOM     15  C   UNL     1      34.896  29.834   6.393  1.00  0.00     0.028 A 
BRANCH  11  16
ATOM     16  O   UNL     1      31.220  29.714   8.449  1.00  0.00    -0.494 OA
ATOM     17  C   UNL     1      30.214  30.721   8.367  1.00  0.00     0.278 C 
ENDBRANCH  11  16
BRANCH  13  18
ATOM     18  N   UNL     1      35.879  31.259   8.142  1.00  0.00    -0.371 N 
ATOM     19  C   UNL     1      36.736  32.060   7.257  1.00  0.00     0.118 C 
ATOM     20  C   UNL     1      36.098  31.278   9.594  1.00  0.00     0.118 C 
ATOM     21  C   UNL     1      38.197  31.935   7.705  1.00  0.00     0.040 C 
ATOM     22  C   UNL     1      37.081  32.389   9.974  1.00  0.00     0.040 C 
ATOM     23  C   UNL     1      38.438  32.253   9.216  1.00  0.00     0.060 C 
BRANCH  23  24
ATOM     24  N   UNL     1      39.385  31.240   9.790  1.00  0.00    -0.298 NA
ATOM     25  C   UNL     1      39.043  30.817  11.168  1.00  0.00     0.100 C 
ATOM     26  C   UNL     1      40.764  31.791   9.770  1.00  0.00     0.100 C 
ATOM     27  C   UNL     1      40.072  29.817  11.732  1.00  0.00     0.099 C 
ATOM     28  C   UNL     1      41.783  30.776  10.307  1.00  0.00     0.099 C 
ATOM     29  N   UNL     1      41.452  30.323  11.668  1.00  0.00    -0.304 NA
ATOM     30  C   UNL     1      41.730  31.342  12.696  1.00  0.00     0.105 C 
ENDBRANCH  23  24
ENDBRANCH  13  18
ENDBRANCH   8  10
ENDBRANCH   1   8
BRANCH   6  31
ATOM     31  N   UNL     1      32.998  23.672   6.180  1.00  0.00    -0.338 N 
ATOM     32  H   UNL     1      33.065  22.807   6.761  1.00  0.00     0.168 HD
BRANCH  31  33
ATOM     33  C   UNL     1      33.670  23.687   4.908  1.00  0.00     0.050 A 
ATOM     34  C   UNL     1      34.723  24.593   4.687  1.00  0.00     0.027 A 
ATOM     35  C   UNL     1      33.270  22.820   3.861  1.00  0.00     0.035 A 
ATOM     36  C   UNL     1      35.376  24.637   3.453  1.00  0.00     0.002 A 
ATOM     37  C   UNL     1      33.938  22.879   2.627  1.00  0.00     0.014 A 
ATOM     38  C   UNL     1      34.985  23.781   2.426  1.00  0.00     0.001 A 
BRANCH  35  39
ATOM     39  P   UNL     1      31.964  21.593   4.105  1.00  0.00     0.111 P 
ATOM     40  C   UNL     1      31.957  20.419   2.716  1.00  0.00     0.087 C 
ATOM     41  C   UNL     1      30.315  22.351   4.203  1.00  0.00     0.087 C 
ATOM     42  O   UNL     1      32.210  20.833   5.392  1.00  0.00    -0.319 OA
ENDBRANCH  35  39
ENDBRANCH  31  33
ENDBRANCH   6  31
TORSDOF 8
ENDMDL
MODEL 14
REMARK VINA RESULT:    -7.877      9.139     13.652
REMARK INTER + INTRA:         -13.287
REMARK INTER:                 -11.555
REMARK INTRA:                  -1.733
REMARK UNBOUND:                -1.726
REMARK SMILES COc1cc(N2CCC(N3CCN(C)CC3)CC2)ccc1Nc1ncc(Cl)c(Nc2ccccc2P(C)(C)=O)n1
REMARK SMILES IDX 23 1 24 2 25 3 26 4 27 5 28 6 40 7 22 8 21 10 3 11 4 12 5 13
REMARK SMILES IDX 20 14 19 15 2 16 1 17 6 18 7 19 18 20 8 21 17 22 9 23 10 24
REMARK SMILES IDX 11 25 16 26 12 27 15 28 13 29 14 30 29 31 30 33 31 34 35 35
REMARK SMILES IDX 32 36 34 37 33 38 36 39 37 40 38 41 39 42
REMARK H PARENT 22 9 29 32
REMARK Flexibility Score: inf
ROOT
ATOM      1  C   UNL     1      30.838  26.821   6.394  1.00  0.00     0.229 A 
ATOM      2  N   UNL     1      29.735  26.451   7.098  1.00  0.00    -0.220 NA
ATOM      3  C   UNL     1      29.591  25.179   7.554  1.00  0.00     0.139 A 
ATOM      4  C   UNL     1      30.587  24.229   7.316  1.00  0.00     0.102 A 
ATOM      5  Cl  UNL     1      30.325  22.569   7.838  1.00  0.00    -0.079 Cl
ATOM      6  C   UNL     1      31.736  24.633   6.610  1.00  0.00     0.154 A 
ATOM      7  N   UNL     1      31.824  25.915   6.161  1.00  0.00    -0.194 NA
ENDROOT
BRANCH   1   8
ATOM      8  N   UNL     1      30.992  28.170   5.933  1.00  0.00    -0.321 N 
ATOM      9  H   UNL     1      30.213  28.578   5.366  1.00  0.00     0.170 HD
BRANCH   8  10
ATOM     10  C   UNL     1      32.149  28.982   6.205  1.00  0.00     0.084 A 
ATOM     11  C   UNL     1      32.179  29.795   7.356  1.00  0.00     0.144 A 
ATOM     12  C   UNL     1      33.339  30.543   7.646  1.00  0.00     0.074 A 
ATOM     13  C   UNL     1      34.458  30.480   6.805  1.00  0.00     0.040 A 
ATOM     14  C   UNL     1      33.279  28.921   5.372  1.00  0.00     0.032 A 
ATOM     15  C   UNL     1      34.421  29.666   5.666  1.00  0.00     0.028 A 
BRANCH  11  16
ATOM     16  O   UNL     1      31.043  29.838   8.180  1.00  0.00    -0.494 OA
ATOM     17  C   UNL     1      30.177  30.964   8.301  1.00  0.00     0.278 C 
ENDBRANCH  11  16
BRANCH  13  18
ATOM     18  N   UNL     1      35.652  31.205   7.139  1.00  0.00    -0.371 N 
ATOM     19  C   UNL     1      35.659  32.672   7.059  1.00  0.00     0.118 C 
ATOM     20  C   UNL     1      36.823  30.490   7.663  1.00  0.00     0.118 C 
ATOM     21  C   UNL     1      37.015  33.151   6.529  1.00  0.00     0.040 C 
ATOM     22  C   UNL     1      37.809  31.472   8.303  1.00  0.00     0.040 C 
ATOM     23  C   UNL     1      38.248  32.591   7.309  1.00  0.00     0.060 C 
BRANCH  23  24
ATOM     24  N   UNL     1      39.312  32.186   6.331  1.00  0.00    -0.298 NA
ATOM     25  C   UNL     1      40.676  32.159   6.908  1.00  0.00     0.100 C 
ATOM     26  C   UNL     1      39.287  33.109   5.167  1.00  0.00     0.100 C 
ATOM     27  C   UNL     1      41.737  31.788   5.854  1.00  0.00     0.099 C 
ATOM     28  C   UNL     1      40.327  32.713   4.111  1.00  0.00     0.099 C 
ATOM     29  N   UNL     1      41.690  32.657   4.668  1.00  0.00    -0.304 NA
ATOM     30  C   UNL     1      42.263  33.991   4.920  1.00  0.00     0.105 C 
ENDBRANCH  23  24
ENDBRANCH  13  18
ENDBRANCH   8  10
ENDBRANCH   1   8
BRANCH   6  31
ATOM     31  N   UNL     1      32.803  23.722   6.312  1.00  0.00    -0.338 N 
ATOM     32  H   UNL     1      32.884  22.872   6.913  1.00  0.00     0.168 HD
BRANCH  31  33
ATOM     33  C   UNL     1      33.559  23.760   5.088  1.00  0.00     0.050 A 
ATOM     34  C   UNL     1      34.600  24.694   4.942  1.00  0.00     0.027 A 
ATOM     35  C   UNL     1      33.253  22.888   4.014  1.00  0.00     0.035 A 
ATOM     36  C   UNL     1      35.334  24.760   3.755  1.00  0.00     0.002 A 
ATOM     37  C   UNL     1      34.002  22.970   2.828  1.00  0.00     0.014 A 
ATOM     38  C   UNL     1      35.036  23.899   2.701  1.00  0.00     0.001 A 
BRANCH  35  39
ATOM     39  P   UNL     1      31.966  21.626   4.165  1.00  0.00     0.111 P 
ATOM     40  C   UNL     1      32.064  20.477   2.760  1.00  0.00     0.087 C 
ATOM     41  C   UNL     1      30.296  22.343   4.185  1.00  0.00     0.087 C 
ATOM     42  O   UNL     1      32.160  20.850   5.452  1.00  0.00    -0.319 OA
ENDBRANCH  35  39
ENDBRANCH  31  33
ENDBRANCH   6  31
TORSDOF 8
ENDMDL
MODEL 15
REMARK VINA RESULT:    -7.857      1.643      2.397
REMARK INTER + INTRA:         -13.257
REMARK INTER:                 -12.579
REMARK INTRA:                  -0.678
REMARK UNBOUND:                -1.726
REMARK SMILES COc1cc(N2CCC(N3CCN(C)CC3)CC2)ccc1Nc1ncc(Cl)c(Nc2ccccc2P(C)(C)=O)n1
REMARK SMILES IDX 23 1 24 2 25 3 26 4 27 5 28 6 40 7 22 8 21 10 3 11 4 12 5 13
REMARK SMILES IDX 20 14 19 15 2 16 1 17 6 18 7 19 18 20 8 21 17 22 9 23 10 24
REMARK SMILES IDX 11 25 16 26 12 27 15 28 13 29 14 30 29 31 30 33 31 34 35 35
REMARK SMILES IDX 32 36 34 37 33 38 36 39 37 40 38 41 39 42
REMARK H PARENT 22 9 29 32
REMARK Flexibility Score: inf
ROOT
ATOM      1  C   UNL     1      24.436  19.870  11.445  1.00  0.00     0.229 A 
ATOM      2  N   UNL     1      23.412  20.457  10.769  1.00  0.00    -0.220 NA
ATOM      3  C   UNL     1      22.286  20.859  11.415  1.00  0.00     0.139 A 
ATOM      4  C   UNL     1      22.168  20.685  12.796  1.00  0.00     0.102 A 
ATOM      5  Cl  UNL     1      20.660  21.129  13.586  1.00  0.00    -0.079 Cl
ATOM      6  C   UNL     1      23.247  20.102  13.488  1.00  0.00     0.154 A 
ATOM      7  N   UNL     1      24.346  19.703  12.790  1.00  0.00    -0.194 NA
ENDROOT
BRANCH   1   8
ATOM      8  N   UNL     1      25.629  19.468  10.758  1.00  0.00    -0.321 N 
ATOM      9  H   UNL     1      25.788  18.443  10.628  1.00  0.00     0.170 HD
BRANCH   8  10
ATOM     10  C   UNL     1      26.608  20.391  10.246  1.00  0.00     0.084 A 
ATOM     11  C   UNL     1      27.521  19.967   9.260  1.00  0.00     0.144 A 
ATOM     12  C   UNL     1      28.439  20.893   8.723  1.00  0.00     0.074 A 
ATOM     13  C   UNL     1      28.446  22.226   9.155  1.00  0.00     0.040 A 
ATOM     14  C   UNL     1      26.618  21.731  10.668  1.00  0.00     0.032 A 
ATOM     15  C   UNL     1      27.532  22.639  10.131  1.00  0.00     0.028 A 
BRANCH  11  16
ATOM     16  O   UNL     1      27.491  18.626   8.846  1.00  0.00    -0.494 OA
ATOM     17  C   UNL     1      26.856  18.163   7.657  1.00  0.00     0.278 C 
ENDBRANCH  11  16
BRANCH  13  18
ATOM     18  N   UNL     1      29.349  23.171   8.561  1.00  0.00    -0.371 N 
ATOM     19  C   UNL     1      28.904  23.990   7.426  1.00  0.00     0.118 C 
ATOM     20  C   UNL     1      30.674  23.395   9.156  1.00  0.00     0.118 C 
ATOM     21  C   UNL     1      30.055  24.155   6.428  1.00  0.00     0.040 C 
ATOM     22  C   UNL     1      31.294  24.687   8.614  1.00  0.00     0.040 C 
ATOM     23  C   UNL     1      31.385  24.682   7.057  1.00  0.00     0.060 C 
BRANCH  23  24
ATOM     24  N   UNL     1      32.541  23.910   6.493  1.00  0.00    -0.298 NA
ATOM     25  C   UNL     1      33.327  24.661   5.486  1.00  0.00     0.100 C 
ATOM     26  C   UNL     1      32.042  22.648   5.888  1.00  0.00     0.100 C 
ATOM     27  C   UNL     1      34.470  23.810   4.901  1.00  0.00     0.099 C 
ATOM     28  C   UNL     1      33.191  21.796   5.335  1.00  0.00     0.099 C 
ATOM     29  N   UNL     1      34.002  22.529   4.348  1.00  0.00    -0.304 NA
ATOM     30  C   UNL     1      33.321  22.688   3.050  1.00  0.00     0.105 C 
ENDBRANCH  23  24
ENDBRANCH  13  18
ENDBRANCH   8  10
ENDBRANCH   1   8
BRANCH   6  31
ATOM     31  N   UNL     1      23.208  19.877  14.903  1.00  0.00    -0.338 N 
ATOM     32  H   UNL     1      23.968  19.289  15.312  1.00  0.00     0.168 HD
BRANCH  31  33
ATOM     33  C   UNL     1      22.380  20.635  15.804  1.00  0.00     0.050 A 
ATOM     34  C   UNL     1      22.561  22.025  15.913  1.00  0.00     0.027 A 
ATOM     35  C   UNL     1      21.401  19.998  16.606  1.00  0.00     0.035 A 
ATOM     36  C   UNL     1      21.781  22.776  16.795  1.00  0.00     0.002 A 
ATOM     37  C   UNL     1      20.626  20.769  17.488  1.00  0.00     0.014 A 
ATOM     38  C   UNL     1      20.814  22.150  17.580  1.00  0.00     0.001 A 
BRANCH  35  39
ATOM     39  P   UNL     1      21.082  18.223  16.466  1.00  0.00     0.111 P 
ATOM     40  C   UNL     1      20.463  17.840  14.800  1.00  0.00     0.087 C 
ATOM     41  C   UNL     1      19.844  17.648  17.667  1.00  0.00     0.087 C 
ATOM     42  O   UNL     1      22.364  17.452  16.706  1.00  0.00    -0.319 OA
ENDBRANCH  35  39
ENDBRANCH  31  33
ENDBRANCH   6  31
TORSDOF 8
ENDMDL
