MODEL 1
REMARK VINA RESULT:   -10.144      0.000      0.000
REMARK INTER + INTRA:         -15.155
REMARK INTER:                 -14.295
REMARK INTRA:                  -0.860
REMARK UNBOUND:                -0.860
REMARK SMILES CCN1CCN(Cc2ccc(Nc3ncc(F)c(-c4cc(F)c5nc(C)n(C(C)C)c5c4)n3)nc2)CC1
REMARK SMILES IDX 8 1 9 2 10 3 11 4 34 5 35 6 7 7 6 8 3 9 4 10 37 11 5 12
REMARK SMILES IDX 36 13 2 14 1 15 12 16 13 18 14 19 33 20 15 21 18 22 16 23
REMARK SMILES IDX 17 24 19 25 20 26 32 27 21 28 31 29 22 30 23 31 27 32 24 33
REMARK SMILES IDX 25 34 26 35 28 36 29 37 30 38
REMARK H PARENT 12 17
REMARK Flexibility Score: inf
ROOT
ATOM      1  C   UNL     1     -72.897 -16.678  85.900  1.00  0.00    -0.015 A 
ATOM      2  C   UNL     1     -72.924 -18.002  85.442  1.00  0.00     0.010 A 
ATOM      3  C   UNL     1     -73.762 -18.360  84.380  1.00  0.00     0.047 A 
ATOM      4  C   UNL     1     -74.604 -17.390  83.808  1.00  0.00     0.132 A 
ATOM      5  N   UNL     1     -74.539 -16.106  84.258  1.00  0.00    -0.239 NA
ATOM      6  C   UNL     1     -73.721 -15.733  85.276  1.00  0.00     0.118 A 
ENDROOT
BRANCH   1   7
ATOM      7  C   UNL     1     -72.131 -16.308  87.136  1.00  0.00     0.121 C 
BRANCH   7   8
ATOM      8  N   UNL     1     -73.103 -15.958  88.195  1.00  0.00    -0.296 NA
ATOM      9  N   UNL     1     -73.280 -15.100  91.038  1.00  0.00    -0.301 NA
ATOM     10  C   UNL     1     -72.579 -16.343  90.614  1.00  0.00     0.100 C 
ATOM     11  C   UNL     1     -73.831 -14.326  89.893  1.00  0.00     0.100 C 
ATOM     12  C   UNL     1     -73.166 -16.927  89.317  1.00  0.00     0.100 C 
ATOM     13  C   UNL     1     -73.010 -14.546  88.619  1.00  0.00     0.100 C 
BRANCH   9  14
ATOM     14  C   UNL     1     -74.327 -15.393  92.042  1.00  0.00     0.081 C 
ATOM     15  C   UNL     1     -75.719 -15.446  91.410  1.00  0.00     0.021 C 
ENDBRANCH   9  14
ENDBRANCH   7   8
ENDBRANCH   1   7
BRANCH   4  16
ATOM     16  N   UNL     1     -75.505 -17.697  82.733  1.00  0.00    -0.309 N 
ATOM     17  H   UNL     1     -75.171 -17.490  81.761  1.00  0.00     0.171 HD
BRANCH  16  18
ATOM     18  C   UNL     1     -76.896 -18.011  82.886  1.00  0.00     0.229 A 
ATOM     19  N   UNL     1     -77.796 -17.752  81.898  1.00  0.00    -0.218 NA
ATOM     20  N   UNL     1     -77.318 -18.606  84.033  1.00  0.00    -0.210 NA
ATOM     21  C   UNL     1     -79.110 -18.052  82.050  1.00  0.00     0.156 A 
ATOM     22  C   UNL     1     -78.622 -18.944  84.234  1.00  0.00     0.112 A 
ATOM     23  C   UNL     1     -79.561 -18.647  83.228  1.00  0.00     0.167 A 
ATOM     24  F   UNL     1     -80.888 -18.860  83.395  1.00  0.00    -0.203 F 
BRANCH  22  25
ATOM     25  C   UNL     1     -79.002 -19.579  85.523  1.00  0.00     0.008 A 
ATOM     26  C   UNL     1     -78.057 -19.613  86.584  1.00  0.00     0.052 A 
ATOM     27  C   UNL     1     -80.269 -20.189  85.705  1.00  0.00     0.039 A 
ATOM     28  C   UNL     1     -78.373 -20.217  87.813  1.00  0.00     0.151 A 
ATOM     29  C   UNL     1     -80.547 -20.785  86.943  1.00  0.00     0.072 A 
ATOM     30  F   UNL     1     -77.480 -20.234  88.833  1.00  0.00    -0.205 F 
ATOM     31  C   UNL     1     -79.634 -20.785  87.954  1.00  0.00     0.124 A 
ATOM     32  N   UNL     1     -81.684 -21.379  87.370  1.00  0.00    -0.326 N 
ATOM     33  N   UNL     1     -80.147 -21.350  89.057  1.00  0.00    -0.230 NA
ATOM     34  C   UNL     1     -81.405 -21.689  88.675  1.00  0.00     0.107 A 
ATOM     35  C   UNL     1     -82.363 -22.314  89.643  1.00  0.00     0.088 C 
BRANCH  32  36
ATOM     36  C   UNL     1     -82.952 -21.478  86.617  1.00  0.00     0.083 C 
ATOM     37  C   UNL     1     -83.391 -22.929  86.376  1.00  0.00     0.031 C 
ATOM     38  C   UNL     1     -84.045 -20.664  87.310  1.00  0.00     0.031 C 
ENDBRANCH  32  36
ENDBRANCH  22  25
ENDBRANCH  16  18
ENDBRANCH   4  16
TORSDOF 7
ENDMDL
MODEL 2
REMARK VINA RESULT:    -9.640      3.516      6.419
REMARK INTER + INTRA:         -14.445
REMARK INTER:                 -13.938
REMARK INTRA:                  -0.507
REMARK UNBOUND:                -0.860
REMARK SMILES CCN1CCN(Cc2ccc(Nc3ncc(F)c(-c4cc(F)c5nc(C)n(C(C)C)c5c4)n3)nc2)CC1
REMARK SMILES IDX 8 1 9 2 10 3 11 4 34 5 35 6 7 7 6 8 3 9 4 10 37 11 5 12
REMARK SMILES IDX 36 13 2 14 1 15 12 16 13 18 14 19 33 20 15 21 18 22 16 23
REMARK SMILES IDX 17 24 19 25 20 26 32 27 21 28 31 29 22 30 23 31 27 32 24 33
REMARK SMILES IDX 25 34 26 35 28 36 29 37 30 38
REMARK H PARENT 12 17
REMARK Flexibility Score: inf
ROOT
ATOM      1  C   UNL     1     -74.791 -15.968  93.841  1.00  0.00    -0.015 A 
ATOM      2  C   UNL     1     -76.071 -15.728  93.321  1.00  0.00     0.010 A 
ATOM      3  C   UNL     1     -76.229 -15.395  91.972  1.00  0.00     0.047 A 
ATOM      4  C   UNL     1     -75.092 -15.264  91.156  1.00  0.00     0.132 A 
ATOM      5  N   UNL     1     -73.863 -15.527  91.681  1.00  0.00    -0.239 NA
ATOM      6  C   UNL     1     -73.687 -15.868  92.984  1.00  0.00     0.118 A 
ENDROOT
BRANCH   1   7
ATOM      7  C   UNL     1     -74.584 -16.167  95.313  1.00  0.00     0.121 C 
BRANCH   7   8
ATOM      8  N   UNL     1     -74.679 -14.848  95.976  1.00  0.00    -0.296 NA
ATOM      9  N   UNL     1     -74.126 -13.459  98.547  1.00  0.00    -0.301 NA
ATOM     10  C   UNL     1     -75.001 -14.661  98.453  1.00  0.00     0.100 C 
ATOM     11  C   UNL     1     -73.535 -13.068  97.240  1.00  0.00     0.100 C 
ATOM     12  C   UNL     1     -75.674 -14.781  97.075  1.00  0.00     0.100 C 
ATOM     13  C   UNL     1     -73.360 -14.279  96.318  1.00  0.00     0.100 C 
BRANCH   9  14
ATOM     14  C   UNL     1     -74.843 -12.326  99.174  1.00  0.00     0.081 C 
ATOM     15  C   UNL     1     -73.925 -11.120  99.382  1.00  0.00     0.021 C 
ENDBRANCH   9  14
ENDBRANCH   7   8
ENDBRANCH   1   7
BRANCH   4  16
ATOM     16  N   UNL     1     -75.184 -14.901  89.769  1.00  0.00    -0.309 N 
ATOM     17  H   UNL     1     -75.623 -13.976  89.550  1.00  0.00     0.171 HD
BRANCH  16  18
ATOM     18  C   UNL     1     -74.971 -15.795  88.667  1.00  0.00     0.229 A 
ATOM     19  N   UNL     1     -73.739 -15.955  88.111  1.00  0.00    -0.218 NA
ATOM     20  N   UNL     1     -76.018 -16.516  88.188  1.00  0.00    -0.210 NA
ATOM     21  C   UNL     1     -73.544 -16.803  87.071  1.00  0.00     0.156 A 
ATOM     22  C   UNL     1     -75.878 -17.393  87.155  1.00  0.00     0.112 A 
ATOM     23  C   UNL     1     -74.612 -17.537  86.556  1.00  0.00     0.167 A 
ATOM     24  F   UNL     1     -74.416 -18.312  85.463  1.00  0.00    -0.203 F 
BRANCH  22  25
ATOM     25  C   UNL     1     -77.078 -18.132  86.682  1.00  0.00     0.008 A 
ATOM     26  C   UNL     1     -77.636 -17.812  85.415  1.00  0.00     0.052 A 
ATOM     27  C   UNL     1     -77.705 -19.120  87.485  1.00  0.00     0.039 A 
ATOM     28  C   UNL     1     -78.777 -18.478  84.940  1.00  0.00     0.151 A 
ATOM     29  C   UNL     1     -78.844 -19.760  86.979  1.00  0.00     0.072 A 
ATOM     30  F   UNL     1     -79.300 -18.188  83.722  1.00  0.00    -0.205 F 
ATOM     31  C   UNL     1     -79.347 -19.453  85.750  1.00  0.00     0.124 A 
ATOM     32  N   UNL     1     -79.580 -20.754  87.525  1.00  0.00    -0.326 N 
ATOM     33  N   UNL     1     -80.393 -20.239  85.456  1.00  0.00    -0.230 NA
ATOM     34  C   UNL     1     -80.503 -21.033  86.551  1.00  0.00     0.107 A 
ATOM     35  C   UNL     1     -81.536 -22.117  86.619  1.00  0.00     0.088 C 
BRANCH  32  36
ATOM     36  C   UNL     1     -79.295 -21.452  88.796  1.00  0.00     0.083 C 
ATOM     37  C   UNL     1     -77.839 -21.292  89.252  1.00  0.00     0.031 C 
ATOM     38  C   UNL     1     -80.280 -21.007  89.878  1.00  0.00     0.031 C 
ENDBRANCH  32  36
ENDBRANCH  22  25
ENDBRANCH  16  18
ENDBRANCH   4  16
TORSDOF 7
ENDMDL
MODEL 3
REMARK VINA RESULT:    -9.388      2.551      9.133
REMARK INTER + INTRA:         -14.090
REMARK INTER:                 -13.215
REMARK INTRA:                  -0.875
REMARK UNBOUND:                -0.860
REMARK SMILES CCN1CCN(Cc2ccc(Nc3ncc(F)c(-c4cc(F)c5nc(C)n(C(C)C)c5c4)n3)nc2)CC1
REMARK SMILES IDX 8 1 9 2 10 3 11 4 34 5 35 6 7 7 6 8 3 9 4 10 37 11 5 12
REMARK SMILES IDX 36 13 2 14 1 15 12 16 13 18 14 19 33 20 15 21 18 22 16 23
REMARK SMILES IDX 17 24 19 25 20 26 32 27 21 28 31 29 22 30 23 31 27 32 24 33
REMARK SMILES IDX 25 34 26 35 28 36 29 37 30 38
REMARK H PARENT 12 17
REMARK Flexibility Score: inf
ROOT
ATOM      1  C   UNL     1     -79.338 -19.997  85.862  1.00  0.00    -0.015 A 
ATOM      2  C   UNL     1     -78.328 -19.564  86.731  1.00  0.00     0.010 A 
ATOM      3  C   UNL     1     -77.495 -18.501  86.364  1.00  0.00     0.047 A 
ATOM      4  C   UNL     1     -77.655 -17.903  85.102  1.00  0.00     0.132 A 
ATOM      5  N   UNL     1     -78.661 -18.329  84.288  1.00  0.00    -0.239 NA
ATOM      6  C   UNL     1     -79.492 -19.347  84.631  1.00  0.00     0.118 A 
ENDROOT
BRANCH   1   7
ATOM      7  C   UNL     1     -80.134 -21.233  86.164  1.00  0.00     0.121 C 
BRANCH   7   8
ATOM      8  N   UNL     1     -81.335 -20.833  86.930  1.00  0.00    -0.296 NA
ATOM      9  N   UNL     1     -83.764 -21.937  88.246  1.00  0.00    -0.301 NA
ATOM     10  C   UNL     1     -83.454 -22.165  86.808  1.00  0.00     0.100 C 
ATOM     11  C   UNL     1     -82.716 -21.148  88.948  1.00  0.00     0.100 C 
ATOM     12  C   UNL     1     -82.617 -21.021  86.207  1.00  0.00     0.100 C 
ATOM     13  C   UNL     1     -81.337 -21.354  88.311  1.00  0.00     0.100 C 
BRANCH   9  14
ATOM     14  C   UNL     1     -85.100 -21.324  88.412  1.00  0.00     0.081 C 
ATOM     15  C   UNL     1     -85.002 -19.854  88.824  1.00  0.00     0.021 C 
ENDBRANCH   9  14
ENDBRANCH   7   8
ENDBRANCH   1   7
BRANCH   4  16
ATOM     16  N   UNL     1     -76.818 -16.825  84.655  1.00  0.00    -0.309 N 
ATOM     17  H   UNL     1     -77.234 -16.159  83.961  1.00  0.00     0.171 HD
BRANCH  16  18
ATOM     18  C   UNL     1     -75.403 -16.736  84.871  1.00  0.00     0.229 A 
ATOM     19  N   UNL     1     -74.514 -17.150  83.927  1.00  0.00    -0.218 NA
ATOM     20  N   UNL     1     -74.943 -16.199  86.031  1.00  0.00    -0.210 NA
ATOM     21  C   UNL     1     -73.176 -17.062  84.137  1.00  0.00     0.156 A 
ATOM     22  C   UNL     1     -73.611 -16.072  86.290  1.00  0.00     0.112 A 
ATOM     23  C   UNL     1     -72.689 -16.531  85.330  1.00  0.00     0.167 A 
ATOM     24  F   UNL     1     -71.353 -16.530  85.557  1.00  0.00    -0.203 F 
BRANCH  22  25
ATOM     25  C   UNL     1     -73.192 -15.487  87.590  1.00  0.00     0.008 A 
ATOM     26  C   UNL     1     -72.166 -14.504  87.610  1.00  0.00     0.052 A 
ATOM     27  C   UNL     1     -73.761 -15.918  88.816  1.00  0.00     0.039 A 
ATOM     28  C   UNL     1     -71.732 -13.938  88.820  1.00  0.00     0.151 A 
ATOM     29  C   UNL     1     -73.300 -15.334  90.003  1.00  0.00     0.072 A 
ATOM     30  F   UNL     1     -70.767 -12.985  88.840  1.00  0.00    -0.205 F 
ATOM     31  C   UNL     1     -72.331 -14.375  89.996  1.00  0.00     0.124 A 
ATOM     32  N   UNL     1     -73.713 -15.539  91.274  1.00  0.00    -0.326 N 
ATOM     33  N   UNL     1     -72.105 -13.920  91.237  1.00  0.00    -0.230 NA
ATOM     34  C   UNL     1     -72.973 -14.637  91.994  1.00  0.00     0.107 A 
ATOM     35  C   UNL     1     -73.089 -14.400  93.469  1.00  0.00     0.088 C 
BRANCH  32  36
ATOM     36  C   UNL     1     -74.828 -16.411  91.699  1.00  0.00     0.083 C 
ATOM     37  C   UNL     1     -74.431 -17.386  92.815  1.00  0.00     0.031 C 
ATOM     38  C   UNL     1     -76.042 -15.568  92.088  1.00  0.00     0.031 C 
ENDBRANCH  32  36
ENDBRANCH  22  25
ENDBRANCH  16  18
ENDBRANCH   4  16
TORSDOF 7
ENDMDL
MODEL 4
REMARK VINA RESULT:    -9.384      1.595      2.870
REMARK INTER + INTRA:         -14.083
REMARK INTER:                 -13.248
REMARK INTRA:                  -0.835
REMARK UNBOUND:                -0.860
REMARK SMILES CCN1CCN(Cc2ccc(Nc3ncc(F)c(-c4cc(F)c5nc(C)n(C(C)C)c5c4)n3)nc2)CC1
REMARK SMILES IDX 8 1 9 2 10 3 11 4 34 5 35 6 7 7 6 8 3 9 4 10 37 11 5 12
REMARK SMILES IDX 36 13 2 14 1 15 12 16 13 18 14 19 33 20 15 21 18 22 16 23
REMARK SMILES IDX 17 24 19 25 20 26 32 27 21 28 31 29 22 30 23 31 27 32 24 33
REMARK SMILES IDX 25 34 26 35 28 36 29 37 30 38
REMARK H PARENT 12 17
REMARK Flexibility Score: inf
ROOT
ATOM      1  C   UNL     1     -73.318 -16.962  85.025  1.00  0.00    -0.015 A 
ATOM      2  C   UNL     1     -73.108 -17.936  84.039  1.00  0.00     0.010 A 
ATOM      3  C   UNL     1     -74.092 -18.181  83.075  1.00  0.00     0.047 A 
ATOM      4  C   UNL     1     -75.304 -17.471  83.130  1.00  0.00     0.132 A 
ATOM      5  N   UNL     1     -75.471 -16.514  84.084  1.00  0.00    -0.239 NA
ATOM      6  C   UNL     1     -74.523 -16.248  85.020  1.00  0.00     0.118 A 
ENDROOT
BRANCH   1   7
ATOM      7  C   UNL     1     -72.351 -16.797  86.160  1.00  0.00     0.121 C 
BRANCH   7   8
ATOM      8  N   UNL     1     -73.123 -16.487  87.384  1.00  0.00    -0.296 NA
ATOM      9  N   UNL     1     -72.811 -15.960  90.295  1.00  0.00    -0.301 NA
ATOM     10  C   UNL     1     -72.315 -17.204  89.644  1.00  0.00     0.100 C 
ATOM     11  C   UNL     1     -73.428 -15.008  89.332  1.00  0.00     0.100 C 
ATOM     12  C   UNL     1     -73.136 -17.572  88.396  1.00  0.00     0.100 C 
ATOM     13  C   UNL     1     -72.819 -15.150  87.933  1.00  0.00     0.100 C 
BRANCH   9  14
ATOM     14  C   UNL     1     -73.734 -16.273  91.408  1.00  0.00     0.081 C 
ATOM     15  C   UNL     1     -74.903 -15.288  91.469  1.00  0.00     0.021 C 
ENDBRANCH   9  14
ENDBRANCH   7   8
ENDBRANCH   1   7
BRANCH   4  16
ATOM     16  N   UNL     1     -76.363 -17.692  82.185  1.00  0.00    -0.309 N 
ATOM     17  H   UNL     1     -76.183 -17.399  81.195  1.00  0.00     0.171 HD
BRANCH  16  18
ATOM     18  C   UNL     1     -77.716 -18.028  82.525  1.00  0.00     0.229 A 
ATOM     19  N   UNL     1     -78.747 -17.767  81.676  1.00  0.00    -0.218 NA
ATOM     20  N   UNL     1     -77.966 -18.647  83.709  1.00  0.00    -0.210 NA
ATOM     21  C   UNL     1     -80.023 -18.089  82.004  1.00  0.00     0.156 A 
ATOM     22  C   UNL     1     -79.225 -19.006  84.084  1.00  0.00     0.112 A 
ATOM     23  C   UNL     1     -80.298 -18.707  83.223  1.00  0.00     0.167 A 
ATOM     24  F   UNL     1     -81.587 -18.942  83.569  1.00  0.00    -0.203 F 
BRANCH  22  25
ATOM     25  C   UNL     1     -79.414 -19.666  85.402  1.00  0.00     0.008 A 
ATOM     26  C   UNL     1     -80.636 -20.339  85.672  1.00  0.00     0.052 A 
ATOM     27  C   UNL     1     -78.421 -19.602  86.413  1.00  0.00     0.039 A 
ATOM     28  C   UNL     1     -80.858 -20.963  86.911  1.00  0.00     0.151 A 
ATOM     29  C   UNL     1     -78.680 -20.233  87.638  1.00  0.00     0.072 A 
ATOM     30  F   UNL     1     -82.015 -21.623  87.164  1.00  0.00    -0.205 F 
ATOM     31  C   UNL     1     -79.850 -20.893  87.865  1.00  0.00     0.124 A 
ATOM     32  N   UNL     1     -77.883 -20.351  88.723  1.00  0.00    -0.326 N 
ATOM     33  N   UNL     1     -79.841 -21.470  89.076  1.00  0.00    -0.230 NA
ATOM     34  C   UNL     1     -78.622 -21.135  89.571  1.00  0.00     0.107 A 
ATOM     35  C   UNL     1     -78.170 -21.631  90.911  1.00  0.00     0.088 C 
BRANCH  32  36
ATOM     36  C   UNL     1     -76.488 -19.878  88.837  1.00  0.00     0.083 C 
ATOM     37  C   UNL     1     -75.710 -19.991  87.519  1.00  0.00     0.031 C 
ATOM     38  C   UNL     1     -76.454 -18.456  89.395  1.00  0.00     0.031 C 
ENDBRANCH  32  36
ENDBRANCH  22  25
ENDBRANCH  16  18
ENDBRANCH   4  16
TORSDOF 7
ENDMDL
MODEL 5
REMARK VINA RESULT:    -9.317      1.676      2.717
REMARK INTER + INTRA:         -13.990
REMARK INTER:                 -13.250
REMARK INTRA:                  -0.740
REMARK UNBOUND:                -0.860
REMARK SMILES CCN1CCN(Cc2ccc(Nc3ncc(F)c(-c4cc(F)c5nc(C)n(C(C)C)c5c4)n3)nc2)CC1
REMARK SMILES IDX 8 1 9 2 10 3 11 4 34 5 35 6 7 7 6 8 3 9 4 10 37 11 5 12
REMARK SMILES IDX 36 13 2 14 1 15 12 16 13 18 14 19 33 20 15 21 18 22 16 23
REMARK SMILES IDX 17 24 19 25 20 26 32 27 21 28 31 29 22 30 23 31 27 32 24 33
REMARK SMILES IDX 25 34 26 35 28 36 29 37 30 38
REMARK H PARENT 12 17
REMARK Flexibility Score: inf
ROOT
ATOM      1  C   UNL     1     -73.763 -17.661  86.748  1.00  0.00    -0.015 A 
ATOM      2  C   UNL     1     -74.249 -18.969  86.613  1.00  0.00     0.010 A 
ATOM      3  C   UNL     1     -75.035 -19.315  85.509  1.00  0.00     0.047 A 
ATOM      4  C   UNL     1     -75.365 -18.331  84.561  1.00  0.00     0.132 A 
ATOM      5  N   UNL     1     -74.860 -17.074  84.705  1.00  0.00    -0.239 NA
ATOM      6  C   UNL     1     -74.081 -16.720  85.760  1.00  0.00     0.118 A 
ENDROOT
BRANCH   1   7
ATOM      7  C   UNL     1     -73.057 -17.228  87.999  1.00  0.00     0.121 C 
BRANCH   7   8
ATOM      8  N   UNL     1     -74.005 -16.439  88.815  1.00  0.00    -0.296 NA
ATOM      9  N   UNL     1     -74.749 -15.829  91.630  1.00  0.00    -0.301 NA
ATOM     10  C   UNL     1     -74.720 -17.216  91.087  1.00  0.00     0.100 C 
ATOM     11  C   UNL     1     -74.326 -14.808  90.635  1.00  0.00     0.100 C 
ATOM     12  C   UNL     1     -74.990 -17.250  89.572  1.00  0.00     0.100 C 
ATOM     13  C   UNL     1     -73.342 -15.390  89.615  1.00  0.00     0.100 C 
BRANCH   9  14
ATOM     14  C   UNL     1     -76.076 -15.508  92.200  1.00  0.00     0.081 C 
ATOM     15  C   UNL     1     -76.168 -15.900  93.676  1.00  0.00     0.021 C 
ENDBRANCH   9  14
ENDBRANCH   7   8
ENDBRANCH   1   7
BRANCH   4  16
ATOM     16  N   UNL     1     -76.188 -18.615  83.419  1.00  0.00    -0.309 N 
ATOM     17  H   UNL     1     -75.726 -18.569  82.479  1.00  0.00     0.171 HD
BRANCH  16  18
ATOM     18  C   UNL     1     -77.620 -18.694  83.433  1.00  0.00     0.229 A 
ATOM     19  N   UNL     1     -78.367 -18.238  82.390  1.00  0.00    -0.218 NA
ATOM     20  N   UNL     1     -78.241 -19.262  84.500  1.00  0.00    -0.210 NA
ATOM     21  C   UNL     1     -79.721 -18.318  82.409  1.00  0.00     0.156 A 
ATOM     22  C   UNL     1     -79.597 -19.381  84.567  1.00  0.00     0.112 A 
ATOM     23  C   UNL     1     -80.373 -18.881  83.505  1.00  0.00     0.167 A 
ATOM     24  F   UNL     1     -81.727 -18.873  83.544  1.00  0.00    -0.203 F 
BRANCH  22  25
ATOM     25  C   UNL     1     -80.197 -20.003  85.777  1.00  0.00     0.008 A 
ATOM     26  C   UNL     1     -81.595 -20.254  85.806  1.00  0.00     0.052 A 
ATOM     27  C   UNL     1     -79.414 -20.311  86.919  1.00  0.00     0.039 A 
ATOM     28  C   UNL     1     -82.202 -20.827  86.936  1.00  0.00     0.151 A 
ATOM     29  C   UNL     1     -80.055 -20.877  88.029  1.00  0.00     0.072 A 
ATOM     30  F   UNL     1     -83.533 -21.086  86.959  1.00  0.00    -0.205 F 
ATOM     31  C   UNL     1     -81.394 -21.131  88.025  1.00  0.00     0.124 A 
ATOM     32  N   UNL     1     -79.526 -21.297  89.200  1.00  0.00    -0.326 N 
ATOM     33  N   UNL     1     -81.765 -21.734  89.165  1.00  0.00    -0.230 NA
ATOM     34  C   UNL     1     -80.602 -21.835  89.856  1.00  0.00     0.107 A 
ATOM     35  C   UNL     1     -80.555 -22.511  91.193  1.00  0.00     0.088 C 
BRANCH  32  36
ATOM     36  C   UNL     1     -78.091 -21.309  89.554  1.00  0.00     0.083 C 
ATOM     37  C   UNL     1     -77.203 -21.859  88.429  1.00  0.00     0.031 C 
ATOM     38  C   UNL     1     -77.643 -19.917  89.999  1.00  0.00     0.031 C 
ENDBRANCH  32  36
ENDBRANCH  22  25
ENDBRANCH  16  18
ENDBRANCH   4  16
TORSDOF 7
ENDMDL
MODEL 6
REMARK VINA RESULT:    -9.275      3.837      7.550
REMARK INTER + INTRA:         -13.930
REMARK INTER:                 -13.475
REMARK INTRA:                  -0.455
REMARK UNBOUND:                -0.860
REMARK SMILES CCN1CCN(Cc2ccc(Nc3ncc(F)c(-c4cc(F)c5nc(C)n(C(C)C)c5c4)n3)nc2)CC1
REMARK SMILES IDX 8 1 9 2 10 3 11 4 34 5 35 6 7 7 6 8 3 9 4 10 37 11 5 12
REMARK SMILES IDX 36 13 2 14 1 15 12 16 13 18 14 19 33 20 15 21 18 22 16 23
REMARK SMILES IDX 17 24 19 25 20 26 32 27 21 28 31 29 22 30 23 31 27 32 24 33
REMARK SMILES IDX 25 34 26 35 28 36 29 37 30 38
REMARK H PARENT 12 17
REMARK Flexibility Score: inf
ROOT
ATOM      1  C   UNL     1     -74.597 -16.505  95.083  1.00  0.00    -0.015 A 
ATOM      2  C   UNL     1     -75.731 -15.962  94.463  1.00  0.00     0.010 A 
ATOM      3  C   UNL     1     -76.001 -16.246  93.120  1.00  0.00     0.047 A 
ATOM      4  C   UNL     1     -75.104 -17.046  92.390  1.00  0.00     0.132 A 
ATOM      5  N   UNL     1     -74.023 -17.580  93.024  1.00  0.00    -0.239 NA
ATOM      6  C   UNL     1     -73.750 -17.331  94.331  1.00  0.00     0.118 A 
ENDROOT
BRANCH   1   7
ATOM      7  C   UNL     1     -74.202 -16.086  96.468  1.00  0.00     0.121 C 
BRANCH   7   8
ATOM      8  N   UNL     1     -74.138 -14.609  96.503  1.00  0.00    -0.296 NA
ATOM      9  N   UNL     1     -72.831 -12.341  97.918  1.00  0.00    -0.301 NA
ATOM     10  C   UNL     1     -73.625 -13.383  98.627  1.00  0.00     0.100 C 
ATOM     11  C   UNL     1     -72.729 -12.586  96.454  1.00  0.00     0.100 C 
ATOM     12  C   UNL     1     -74.712 -13.996  97.727  1.00  0.00     0.100 C 
ATOM     13  C   UNL     1     -72.811 -14.081  96.127  1.00  0.00     0.100 C 
BRANCH   9  14
ATOM     14  C   UNL     1     -73.354 -10.987  98.202  1.00  0.00     0.081 C 
ATOM     15  C   UNL     1     -74.237 -10.972  99.451  1.00  0.00     0.021 C 
ENDBRANCH   9  14
ENDBRANCH   7   8
ENDBRANCH   1   7
BRANCH   4  16
ATOM     16  N   UNL     1     -75.310 -17.355  91.003  1.00  0.00    -0.309 N 
ATOM     17  H   UNL     1     -75.277 -16.553  90.329  1.00  0.00     0.171 HD
BRANCH  16  18
ATOM     18  C   UNL     1     -75.811 -18.602  90.502  1.00  0.00     0.229 A 
ATOM     19  N   UNL     1     -75.595 -19.771  91.165  1.00  0.00    -0.218 NA
ATOM     20  N   UNL     1     -76.540 -18.610  89.356  1.00  0.00    -0.210 NA
ATOM     21  C   UNL     1     -76.073 -20.947  90.686  1.00  0.00     0.156 A 
ATOM     22  C   UNL     1     -77.057 -19.759  88.836  1.00  0.00     0.112 A 
ATOM     23  C   UNL     1     -76.808 -20.974  89.501  1.00  0.00     0.167 A 
ATOM     24  F   UNL     1     -77.202 -22.167  88.995  1.00  0.00    -0.203 F 
BRANCH  22  25
ATOM     25  C   UNL     1     -77.831 -19.681  87.570  1.00  0.00     0.008 A 
ATOM     26  C   UNL     1     -79.068 -20.375  87.470  1.00  0.00     0.052 A 
ATOM     27  C   UNL     1     -77.345 -18.968  86.444  1.00  0.00     0.039 A 
ATOM     28  C   UNL     1     -79.822 -20.337  86.286  1.00  0.00     0.151 A 
ATOM     29  C   UNL     1     -78.123 -18.957  85.279  1.00  0.00     0.072 A 
ATOM     30  F   UNL     1     -81.012 -20.981  86.194  1.00  0.00    -0.205 F 
ATOM     31  C   UNL     1     -79.318 -19.610  85.214  1.00  0.00     0.124 A 
ATOM     32  N   UNL     1     -77.901 -18.319  84.108  1.00  0.00    -0.326 N 
ATOM     33  N   UNL     1     -79.908 -19.401  84.029  1.00  0.00    -0.230 NA
ATOM     34  C   UNL     1     -79.028 -18.598  83.380  1.00  0.00     0.107 A 
ATOM     35  C   UNL     1     -79.328 -18.070  82.009  1.00  0.00     0.088 C 
BRANCH  32  36
ATOM     36  C   UNL     1     -76.777 -17.407  83.812  1.00  0.00     0.083 C 
ATOM     37  C   UNL     1     -76.384 -16.534  85.012  1.00  0.00     0.031 C 
ATOM     38  C   UNL     1     -75.583 -18.194  83.270  1.00  0.00     0.031 C 
ENDBRANCH  32  36
ENDBRANCH  22  25
ENDBRANCH  16  18
ENDBRANCH   4  16
TORSDOF 7
ENDMDL
MODEL 7
REMARK VINA RESULT:    -9.132      1.643      2.335
REMARK INTER + INTRA:         -13.729
REMARK INTER:                 -13.220
REMARK INTRA:                  -0.509
REMARK UNBOUND:                -0.860
REMARK SMILES CCN1CCN(Cc2ccc(Nc3ncc(F)c(-c4cc(F)c5nc(C)n(C(C)C)c5c4)n3)nc2)CC1
REMARK SMILES IDX 8 1 9 2 10 3 11 4 34 5 35 6 7 7 6 8 3 9 4 10 37 11 5 12
REMARK SMILES IDX 36 13 2 14 1 15 12 16 13 18 14 19 33 20 15 21 18 22 16 23
REMARK SMILES IDX 17 24 19 25 20 26 32 27 21 28 31 29 22 30 23 31 27 32 24 33
REMARK SMILES IDX 25 34 26 35 28 36 29 37 30 38
REMARK H PARENT 12 17
REMARK Flexibility Score: inf
ROOT
ATOM      1  C   UNL     1     -73.831 -15.555  88.627  1.00  0.00    -0.015 A 
ATOM      2  C   UNL     1     -72.837 -15.499  87.641  1.00  0.00     0.010 A 
ATOM      3  C   UNL     1     -73.152 -15.792  86.310  1.00  0.00     0.047 A 
ATOM      4  C   UNL     1     -74.462 -16.182  85.981  1.00  0.00     0.132 A 
ATOM      5  N   UNL     1     -75.413 -16.204  86.956  1.00  0.00    -0.239 NA
ATOM      6  C   UNL     1     -75.133 -15.907  88.251  1.00  0.00     0.118 A 
ENDROOT
BRANCH   1   7
ATOM      7  C   UNL     1     -73.483 -15.403  90.079  1.00  0.00     0.121 C 
BRANCH   7   8
ATOM      8  N   UNL     1     -74.391 -16.267  90.865  1.00  0.00    -0.296 NA
ATOM      9  N   UNL     1     -74.785 -17.415  93.581  1.00  0.00    -0.301 NA
ATOM     10  C   UNL     1     -73.543 -17.629  92.788  1.00  0.00     0.100 C 
ATOM     11  C   UNL     1     -75.769 -16.538  92.890  1.00  0.00     0.100 C 
ATOM     12  C   UNL     1     -73.803 -17.567  91.273  1.00  0.00     0.100 C 
ATOM     13  C   UNL     1     -75.076 -15.543  91.954  1.00  0.00     0.100 C 
BRANCH   9  14
ATOM     14  C   UNL     1     -75.396 -18.704  93.974  1.00  0.00     0.081 C 
ATOM     15  C   UNL     1     -76.673 -18.991  93.182  1.00  0.00     0.021 C 
ENDBRANCH   9  14
ENDBRANCH   7   8
ENDBRANCH   1   7
BRANCH   4  16
ATOM     16  N   UNL     1     -74.845 -16.520  84.638  1.00  0.00    -0.309 N 
ATOM     17  H   UNL     1     -74.431 -15.942  83.868  1.00  0.00     0.171 HD
BRANCH  16  18
ATOM     18  C   UNL     1     -75.929 -17.390  84.284  1.00  0.00     0.229 A 
ATOM     19  N   UNL     1     -76.291 -17.580  82.986  1.00  0.00    -0.218 NA
ATOM     20  N   UNL     1     -76.586 -18.061  85.266  1.00  0.00    -0.210 NA
ATOM     21  C   UNL     1     -77.316 -18.406  82.658  1.00  0.00     0.156 A 
ATOM     22  C   UNL     1     -77.613 -18.914  84.994  1.00  0.00     0.112 A 
ATOM     23  C   UNL     1     -78.013 -19.087  83.655  1.00  0.00     0.167 A 
ATOM     24  F   UNL     1     -79.087 -19.839  83.315  1.00  0.00    -0.203 F 
BRANCH  22  25
ATOM     25  C   UNL     1     -78.289 -19.598  86.127  1.00  0.00     0.008 A 
ATOM     26  C   UNL     1     -77.572 -19.810  87.336  1.00  0.00     0.052 A 
ATOM     27  C   UNL     1     -79.618 -20.082  86.017  1.00  0.00     0.039 A 
ATOM     28  C   UNL     1     -78.171 -20.465  88.425  1.00  0.00     0.151 A 
ATOM     29  C   UNL     1     -80.181 -20.733  87.123  1.00  0.00     0.072 A 
ATOM     30  F   UNL     1     -77.496 -20.652  89.586  1.00  0.00    -0.205 F 
ATOM     31  C   UNL     1     -79.482 -20.904  88.280  1.00  0.00     0.124 A 
ATOM     32  N   UNL     1     -81.427 -21.233  87.277  1.00  0.00    -0.326 N 
ATOM     33  N   UNL     1     -80.247 -21.490  89.213  1.00  0.00    -0.230 NA
ATOM     34  C   UNL     1     -81.433 -21.665  88.578  1.00  0.00     0.107 A 
ATOM     35  C   UNL     1     -82.612 -22.253  89.292  1.00  0.00     0.088 C 
BRANCH  32  36
ATOM     36  C   UNL     1     -82.531 -21.141  86.299  1.00  0.00     0.083 C 
ATOM     37  C   UNL     1     -83.178 -22.500  86.000  1.00  0.00     0.031 C 
ATOM     38  C   UNL     1     -83.564 -20.111  86.760  1.00  0.00     0.031 C 
ENDBRANCH  32  36
ENDBRANCH  22  25
ENDBRANCH  16  18
ENDBRANCH   4  16
TORSDOF 7
ENDMDL
MODEL 8
REMARK VINA RESULT:    -9.096      3.563      6.363
REMARK INTER + INTRA:         -13.678
REMARK INTER:                 -13.258
REMARK INTRA:                  -0.420
REMARK UNBOUND:                -0.860
REMARK SMILES CCN1CCN(Cc2ccc(Nc3ncc(F)c(-c4cc(F)c5nc(C)n(C(C)C)c5c4)n3)nc2)CC1
REMARK SMILES IDX 8 1 9 2 10 3 11 4 34 5 35 6 7 7 6 8 3 9 4 10 37 11 5 12
REMARK SMILES IDX 36 13 2 14 1 15 12 16 13 18 14 19 33 20 15 21 18 22 16 23
REMARK SMILES IDX 17 24 19 25 20 26 32 27 21 28 31 29 22 30 23 31 27 32 24 33
REMARK SMILES IDX 25 34 26 35 28 36 29 37 30 38
REMARK H PARENT 12 17
REMARK Flexibility Score: inf
ROOT
ATOM      1  C   UNL     1     -73.387 -15.325  93.856  1.00  0.00    -0.015 A 
ATOM      2  C   UNL     1     -74.702 -15.658  93.504  1.00  0.00     0.010 A 
ATOM      3  C   UNL     1     -75.159 -15.429  92.201  1.00  0.00     0.047 A 
ATOM      4  C   UNL     1     -74.302 -14.825  91.265  1.00  0.00     0.132 A 
ATOM      5  N   UNL     1     -73.022 -14.534  91.629  1.00  0.00    -0.239 NA
ATOM      6  C   UNL     1     -72.552 -14.763  92.882  1.00  0.00     0.118 A 
ENDROOT
BRANCH   1   7
ATOM      7  C   UNL     1     -72.928 -15.412  95.281  1.00  0.00     0.121 C 
BRANCH   7   8
ATOM      8  N   UNL     1     -73.763 -14.499  96.093  1.00  0.00    -0.296 NA
ATOM      9  N   UNL     1     -74.238 -13.602  98.889  1.00  0.00    -0.301 NA
ATOM     10  C   UNL     1     -74.326 -15.030  98.475  1.00  0.00     0.100 C 
ATOM     11  C   UNL     1     -73.847 -12.699  97.774  1.00  0.00     0.100 C 
ATOM     12  C   UNL     1     -74.722 -15.182  96.996  1.00  0.00     0.100 C 
ATOM     13  C   UNL     1     -72.983 -13.425  96.739  1.00  0.00     0.100 C 
BRANCH   9  14
ATOM     14  C   UNL     1     -75.495 -13.155  99.529  1.00  0.00     0.081 C 
ATOM     15  C   UNL     1     -76.331 -14.338 100.023  1.00  0.00     0.021 C 
ENDBRANCH   9  14
ENDBRANCH   7   8
ENDBRANCH   1   7
BRANCH   4  16
ATOM     16  N   UNL     1     -74.717 -14.540  89.920  1.00  0.00    -0.309 N 
ATOM     17  H   UNL     1     -75.253 -13.652  89.767  1.00  0.00     0.171 HD
BRANCH  16  18
ATOM     18  C   UNL     1     -74.693 -15.477  88.834  1.00  0.00     0.229 A 
ATOM     19  N   UNL     1     -73.714 -15.442  87.889  1.00  0.00    -0.218 NA
ATOM     20  N   UNL     1     -75.653 -16.437  88.767  1.00  0.00    -0.210 NA
ATOM     21  C   UNL     1     -73.697 -16.332  86.865  1.00  0.00     0.156 A 
ATOM     22  C   UNL     1     -75.677 -17.365  87.770  1.00  0.00     0.112 A 
ATOM     23  C   UNL     1     -74.685 -17.312  86.772  1.00  0.00     0.167 A 
ATOM     24  F   UNL     1     -74.700 -18.135  85.697  1.00  0.00    -0.203 F 
BRANCH  22  25
ATOM     25  C   UNL     1     -76.770 -18.372  87.762  1.00  0.00     0.008 A 
ATOM     26  C   UNL     1     -76.916 -19.246  88.873  1.00  0.00     0.052 A 
ATOM     27  C   UNL     1     -77.643 -18.511  86.652  1.00  0.00     0.039 A 
ATOM     28  C   UNL     1     -77.928 -20.220  88.896  1.00  0.00     0.151 A 
ATOM     29  C   UNL     1     -78.638 -19.496  86.710  1.00  0.00     0.072 A 
ATOM     30  F   UNL     1     -78.083 -21.042  89.964  1.00  0.00    -0.205 F 
ATOM     31  C   UNL     1     -78.774 -20.307  87.797  1.00  0.00     0.124 A 
ATOM     32  N   UNL     1     -79.606 -19.787  85.813  1.00  0.00    -0.326 N 
ATOM     33  N   UNL     1     -79.831 -21.120  87.652  1.00  0.00    -0.230 NA
ATOM     34  C   UNL     1     -80.328 -20.770  86.439  1.00  0.00     0.107 A 
ATOM     35  C   UNL     1     -81.571 -21.411  85.899  1.00  0.00     0.088 C 
BRANCH  32  36
ATOM     36  C   UNL     1     -79.878 -19.059  84.556  1.00  0.00     0.083 C 
ATOM     37  C   UNL     1     -79.139 -19.654  83.351  1.00  0.00     0.031 C 
ATOM     38  C   UNL     1     -81.384 -18.970  84.310  1.00  0.00     0.031 C 
ENDBRANCH  32  36
ENDBRANCH  22  25
ENDBRANCH  16  18
ENDBRANCH   4  16
TORSDOF 7
ENDMDL
MODEL 9
REMARK VINA RESULT:    -9.072      2.676      8.383
REMARK INTER + INTRA:         -13.644
REMARK INTER:                 -12.994
REMARK INTRA:                  -0.651
REMARK UNBOUND:                -0.860
REMARK SMILES CCN1CCN(Cc2ccc(Nc3ncc(F)c(-c4cc(F)c5nc(C)n(C(C)C)c5c4)n3)nc2)CC1
REMARK SMILES IDX 8 1 9 2 10 3 11 4 34 5 35 6 7 7 6 8 3 9 4 10 37 11 5 12
REMARK SMILES IDX 36 13 2 14 1 15 12 16 13 18 14 19 33 20 15 21 18 22 16 23
REMARK SMILES IDX 17 24 19 25 20 26 32 27 21 28 31 29 22 30 23 31 27 32 24 33
REMARK SMILES IDX 25 34 26 35 28 36 29 37 30 38
REMARK H PARENT 12 17
REMARK Flexibility Score: inf
ROOT
ATOM      1  C   UNL     1     -79.058 -19.902  85.889  1.00  0.00    -0.015 A 
ATOM      2  C   UNL     1     -78.167 -19.354  86.822  1.00  0.00     0.010 A 
ATOM      3  C   UNL     1     -77.319 -18.306  86.449  1.00  0.00     0.047 A 
ATOM      4  C   UNL     1     -77.341 -17.838  85.123  1.00  0.00     0.132 A 
ATOM      5  N   UNL     1     -78.234 -18.373  84.245  1.00  0.00    -0.239 NA
ATOM      6  C   UNL     1     -79.078 -19.379  84.590  1.00  0.00     0.118 A 
ENDROOT
BRANCH   1   7
ATOM      7  C   UNL     1     -79.859 -21.127  86.219  1.00  0.00     0.121 C 
BRANCH   7   8
ATOM      8  N   UNL     1     -81.077 -20.703  86.942  1.00  0.00    -0.296 NA
ATOM      9  N   UNL     1     -83.665 -21.722  87.997  1.00  0.00    -0.301 NA
ATOM     10  C   UNL     1     -83.274 -21.846  86.566  1.00  0.00     0.100 C 
ATOM     11  C   UNL     1     -82.613 -21.083  88.833  1.00  0.00     0.100 C 
ATOM     12  C   UNL     1     -82.317 -20.725  86.126  1.00  0.00     0.100 C 
ATOM     13  C   UNL     1     -81.213 -21.341  88.267  1.00  0.00     0.100 C 
BRANCH   9  14
ATOM     14  C   UNL     1     -84.962 -21.022  88.136  1.00  0.00     0.081 C 
ATOM     15  C   UNL     1     -84.776 -19.563  88.559  1.00  0.00     0.021 C 
ENDBRANCH   9  14
ENDBRANCH   7   8
ENDBRANCH   1   7
BRANCH   4  16
ATOM     16  N   UNL     1     -76.479 -16.782  84.671  1.00  0.00    -0.309 N 
ATOM     17  H   UNL     1     -76.636 -16.427  83.698  1.00  0.00     0.171 HD
BRANCH  16  18
ATOM     18  C   UNL     1     -75.274 -16.362  85.327  1.00  0.00     0.229 A 
ATOM     19  N   UNL     1     -74.207 -15.898  84.621  1.00  0.00    -0.218 NA
ATOM     20  N   UNL     1     -75.210 -16.404  86.683  1.00  0.00    -0.210 NA
ATOM     21  C   UNL     1     -73.071 -15.501  85.248  1.00  0.00     0.156 A 
ATOM     22  C   UNL     1     -74.101 -16.005  87.367  1.00  0.00     0.112 A 
ATOM     23  C   UNL     1     -72.983 -15.555  86.638  1.00  0.00     0.167 A 
ATOM     24  F   UNL     1     -71.812 -15.237  87.240  1.00  0.00    -0.203 F 
BRANCH  22  25
ATOM     25  C   UNL     1     -74.109 -16.096  88.850  1.00  0.00     0.008 A 
ATOM     26  C   UNL     1     -73.720 -14.964  89.616  1.00  0.00     0.052 A 
ATOM     27  C   UNL     1     -74.452 -17.300  89.518  1.00  0.00     0.039 A 
ATOM     28  C   UNL     1     -73.701 -15.015  91.020  1.00  0.00     0.151 A 
ATOM     29  C   UNL     1     -74.417 -17.314  90.919  1.00  0.00     0.072 A 
ATOM     30  F   UNL     1     -73.350 -13.930  91.754  1.00  0.00    -0.205 F 
ATOM     31  C   UNL     1     -74.064 -16.208  91.633  1.00  0.00     0.124 A 
ATOM     32  N   UNL     1     -74.742 -18.310  91.773  1.00  0.00    -0.326 N 
ATOM     33  N   UNL     1     -74.169 -16.442  92.950  1.00  0.00    -0.230 NA
ATOM     34  C   UNL     1     -74.599 -17.727  93.005  1.00  0.00     0.107 A 
ATOM     35  C   UNL     1     -74.903 -18.385  94.317  1.00  0.00     0.088 C 
BRANCH  32  36
ATOM     36  C   UNL     1     -75.288 -19.633  91.402  1.00  0.00     0.083 C 
ATOM     37  C   UNL     1     -76.580 -19.536  90.580  1.00  0.00     0.031 C 
ATOM     38  C   UNL     1     -74.223 -20.464  90.686  1.00  0.00     0.031 C 
ENDBRANCH  32  36
ENDBRANCH  22  25
ENDBRANCH  16  18
ENDBRANCH   4  16
TORSDOF 7
ENDMDL
MODEL 10
REMARK VINA RESULT:    -9.062      3.272      5.544
REMARK INTER + INTRA:         -13.630
REMARK INTER:                 -13.644
REMARK INTRA:                   0.014
REMARK UNBOUND:                -0.860
REMARK SMILES CCN1CCN(Cc2ccc(Nc3ncc(F)c(-c4cc(F)c5nc(C)n(C(C)C)c5c4)n3)nc2)CC1
REMARK SMILES IDX 8 1 9 2 10 3 11 4 34 5 35 6 7 7 6 8 3 9 4 10 37 11 5 12
REMARK SMILES IDX 36 13 2 14 1 15 12 16 13 18 14 19 33 20 15 21 18 22 16 23
REMARK SMILES IDX 17 24 19 25 20 26 32 27 21 28 31 29 22 30 23 31 27 32 24 33
REMARK SMILES IDX 25 34 26 35 28 36 29 37 30 38
REMARK H PARENT 12 17
REMARK Flexibility Score: inf
ROOT
ATOM      1  C   UNL     1     -72.492 -14.165  91.850  1.00  0.00    -0.015 A 
ATOM      2  C   UNL     1     -73.650 -14.766  92.361  1.00  0.00     0.010 A 
ATOM      3  C   UNL     1     -74.646 -15.222  91.490  1.00  0.00     0.047 A 
ATOM      4  C   UNL     1     -74.491 -15.033  90.105  1.00  0.00     0.132 A 
ATOM      5  N   UNL     1     -73.344 -14.467  89.637  1.00  0.00    -0.239 NA
ATOM      6  C   UNL     1     -72.357 -14.033  90.462  1.00  0.00     0.118 A 
ENDROOT
BRANCH   1   7
ATOM      7  C   UNL     1     -71.490 -13.527  92.766  1.00  0.00     0.121 C 
BRANCH   7   8
ATOM      8  N   UNL     1     -72.222 -12.684  93.737  1.00  0.00    -0.296 NA
ATOM      9  N   UNL     1     -71.813 -10.860  96.052  1.00  0.00    -0.301 NA
ATOM     10  C   UNL     1     -71.313 -12.263  96.034  1.00  0.00     0.100 C 
ATOM     11  C   UNL     1     -72.486 -10.468  94.784  1.00  0.00     0.100 C 
ATOM     12  C   UNL     1     -72.172 -13.173  95.138  1.00  0.00     0.100 C 
ATOM     13  C   UNL     1     -71.928 -11.245  93.588  1.00  0.00     0.100 C 
BRANCH   9  14
ATOM     14  C   UNL     1     -72.686 -10.621  97.222  1.00  0.00     0.081 C 
ATOM     15  C   UNL     1     -72.020 -11.066  98.526  1.00  0.00     0.021 C 
ENDBRANCH   9  14
ENDBRANCH   7   8
ENDBRANCH   1   7
BRANCH   4  16
ATOM     16  N   UNL     1     -75.487 -15.455  89.160  1.00  0.00    -0.309 N 
ATOM     17  H   UNL     1     -76.436 -15.020  89.245  1.00  0.00     0.171 HD
BRANCH  16  18
ATOM     18  C   UNL     1     -75.371 -16.594  88.294  1.00  0.00     0.229 A 
ATOM     19  N   UNL     1     -74.161 -17.023  87.844  1.00  0.00    -0.218 NA
ATOM     20  N   UNL     1     -76.494 -17.274  87.942  1.00  0.00    -0.210 NA
ATOM     21  C   UNL     1     -74.059 -18.101  87.027  1.00  0.00     0.156 A 
ATOM     22  C   UNL     1     -76.450 -18.371  87.137  1.00  0.00     0.112 A 
ATOM     23  C   UNL     1     -75.203 -18.798  86.641  1.00  0.00     0.167 A 
ATOM     24  F   UNL     1     -75.090 -19.818  85.757  1.00  0.00    -0.203 F 
BRANCH  22  25
ATOM     25  C   UNL     1     -77.726 -19.048  86.788  1.00  0.00     0.008 A 
ATOM     26  C   UNL     1     -78.257 -18.896  85.478  1.00  0.00     0.052 A 
ATOM     27  C   UNL     1     -78.450 -19.808  87.743  1.00  0.00     0.039 A 
ATOM     28  C   UNL     1     -79.468 -19.509  85.114  1.00  0.00     0.151 A 
ATOM     29  C   UNL     1     -79.655 -20.400  87.345  1.00  0.00     0.072 A 
ATOM     30  F   UNL     1     -79.966 -19.381  83.859  1.00  0.00    -0.205 F 
ATOM     31  C   UNL     1     -80.132 -20.260  86.076  1.00  0.00     0.124 A 
ATOM     32  N   UNL     1     -80.489 -21.199  88.048  1.00  0.00    -0.326 N 
ATOM     33  N   UNL     1     -81.260 -20.968  85.913  1.00  0.00    -0.230 NA
ATOM     34  C   UNL     1     -81.445 -21.543  87.128  1.00  0.00     0.107 A 
ATOM     35  C   UNL     1     -82.588 -22.481  87.373  1.00  0.00     0.088 C 
BRANCH  32  36
ATOM     36  C   UNL     1     -80.271 -21.691  89.424  1.00  0.00     0.083 C 
ATOM     37  C   UNL     1     -78.906 -21.283  89.994  1.00  0.00     0.031 C 
ATOM     38  C   UNL     1     -81.418 -21.252  90.333  1.00  0.00     0.031 C 
ENDBRANCH  32  36
ENDBRANCH  22  25
ENDBRANCH  16  18
ENDBRANCH   4  16
TORSDOF 7
ENDMDL
MODEL 11
REMARK VINA RESULT:    -9.005      2.249      4.297
REMARK INTER + INTRA:         -13.550
REMARK INTER:                 -13.219
REMARK INTRA:                  -0.331
REMARK UNBOUND:                -0.860
REMARK SMILES CCN1CCN(Cc2ccc(Nc3ncc(F)c(-c4cc(F)c5nc(C)n(C(C)C)c5c4)n3)nc2)CC1
REMARK SMILES IDX 8 1 9 2 10 3 11 4 34 5 35 6 7 7 6 8 3 9 4 10 37 11 5 12
REMARK SMILES IDX 36 13 2 14 1 15 12 16 13 18 14 19 33 20 15 21 18 22 16 23
REMARK SMILES IDX 17 24 19 25 20 26 32 27 21 28 31 29 22 30 23 31 27 32 24 33
REMARK SMILES IDX 25 34 26 35 28 36 29 37 30 38
REMARK H PARENT 12 17
REMARK Flexibility Score: inf
ROOT
ATOM      1  C   UNL     1     -75.087 -17.225  90.683  1.00  0.00    -0.015 A 
ATOM      2  C   UNL     1     -75.541 -15.978  90.233  1.00  0.00     0.010 A 
ATOM      3  C   UNL     1     -75.379 -15.616  88.891  1.00  0.00     0.047 A 
ATOM      4  C   UNL     1     -74.722 -16.495  88.013  1.00  0.00     0.132 A 
ATOM      5  N   UNL     1     -74.314 -17.711  88.472  1.00  0.00    -0.239 NA
ATOM      6  C   UNL     1     -74.476 -18.090  89.766  1.00  0.00     0.118 A 
ENDROOT
BRANCH   1   7
ATOM      7  C   UNL     1     -75.104 -17.568  92.144  1.00  0.00     0.121 C 
BRANCH   7   8
ATOM      8  N   UNL     1     -74.513 -16.436  92.890  1.00  0.00    -0.296 NA
ATOM      9  N   UNL     1     -73.397 -15.694  95.546  1.00  0.00    -0.301 NA
ATOM     10  C   UNL     1     -74.769 -16.246  95.375  1.00  0.00     0.100 C 
ATOM     11  C   UNL     1     -72.645 -15.601  94.266  1.00  0.00     0.100 C 
ATOM     12  C   UNL     1     -75.359 -15.916  93.993  1.00  0.00     0.100 C 
ATOM     13  C   UNL     1     -73.104 -16.667  93.266  1.00  0.00     0.100 C 
BRANCH   9  14
ATOM     14  C   UNL     1     -73.431 -14.390  96.246  1.00  0.00     0.081 C 
ATOM     15  C   UNL     1     -74.615 -14.297  97.210  1.00  0.00     0.021 C 
ENDBRANCH   9  14
ENDBRANCH   7   8
ENDBRANCH   1   7
BRANCH   4  16
ATOM     16  N   UNL     1     -74.503 -16.174  86.630  1.00  0.00    -0.309 N 
ATOM     17  H   UNL     1     -73.953 -15.305  86.427  1.00  0.00     0.171 HD
BRANCH  16  18
ATOM     18  C   UNL     1     -75.185 -16.782  85.524  1.00  0.00     0.229 A 
ATOM     19  N   UNL     1     -74.664 -16.753  84.267  1.00  0.00    -0.218 NA
ATOM     20  N   UNL     1     -76.362 -17.424  85.744  1.00  0.00    -0.210 NA
ATOM     21  C   UNL     1     -75.313 -17.331  83.225  1.00  0.00     0.156 A 
ATOM     22  C   UNL     1     -77.050 -18.035  84.739  1.00  0.00     0.112 A 
ATOM     23  C   UNL     1     -76.530 -17.978  83.432  1.00  0.00     0.167 A 
ATOM     24  F   UNL     1     -77.205 -18.473  82.367  1.00  0.00    -0.203 F 
BRANCH  22  25
ATOM     25  C   UNL     1     -78.337 -18.703  85.063  1.00  0.00     0.008 A 
ATOM     26  C   UNL     1     -79.466 -18.477  84.228  1.00  0.00     0.052 A 
ATOM     27  C   UNL     1     -78.479 -19.527  86.209  1.00  0.00     0.039 A 
ATOM     28  C   UNL     1     -80.703 -19.079  84.509  1.00  0.00     0.151 A 
ATOM     29  C   UNL     1     -79.729 -20.108  86.459  1.00  0.00     0.072 A 
ATOM     30  F   UNL     1     -81.776 -18.881  83.704  1.00  0.00    -0.205 F 
ATOM     31  C   UNL     1     -80.791 -19.895  85.631  1.00  0.00     0.124 A 
ATOM     32  N   UNL     1     -80.096 -20.957  87.444  1.00  0.00    -0.326 N 
ATOM     33  N   UNL     1     -81.855 -20.604  86.034  1.00  0.00    -0.230 NA
ATOM     34  C   UNL     1     -81.398 -21.254  87.134  1.00  0.00     0.107 A 
ATOM     35  C   UNL     1     -82.270 -22.218  87.880  1.00  0.00     0.088 C 
BRANCH  32  36
ATOM     36  C   UNL     1     -79.208 -21.530  88.477  1.00  0.00     0.083 C 
ATOM     37  C   UNL     1     -77.722 -21.276  88.194  1.00  0.00     0.031 C 
ATOM     38  C   UNL     1     -79.615 -21.029  89.863  1.00  0.00     0.031 C 
ENDBRANCH  32  36
ENDBRANCH  22  25
ENDBRANCH  16  18
ENDBRANCH   4  16
TORSDOF 7
ENDMDL
MODEL 12
REMARK VINA RESULT:    -8.996      2.111      6.273
REMARK INTER + INTRA:         -13.536
REMARK INTER:                 -13.135
REMARK INTRA:                  -0.401
REMARK UNBOUND:                -0.860
REMARK SMILES CCN1CCN(Cc2ccc(Nc3ncc(F)c(-c4cc(F)c5nc(C)n(C(C)C)c5c4)n3)nc2)CC1
REMARK SMILES IDX 8 1 9 2 10 3 11 4 34 5 35 6 7 7 6 8 3 9 4 10 37 11 5 12
REMARK SMILES IDX 36 13 2 14 1 15 12 16 13 18 14 19 33 20 15 21 18 22 16 23
REMARK SMILES IDX 17 24 19 25 20 26 32 27 21 28 31 29 22 30 23 31 27 32 24 33
REMARK SMILES IDX 25 34 26 35 28 36 29 37 30 38
REMARK H PARENT 12 17
REMARK Flexibility Score: inf
ROOT
ATOM      1  C   UNL     1     -75.504 -20.467  90.418  1.00  0.00    -0.015 A 
ATOM      2  C   UNL     1     -76.014 -20.920  91.642  1.00  0.00     0.010 A 
ATOM      3  C   UNL     1     -77.360 -21.287  91.748  1.00  0.00     0.047 A 
ATOM      4  C   UNL     1     -78.201 -21.157  90.629  1.00  0.00     0.132 A 
ATOM      5  N   UNL     1     -77.673 -20.737  89.446  1.00  0.00    -0.239 NA
ATOM      6  C   UNL     1     -76.366 -20.392  89.316  1.00  0.00     0.118 A 
ENDROOT
BRANCH   1   7
ATOM      7  C   UNL     1     -74.111 -19.918  90.322  1.00  0.00     0.121 C 
BRANCH   7   8
ATOM      8  N   UNL     1     -74.204 -18.463  90.071  1.00  0.00    -0.296 NA
ATOM      9  N   UNL     1     -72.657 -15.932  90.293  1.00  0.00    -0.301 NA
ATOM     10  C   UNL     1     -72.915 -16.823  91.458  1.00  0.00     0.100 C 
ATOM     11  C   UNL     1     -73.211 -16.466  89.020  1.00  0.00     0.100 C 
ATOM     12  C   UNL     1     -74.217 -17.626  91.296  1.00  0.00     0.100 C 
ATOM     13  C   UNL     1     -73.266 -17.997  89.030  1.00  0.00     0.100 C 
BRANCH   9  14
ATOM     14  C   UNL     1     -73.140 -14.558  90.556  1.00  0.00     0.081 C 
ATOM     15  C   UNL     1     -74.129 -14.091  89.486  1.00  0.00     0.021 C 
ENDBRANCH   9  14
ENDBRANCH   7   8
ENDBRANCH   1   7
BRANCH   4  16
ATOM     16  N   UNL     1     -79.597 -21.493  90.679  1.00  0.00    -0.309 N 
ATOM     17  H   UNL     1     -79.951 -21.918  91.568  1.00  0.00     0.171 HD
BRANCH  16  18
ATOM     18  C   UNL     1     -80.474 -21.540  89.544  1.00  0.00     0.229 A 
ATOM     19  N   UNL     1     -81.669 -22.191  89.598  1.00  0.00    -0.218 NA
ATOM     20  N   UNL     1     -80.116 -20.896  88.403  1.00  0.00    -0.210 NA
ATOM     21  C   UNL     1     -82.494 -22.230  88.522  1.00  0.00     0.156 A 
ATOM     22  C   UNL     1     -80.911 -20.889  87.297  1.00  0.00     0.112 A 
ATOM     23  C   UNL     1     -82.132 -21.590  87.338  1.00  0.00     0.167 A 
ATOM     24  F   UNL     1     -82.928 -21.713  86.249  1.00  0.00    -0.203 F 
BRANCH  22  25
ATOM     25  C   UNL     1     -80.437 -20.173  86.084  1.00  0.00     0.008 A 
ATOM     26  C   UNL     1     -81.390 -19.700  85.141  1.00  0.00     0.052 A 
ATOM     27  C   UNL     1     -79.055 -19.987  85.824  1.00  0.00     0.039 A 
ATOM     28  C   UNL     1     -80.981 -19.031  83.976  1.00  0.00     0.151 A 
ATOM     29  C   UNL     1     -78.685 -19.319  84.649  1.00  0.00     0.072 A 
ATOM     30  F   UNL     1     -81.889 -18.562  83.084  1.00  0.00    -0.205 F 
ATOM     31  C   UNL     1     -79.618 -18.854  83.771  1.00  0.00     0.124 A 
ATOM     32  N   UNL     1     -77.452 -18.982  84.209  1.00  0.00    -0.326 N 
ATOM     33  N   UNL     1     -79.031 -18.193  82.762  1.00  0.00    -0.230 NA
ATOM     34  C   UNL     1     -77.710 -18.274  83.064  1.00  0.00     0.107 A 
ATOM     35  C   UNL     1     -76.679 -17.607  82.205  1.00  0.00     0.088 C 
BRANCH  32  36
ATOM     36  C   UNL     1     -76.180 -19.199  84.929  1.00  0.00     0.083 C 
ATOM     37  C   UNL     1     -75.068 -19.747  84.024  1.00  0.00     0.031 C 
ATOM     38  C   UNL     1     -75.749 -17.916  85.642  1.00  0.00     0.031 C 
ENDBRANCH  32  36
ENDBRANCH  22  25
ENDBRANCH  16  18
ENDBRANCH   4  16
TORSDOF 7
ENDMDL
MODEL 13
REMARK VINA RESULT:    -8.988      1.879      2.195
REMARK INTER + INTRA:         -13.526
REMARK INTER:                 -12.663
REMARK INTRA:                  -0.863
REMARK UNBOUND:                -0.860
REMARK SMILES CCN1CCN(Cc2ccc(Nc3ncc(F)c(-c4cc(F)c5nc(C)n(C(C)C)c5c4)n3)nc2)CC1
REMARK SMILES IDX 8 1 9 2 10 3 11 4 34 5 35 6 7 7 6 8 3 9 4 10 37 11 5 12
REMARK SMILES IDX 36 13 2 14 1 15 12 16 13 18 14 19 33 20 15 21 18 22 16 23
REMARK SMILES IDX 17 24 19 25 20 26 32 27 21 28 31 29 22 30 23 31 27 32 24 33
REMARK SMILES IDX 25 34 26 35 28 36 29 37 30 38
REMARK H PARENT 12 17
REMARK Flexibility Score: inf
ROOT
ATOM      1  C   UNL     1     -73.002 -18.278  84.685  1.00  0.00    -0.015 A 
ATOM      2  C   UNL     1     -73.521 -19.388  84.003  1.00  0.00     0.010 A 
ATOM      3  C   UNL     1     -74.612 -19.233  83.142  1.00  0.00     0.047 A 
ATOM      4  C   UNL     1     -75.207 -17.967  83.001  1.00  0.00     0.132 A 
ATOM      5  N   UNL     1     -74.666 -16.903  83.657  1.00  0.00    -0.239 NA
ATOM      6  C   UNL     1     -73.597 -17.026  84.485  1.00  0.00     0.118 A 
ENDROOT
BRANCH   1   7
ATOM      7  C   UNL     1     -71.940 -18.447  85.732  1.00  0.00     0.121 C 
BRANCH   7   8
ATOM      8  N   UNL     1     -72.573 -19.006  86.947  1.00  0.00    -0.296 NA
ATOM      9  N   UNL     1     -72.334 -19.068  89.911  1.00  0.00    -0.301 NA
ATOM     10  C   UNL     1     -71.230 -19.488  89.005  1.00  0.00     0.100 C 
ATOM     11  C   UNL     1     -73.532 -18.579  89.177  1.00  0.00     0.100 C 
ATOM     12  C   UNL     1     -71.753 -20.018  87.659  1.00  0.00     0.100 C 
ATOM     13  C   UNL     1     -73.152 -17.969  87.824  1.00  0.00     0.100 C 
BRANCH   9  14
ATOM     14  C   UNL     1     -72.688 -20.149  90.858  1.00  0.00     0.081 C 
ATOM     15  C   UNL     1     -74.075 -20.724  90.568  1.00  0.00     0.021 C 
ENDBRANCH   9  14
ENDBRANCH   7   8
ENDBRANCH   1   7
BRANCH   4  16
ATOM     16  N   UNL     1     -76.344 -17.747  82.152  1.00  0.00    -0.309 N 
ATOM     17  H   UNL     1     -76.194 -17.147  81.306  1.00  0.00     0.171 HD
BRANCH  16  18
ATOM     18  C   UNL     1     -77.703 -18.051  82.498  1.00  0.00     0.229 A 
ATOM     19  N   UNL     1     -78.730 -17.773  81.650  1.00  0.00    -0.218 NA
ATOM     20  N   UNL     1     -77.963 -18.658  83.686  1.00  0.00    -0.210 NA
ATOM     21  C   UNL     1     -80.012 -18.065  81.983  1.00  0.00     0.156 A 
ATOM     22  C   UNL     1     -79.229 -18.987  84.066  1.00  0.00     0.112 A 
ATOM     23  C   UNL     1     -80.298 -18.671  83.206  1.00  0.00     0.167 A 
ATOM     24  F   UNL     1     -81.590 -18.876  83.557  1.00  0.00    -0.203 F 
BRANCH  22  25
ATOM     25  C   UNL     1     -79.428 -19.635  85.388  1.00  0.00     0.008 A 
ATOM     26  C   UNL     1     -78.321 -19.766  86.271  1.00  0.00     0.052 A 
ATOM     27  C   UNL     1     -80.686 -20.166  85.773  1.00  0.00     0.039 A 
ATOM     28  C   UNL     1     -78.467 -20.385  87.523  1.00  0.00     0.151 A 
ATOM     29  C   UNL     1     -80.791 -20.780  87.028  1.00  0.00     0.072 A 
ATOM     30  F   UNL     1     -77.417 -20.493  88.375  1.00  0.00    -0.205 F 
ATOM     31  C   UNL     1     -79.722 -20.872  87.867  1.00  0.00     0.124 A 
ATOM     32  N   UNL     1     -81.878 -21.311  87.632  1.00  0.00    -0.326 N 
ATOM     33  N   UNL     1     -80.080 -21.436  89.031  1.00  0.00    -0.230 NA
ATOM     34  C   UNL     1     -81.404 -21.679  88.864  1.00  0.00     0.107 A 
ATOM     35  C   UNL     1     -82.226 -22.269  89.970  1.00  0.00     0.088 C 
BRANCH  32  36
ATOM     36  C   UNL     1     -83.259 -21.302  87.107  1.00  0.00     0.083 C 
ATOM     37  C   UNL     1     -83.954 -22.665  87.231  1.00  0.00     0.031 C 
ATOM     38  C   UNL     1     -84.072 -20.190  87.769  1.00  0.00     0.031 C 
ENDBRANCH  32  36
ENDBRANCH  22  25
ENDBRANCH  16  18
ENDBRANCH   4  16
TORSDOF 7
ENDMDL
MODEL 14
REMARK VINA RESULT:    -8.878      2.288      6.632
REMARK INTER + INTRA:         -13.371
REMARK INTER:                 -13.400
REMARK INTRA:                   0.030
REMARK UNBOUND:                -0.860
REMARK SMILES CCN1CCN(Cc2ccc(Nc3ncc(F)c(-c4cc(F)c5nc(C)n(C(C)C)c5c4)n3)nc2)CC1
REMARK SMILES IDX 8 1 9 2 10 3 11 4 34 5 35 6 7 7 6 8 3 9 4 10 37 11 5 12
REMARK SMILES IDX 36 13 2 14 1 15 12 16 13 18 14 19 33 20 15 21 18 22 16 23
REMARK SMILES IDX 17 24 19 25 20 26 32 27 21 28 31 29 22 30 23 31 27 32 24 33
REMARK SMILES IDX 25 34 26 35 28 36 29 37 30 38
REMARK H PARENT 12 17
REMARK Flexibility Score: inf
ROOT
ATOM      1  C   UNL     1     -76.815 -20.962  90.724  1.00  0.00    -0.015 A 
ATOM      2  C   UNL     1     -76.771 -20.842  89.328  1.00  0.00     0.010 A 
ATOM      3  C   UNL     1     -77.936 -21.016  88.573  1.00  0.00     0.047 A 
ATOM      4  C   UNL     1     -79.137 -21.351  89.222  1.00  0.00     0.132 A 
ATOM      5  N   UNL     1     -79.155 -21.436  90.581  1.00  0.00    -0.239 NA
ATOM      6  C   UNL     1     -78.041 -21.255  91.336  1.00  0.00     0.118 A 
ENDROOT
BRANCH   1   7
ATOM      7  C   UNL     1     -75.555 -20.940  91.538  1.00  0.00     0.121 C 
BRANCH   7   8
ATOM      8  N   UNL     1     -75.350 -19.562  92.035  1.00  0.00    -0.296 NA
ATOM      9  N   UNL     1     -76.461 -16.808  91.866  1.00  0.00    -0.301 NA
ATOM     10  C   UNL     1     -76.026 -17.575  90.667  1.00  0.00     0.100 C 
ATOM     11  C   UNL     1     -76.322 -17.579  93.130  1.00  0.00     0.100 C 
ATOM     12  C   UNL     1     -74.919 -18.591  90.998  1.00  0.00     0.100 C 
ATOM     13  C   UNL     1     -76.458 -19.085  92.887  1.00  0.00     0.100 C 
BRANCH   9  14
ATOM     14  C   UNL     1     -75.759 -15.507  91.950  1.00  0.00     0.081 C 
ATOM     15  C   UNL     1     -74.945 -15.221  90.686  1.00  0.00     0.021 C 
ENDBRANCH   9  14
ENDBRANCH   7   8
ENDBRANCH   1   7
BRANCH   4  16
ATOM     16  N   UNL     1     -80.361 -21.566  88.503  1.00  0.00    -0.309 N 
ATOM     17  H   UNL     1     -80.914 -22.420  88.752  1.00  0.00     0.171 HD
BRANCH  16  18
ATOM     18  C   UNL     1     -80.751 -20.867  87.312  1.00  0.00     0.229 A 
ATOM     19  N   UNL     1     -82.059 -20.750  86.954  1.00  0.00    -0.218 NA
ATOM     20  N   UNL     1     -79.794 -20.287  86.541  1.00  0.00    -0.210 NA
ATOM     21  C   UNL     1     -82.422 -20.087  85.828  1.00  0.00     0.156 A 
ATOM     22  C   UNL     1     -80.100 -19.597  85.407  1.00  0.00     0.112 A 
ATOM     23  C   UNL     1     -81.450 -19.502  85.017  1.00  0.00     0.167 A 
ATOM     24  F   UNL     1     -81.823 -18.919  83.852  1.00  0.00    -0.203 F 
BRANCH  22  25
ATOM     25  C   UNL     1     -78.992 -19.006  84.613  1.00  0.00     0.008 A 
ATOM     26  C   UNL     1     -79.223 -18.649  83.257  1.00  0.00     0.052 A 
ATOM     27  C   UNL     1     -77.696 -18.828  85.164  1.00  0.00     0.039 A 
ATOM     28  C   UNL     1     -78.197 -18.101  82.470  1.00  0.00     0.151 A 
ATOM     29  C   UNL     1     -76.697 -18.282  84.347  1.00  0.00     0.072 A 
ATOM     30  F   UNL     1     -78.420 -17.741  81.182  1.00  0.00    -0.205 F 
ATOM     31  C   UNL     1     -76.949 -17.926  83.056  1.00  0.00     0.124 A 
ATOM     32  N   UNL     1     -75.416 -17.976  84.652  1.00  0.00    -0.326 N 
ATOM     33  N   UNL     1     -75.865 -17.366  82.499  1.00  0.00    -0.230 NA
ATOM     34  C   UNL     1     -74.950 -17.397  83.501  1.00  0.00     0.107 A 
ATOM     35  C   UNL     1     -73.583 -16.809  83.317  1.00  0.00     0.088 C 
BRANCH  32  36
ATOM     36  C   UNL     1     -74.784 -18.096  85.982  1.00  0.00     0.083 C 
ATOM     37  C   UNL     1     -75.547 -17.339  87.077  1.00  0.00     0.031 C 
ATOM     38  C   UNL     1     -74.586 -19.569  86.344  1.00  0.00     0.031 C 
ENDBRANCH  32  36
ENDBRANCH  22  25
ENDBRANCH  16  18
ENDBRANCH   4  16
TORSDOF 7
ENDMDL
MODEL 15
REMARK VINA RESULT:    -8.876      3.112      4.753
REMARK INTER + INTRA:         -13.368
REMARK INTER:                 -12.545
REMARK INTRA:                  -0.823
REMARK UNBOUND:                -0.860
REMARK SMILES CCN1CCN(Cc2ccc(Nc3ncc(F)c(-c4cc(F)c5nc(C)n(C(C)C)c5c4)n3)nc2)CC1
REMARK SMILES IDX 8 1 9 2 10 3 11 4 34 5 35 6 7 7 6 8 3 9 4 10 37 11 5 12
REMARK SMILES IDX 36 13 2 14 1 15 12 16 13 18 14 19 33 20 15 21 18 22 16 23
REMARK SMILES IDX 17 24 19 25 20 26 32 27 21 28 31 29 22 30 23 31 27 32 24 33
REMARK SMILES IDX 25 34 26 35 28 36 29 37 30 38
REMARK H PARENT 12 17
REMARK Flexibility Score: inf
ROOT
ATOM      1  C   UNL     1     -74.643 -17.177  90.610  1.00  0.00    -0.015 A 
ATOM      2  C   UNL     1     -75.338 -16.028  90.209  1.00  0.00     0.010 A 
ATOM      3  C   UNL     1     -75.322 -15.631  88.868  1.00  0.00     0.047 A 
ATOM      4  C   UNL     1     -74.570 -16.370  87.938  1.00  0.00     0.132 A 
ATOM      5  N   UNL     1     -73.925 -17.496  88.352  1.00  0.00    -0.239 NA
ATOM      6  C   UNL     1     -73.941 -17.910  89.645  1.00  0.00     0.118 A 
ENDROOT
BRANCH   1   7
ATOM      7  C   UNL     1     -74.514 -17.530  92.063  1.00  0.00     0.121 C 
BRANCH   7   8
ATOM      8  N   UNL     1     -74.887 -18.952  92.228  1.00  0.00    -0.296 NA
ATOM      9  N   UNL     1     -75.953 -20.891  94.216  1.00  0.00    -0.301 NA
ATOM     10  C   UNL     1     -74.724 -20.085  94.456  1.00  0.00     0.100 C 
ATOM     11  C   UNL     1     -76.601 -20.587  92.912  1.00  0.00     0.100 C 
ATOM     12  C   UNL     1     -74.007 -19.717  93.146  1.00  0.00     0.100 C 
ATOM     13  C   UNL     1     -76.331 -19.144  92.474  1.00  0.00     0.100 C 
BRANCH   9  14
ATOM     14  C   UNL     1     -75.677 -22.338  94.356  1.00  0.00     0.081 C 
ATOM     15  C   UNL     1     -75.498 -22.742  95.820  1.00  0.00     0.021 C 
ENDBRANCH   9  14
ENDBRANCH   7   8
ENDBRANCH   1   7
BRANCH   4  16
ATOM     16  N   UNL     1     -74.493 -16.002  86.552  1.00  0.00    -0.309 N 
ATOM     17  H   UNL     1     -74.079 -15.064  86.333  1.00  0.00     0.171 HD
BRANCH  16  18
ATOM     18  C   UNL     1     -75.161 -16.681  85.480  1.00  0.00     0.229 A 
ATOM     19  N   UNL     1     -74.649 -16.693  84.219  1.00  0.00    -0.218 NA
ATOM     20  N   UNL     1     -76.316 -17.350  85.738  1.00  0.00    -0.210 NA
ATOM     21  C   UNL     1     -75.286 -17.338  83.210  1.00  0.00     0.156 A 
ATOM     22  C   UNL     1     -76.991 -18.027  84.767  1.00  0.00     0.112 A 
ATOM     23  C   UNL     1     -76.481 -18.014  83.455  1.00  0.00     0.167 A 
ATOM     24  F   UNL     1     -77.146 -18.578  82.418  1.00  0.00    -0.203 F 
BRANCH  22  25
ATOM     25  C   UNL     1     -78.254 -18.720  85.131  1.00  0.00     0.008 A 
ATOM     26  C   UNL     1     -79.408 -18.526  84.324  1.00  0.00     0.052 A 
ATOM     27  C   UNL     1     -78.347 -19.536  86.288  1.00  0.00     0.039 A 
ATOM     28  C   UNL     1     -80.624 -19.153  84.643  1.00  0.00     0.151 A 
ATOM     29  C   UNL     1     -79.577 -20.141  86.575  1.00  0.00     0.072 A 
ATOM     30  F   UNL     1     -81.722 -18.986  83.865  1.00  0.00    -0.205 F 
ATOM     31  C   UNL     1     -80.665 -19.960  85.774  1.00  0.00     0.124 A 
ATOM     32  N   UNL     1     -79.900 -20.989  87.578  1.00  0.00    -0.326 N 
ATOM     33  N   UNL     1     -81.702 -20.688  86.211  1.00  0.00    -0.230 NA
ATOM     34  C   UNL     1     -81.202 -21.318  87.305  1.00  0.00     0.107 A 
ATOM     35  C   UNL     1     -82.032 -22.293  88.083  1.00  0.00     0.088 C 
BRANCH  32  36
ATOM     36  C   UNL     1     -78.973 -21.533  88.592  1.00  0.00     0.083 C 
ATOM     37  C   UNL     1     -77.513 -21.546  88.120  1.00  0.00     0.031 C 
ATOM     38  C   UNL     1     -79.133 -20.782  89.914  1.00  0.00     0.031 C 
ENDBRANCH  32  36
ENDBRANCH  22  25
ENDBRANCH  16  18
ENDBRANCH   4  16
TORSDOF 7
ENDMDL
