MODEL 1
REMARK VINA RESULT:    -8.140      0.000      0.000
REMARK INTER + INTRA:         -16.186
REMARK INTER:                 -13.374
REMARK INTRA:                  -2.812
REMARK UNBOUND:                -2.812
REMARK SMILES COc1cc(Nc2ncc(F)c(Nc3ccc4c(n3)N(COP(=O)(O)O)C(=O)C(C)(C)O4)n2)cc(OC)c1OC
REMARK SMILES IDX 14 1 19 2 18 3 17 4 32 5 29 6 30 7 31 8 27 9 28 10 20 11
REMARK SMILES IDX 16 12 15 13 13 14 12 16 7 17 8 18 33 19 9 20 10 21 11 22
REMARK SMILES IDX 6 23 5 25 3 26 4 27 38 28 35 29 34 30 2 31 1 32 39 33 40 34
REMARK SMILES IDX 36 35 37 36 21 37 22 38 23 39 24 40 25 41 26 43
REMARK H PARENT 13 15 6 24 25 42 26 44
REMARK Flexibility Score: inf
ROOT
ATOM      1  C   UNL     1      16.753  34.101  16.251  1.00  0.00     0.134 A 
ATOM      2  N   UNL     1      17.672  33.604  15.377  1.00  0.00    -0.209 NA
ATOM      3  C   UNL     1      17.401  33.443  14.051  1.00  0.00     0.182 A 
ATOM      4  C   UNL     1      16.137  33.784  13.558  1.00  0.00     0.164 A 
ATOM      5  O   UNL     1      15.851  33.636  12.199  1.00  0.00    -0.474 OA
ATOM      6  C   UNL     1      16.866  33.546  11.192  1.00  0.00     0.182 C 
ATOM      7  C   UNL     1      16.301  32.723  10.025  1.00  0.00     0.067 C 
ATOM      8  C   UNL     1      17.204  34.966  10.715  1.00  0.00     0.067 C 
ATOM      9  C   UNL     1      18.126  32.897  11.739  1.00  0.00     0.273 C 
ATOM     10  O   UNL     1      18.983  32.433  10.936  1.00  0.00    -0.270 OA
ATOM     11  N   UNL     1      18.386  32.893  13.158  1.00  0.00    -0.265 N 
ATOM     12  C   UNL     1      15.161  34.257  14.437  1.00  0.00     0.054 A 
ATOM     13  C   UNL     1      15.464  34.418  15.789  1.00  0.00     0.051 A 
ENDROOT
BRANCH   1  14
ATOM     14  N   UNL     1      17.105  34.228  17.636  1.00  0.00    -0.322 N 
ATOM     15  H   UNL     1      16.962  33.395  18.252  1.00  0.00     0.170 HD
BRANCH  14  16
ATOM     16  C   UNL     1      17.607  35.429  18.241  1.00  0.00     0.173 A 
ATOM     17  C   UNL     1      19.472  36.811  18.738  1.00  0.00     0.229 A 
ATOM     18  N   UNL     1      18.645  37.747  19.279  1.00  0.00    -0.218 NA
ATOM     19  N   UNL     1      18.944  35.674  18.210  1.00  0.00    -0.192 NA
ATOM     20  C   UNL     1      17.302  37.556  19.320  1.00  0.00     0.158 A 
ATOM     21  C   UNL     1      16.747  36.392  18.794  1.00  0.00     0.184 A 
ATOM     22  F   UNL     1      15.400  36.235  18.776  1.00  0.00    -0.201 F 
BRANCH  17  23
ATOM     23  N   UNL     1      20.889  37.034  18.665  1.00  0.00    -0.324 N 
ATOM     24  H   UNL     1      21.268  37.870  19.162  1.00  0.00     0.170 HD
BRANCH  23  25
ATOM     25  C   UNL     1      21.825  36.113  18.078  1.00  0.00     0.049 A 
ATOM     26  C   UNL     1      23.179  34.098  18.277  1.00  0.00     0.166 A 
ATOM     27  C   UNL     1      22.260  35.012  18.820  1.00  0.00     0.076 A 
ATOM     28  C   UNL     1      23.682  34.293  16.980  1.00  0.00     0.203 A 
ATOM     29  C   UNL     1      23.271  35.425  16.230  1.00  0.00     0.166 A 
ATOM     30  C   UNL     1      22.354  36.330  16.798  1.00  0.00     0.076 A 
BRANCH  26  31
ATOM     31  O   UNL     1      23.617  32.973  18.996  1.00  0.00    -0.493 OA
ATOM     32  C   UNL     1      24.525  33.015  20.091  1.00  0.00     0.278 C 
ENDBRANCH  26  31
BRANCH  28  33
ATOM     33  O   UNL     1      24.589  33.327  16.504  1.00  0.00    -0.490 OA
ATOM     34  C   UNL     1      26.007  33.445  16.451  1.00  0.00     0.278 C 
ENDBRANCH  28  33
BRANCH  29  35
ATOM     35  O   UNL     1      23.783  35.634  14.939  1.00  0.00    -0.493 OA
ATOM     36  C   UNL     1      23.738  36.869  14.231  1.00  0.00     0.278 C 
ENDBRANCH  29  35
ENDBRANCH  23  25
ENDBRANCH  17  23
ENDBRANCH  14  16
ENDBRANCH   1  14
BRANCH  11  37
ATOM     37  C   UNL     1      19.684  32.444  13.677  1.00  0.00     0.303 C 
BRANCH  37  38
ATOM     38  O   UNL     1      20.564  33.543  13.718  1.00  0.00    -0.265 OA
BRANCH  38  39
ATOM     39  P   UNL     1      21.994  33.129  12.884  1.00  0.00     0.471 P 
ATOM     40  O   UNL     1      22.490  34.325  12.098  1.00  0.00    -0.228 OA
BRANCH  39  41
ATOM     41  O   UNL     1      21.725  31.820  11.839  1.00  0.00    -0.303 OA
ATOM     42  H   UNL     1      22.141  31.040  12.286  1.00  0.00     0.223 HD
ENDBRANCH  39  41
BRANCH  39  43
ATOM     43  O   UNL     1      23.172  32.688  14.018  1.00  0.00    -0.303 OA
ATOM     44  H   UNL     1      22.975  33.246  14.813  1.00  0.00     0.223 HD
ENDBRANCH  39  43
ENDBRANCH  38  39
ENDBRANCH  37  38
ENDBRANCH  11  37
TORSDOF 12
ENDMDL
MODEL 2
REMARK VINA RESULT:    -8.134      0.083      2.061
REMARK INTER + INTRA:         -16.177
REMARK INTER:                 -13.331
REMARK INTRA:                  -2.846
REMARK UNBOUND:                -2.812
REMARK SMILES COc1cc(Nc2ncc(F)c(Nc3ccc4c(n3)N(COP(=O)(O)O)C(=O)C(C)(C)O4)n2)cc(OC)c1OC
REMARK SMILES IDX 14 1 19 2 18 3 17 4 32 5 29 6 30 7 31 8 27 9 28 10 20 11
REMARK SMILES IDX 16 12 15 13 13 14 12 16 7 17 8 18 33 19 9 20 10 21 11 22
REMARK SMILES IDX 6 23 5 25 3 26 4 27 38 28 35 29 34 30 2 31 1 32 39 33 40 34
REMARK SMILES IDX 36 35 37 36 21 37 22 38 23 39 24 40 25 41 26 43
REMARK H PARENT 13 15 6 24 25 42 26 44
REMARK Flexibility Score: inf
ROOT
ATOM      1  C   UNL     1      16.776  34.106  16.239  1.00  0.00     0.134 A 
ATOM      2  N   UNL     1      17.695  33.607  15.368  1.00  0.00    -0.209 NA
ATOM      3  C   UNL     1      17.426  33.441  14.042  1.00  0.00     0.182 A 
ATOM      4  C   UNL     1      16.163  33.780  13.547  1.00  0.00     0.164 A 
ATOM      5  O   UNL     1      15.879  33.628  12.188  1.00  0.00    -0.474 OA
ATOM      6  C   UNL     1      16.895  33.535  11.182  1.00  0.00     0.182 C 
ATOM      7  C   UNL     1      16.331  32.708  10.018  1.00  0.00     0.067 C 
ATOM      8  C   UNL     1      17.234  34.953  10.701  1.00  0.00     0.067 C 
ATOM      9  C   UNL     1      18.154  32.887  11.733  1.00  0.00     0.273 C 
ATOM     10  O   UNL     1      19.013  32.421  10.934  1.00  0.00    -0.270 OA
ATOM     11  N   UNL     1      18.412  32.888  13.153  1.00  0.00    -0.265 N 
ATOM     12  C   UNL     1      15.186  34.256  14.423  1.00  0.00     0.054 A 
ATOM     13  C   UNL     1      15.487  34.423  15.775  1.00  0.00     0.051 A 
ENDROOT
BRANCH   1  14
ATOM     14  N   UNL     1      17.125  34.238  17.625  1.00  0.00    -0.322 N 
ATOM     15  H   UNL     1      16.993  33.404  18.240  1.00  0.00     0.170 HD
BRANCH  14  16
ATOM     16  C   UNL     1      17.613  35.445  18.230  1.00  0.00     0.173 A 
ATOM     17  C   UNL     1      19.461  36.849  18.728  1.00  0.00     0.229 A 
ATOM     18  N   UNL     1      18.622  37.776  19.267  1.00  0.00    -0.218 NA
ATOM     19  N   UNL     1      18.947  35.706  18.200  1.00  0.00    -0.192 NA
ATOM     20  C   UNL     1      17.281  37.570  19.306  1.00  0.00     0.158 A 
ATOM     21  C   UNL     1      16.741  36.399  18.780  1.00  0.00     0.184 A 
ATOM     22  F   UNL     1      15.395  36.227  18.761  1.00  0.00    -0.201 F 
BRANCH  17  23
ATOM     23  N   UNL     1      20.875  37.088  18.657  1.00  0.00    -0.324 N 
ATOM     24  H   UNL     1      21.236  37.963  19.099  1.00  0.00     0.170 HD
BRANCH  23  25
ATOM     25  C   UNL     1      21.832  36.143  18.147  1.00  0.00     0.049 A 
ATOM     26  C   UNL     1      23.273  35.406  16.326  1.00  0.00     0.166 A 
ATOM     27  C   UNL     1      22.341  36.314  16.857  1.00  0.00     0.076 A 
ATOM     28  C   UNL     1      23.691  34.302  17.088  1.00  0.00     0.203 A 
ATOM     29  C   UNL     1      23.157  34.103  18.388  1.00  0.00     0.166 A 
ATOM     30  C   UNL     1      22.220  35.024  18.895  1.00  0.00     0.076 A 
BRANCH  26  31
ATOM     31  O   UNL     1      23.813  35.566  15.040  1.00  0.00    -0.493 OA
ATOM     32  C   UNL     1      23.883  36.803  14.338  1.00  0.00     0.278 C 
ENDBRANCH  26  31
BRANCH  28  33
ATOM     33  O   UNL     1      24.635  33.445  16.491  1.00  0.00    -0.490 OA
ATOM     34  C   UNL     1      26.040  33.438  16.720  1.00  0.00     0.278 C 
ENDBRANCH  28  33
BRANCH  29  35
ATOM     35  O   UNL     1      23.560  32.993  19.148  1.00  0.00    -0.493 OA
ATOM     36  C   UNL     1      24.501  33.031  20.216  1.00  0.00     0.278 C 
ENDBRANCH  29  35
ENDBRANCH  23  25
ENDBRANCH  17  23
ENDBRANCH  14  16
ENDBRANCH   1  14
BRANCH  11  37
ATOM     37  C   UNL     1      19.710  32.441  13.675  1.00  0.00     0.303 C 
BRANCH  37  38
ATOM     38  O   UNL     1      20.579  33.546  13.745  1.00  0.00    -0.265 OA
BRANCH  38  39
ATOM     39  P   UNL     1      22.009  33.172  12.893  1.00  0.00     0.471 P 
ATOM     40  O   UNL     1      22.468  34.383  12.108  1.00  0.00    -0.228 OA
BRANCH  39  41
ATOM     41  O   UNL     1      21.759  31.862  11.843  1.00  0.00    -0.303 OA
ATOM     42  H   UNL     1      20.777  31.811  11.721  1.00  0.00     0.223 HD
ENDBRANCH  39  41
BRANCH  39  43
ATOM     43  O   UNL     1      23.210  32.752  14.010  1.00  0.00    -0.303 OA
ATOM     44  H   UNL     1      23.905  33.451  13.904  1.00  0.00     0.223 HD
ENDBRANCH  39  43
ENDBRANCH  38  39
ENDBRANCH  37  38
ENDBRANCH  11  37
TORSDOF 12
ENDMDL
MODEL 3
REMARK VINA RESULT:    -8.082      4.493      8.997
REMARK INTER + INTRA:         -16.092
REMARK INTER:                 -13.501
REMARK INTRA:                  -2.590
REMARK UNBOUND:                -2.812
REMARK SMILES COc1cc(Nc2ncc(F)c(Nc3ccc4c(n3)N(COP(=O)(O)O)C(=O)C(C)(C)O4)n2)cc(OC)c1OC
REMARK SMILES IDX 14 1 19 2 18 3 17 4 32 5 29 6 30 7 31 8 27 9 28 10 20 11
REMARK SMILES IDX 16 12 15 13 13 14 12 16 7 17 8 18 33 19 9 20 10 21 11 22
REMARK SMILES IDX 6 23 5 25 3 26 4 27 38 28 35 29 34 30 2 31 1 32 39 33 40 34
REMARK SMILES IDX 36 35 37 36 21 37 22 38 23 39 24 40 25 41 26 43
REMARK H PARENT 13 15 6 24 25 42 26 44
REMARK Flexibility Score: inf
ROOT
ATOM      1  C   UNL     1      27.207  35.445  14.335  1.00  0.00     0.134 A 
ATOM      2  N   UNL     1      26.858  34.194  13.928  1.00  0.00    -0.209 NA
ATOM      3  C   UNL     1      27.762  33.325  13.394  1.00  0.00     0.182 A 
ATOM      4  C   UNL     1      29.094  33.721  13.241  1.00  0.00     0.164 A 
ATOM      5  O   UNL     1      30.033  32.836  12.707  1.00  0.00    -0.474 OA
ATOM      6  C   UNL     1      29.839  31.416  12.675  1.00  0.00     0.182 C 
ATOM      7  C   UNL     1      30.624  30.860  11.478  1.00  0.00     0.067 C 
ATOM      8  C   UNL     1      30.385  30.822  13.981  1.00  0.00     0.067 C 
ATOM      9  C   UNL     1      28.366  31.067  12.552  1.00  0.00     0.273 C 
ATOM     10  O   UNL     1      28.032  29.909  12.175  1.00  0.00    -0.270 OA
ATOM     11  N   UNL     1      27.355  32.017  12.951  1.00  0.00    -0.265 N 
ATOM     12  C   UNL     1      29.473  35.013  13.612  1.00  0.00     0.054 A 
ATOM     13  C   UNL     1      28.531  35.882  14.162  1.00  0.00     0.051 A 
ENDROOT
BRANCH   1  14
ATOM     14  N   UNL     1      26.198  36.311  14.875  1.00  0.00    -0.322 N 
ATOM     15  H   UNL     1      26.402  36.790  15.780  1.00  0.00     0.170 HD
BRANCH  14  16
ATOM     16  C   UNL     1      24.914  36.538  14.273  1.00  0.00     0.173 A 
ATOM     17  C   UNL     1      22.550  36.462  14.473  1.00  0.00     0.229 A 
ATOM     18  N   UNL     1      22.419  37.036  13.245  1.00  0.00    -0.218 NA
ATOM     19  N   UNL     1      23.792  36.237  14.980  1.00  0.00    -0.192 NA
ATOM     20  C   UNL     1      23.509  37.369  12.507  1.00  0.00     0.158 A 
ATOM     21  C   UNL     1      24.787  37.134  13.008  1.00  0.00     0.184 A 
ATOM     22  F   UNL     1      25.872  37.528  12.296  1.00  0.00    -0.201 F 
BRANCH  17  23
ATOM     23  N   UNL     1      21.395  36.145  15.265  1.00  0.00    -0.324 N 
ATOM     24  H   UNL     1      21.328  36.582  16.211  1.00  0.00     0.170 HD
BRANCH  23  25
ATOM     25  C   UNL     1      20.269  35.386  14.789  1.00  0.00     0.049 A 
ATOM     26  C   UNL     1      17.865  34.995  14.784  1.00  0.00     0.166 A 
ATOM     27  C   UNL     1      18.984  35.720  15.225  1.00  0.00     0.076 A 
ATOM     28  C   UNL     1      18.031  33.910  13.907  1.00  0.00     0.203 A 
ATOM     29  C   UNL     1      19.334  33.543  13.482  1.00  0.00     0.166 A 
ATOM     30  C   UNL     1      20.441  34.282  13.943  1.00  0.00     0.076 A 
BRANCH  26  31
ATOM     31  O   UNL     1      16.562  35.323  15.193  1.00  0.00    -0.493 OA
ATOM     32  C   UNL     1      16.043  35.103  16.500  1.00  0.00     0.278 C 
ENDBRANCH  26  31
BRANCH  28  33
ATOM     33  O   UNL     1      16.859  33.242  13.501  1.00  0.00    -0.490 OA
ATOM     34  C   UNL     1      15.990  33.620  12.440  1.00  0.00     0.278 C 
ENDBRANCH  28  33
BRANCH  29  35
ATOM     35  O   UNL     1      19.508  32.450  12.618  1.00  0.00    -0.493 OA
ATOM     36  C   UNL     1      19.176  32.442  11.232  1.00  0.00     0.278 C 
ENDBRANCH  29  35
ENDBRANCH  23  25
ENDBRANCH  17  23
ENDBRANCH  14  16
ENDBRANCH   1  14
BRANCH  11  37
ATOM     37  C   UNL     1      25.943  31.621  13.019  1.00  0.00     0.303 C 
BRANCH  37  38
ATOM     38  O   UNL     1      25.289  32.058  11.851  1.00  0.00    -0.265 OA
BRANCH  38  39
ATOM     39  P   UNL     1      23.889  32.924  12.301  1.00  0.00     0.471 P 
ATOM     40  O   UNL     1      23.767  34.173  11.454  1.00  0.00    -0.228 OA
BRANCH  39  41
ATOM     41  O   UNL     1      23.941  33.342  13.945  1.00  0.00    -0.303 OA
ATOM     42  H   UNL     1      24.685  32.809  14.325  1.00  0.00     0.223 HD
ENDBRANCH  39  41
BRANCH  39  43
ATOM     43  O   UNL     1      22.537  31.942  12.032  1.00  0.00    -0.303 OA
ATOM     44  H   UNL     1      22.513  31.812  11.049  1.00  0.00     0.223 HD
ENDBRANCH  39  43
ENDBRANCH  38  39
ENDBRANCH  37  38
ENDBRANCH  11  37
TORSDOF 12
ENDMDL
MODEL 4
REMARK VINA RESULT:    -8.024      3.082      6.136
REMARK INTER + INTRA:         -15.996
REMARK INTER:                 -13.466
REMARK INTRA:                  -2.530
REMARK UNBOUND:                -2.812
REMARK SMILES COc1cc(Nc2ncc(F)c(Nc3ccc4c(n3)N(COP(=O)(O)O)C(=O)C(C)(C)O4)n2)cc(OC)c1OC
REMARK SMILES IDX 14 1 19 2 18 3 17 4 32 5 29 6 30 7 31 8 27 9 28 10 20 11
REMARK SMILES IDX 16 12 15 13 13 14 12 16 7 17 8 18 33 19 9 20 10 21 11 22
REMARK SMILES IDX 6 23 5 25 3 26 4 27 38 28 35 29 34 30 2 31 1 32 39 33 40 34
REMARK SMILES IDX 36 35 37 36 21 37 22 38 23 39 24 40 25 41 26 43
REMARK H PARENT 13 15 6 24 25 42 26 44
REMARK Flexibility Score: inf
ROOT
ATOM      1  C   UNL     1      16.381  34.244  15.018  1.00  0.00     0.134 A 
ATOM      2  N   UNL     1      17.570  34.813  15.357  1.00  0.00    -0.209 NA
ATOM      3  C   UNL     1      17.724  35.556  16.490  1.00  0.00     0.182 A 
ATOM      4  C   UNL     1      16.630  35.759  17.335  1.00  0.00     0.164 A 
ATOM      5  O   UNL     1      16.777  36.507  18.506  1.00  0.00    -0.474 OA
ATOM      6  C   UNL     1      18.047  36.748  19.125  1.00  0.00     0.182 C 
ATOM      7  C   UNL     1      17.957  38.082  19.881  1.00  0.00     0.067 C 
ATOM      8  C   UNL     1      18.330  35.606  20.111  1.00  0.00     0.067 C 
ATOM      9  C   UNL     1      19.160  36.796  18.093  1.00  0.00     0.273 C 
ATOM     10  O   UNL     1      20.267  37.321  18.398  1.00  0.00    -0.270 OA
ATOM     11  N   UNL     1      18.989  36.164  16.807  1.00  0.00    -0.265 N 
ATOM     12  C   UNL     1      15.387  35.223  16.993  1.00  0.00     0.054 A 
ATOM     13  C   UNL     1      15.256  34.461  15.832  1.00  0.00     0.051 A 
ENDROOT
BRANCH   1  14
ATOM     14  N   UNL     1      16.290  33.488  13.802  1.00  0.00    -0.322 N 
ATOM     15  H   UNL     1      15.456  32.872  13.674  1.00  0.00     0.170 HD
BRANCH  14  16
ATOM     16  C   UNL     1      17.282  33.494  12.764  1.00  0.00     0.173 A 
ATOM     17  C   UNL     1      19.488  32.949  12.077  1.00  0.00     0.229 A 
ATOM     18  N   UNL     1      19.207  33.368  10.813  1.00  0.00    -0.218 NA
ATOM     19  N   UNL     1      18.520  32.999  13.032  1.00  0.00    -0.192 NA
ATOM     20  C   UNL     1      17.982  33.855  10.491  1.00  0.00     0.158 A 
ATOM     21  C   UNL     1      16.983  33.923  11.461  1.00  0.00     0.184 A 
ATOM     22  F   UNL     1      15.741  34.348  11.119  1.00  0.00    -0.201 F 
BRANCH  17  23
ATOM     23  N   UNL     1      20.775  32.402  12.403  1.00  0.00    -0.324 N 
ATOM     24  H   UNL     1      20.873  31.362  12.381  1.00  0.00     0.170 HD
BRANCH  23  25
ATOM     25  C   UNL     1      21.960  33.189  12.619  1.00  0.00     0.049 A 
ATOM     26  C   UNL     1      24.388  33.311  12.768  1.00  0.00     0.166 A 
ATOM     27  C   UNL     1      23.212  32.572  12.556  1.00  0.00     0.076 A 
ATOM     28  C   UNL     1      24.313  34.682  13.063  1.00  0.00     0.203 A 
ATOM     29  C   UNL     1      23.045  35.312  13.160  1.00  0.00     0.166 A 
ATOM     30  C   UNL     1      21.881  34.548  12.949  1.00  0.00     0.076 A 
BRANCH  26  31
ATOM     31  O   UNL     1      25.659  32.718  12.691  1.00  0.00    -0.493 OA
ATOM     32  C   UNL     1      26.318  32.368  11.479  1.00  0.00     0.278 C 
ENDBRANCH  26  31
BRANCH  28  33
ATOM     33  O   UNL     1      25.536  35.355  13.250  1.00  0.00    -0.490 OA
ATOM     34  C   UNL     1      26.136  35.695  14.495  1.00  0.00     0.278 C 
ENDBRANCH  28  33
BRANCH  29  35
ATOM     35  O   UNL     1      22.963  36.679  13.470  1.00  0.00    -0.493 OA
ATOM     36  C   UNL     1      23.188  37.742  12.549  1.00  0.00     0.278 C 
ENDBRANCH  29  35
ENDBRANCH  23  25
ENDBRANCH  17  23
ENDBRANCH  14  16
ENDBRANCH   1  14
BRANCH  11  37
ATOM     37  C   UNL     1      20.122  36.036  15.882  1.00  0.00     0.303 C 
BRANCH  37  38
ATOM     38  O   UNL     1      20.720  34.774  16.063  1.00  0.00    -0.265 OA
BRANCH  38  39
ATOM     39  P   UNL     1      22.217  34.987  16.854  1.00  0.00     0.471 P 
ATOM     40  O   UNL     1      23.216  33.973  16.337  1.00  0.00    -0.228 OA
BRANCH  39  41
ATOM     41  O   UNL     1      22.040  34.821  18.533  1.00  0.00    -0.303 OA
ATOM     42  H   UNL     1      22.156  35.735  18.899  1.00  0.00     0.223 HD
ENDBRANCH  39  41
BRANCH  39  43
ATOM     43  O   UNL     1      22.789  36.545  16.518  1.00  0.00    -0.303 OA
ATOM     44  H   UNL     1      23.774  36.445  16.471  1.00  0.00     0.223 HD
ENDBRANCH  39  43
ENDBRANCH  38  39
ENDBRANCH  37  38
ENDBRANCH  11  37
TORSDOF 12
ENDMDL
MODEL 5
REMARK VINA RESULT:    -7.982      1.391      1.693
REMARK INTER + INTRA:         -15.928
REMARK INTER:                 -13.645
REMARK INTRA:                  -2.283
REMARK UNBOUND:                -2.812
REMARK SMILES COc1cc(Nc2ncc(F)c(Nc3ccc4c(n3)N(COP(=O)(O)O)C(=O)C(C)(C)O4)n2)cc(OC)c1OC
REMARK SMILES IDX 14 1 19 2 18 3 17 4 32 5 29 6 30 7 31 8 27 9 28 10 20 11
REMARK SMILES IDX 16 12 15 13 13 14 12 16 7 17 8 18 33 19 9 20 10 21 11 22
REMARK SMILES IDX 6 23 5 25 3 26 4 27 38 28 35 29 34 30 2 31 1 32 39 33 40 34
REMARK SMILES IDX 36 35 37 36 21 37 22 38 23 39 24 40 25 41 26 43
REMARK H PARENT 13 15 6 24 25 42 26 44
REMARK Flexibility Score: inf
ROOT
ATOM      1  C   UNL     1      16.365  35.134  16.155  1.00  0.00     0.134 A 
ATOM      2  N   UNL     1      17.434  34.939  15.334  1.00  0.00    -0.209 NA
ATOM      3  C   UNL     1      17.301  34.427  14.078  1.00  0.00     0.182 A 
ATOM      4  C   UNL     1      16.033  34.076  13.606  1.00  0.00     0.164 A 
ATOM      5  O   UNL     1      15.882  33.564  12.315  1.00  0.00    -0.474 OA
ATOM      6  C   UNL     1      16.860  33.743  11.283  1.00  0.00     0.182 C 
ATOM      7  C   UNL     1      16.753  32.552  10.321  1.00  0.00     0.067 C 
ATOM      8  C   UNL     1      16.546  35.048  10.538  1.00  0.00     0.067 C 
ATOM      9  C   UNL     1      18.260  33.832  11.865  1.00  0.00     0.273 C 
ATOM     10  O   UNL     1      19.257  33.652  11.112  1.00  0.00    -0.270 OA
ATOM     11  N   UNL     1      18.454  34.211  13.244  1.00  0.00    -0.265 N 
ATOM     12  C   UNL     1      14.923  34.227  14.439  1.00  0.00     0.054 A 
ATOM     13  C   UNL     1      15.083  34.757  15.720  1.00  0.00     0.051 A 
ENDROOT
BRANCH   1  14
ATOM     14  N   UNL     1      16.583  35.662  17.472  1.00  0.00    -0.322 N 
ATOM     15  H   UNL     1      15.757  36.042  17.985  1.00  0.00     0.170 HD
BRANCH  14  16
ATOM     16  C   UNL     1      17.863  35.733  18.118  1.00  0.00     0.173 A 
ATOM     17  C   UNL     1      20.111  34.980  18.234  1.00  0.00     0.229 A 
ATOM     18  N   UNL     1      20.370  35.878  19.223  1.00  0.00    -0.218 NA
ATOM     19  N   UNL     1      18.869  34.930  17.680  1.00  0.00    -0.192 NA
ATOM     20  C   UNL     1      19.404  36.712  19.684  1.00  0.00     0.158 A 
ATOM     21  C   UNL     1      18.124  36.666  19.136  1.00  0.00     0.184 A 
ATOM     22  F   UNL     1      17.181  37.547  19.552  1.00  0.00    -0.201 F 
BRANCH  17  23
ATOM     23  N   UNL     1      21.146  34.124  17.726  1.00  0.00    -0.324 N 
ATOM     24  H   UNL     1      20.954  33.097  17.709  1.00  0.00     0.170 HD
BRANCH  23  25
ATOM     25  C   UNL     1      22.360  34.595  17.114  1.00  0.00     0.049 A 
ATOM     26  C   UNL     1      24.772  34.396  16.833  1.00  0.00     0.166 A 
ATOM     27  C   UNL     1      23.567  33.956  17.408  1.00  0.00     0.076 A 
ATOM     28  C   UNL     1      24.774  35.499  15.962  1.00  0.00     0.203 A 
ATOM     29  C   UNL     1      23.557  36.174  15.681  1.00  0.00     0.166 A 
ATOM     30  C   UNL     1      22.365  35.718  16.275  1.00  0.00     0.076 A 
BRANCH  26  31
ATOM     31  O   UNL     1      25.995  33.759  17.098  1.00  0.00    -0.493 OA
ATOM     32  C   UNL     1      26.239  32.904  18.210  1.00  0.00     0.278 C 
ENDBRANCH  26  31
BRANCH  28  33
ATOM     33  O   UNL     1      26.018  35.870  15.418  1.00  0.00    -0.490 OA
ATOM     34  C   UNL     1      26.538  35.487  14.149  1.00  0.00     0.278 C 
ENDBRANCH  28  33
BRANCH  29  35
ATOM     35  O   UNL     1      23.555  37.286  14.824  1.00  0.00    -0.493 OA
ATOM     36  C   UNL     1      23.335  37.236  13.418  1.00  0.00     0.278 C 
ENDBRANCH  29  35
ENDBRANCH  23  25
ENDBRANCH  17  23
ENDBRANCH  14  16
ENDBRANCH   1  14
BRANCH  11  37
ATOM     37  C   UNL     1      19.801  34.487  13.760  1.00  0.00     0.303 C 
BRANCH  37  38
ATOM     38  O   UNL     1      20.224  33.395  14.541  1.00  0.00    -0.265 OA
BRANCH  38  39
ATOM     39  P   UNL     1      21.587  32.687  13.798  1.00  0.00     0.471 P 
ATOM     40  O   UNL     1      22.509  33.773  13.283  1.00  0.00    -0.228 OA
BRANCH  39  41
ATOM     41  O   UNL     1      21.118  31.672  12.521  1.00  0.00    -0.303 OA
ATOM     42  H   UNL     1      21.909  31.622  11.926  1.00  0.00     0.223 HD
ENDBRANCH  39  41
BRANCH  39  43
ATOM     43  O   UNL     1      22.414  31.765  14.951  1.00  0.00    -0.303 OA
ATOM     44  H   UNL     1      21.699  31.334  15.486  1.00  0.00     0.223 HD
ENDBRANCH  39  43
ENDBRANCH  38  39
ENDBRANCH  37  38
ENDBRANCH  11  37
TORSDOF 12
ENDMDL
MODEL 6
REMARK VINA RESULT:    -7.948      3.067      6.255
REMARK INTER + INTRA:         -15.870
REMARK INTER:                 -13.438
REMARK INTRA:                  -2.432
REMARK UNBOUND:                -2.812
REMARK SMILES COc1cc(Nc2ncc(F)c(Nc3ccc4c(n3)N(COP(=O)(O)O)C(=O)C(C)(C)O4)n2)cc(OC)c1OC
REMARK SMILES IDX 14 1 19 2 18 3 17 4 32 5 29 6 30 7 31 8 27 9 28 10 20 11
REMARK SMILES IDX 16 12 15 13 13 14 12 16 7 17 8 18 33 19 9 20 10 21 11 22
REMARK SMILES IDX 6 23 5 25 3 26 4 27 38 28 35 29 34 30 2 31 1 32 39 33 40 34
REMARK SMILES IDX 36 35 37 36 21 37 22 38 23 39 24 40 25 41 26 43
REMARK H PARENT 13 15 6 24 25 42 26 44
REMARK Flexibility Score: inf
ROOT
ATOM      1  C   UNL     1      16.362  34.265  14.985  1.00  0.00     0.134 A 
ATOM      2  N   UNL     1      17.549  34.838  15.324  1.00  0.00    -0.209 NA
ATOM      3  C   UNL     1      17.701  35.575  16.461  1.00  0.00     0.182 A 
ATOM      4  C   UNL     1      16.608  35.766  17.311  1.00  0.00     0.164 A 
ATOM      5  O   UNL     1      16.755  36.508  18.486  1.00  0.00    -0.474 OA
ATOM      6  C   UNL     1      18.024  36.752  19.103  1.00  0.00     0.182 C 
ATOM      7  C   UNL     1      17.929  38.080  19.868  1.00  0.00     0.067 C 
ATOM      8  C   UNL     1      18.317  35.605  20.081  1.00  0.00     0.067 C 
ATOM      9  C   UNL     1      19.134  36.813  18.068  1.00  0.00     0.273 C 
ATOM     10  O   UNL     1      20.239  37.343  18.374  1.00  0.00    -0.270 OA
ATOM     11  N   UNL     1      18.964  36.188  16.779  1.00  0.00    -0.265 N 
ATOM     12  C   UNL     1      15.367  35.225  16.969  1.00  0.00     0.054 A 
ATOM     13  C   UNL     1      15.237  34.470  15.803  1.00  0.00     0.051 A 
ENDROOT
BRANCH   1  14
ATOM     14  N   UNL     1      16.272  33.516  13.764  1.00  0.00    -0.322 N 
ATOM     15  H   UNL     1      15.428  32.916  13.623  1.00  0.00     0.170 HD
BRANCH  14  16
ATOM     16  C   UNL     1      17.276  33.509  12.738  1.00  0.00     0.173 A 
ATOM     17  C   UNL     1      19.475  32.914  12.069  1.00  0.00     0.229 A 
ATOM     18  N   UNL     1      19.220  33.357  10.808  1.00  0.00    -0.218 NA
ATOM     19  N   UNL     1      18.496  32.977  13.013  1.00  0.00    -0.192 NA
ATOM     20  C   UNL     1      18.013  33.882  10.479  1.00  0.00     0.158 A 
ATOM     21  C   UNL     1      17.005  33.965  11.437  1.00  0.00     0.184 A 
ATOM     22  F   UNL     1      15.779  34.428  11.087  1.00  0.00    -0.201 F 
BRANCH  17  23
ATOM     23  N   UNL     1      20.742  32.326  12.402  1.00  0.00    -0.324 N 
ATOM     24  H   UNL     1      20.806  31.284  12.386  1.00  0.00     0.170 HD
BRANCH  23  25
ATOM     25  C   UNL     1      21.951  33.075  12.617  1.00  0.00     0.049 A 
ATOM     26  C   UNL     1      23.038  35.216  13.025  1.00  0.00     0.166 A 
ATOM     27  C   UNL     1      21.875  34.455  12.820  1.00  0.00     0.076 A 
ATOM     28  C   UNL     1      24.297  34.593  13.015  1.00  0.00     0.203 A 
ATOM     29  C   UNL     1      24.388  33.197  12.779  1.00  0.00     0.166 A 
ATOM     30  C   UNL     1      23.208  32.457  12.569  1.00  0.00     0.076 A 
BRANCH  26  31
ATOM     31  O   UNL     1      22.987  36.602  13.250  1.00  0.00    -0.493 OA
ATOM     32  C   UNL     1      23.215  37.593  12.254  1.00  0.00     0.278 C 
ENDBRANCH  26  31
BRANCH  28  33
ATOM     33  O   UNL     1      25.413  35.422  13.241  1.00  0.00    -0.490 OA
ATOM     34  C   UNL     1      26.115  35.585  14.468  1.00  0.00     0.278 C 
ENDBRANCH  28  33
BRANCH  29  35
ATOM     35  O   UNL     1      25.645  32.571  12.751  1.00  0.00    -0.493 OA
ATOM     36  C   UNL     1      26.437  32.378  11.584  1.00  0.00     0.278 C 
ENDBRANCH  29  35
ENDBRANCH  23  25
ENDBRANCH  17  23
ENDBRANCH  14  16
ENDBRANCH   1  14
BRANCH  11  37
ATOM     37  C   UNL     1      20.095  36.073  15.850  1.00  0.00     0.303 C 
BRANCH  37  38
ATOM     38  O   UNL     1      20.653  34.786  15.966  1.00  0.00    -0.265 OA
BRANCH  38  39
ATOM     39  P   UNL     1      22.178  34.918  16.720  1.00  0.00     0.471 P 
ATOM     40  O   UNL     1      23.072  33.783  16.265  1.00  0.00    -0.228 OA
BRANCH  39  41
ATOM     41  O   UNL     1      22.020  34.889  18.409  1.00  0.00    -0.303 OA
ATOM     42  H   UNL     1      22.948  34.898  18.757  1.00  0.00     0.223 HD
ENDBRANCH  39  41
BRANCH  39  43
ATOM     43  O   UNL     1      22.881  36.388  16.264  1.00  0.00    -0.303 OA
ATOM     44  H   UNL     1      23.854  36.203  16.237  1.00  0.00     0.223 HD
ENDBRANCH  39  43
ENDBRANCH  38  39
ENDBRANCH  37  38
ENDBRANCH  11  37
TORSDOF 12
ENDMDL
MODEL 7
REMARK VINA RESULT:    -7.915      4.453      8.981
REMARK INTER + INTRA:         -15.818
REMARK INTER:                 -13.496
REMARK INTRA:                  -2.321
REMARK UNBOUND:                -2.812
REMARK SMILES COc1cc(Nc2ncc(F)c(Nc3ccc4c(n3)N(COP(=O)(O)O)C(=O)C(C)(C)O4)n2)cc(OC)c1OC
REMARK SMILES IDX 14 1 19 2 18 3 17 4 32 5 29 6 30 7 31 8 27 9 28 10 20 11
REMARK SMILES IDX 16 12 15 13 13 14 12 16 7 17 8 18 33 19 9 20 10 21 11 22
REMARK SMILES IDX 6 23 5 25 3 26 4 27 38 28 35 29 34 30 2 31 1 32 39 33 40 34
REMARK SMILES IDX 36 35 37 36 21 37 22 38 23 39 24 40 25 41 26 43
REMARK H PARENT 13 15 6 24 25 42 26 44
REMARK Flexibility Score: inf
ROOT
ATOM      1  C   UNL     1      27.202  35.375  14.519  1.00  0.00     0.134 A 
ATOM      2  N   UNL     1      26.843  34.141  14.069  1.00  0.00    -0.209 NA
ATOM      3  C   UNL     1      27.733  33.299  13.472  1.00  0.00     0.182 A 
ATOM      4  C   UNL     1      29.060  33.705  13.299  1.00  0.00     0.164 A 
ATOM      5  O   UNL     1      29.984  32.846  12.701  1.00  0.00    -0.474 OA
ATOM      6  C   UNL     1      29.791  31.429  12.613  1.00  0.00     0.182 C 
ATOM      7  C   UNL     1      30.543  30.926  11.372  1.00  0.00     0.067 C 
ATOM      8  C   UNL     1      30.375  30.780  13.877  1.00  0.00     0.067 C 
ATOM      9  C   UNL     1      28.316  31.081  12.517  1.00  0.00     0.273 C 
ATOM     10  O   UNL     1      27.973  29.940  12.100  1.00  0.00    -0.270 OA
ATOM     11  N   UNL     1      27.316  32.010  12.985  1.00  0.00    -0.265 N 
ATOM     12  C   UNL     1      29.448  34.981  13.714  1.00  0.00     0.054 A 
ATOM     13  C   UNL     1      28.520  35.823  14.327  1.00  0.00     0.051 A 
ENDROOT
BRANCH   1  14
ATOM     14  N   UNL     1      26.207  36.214  15.123  1.00  0.00    -0.322 N 
ATOM     15  H   UNL     1      26.427  36.636  16.054  1.00  0.00     0.170 HD
BRANCH  14  16
ATOM     16  C   UNL     1      24.918  36.488  14.554  1.00  0.00     0.173 A 
ATOM     17  C   UNL     1      22.561  36.552  14.830  1.00  0.00     0.229 A 
ATOM     18  N   UNL     1      22.421  37.083  13.585  1.00  0.00    -0.218 NA
ATOM     19  N   UNL     1      23.806  36.279  15.307  1.00  0.00    -0.192 NA
ATOM     20  C   UNL     1      23.501  37.326  12.800  1.00  0.00     0.158 A 
ATOM     21  C   UNL     1      24.782  37.040  13.269  1.00  0.00     0.184 A 
ATOM     22  F   UNL     1      25.862  37.346  12.508  1.00  0.00    -0.201 F 
BRANCH  17  23
ATOM     23  N   UNL     1      21.418  36.331  15.670  1.00  0.00    -0.324 N 
ATOM     24  H   UNL     1      21.413  36.796  16.605  1.00  0.00     0.170 HD
BRANCH  23  25
ATOM     25  C   UNL     1      20.230  35.632  15.255  1.00  0.00     0.049 A 
ATOM     26  C   UNL     1      19.176  33.976  13.814  1.00  0.00     0.166 A 
ATOM     27  C   UNL     1      20.319  34.671  14.246  1.00  0.00     0.076 A 
ATOM     28  C   UNL     1      17.925  34.255  14.387  1.00  0.00     0.203 A 
ATOM     29  C   UNL     1      17.819  35.252  15.392  1.00  0.00     0.166 A 
ATOM     30  C   UNL     1      18.977  35.939  15.803  1.00  0.00     0.076 A 
BRANCH  26  31
ATOM     31  O   UNL     1      19.243  32.992  12.814  1.00  0.00    -0.493 OA
ATOM     32  C   UNL     1      19.325  33.258  11.418  1.00  0.00     0.278 C 
ENDBRANCH  26  31
BRANCH  28  33
ATOM     33  O   UNL     1      16.831  33.508  13.909  1.00  0.00    -0.490 OA
ATOM     34  C   UNL     1      15.954  33.870  12.849  1.00  0.00     0.278 C 
ENDBRANCH  28  33
BRANCH  29  35
ATOM     35  O   UNL     1      16.568  35.547  15.957  1.00  0.00    -0.493 OA
ATOM     36  C   UNL     1      15.974  34.842  17.043  1.00  0.00     0.278 C 
ENDBRANCH  29  35
ENDBRANCH  23  25
ENDBRANCH  17  23
ENDBRANCH  14  16
ENDBRANCH   1  14
BRANCH  11  37
ATOM     37  C   UNL     1      25.907  31.608  13.076  1.00  0.00     0.303 C 
BRANCH  37  38
ATOM     38  O   UNL     1      25.244  31.996  11.896  1.00  0.00    -0.265 OA
BRANCH  38  39
ATOM     39  P   UNL     1      23.872  32.919  12.318  1.00  0.00     0.471 P 
ATOM     40  O   UNL     1      23.814  34.168  11.463  1.00  0.00    -0.228 OA
BRANCH  39  41
ATOM     41  O   UNL     1      23.914  33.343  13.961  1.00  0.00    -0.303 OA
ATOM     42  H   UNL     1      23.719  32.504  14.451  1.00  0.00     0.223 HD
ENDBRANCH  39  41
BRANCH  39  43
ATOM     43  O   UNL     1      22.487  31.990  12.031  1.00  0.00    -0.303 OA
ATOM     44  H   UNL     1      22.178  32.272  11.132  1.00  0.00     0.223 HD
ENDBRANCH  39  43
ENDBRANCH  38  39
ENDBRANCH  37  38
ENDBRANCH  11  37
TORSDOF 12
ENDMDL
MODEL 8
REMARK VINA RESULT:    -7.795      4.463      9.296
REMARK INTER + INTRA:         -15.620
REMARK INTER:                 -13.143
REMARK INTRA:                  -2.476
REMARK UNBOUND:                -2.812
REMARK SMILES COc1cc(Nc2ncc(F)c(Nc3ccc4c(n3)N(COP(=O)(O)O)C(=O)C(C)(C)O4)n2)cc(OC)c1OC
REMARK SMILES IDX 14 1 19 2 18 3 17 4 32 5 29 6 30 7 31 8 27 9 28 10 20 11
REMARK SMILES IDX 16 12 15 13 13 14 12 16 7 17 8 18 33 19 9 20 10 21 11 22
REMARK SMILES IDX 6 23 5 25 3 26 4 27 38 28 35 29 34 30 2 31 1 32 39 33 40 34
REMARK SMILES IDX 36 35 37 36 21 37 22 38 23 39 24 40 25 41 26 43
REMARK H PARENT 13 15 6 24 25 42 26 44
REMARK Flexibility Score: inf
ROOT
ATOM      1  C   UNL     1      25.729  32.787  11.818  1.00  0.00     0.134 A 
ATOM      2  N   UNL     1      26.305  33.126  13.004  1.00  0.00    -0.209 NA
ATOM      3  C   UNL     1      27.418  32.496  13.477  1.00  0.00     0.182 A 
ATOM      4  C   UNL     1      27.991  31.458  12.736  1.00  0.00     0.164 A 
ATOM      5  O   UNL     1      29.139  30.814  13.204  1.00  0.00    -0.474 OA
ATOM      6  C   UNL     1      30.017  31.391  14.178  1.00  0.00     0.182 C 
ATOM      7  C   UNL     1      30.689  30.243  14.946  1.00  0.00     0.067 C 
ATOM      8  C   UNL     1      31.080  32.221  13.444  1.00  0.00     0.067 C 
ATOM      9  C   UNL     1      29.258  32.295  15.133  1.00  0.00     0.273 C 
ATOM     10  O   UNL     1      29.784  32.615  16.236  1.00  0.00    -0.270 OA
ATOM     11  N   UNL     1      27.988  32.862  14.747  1.00  0.00    -0.265 N 
ATOM     12  C   UNL     1      27.399  31.061  11.536  1.00  0.00     0.054 A 
ATOM     13  C   UNL     1      26.264  31.725  11.069  1.00  0.00     0.051 A 
ENDROOT
BRANCH   1  14
ATOM     14  N   UNL     1      24.549  33.484  11.391  1.00  0.00    -0.322 N 
ATOM     15  H   UNL     1      24.352  33.522  10.365  1.00  0.00     0.170 HD
BRANCH  14  16
ATOM     16  C   UNL     1      23.640  34.160  12.272  1.00  0.00     0.173 A 
ATOM     17  C   UNL     1      21.950  34.010  13.932  1.00  0.00     0.229 A 
ATOM     18  N   UNL     1      21.944  35.365  14.060  1.00  0.00    -0.218 NA
ATOM     19  N   UNL     1      22.809  33.423  13.055  1.00  0.00    -0.192 NA
ATOM     20  C   UNL     1      22.765  36.144  13.312  1.00  0.00     0.158 A 
ATOM     21  C   UNL     1      23.642  35.559  12.401  1.00  0.00     0.184 A 
ATOM     22  F   UNL     1      24.507  36.337  11.704  1.00  0.00    -0.201 F 
BRANCH  17  23
ATOM     23  N   UNL     1      21.105  33.188  14.752  1.00  0.00    -0.324 N 
ATOM     24  H   UNL     1      21.517  32.306  15.131  1.00  0.00     0.170 HD
BRANCH  23  25
ATOM     25  C   UNL     1      19.789  33.565  15.194  1.00  0.00     0.049 A 
ATOM     26  C   UNL     1      17.521  34.263  14.646  1.00  0.00     0.166 A 
ATOM     27  C   UNL     1      18.814  33.884  14.246  1.00  0.00     0.076 A 
ATOM     28  C   UNL     1      17.201  34.339  16.011  1.00  0.00     0.203 A 
ATOM     29  C   UNL     1      18.193  34.047  16.983  1.00  0.00     0.166 A 
ATOM     30  C   UNL     1      19.484  33.676  16.557  1.00  0.00     0.076 A 
BRANCH  26  31
ATOM     31  O   UNL     1      16.518  34.570  13.712  1.00  0.00    -0.493 OA
ATOM     32  C   UNL     1      16.147  33.738  12.618  1.00  0.00     0.278 C 
ENDBRANCH  26  31
BRANCH  28  33
ATOM     33  O   UNL     1      15.882  34.714  16.330  1.00  0.00    -0.490 OA
ATOM     34  C   UNL     1      14.823  33.847  16.721  1.00  0.00     0.278 C 
ENDBRANCH  28  33
BRANCH  29  35
ATOM     35  O   UNL     1      17.884  34.137  18.350  1.00  0.00    -0.493 OA
ATOM     36  C   UNL     1      17.849  35.345  19.103  1.00  0.00     0.278 C 
ENDBRANCH  29  35
ENDBRANCH  23  25
ENDBRANCH  17  23
ENDBRANCH  14  16
ENDBRANCH   1  14
BRANCH  11  37
ATOM     37  C   UNL     1      27.343  33.886  15.578  1.00  0.00     0.303 C 
BRANCH  37  38
ATOM     38  O   UNL     1      26.642  33.252  16.622  1.00  0.00    -0.265 OA
BRANCH  38  39
ATOM     39  P   UNL     1      24.976  33.565  16.431  1.00  0.00     0.471 P 
ATOM     40  O   UNL     1      24.284  33.486  17.776  1.00  0.00    -0.228 OA
BRANCH  39  41
ATOM     41  O   UNL     1      24.274  32.459  15.353  1.00  0.00    -0.303 OA
ATOM     42  H   UNL     1      23.312  32.441  15.588  1.00  0.00     0.223 HD
ENDBRANCH  39  41
BRANCH  39  43
ATOM     43  O   UNL     1      24.789  35.128  15.807  1.00  0.00    -0.303 OA
ATOM     44  H   UNL     1      24.460  34.990  14.882  1.00  0.00     0.223 HD
ENDBRANCH  39  43
ENDBRANCH  38  39
ENDBRANCH  37  38
ENDBRANCH  11  37
TORSDOF 12
ENDMDL
MODEL 9
REMARK VINA RESULT:    -7.768      4.754      9.348
REMARK INTER + INTRA:         -15.576
REMARK INTER:                 -13.810
REMARK INTRA:                  -1.766
REMARK UNBOUND:                -2.812
REMARK SMILES COc1cc(Nc2ncc(F)c(Nc3ccc4c(n3)N(COP(=O)(O)O)C(=O)C(C)(C)O4)n2)cc(OC)c1OC
REMARK SMILES IDX 14 1 19 2 18 3 17 4 32 5 29 6 30 7 31 8 27 9 28 10 20 11
REMARK SMILES IDX 16 12 15 13 13 14 12 16 7 17 8 18 33 19 9 20 10 21 11 22
REMARK SMILES IDX 6 23 5 25 3 26 4 27 38 28 35 29 34 30 2 31 1 32 39 33 40 34
REMARK SMILES IDX 36 35 37 36 21 37 22 38 23 39 24 40 25 41 26 43
REMARK H PARENT 13 15 6 24 25 42 26 44
REMARK Flexibility Score: inf
ROOT
ATOM      1  C   UNL     1      25.881  32.636  11.794  1.00  0.00     0.134 A 
ATOM      2  N   UNL     1      26.433  32.879  13.014  1.00  0.00    -0.209 NA
ATOM      3  C   UNL     1      27.541  32.220  13.455  1.00  0.00     0.182 A 
ATOM      4  C   UNL     1      28.137  31.251  12.642  1.00  0.00     0.164 A 
ATOM      5  O   UNL     1      29.281  30.578  13.076  1.00  0.00    -0.474 OA
ATOM      6  C   UNL     1      30.137  31.077  14.111  1.00  0.00     0.182 C 
ATOM      7  C   UNL     1      30.803  29.874  14.794  1.00  0.00     0.067 C 
ATOM      8  C   UNL     1      31.205  31.972  13.468  1.00  0.00     0.067 C 
ATOM      9  C   UNL     1      29.352  31.895  15.123  1.00  0.00     0.273 C 
ATOM     10  O   UNL     1      29.855  32.125  16.258  1.00  0.00    -0.270 OA
ATOM     11  N   UNL     1      28.085  32.482  14.761  1.00  0.00    -0.265 N 
ATOM     12  C   UNL     1      27.570  30.950  11.402  1.00  0.00     0.054 A 
ATOM     13  C   UNL     1      26.438  31.642  10.970  1.00  0.00     0.051 A 
ENDROOT
BRANCH   1  14
ATOM     14  N   UNL     1      24.704  33.358  11.403  1.00  0.00    -0.322 N 
ATOM     15  H   UNL     1      24.489  33.420  10.383  1.00  0.00     0.170 HD
BRANCH  14  16
ATOM     16  C   UNL     1      23.820  34.027  12.315  1.00  0.00     0.173 A 
ATOM     17  C   UNL     1      22.058  33.872  13.899  1.00  0.00     0.229 A 
ATOM     18  N   UNL     1      22.160  35.205  14.156  1.00  0.00    -0.218 NA
ATOM     19  N   UNL     1      22.899  33.296  12.998  1.00  0.00    -0.192 NA
ATOM     20  C   UNL     1      23.074  35.975  13.512  1.00  0.00     0.158 A 
ATOM     21  C   UNL     1      23.934  35.402  12.578  1.00  0.00     0.184 A 
ATOM     22  F   UNL     1      24.889  36.162  11.987  1.00  0.00    -0.201 F 
BRANCH  17  23
ATOM     23  N   UNL     1      21.114  33.055  14.608  1.00  0.00    -0.324 N 
ATOM     24  H   UNL     1      21.438  32.114  14.926  1.00  0.00     0.170 HD
BRANCH  23  25
ATOM     25  C   UNL     1      19.811  33.499  15.028  1.00  0.00     0.049 A 
ATOM     26  C   UNL     1      18.250  33.981  16.834  1.00  0.00     0.166 A 
ATOM     27  C   UNL     1      19.514  33.558  16.392  1.00  0.00     0.076 A 
ATOM     28  C   UNL     1      17.261  34.337  15.901  1.00  0.00     0.203 A 
ATOM     29  C   UNL     1      17.542  34.250  14.512  1.00  0.00     0.166 A 
ATOM     30  C   UNL     1      18.816  33.817  14.094  1.00  0.00     0.076 A 
BRANCH  26  31
ATOM     31  O   UNL     1      17.933  34.067  18.199  1.00  0.00    -0.493 OA
ATOM     32  C   UNL     1      18.415  35.075  19.081  1.00  0.00     0.278 C 
ENDBRANCH  26  31
BRANCH  28  33
ATOM     33  O   UNL     1      16.025  34.761  16.423  1.00  0.00    -0.490 OA
ATOM     34  C   UNL     1      14.897  33.942  16.708  1.00  0.00     0.278 C 
ENDBRANCH  28  33
BRANCH  29  35
ATOM     35  O   UNL     1      16.554  34.589  13.575  1.00  0.00    -0.493 OA
ATOM     36  C   UNL     1      16.011  33.702  12.601  1.00  0.00     0.278 C 
ENDBRANCH  29  35
ENDBRANCH  23  25
ENDBRANCH  17  23
ENDBRANCH  14  16
ENDBRANCH   1  14
BRANCH  11  37
ATOM     37  C   UNL     1      27.417  33.430  15.662  1.00  0.00     0.303 C 
BRANCH  37  38
ATOM     38  O   UNL     1      28.247  34.553  15.841  1.00  0.00    -0.265 OA
BRANCH  38  39
ATOM     39  P   UNL     1      27.513  35.899  15.091  1.00  0.00     0.471 P 
ATOM     40  O   UNL     1      26.033  35.919  15.412  1.00  0.00    -0.228 OA
BRANCH  39  41
ATOM     41  O   UNL     1      27.740  35.850  13.410  1.00  0.00    -0.303 OA
ATOM     42  H   UNL     1      28.330  36.619  13.205  1.00  0.00     0.223 HD
ENDBRANCH  39  41
BRANCH  39  43
ATOM     43  O   UNL     1      28.227  37.310  15.696  1.00  0.00    -0.303 OA
ATOM     44  H   UNL     1      27.966  38.018  15.053  1.00  0.00     0.223 HD
ENDBRANCH  39  43
ENDBRANCH  38  39
ENDBRANCH  37  38
ENDBRANCH  11  37
TORSDOF 12
ENDMDL
MODEL 10
REMARK VINA RESULT:    -7.765      2.029      6.944
REMARK INTER + INTRA:         -15.570
REMARK INTER:                 -13.994
REMARK INTRA:                  -1.576
REMARK UNBOUND:                -2.812
REMARK SMILES COc1cc(Nc2ncc(F)c(Nc3ccc4c(n3)N(COP(=O)(O)O)C(=O)C(C)(C)O4)n2)cc(OC)c1OC
REMARK SMILES IDX 14 1 19 2 18 3 17 4 32 5 29 6 30 7 31 8 27 9 28 10 20 11
REMARK SMILES IDX 16 12 15 13 13 14 12 16 7 17 8 18 33 19 9 20 10 21 11 22
REMARK SMILES IDX 6 23 5 25 3 26 4 27 38 28 35 29 34 30 2 31 1 32 39 33 40 34
REMARK SMILES IDX 36 35 37 36 21 37 22 38 23 39 24 40 25 41 26 43
REMARK H PARENT 13 15 6 24 25 42 26 44
REMARK Flexibility Score: inf
ROOT
ATOM      1  C   UNL     1      20.885  36.047  16.882  1.00  0.00     0.134 A 
ATOM      2  N   UNL     1      21.828  36.339  15.945  1.00  0.00    -0.209 NA
ATOM      3  C   UNL     1      22.966  35.602  15.805  1.00  0.00     0.182 A 
ATOM      4  C   UNL     1      23.192  34.513  16.652  1.00  0.00     0.164 A 
ATOM      5  O   UNL     1      24.347  33.742  16.510  1.00  0.00    -0.474 OA
ATOM      6  C   UNL     1      25.131  33.721  15.311  1.00  0.00     0.182 C 
ATOM      7  C   UNL     1      26.581  33.399  15.700  1.00  0.00     0.067 C 
ATOM      8  C   UNL     1      24.580  32.622  14.391  1.00  0.00     0.067 C 
ATOM      9  C   UNL     1      25.059  35.053  14.585  1.00  0.00     0.273 C 
ATOM     10  O   UNL     1      25.929  35.334  13.715  1.00  0.00    -0.270 OA
ATOM     11  N   UNL     1      23.955  35.952  14.820  1.00  0.00    -0.265 N 
ATOM     12  C   UNL     1      22.262  34.214  17.650  1.00  0.00     0.054 A 
ATOM     13  C   UNL     1      21.102  34.979  17.770  1.00  0.00     0.051 A 
ENDROOT
BRANCH   1  14
ATOM     14  N   UNL     1      19.718  36.877  16.982  1.00  0.00    -0.322 N 
ATOM     15  H   UNL     1      19.854  37.912  16.939  1.00  0.00     0.170 HD
BRANCH  14  16
ATOM     16  C   UNL     1      18.383  36.385  17.169  1.00  0.00     0.173 A 
ATOM     17  C   UNL     1      16.588  35.060  16.359  1.00  0.00     0.229 A 
ATOM     18  N   UNL     1      15.878  35.314  17.493  1.00  0.00    -0.218 NA
ATOM     19  N   UNL     1      17.836  35.581  16.219  1.00  0.00    -0.192 NA
ATOM     20  C   UNL     1      16.385  36.098  18.478  1.00  0.00     0.158 A 
ATOM     21  C   UNL     1      17.658  36.649  18.343  1.00  0.00     0.184 A 
ATOM     22  F   UNL     1      18.188  37.376  19.358  1.00  0.00    -0.201 F 
BRANCH  17  23
ATOM     23  N   UNL     1      16.060  34.201  15.337  1.00  0.00    -0.324 N 
ATOM     24  H   UNL     1      15.067  33.892  15.435  1.00  0.00     0.170 HD
BRANCH  23  25
ATOM     25  C   UNL     1      16.759  33.857  14.127  1.00  0.00     0.049 A 
ATOM     26  C   UNL     1      16.829  33.821  11.692  1.00  0.00     0.166 A 
ATOM     27  C   UNL     1      16.175  34.150  12.892  1.00  0.00     0.076 A 
ATOM     28  C   UNL     1      18.077  33.177  11.725  1.00  0.00     0.203 A 
ATOM     29  C   UNL     1      18.664  32.847  12.974  1.00  0.00     0.166 A 
ATOM     30  C   UNL     1      17.987  33.181  14.163  1.00  0.00     0.076 A 
BRANCH  26  31
ATOM     31  O   UNL     1      16.271  34.122  10.439  1.00  0.00    -0.493 OA
ATOM     32  C   UNL     1      16.026  35.438   9.956  1.00  0.00     0.278 C 
ENDBRANCH  26  31
BRANCH  28  33
ATOM     33  O   UNL     1      18.672  32.892  10.482  1.00  0.00    -0.490 OA
ATOM     34  C   UNL     1      18.155  32.037   9.468  1.00  0.00     0.278 C 
ENDBRANCH  28  33
BRANCH  29  35
ATOM     35  O   UNL     1      19.904  32.189  13.013  1.00  0.00    -0.493 OA
ATOM     36  C   UNL     1      21.174  32.833  12.975  1.00  0.00     0.278 C 
ENDBRANCH  29  35
ENDBRANCH  23  25
ENDBRANCH  17  23
ENDBRANCH  14  16
ENDBRANCH   1  14
BRANCH  11  37
ATOM     37  C   UNL     1      23.775  37.147  13.985  1.00  0.00     0.303 C 
BRANCH  37  38
ATOM     38  O   UNL     1      22.883  36.843  12.939  1.00  0.00    -0.265 OA
BRANCH  38  39
ATOM     39  P   UNL     1      23.779  36.622  11.504  1.00  0.00     0.471 P 
ATOM     40  O   UNL     1      23.059  37.281  10.346  1.00  0.00    -0.228 OA
BRANCH  39  41
ATOM     41  O   UNL     1      24.003  34.971  11.182  1.00  0.00    -0.303 OA
ATOM     42  H   UNL     1      23.587  34.820  10.295  1.00  0.00     0.223 HD
ENDBRANCH  39  41
BRANCH  39  43
ATOM     43  O   UNL     1      25.295  37.351  11.696  1.00  0.00    -0.303 OA
ATOM     44  H   UNL     1      25.093  38.276  11.989  1.00  0.00     0.223 HD
ENDBRANCH  39  43
ENDBRANCH  38  39
ENDBRANCH  37  38
ENDBRANCH  11  37
TORSDOF 12
ENDMDL
MODEL 11
REMARK VINA RESULT:    -7.731      4.395      9.053
REMARK INTER + INTRA:         -15.515
REMARK INTER:                 -12.954
REMARK INTRA:                  -2.561
REMARK UNBOUND:                -2.812
REMARK SMILES COc1cc(Nc2ncc(F)c(Nc3ccc4c(n3)N(COP(=O)(O)O)C(=O)C(C)(C)O4)n2)cc(OC)c1OC
REMARK SMILES IDX 14 1 19 2 18 3 17 4 32 5 29 6 30 7 31 8 27 9 28 10 20 11
REMARK SMILES IDX 16 12 15 13 13 14 12 16 7 17 8 18 33 19 9 20 10 21 11 22
REMARK SMILES IDX 6 23 5 25 3 26 4 27 38 28 35 29 34 30 2 31 1 32 39 33 40 34
REMARK SMILES IDX 36 35 37 36 21 37 22 38 23 39 24 40 25 41 26 43
REMARK H PARENT 13 15 6 24 25 42 26 44
REMARK Flexibility Score: inf
ROOT
ATOM      1  C   UNL     1      25.231  33.132  11.917  1.00  0.00     0.134 A 
ATOM      2  N   UNL     1      25.877  33.416  13.081  1.00  0.00    -0.209 NA
ATOM      3  C   UNL     1      27.014  32.765  13.459  1.00  0.00     0.182 A 
ATOM      4  C   UNL     1      27.540  31.762  12.638  1.00  0.00     0.164 A 
ATOM      5  O   UNL     1      28.711  31.097  13.007  1.00  0.00    -0.474 OA
ATOM      6  C   UNL     1      29.647  31.627  13.954  1.00  0.00     0.182 C 
ATOM      7  C   UNL     1      30.359  30.445  14.626  1.00  0.00     0.067 C 
ATOM      8  C   UNL     1      30.667  32.490  13.197  1.00  0.00     0.067 C 
ATOM      9  C   UNL     1      28.948  32.487  14.992  1.00  0.00     0.273 C 
ATOM     10  O   UNL     1      29.539  32.755  16.076  1.00  0.00    -0.270 OA
ATOM     11  N   UNL     1      27.659  33.071  14.708  1.00  0.00    -0.265 N 
ATOM     12  C   UNL     1      26.876  31.421  11.458  1.00  0.00     0.054 A 
ATOM     13  C   UNL     1      25.718  32.105  11.090  1.00  0.00     0.051 A 
ENDROOT
BRANCH   1  14
ATOM     14  N   UNL     1      24.030  33.848  11.593  1.00  0.00    -0.322 N 
ATOM     15  H   UNL     1      23.530  33.584  10.715  1.00  0.00     0.170 HD
BRANCH  14  16
ATOM     16  C   UNL     1      23.489  34.924  12.374  1.00  0.00     0.173 A 
ATOM     17  C   UNL     1      22.166  35.610  14.222  1.00  0.00     0.229 A 
ATOM     18  N   UNL     1      22.493  36.910  13.985  1.00  0.00    -0.218 NA
ATOM     19  N   UNL     1      22.680  34.633  13.428  1.00  0.00    -0.192 NA
ATOM     20  C   UNL     1      23.309  37.251  12.955  1.00  0.00     0.158 A 
ATOM     21  C   UNL     1      23.834  36.263  12.126  1.00  0.00     0.184 A 
ATOM     22  F   UNL     1      24.702  36.602  11.140  1.00  0.00    -0.201 F 
BRANCH  17  23
ATOM     23  N   UNL     1      21.331  35.251  15.334  1.00  0.00    -0.324 N 
ATOM     24  H   UNL     1      21.802  35.083  16.252  1.00  0.00     0.170 HD
BRANCH  23  25
ATOM     25  C   UNL     1      19.893  35.246  15.300  1.00  0.00     0.049 A 
ATOM     26  C   UNL     1      17.833  34.744  14.101  1.00  0.00     0.166 A 
ATOM     27  C   UNL     1      19.237  34.757  14.168  1.00  0.00     0.076 A 
ATOM     28  C   UNL     1      17.073  35.239  15.174  1.00  0.00     0.203 A 
ATOM     29  C   UNL     1      17.731  35.766  16.316  1.00  0.00     0.166 A 
ATOM     30  C   UNL     1      19.138  35.774  16.356  1.00  0.00     0.076 A 
BRANCH  26  31
ATOM     31  O   UNL     1      17.150  34.240  12.982  1.00  0.00    -0.493 OA
ATOM     32  C   UNL     1      17.152  32.876  12.577  1.00  0.00     0.278 C 
ENDBRANCH  26  31
BRANCH  28  33
ATOM     33  O   UNL     1      15.674  35.180  15.035  1.00  0.00    -0.490 OA
ATOM     34  C   UNL     1      14.789  34.296  15.715  1.00  0.00     0.278 C 
ENDBRANCH  28  33
BRANCH  29  35
ATOM     35  O   UNL     1      16.977  36.277  17.384  1.00  0.00    -0.493 OA
ATOM     36  C   UNL     1      17.503  36.643  18.656  1.00  0.00     0.278 C 
ENDBRANCH  29  35
ENDBRANCH  23  25
ENDBRANCH  17  23
ENDBRANCH  14  16
ENDBRANCH   1  14
BRANCH  11  37
ATOM     37  C   UNL     1      27.068  34.056  15.623  1.00  0.00     0.303 C 
BRANCH  37  38
ATOM     38  O   UNL     1      26.387  33.374  16.649  1.00  0.00    -0.265 OA
BRANCH  38  39
ATOM     39  P   UNL     1      24.720  33.718  16.522  1.00  0.00     0.471 P 
ATOM     40  O   UNL     1      24.064  33.574  17.880  1.00  0.00    -0.228 OA
BRANCH  39  41
ATOM     41  O   UNL     1      23.975  32.680  15.406  1.00  0.00    -0.303 OA
ATOM     42  H   UNL     1      24.612  31.931  15.281  1.00  0.00     0.223 HD
ENDBRANCH  39  41
BRANCH  39  43
ATOM     43  O   UNL     1      24.537  35.314  15.989  1.00  0.00    -0.303 OA
ATOM     44  H   UNL     1      24.619  35.259  15.002  1.00  0.00     0.223 HD
ENDBRANCH  39  43
ENDBRANCH  38  39
ENDBRANCH  37  38
ENDBRANCH  11  37
TORSDOF 12
ENDMDL
MODEL 12
REMARK VINA RESULT:    -7.684      4.396      8.959
REMARK INTER + INTRA:         -15.437
REMARK INTER:                 -12.835
REMARK INTRA:                  -2.602
REMARK UNBOUND:                -2.812
REMARK SMILES COc1cc(Nc2ncc(F)c(Nc3ccc4c(n3)N(COP(=O)(O)O)C(=O)C(C)(C)O4)n2)cc(OC)c1OC
REMARK SMILES IDX 14 1 19 2 18 3 17 4 32 5 29 6 30 7 31 8 27 9 28 10 20 11
REMARK SMILES IDX 16 12 15 13 13 14 12 16 7 17 8 18 33 19 9 20 10 21 11 22
REMARK SMILES IDX 6 23 5 25 3 26 4 27 38 28 35 29 34 30 2 31 1 32 39 33 40 34
REMARK SMILES IDX 36 35 37 36 21 37 22 38 23 39 24 40 25 41 26 43
REMARK H PARENT 13 15 6 24 25 42 26 44
REMARK Flexibility Score: inf
ROOT
ATOM      1  C   UNL     1      25.273  33.114  11.904  1.00  0.00     0.134 A 
ATOM      2  N   UNL     1      25.902  33.402  13.077  1.00  0.00    -0.209 NA
ATOM      3  C   UNL     1      27.028  32.747  13.478  1.00  0.00     0.182 A 
ATOM      4  C   UNL     1      27.560  31.734  12.674  1.00  0.00     0.164 A 
ATOM      5  O   UNL     1      28.721  31.064  13.068  1.00  0.00    -0.474 OA
ATOM      6  C   UNL     1      29.645  31.596  14.025  1.00  0.00     0.182 C 
ATOM      7  C   UNL     1      30.338  30.414  14.719  1.00  0.00     0.067 C 
ATOM      8  C   UNL     1      30.683  32.446  13.278  1.00  0.00     0.067 C 
ATOM      9  C   UNL     1      28.935  32.468  15.045  1.00  0.00     0.273 C 
ATOM     10  O   UNL     1      29.510  32.741  16.136  1.00  0.00    -0.270 OA
ATOM     11  N   UNL     1      27.655  33.058  14.735  1.00  0.00    -0.265 N 
ATOM     12  C   UNL     1      26.914  31.388  11.486  1.00  0.00     0.054 A 
ATOM     13  C   UNL     1      25.767  32.077  11.094  1.00  0.00     0.051 A 
ENDROOT
BRANCH   1  14
ATOM     14  N   UNL     1      24.083  33.835  11.555  1.00  0.00    -0.322 N 
ATOM     15  H   UNL     1      23.613  33.589  10.655  1.00  0.00     0.170 HD
BRANCH  14  16
ATOM     16  C   UNL     1      23.513  34.893  12.340  1.00  0.00     0.173 A 
ATOM     17  C   UNL     1      22.165  35.537  14.185  1.00  0.00     0.229 A 
ATOM     18  N   UNL     1      22.464  36.845  13.958  1.00  0.00    -0.218 NA
ATOM     19  N   UNL     1      22.706  34.577  13.387  1.00  0.00    -0.192 NA
ATOM     20  C   UNL     1      23.277  37.212  12.935  1.00  0.00     0.158 A 
ATOM     21  C   UNL     1      23.829  36.241  12.102  1.00  0.00     0.184 A 
ATOM     22  F   UNL     1      24.694  36.606  11.123  1.00  0.00    -0.201 F 
BRANCH  17  23
ATOM     23  N   UNL     1      21.334  35.152  15.290  1.00  0.00    -0.324 N 
ATOM     24  H   UNL     1      21.807  34.950  16.199  1.00  0.00     0.170 HD
BRANCH  23  25
ATOM     25  C   UNL     1      19.895  35.164  15.265  1.00  0.00     0.049 A 
ATOM     26  C   UNL     1      17.792  35.778  16.330  1.00  0.00     0.166 A 
ATOM     27  C   UNL     1      19.197  35.755  16.321  1.00  0.00     0.076 A 
ATOM     28  C   UNL     1      17.073  35.188  15.278  1.00  0.00     0.203 A 
ATOM     29  C   UNL     1      17.772  34.557  14.216  1.00  0.00     0.166 A 
ATOM     30  C   UNL     1      19.180  34.542  14.233  1.00  0.00     0.076 A 
BRANCH  26  31
ATOM     31  O   UNL     1      17.068  36.383  17.370  1.00  0.00    -0.493 OA
ATOM     32  C   UNL     1      16.867  35.810  18.658  1.00  0.00     0.278 C 
ENDBRANCH  26  31
BRANCH  28  33
ATOM     33  O   UNL     1      15.669  35.262  15.354  1.00  0.00    -0.490 OA
ATOM     34  C   UNL     1      14.786  34.236  15.794  1.00  0.00     0.278 C 
ENDBRANCH  28  33
BRANCH  29  35
ATOM     35  O   UNL     1      17.058  33.952  13.169  1.00  0.00    -0.493 OA
ATOM     36  C   UNL     1      17.418  32.729  12.533  1.00  0.00     0.278 C 
ENDBRANCH  29  35
ENDBRANCH  23  25
ENDBRANCH  17  23
ENDBRANCH  14  16
ENDBRANCH   1  14
BRANCH  11  37
ATOM     37  C   UNL     1      27.055  34.054  15.632  1.00  0.00     0.303 C 
BRANCH  37  38
ATOM     38  O   UNL     1      26.373  33.385  16.666  1.00  0.00    -0.265 OA
BRANCH  38  39
ATOM     39  P   UNL     1      24.704  33.708  16.518  1.00  0.00     0.471 P 
ATOM     40  O   UNL     1      24.033  33.559  17.867  1.00  0.00    -0.228 OA
BRANCH  39  41
ATOM     41  O   UNL     1      23.985  32.657  15.395  1.00  0.00    -0.303 OA
ATOM     42  H   UNL     1      23.827  33.209  14.587  1.00  0.00     0.223 HD
ENDBRANCH  39  41
BRANCH  39  43
ATOM     43  O   UNL     1      24.507  35.299  15.977  1.00  0.00    -0.303 OA
ATOM     44  H   UNL     1      24.959  35.322  15.096  1.00  0.00     0.223 HD
ENDBRANCH  39  43
ENDBRANCH  38  39
ENDBRANCH  37  38
ENDBRANCH  11  37
TORSDOF 12
ENDMDL
MODEL 13
REMARK VINA RESULT:    -7.674      3.592      8.084
REMARK INTER + INTRA:         -15.421
REMARK INTER:                 -12.722
REMARK INTRA:                  -2.699
REMARK UNBOUND:                -2.812
REMARK SMILES COc1cc(Nc2ncc(F)c(Nc3ccc4c(n3)N(COP(=O)(O)O)C(=O)C(C)(C)O4)n2)cc(OC)c1OC
REMARK SMILES IDX 14 1 19 2 18 3 17 4 32 5 29 6 30 7 31 8 27 9 28 10 20 11
REMARK SMILES IDX 16 12 15 13 13 14 12 16 7 17 8 18 33 19 9 20 10 21 11 22
REMARK SMILES IDX 6 23 5 25 3 26 4 27 38 28 35 29 34 30 2 31 1 32 39 33 40 34
REMARK SMILES IDX 36 35 37 36 21 37 22 38 23 39 24 40 25 41 26 43
REMARK H PARENT 13 15 6 24 25 42 26 44
REMARK Flexibility Score: inf
ROOT
ATOM      1  C   UNL     1      25.217  35.878  15.046  1.00  0.00     0.134 A 
ATOM      2  N   UNL     1      25.047  34.971  14.045  1.00  0.00    -0.209 NA
ATOM      3  C   UNL     1      26.099  34.345  13.446  1.00  0.00     0.182 A 
ATOM      4  C   UNL     1      27.403  34.643  13.854  1.00  0.00     0.164 A 
ATOM      5  O   UNL     1      28.489  33.998  13.257  1.00  0.00    -0.474 OA
ATOM      6  C   UNL     1      28.369  32.762  12.542  1.00  0.00     0.182 C 
ATOM      7  C   UNL     1      29.483  32.718  11.486  1.00  0.00     0.067 C 
ATOM      8  C   UNL     1      28.544  31.607  13.537  1.00  0.00     0.067 C 
ATOM      9  C   UNL     1      27.006  32.642  11.882  1.00  0.00     0.273 C 
ATOM     10  O   UNL     1      26.839  31.804  10.952  1.00  0.00    -0.270 OA
ATOM     11  N   UNL     1      25.887  33.410  12.373  1.00  0.00    -0.265 N 
ATOM     12  C   UNL     1      27.611  35.599  14.850  1.00  0.00     0.054 A 
ATOM     13  C   UNL     1      26.518  36.222  15.453  1.00  0.00     0.051 A 
ENDROOT
BRANCH   1  14
ATOM     14  N   UNL     1      24.063  36.509  15.620  1.00  0.00    -0.322 N 
ATOM     15  H   UNL     1      23.849  37.489  15.327  1.00  0.00     0.170 HD
BRANCH  14  16
ATOM     16  C   UNL     1      23.201  35.899  16.593  1.00  0.00     0.173 A 
ATOM     17  C   UNL     1      21.421  34.398  17.054  1.00  0.00     0.229 A 
ATOM     18  N   UNL     1      21.580  34.607  18.390  1.00  0.00    -0.218 NA
ATOM     19  N   UNL     1      22.244  35.030  16.174  1.00  0.00    -0.192 NA
ATOM     20  C   UNL     1      22.531  35.453  18.860  1.00  0.00     0.158 A 
ATOM     21  C   UNL     1      23.374  36.116  17.970  1.00  0.00     0.184 A 
ATOM     22  F   UNL     1      24.366  36.909  18.446  1.00  0.00    -0.201 F 
BRANCH  17  23
ATOM     23  N   UNL     1      20.437  33.475  16.564  1.00  0.00    -0.324 N 
ATOM     24  H   UNL     1      20.680  32.459  16.586  1.00  0.00     0.170 HD
BRANCH  23  25
ATOM     25  C   UNL     1      19.099  33.842  16.182  1.00  0.00     0.049 A 
ATOM     26  C   UNL     1      17.463  34.235  14.421  1.00  0.00     0.166 A 
ATOM     27  C   UNL     1      18.758  33.874  14.828  1.00  0.00     0.076 A 
ATOM     28  C   UNL     1      16.497  34.584  15.379  1.00  0.00     0.203 A 
ATOM     29  C   UNL     1      16.842  34.586  16.756  1.00  0.00     0.166 A 
ATOM     30  C   UNL     1      18.149  34.226  17.138  1.00  0.00     0.076 A 
BRANCH  26  31
ATOM     31  O   UNL     1      17.091  34.256  13.067  1.00  0.00    -0.493 OA
ATOM     32  C   UNL     1      16.716  33.109  12.311  1.00  0.00     0.278 C 
ENDBRANCH  26  31
BRANCH  28  33
ATOM     33  O   UNL     1      15.220  34.922  14.893  1.00  0.00    -0.490 OA
ATOM     34  C   UNL     1      14.016  34.188  15.085  1.00  0.00     0.278 C 
ENDBRANCH  28  33
BRANCH  29  35
ATOM     35  O   UNL     1      15.885  34.950  17.718  1.00  0.00    -0.493 OA
ATOM     36  C   UNL     1      15.911  36.150  18.485  1.00  0.00     0.278 C 
ENDBRANCH  29  35
ENDBRANCH  23  25
ENDBRANCH  17  23
ENDBRANCH  14  16
ENDBRANCH   1  14
BRANCH  11  37
ATOM     37  C   UNL     1      24.531  33.157  11.871  1.00  0.00     0.303 C 
BRANCH  37  38
ATOM     38  O   UNL     1      23.911  32.196  12.693  1.00  0.00    -0.265 OA
BRANCH  38  39
ATOM     39  P   UNL     1      22.326  32.718  13.046  1.00  0.00     0.471 P 
ATOM     40  O   UNL     1      21.405  32.368  11.896  1.00  0.00    -0.228 OA
BRANCH  39  41
ATOM     41  O   UNL     1      22.291  34.391  13.326  1.00  0.00    -0.303 OA
ATOM     42  H   UNL     1      22.596  34.803  12.478  1.00  0.00     0.223 HD
ENDBRANCH  39  41
BRANCH  39  43
ATOM     43  O   UNL     1      21.793  31.921  14.441  1.00  0.00    -0.303 OA
ATOM     44  H   UNL     1      20.938  32.367  14.673  1.00  0.00     0.223 HD
ENDBRANCH  39  43
ENDBRANCH  38  39
ENDBRANCH  37  38
ENDBRANCH  11  37
TORSDOF 12
ENDMDL
MODEL 14
REMARK VINA RESULT:    -7.674      3.445      5.058
REMARK INTER + INTRA:         -15.420
REMARK INTER:                 -12.890
REMARK INTRA:                  -2.531
REMARK UNBOUND:                -2.812
REMARK SMILES COc1cc(Nc2ncc(F)c(Nc3ccc4c(n3)N(COP(=O)(O)O)C(=O)C(C)(C)O4)n2)cc(OC)c1OC
REMARK SMILES IDX 14 1 19 2 18 3 17 4 32 5 29 6 30 7 31 8 27 9 28 10 20 11
REMARK SMILES IDX 16 12 15 13 13 14 12 16 7 17 8 18 33 19 9 20 10 21 11 22
REMARK SMILES IDX 6 23 5 25 3 26 4 27 38 28 35 29 34 30 2 31 1 32 39 33 40 34
REMARK SMILES IDX 36 35 37 36 21 37 22 38 23 39 24 40 25 41 26 43
REMARK H PARENT 13 15 6 24 25 42 26 44
REMARK Flexibility Score: inf
ROOT
ATOM      1  C   UNL     1      19.998  34.850  15.513  1.00  0.00     0.134 A 
ATOM      2  N   UNL     1      20.156  33.957  14.497  1.00  0.00    -0.209 NA
ATOM      3  C   UNL     1      19.131  33.608  13.670  1.00  0.00     0.182 A 
ATOM      4  C   UNL     1      17.865  34.169  13.866  1.00  0.00     0.164 A 
ATOM      5  O   UNL     1      16.809  33.830  13.017  1.00  0.00    -0.474 OA
ATOM      6  C   UNL     1      17.003  33.266  11.714  1.00  0.00     0.182 C 
ATOM      7  C   UNL     1      15.774  32.406  11.384  1.00  0.00     0.067 C 
ATOM      8  C   UNL     1      17.125  34.414  10.701  1.00  0.00     0.067 C 
ATOM      9  C   UNL     1      18.268  32.427  11.663  1.00  0.00     0.273 C 
ATOM     10  O   UNL     1      18.423  31.596  10.725  1.00  0.00    -0.270 OA
ATOM     11  N   UNL     1      19.325  32.642  12.621  1.00  0.00    -0.265 N 
ATOM     12  C   UNL     1      17.662  35.057  14.924  1.00  0.00     0.054 A 
ATOM     13  C   UNL     1      18.729  35.403  15.754  1.00  0.00     0.051 A 
ENDROOT
BRANCH   1  14
ATOM     14  N   UNL     1      21.120  35.157  16.353  1.00  0.00    -0.322 N 
ATOM     15  H   UNL     1      20.974  35.129  17.387  1.00  0.00     0.170 HD
BRANCH  14  16
ATOM     16  C   UNL     1      22.419  35.533  15.871  1.00  0.00     0.173 A 
ATOM     17  C   UNL     1      24.751  35.093  15.800  1.00  0.00     0.229 A 
ATOM     18  N   UNL     1      24.925  36.114  14.916  1.00  0.00    -0.218 NA
ATOM     19  N   UNL     1      23.501  34.803  16.252  1.00  0.00    -0.192 NA
ATOM     20  C   UNL     1      23.875  36.863  14.494  1.00  0.00     0.158 A 
ATOM     21  C   UNL     1      22.591  36.585  14.957  1.00  0.00     0.184 A 
ATOM     22  F   UNL     1      21.536  37.293  14.481  1.00  0.00    -0.201 F 
BRANCH  17  23
ATOM     23  N   UNL     1      25.860  34.281  16.216  1.00  0.00    -0.324 N 
ATOM     24  H   UNL     1      25.852  33.928  17.198  1.00  0.00     0.170 HD
BRANCH  23  25
ATOM     25  C   UNL     1      26.897  33.813  15.336  1.00  0.00     0.049 A 
ATOM     26  C   UNL     1      29.191  33.982  14.535  1.00  0.00     0.166 A 
ATOM     27  C   UNL     1      28.159  34.411  15.386  1.00  0.00     0.076 A 
ATOM     28  C   UNL     1      28.958  32.950  13.611  1.00  0.00     0.203 A 
ATOM     29  C   UNL     1      27.671  32.357  13.531  1.00  0.00     0.166 A 
ATOM     30  C   UNL     1      26.651  32.809  14.390  1.00  0.00     0.076 A 
BRANCH  26  31
ATOM     31  O   UNL     1      30.473  34.555  14.579  1.00  0.00    -0.493 OA
ATOM     32  C   UNL     1      30.787  35.874  14.146  1.00  0.00     0.278 C 
ENDBRANCH  26  31
BRANCH  28  33
ATOM     33  O   UNL     1      30.046  32.569  12.803  1.00  0.00    -0.490 OA
ATOM     34  C   UNL     1      30.923  31.469  13.023  1.00  0.00     0.278 C 
ENDBRANCH  28  33
BRANCH  29  35
ATOM     35  O   UNL     1      27.427  31.336  12.598  1.00  0.00    -0.493 OA
ATOM     36  C   UNL     1      27.199  31.536  11.207  1.00  0.00     0.278 C 
ENDBRANCH  29  35
ENDBRANCH  23  25
ENDBRANCH  17  23
ENDBRANCH  14  16
ENDBRANCH   1  14
BRANCH  11  37
ATOM     37  C   UNL     1      20.623  31.975  12.463  1.00  0.00     0.303 C 
BRANCH  37  38
ATOM     38  O   UNL     1      21.538  32.885  11.899  1.00  0.00    -0.265 OA
BRANCH  38  39
ATOM     39  P   UNL     1      23.048  32.691  12.670  1.00  0.00     0.471 P 
ATOM     40  O   UNL     1      23.868  33.955  12.511  1.00  0.00    -0.228 OA
BRANCH  39  41
ATOM     41  O   UNL     1      23.890  31.369  12.020  1.00  0.00    -0.303 OA
ATOM     42  H   UNL     1      23.347  31.069  11.248  1.00  0.00     0.223 HD
ENDBRANCH  39  41
BRANCH  39  43
ATOM     43  O   UNL     1      22.781  32.411  14.317  1.00  0.00    -0.303 OA
ATOM     44  H   UNL     1      23.689  32.354  14.712  1.00  0.00     0.223 HD
ENDBRANCH  39  43
ENDBRANCH  38  39
ENDBRANCH  37  38
ENDBRANCH  11  37
TORSDOF 12
ENDMDL
MODEL 15
REMARK VINA RESULT:    -7.635      3.613      8.023
REMARK INTER + INTRA:         -15.356
REMARK INTER:                 -12.685
REMARK INTRA:                  -2.671
REMARK UNBOUND:                -2.812
REMARK SMILES COc1cc(Nc2ncc(F)c(Nc3ccc4c(n3)N(COP(=O)(O)O)C(=O)C(C)(C)O4)n2)cc(OC)c1OC
REMARK SMILES IDX 14 1 19 2 18 3 17 4 32 5 29 6 30 7 31 8 27 9 28 10 20 11
REMARK SMILES IDX 16 12 15 13 13 14 12 16 7 17 8 18 33 19 9 20 10 21 11 22
REMARK SMILES IDX 6 23 5 25 3 26 4 27 38 28 35 29 34 30 2 31 1 32 39 33 40 34
REMARK SMILES IDX 36 35 37 36 21 37 22 38 23 39 24 40 25 41 26 43
REMARK H PARENT 13 15 6 24 25 42 26 44
REMARK Flexibility Score: inf
ROOT
ATOM      1  C   UNL     1      25.282  35.561  14.847  1.00  0.00     0.134 A 
ATOM      2  N   UNL     1      25.177  34.314  14.311  1.00  0.00    -0.209 NA
ATOM      3  C   UNL     1      26.235  33.680  13.731  1.00  0.00     0.182 A 
ATOM      4  C   UNL     1      27.474  34.324  13.668  1.00  0.00     0.164 A 
ATOM      5  O   UNL     1      28.570  33.679  13.088  1.00  0.00    -0.474 OA
ATOM      6  C   UNL     1      28.640  32.259  12.915  1.00  0.00     0.182 C 
ATOM      7  C   UNL     1      29.538  31.975  11.702  1.00  0.00     0.067 C 
ATOM      8  C   UNL     1      29.259  31.645  14.179  1.00  0.00     0.067 C 
ATOM      9  C   UNL     1      27.258  31.664  12.704  1.00  0.00     0.273 C 
ATOM     10  O   UNL     1      27.150  30.508  12.207  1.00  0.00    -0.270 OA
ATOM     11  N   UNL     1      26.083  32.372  13.152  1.00  0.00    -0.265 N 
ATOM     12  C   UNL     1      27.604  35.619  14.172  1.00  0.00     0.054 A 
ATOM     13  C   UNL     1      26.508  36.245  14.766  1.00  0.00     0.051 A 
ENDROOT
BRANCH   1  14
ATOM     14  N   UNL     1      24.121  36.173  15.427  1.00  0.00    -0.322 N 
ATOM     15  H   UNL     1      23.888  37.148  15.133  1.00  0.00     0.170 HD
BRANCH  14  16
ATOM     16  C   UNL     1      23.277  35.550  16.407  1.00  0.00     0.173 A 
ATOM     17  C   UNL     1      21.471  34.082  16.875  1.00  0.00     0.229 A 
ATOM     18  N   UNL     1      21.682  34.234  18.211  1.00  0.00    -0.218 NA
ATOM     19  N   UNL     1      22.280  34.724  15.990  1.00  0.00    -0.192 NA
ATOM     20  C   UNL     1      22.674  35.035  18.678  1.00  0.00     0.158 A 
ATOM     21  C   UNL     1      23.503  35.709  17.784  1.00  0.00     0.184 A 
ATOM     22  F   UNL     1      24.535  36.454  18.253  1.00  0.00    -0.201 F 
BRANCH  17  23
ATOM     23  N   UNL     1      20.444  33.206  16.387  1.00  0.00    -0.324 N 
ATOM     24  H   UNL     1      20.639  32.180  16.406  1.00  0.00     0.170 HD
BRANCH  23  25
ATOM     25  C   UNL     1      19.124  33.636  16.008  1.00  0.00     0.049 A 
ATOM     26  C   UNL     1      16.995  34.642  16.632  1.00  0.00     0.166 A 
ATOM     27  C   UNL     1      18.292  34.218  16.968  1.00  0.00     0.076 A 
ATOM     28  C   UNL     1      16.516  34.470  15.323  1.00  0.00     0.203 A 
ATOM     29  C   UNL     1      17.341  33.852  14.348  1.00  0.00     0.166 A 
ATOM     30  C   UNL     1      18.635  33.429  14.711  1.00  0.00     0.076 A 
BRANCH  26  31
ATOM     31  O   UNL     1      16.147  35.247  17.574  1.00  0.00    -0.493 OA
ATOM     32  C   UNL     1      16.542  36.270  18.482  1.00  0.00     0.278 C 
ENDBRANCH  26  31
BRANCH  28  33
ATOM     33  O   UNL     1      15.212  34.932  15.063  1.00  0.00    -0.490 OA
ATOM     34  C   UNL     1      14.016  34.161  15.089  1.00  0.00     0.278 C 
ENDBRANCH  28  33
BRANCH  29  35
ATOM     35  O   UNL     1      16.862  33.663  13.042  1.00  0.00    -0.493 OA
ATOM     36  C   UNL     1      17.640  33.801  11.857  1.00  0.00     0.278 C 
ENDBRANCH  29  35
ENDBRANCH  23  25
ENDBRANCH  17  23
ENDBRANCH  14  16
ENDBRANCH   1  14
BRANCH  11  37
ATOM     37  C   UNL     1      24.767  31.722  13.129  1.00  0.00     0.303 C 
BRANCH  37  38
ATOM     38  O   UNL     1      23.985  32.311  12.116  1.00  0.00    -0.265 OA
BRANCH  38  39
ATOM     39  P   UNL     1      22.502  32.815  12.794  1.00  0.00     0.471 P 
ATOM     40  O   UNL     1      21.363  32.425  11.876  1.00  0.00    -0.228 OA
BRANCH  39  41
ATOM     41  O   UNL     1      22.494  34.493  13.046  1.00  0.00    -0.303 OA
ATOM     42  H   UNL     1      23.377  34.700  13.446  1.00  0.00     0.223 HD
ENDBRANCH  39  41
BRANCH  39  43
ATOM     43  O   UNL     1      22.299  32.039  14.285  1.00  0.00    -0.303 OA
ATOM     44  H   UNL     1      21.535  31.423  14.145  1.00  0.00     0.223 HD
ENDBRANCH  39  43
ENDBRANCH  38  39
ENDBRANCH  37  38
ENDBRANCH  11  37
TORSDOF 12
ENDMDL
