MODEL 1
REMARK VINA RESULT:    -5.825      0.000      0.000
REMARK INTER + INTRA:          -7.035
REMARK INTER:                  -6.847
REMARK INTRA:                  -0.188
REMARK UNBOUND:                -0.188
REMARK SMILES S=C=NCCc1ccccc1
REMARK SMILES IDX 4 1 3 2 1 3 2 4 5 5 6 6 7 7 11 8 8 9 10 10 9 11
REMARK H PARENT
REMARK Flexibility Score: inf
ROOT
ATOM      1  C   UNL     1      26.452  36.088  -4.696  1.00  0.00     0.159 C 
ENDROOT
BRANCH   1   2
ATOM      2  N   UNL     1      25.488  36.566  -3.712  1.00  0.00    -0.232 NA
ATOM      3  S   UNL     1      23.550  38.606  -4.344  1.00  0.00    -0.006 S 
ATOM      4  C   UNL     1      24.632  37.466  -3.990  1.00  0.00     0.058 C 
ENDBRANCH   1   2
BRANCH   1   5
ATOM      5  C   UNL     1      26.046  34.697  -5.181  1.00  0.00     0.060 C 
BRANCH   5   6
ATOM      6  C   UNL     1      25.798  34.703  -6.666  1.00  0.00    -0.046 A 
ATOM      7  C   UNL     1      26.135  33.583  -7.445  1.00  0.00     0.004 A 
ATOM      8  C   UNL     1      25.279  35.848  -7.294  1.00  0.00     0.004 A 
ATOM      9  C   UNL     1      25.933  33.602  -8.829  1.00  0.00     0.000 A 
ATOM     10  C   UNL     1      25.079  35.863  -8.677  1.00  0.00     0.000 A 
ATOM     11  C   UNL     1      25.404  34.740  -9.444  1.00  0.00     0.000 A 
ENDBRANCH   5   6
ENDBRANCH   1   5
TORSDOF 3
ENDMDL
MODEL 2
REMARK VINA RESULT:    -5.754      1.090      2.053
REMARK INTER + INTRA:          -6.951
REMARK INTER:                  -6.782
REMARK INTRA:                  -0.169
REMARK UNBOUND:                -0.188
REMARK SMILES S=C=NCCc1ccccc1
REMARK SMILES IDX 4 1 3 2 1 3 2 4 5 5 6 6 7 7 11 8 8 9 10 10 9 11
REMARK H PARENT
REMARK Flexibility Score: inf
ROOT
ATOM      1  C   UNL     1      24.890  36.399  -3.737  1.00  0.00     0.159 C 
ENDROOT
BRANCH   1   2
ATOM      2  N   UNL     1      24.606  37.826  -3.629  1.00  0.00    -0.232 NA
ATOM      3  S   UNL     1      22.570  39.097  -5.226  1.00  0.00    -0.006 S 
ATOM      4  C   UNL     1      23.708  38.388  -4.333  1.00  0.00     0.058 C 
ENDBRANCH   1   2
BRANCH   1   5
ATOM      5  C   UNL     1      26.255  36.193  -4.394  1.00  0.00     0.060 C 
BRANCH   5   6
ATOM      6  C   UNL     1      26.121  35.378  -5.652  1.00  0.00    -0.046 A 
ATOM      7  C   UNL     1      25.563  35.946  -6.810  1.00  0.00     0.004 A 
ATOM      8  C   UNL     1      26.503  34.025  -5.664  1.00  0.00     0.004 A 
ATOM      9  C   UNL     1      25.410  35.178  -7.968  1.00  0.00     0.000 A 
ATOM     10  C   UNL     1      26.348  33.261  -6.824  1.00  0.00     0.000 A 
ATOM     11  C   UNL     1      25.804  33.837  -7.976  1.00  0.00     0.000 A 
ENDBRANCH   5   6
ENDBRANCH   1   5
TORSDOF 3
ENDMDL
MODEL 3
REMARK VINA RESULT:    -5.674      1.282      1.928
REMARK INTER + INTRA:          -6.857
REMARK INTER:                  -6.732
REMARK INTRA:                  -0.125
REMARK UNBOUND:                -0.188
REMARK SMILES S=C=NCCc1ccccc1
REMARK SMILES IDX 4 1 3 2 1 3 2 4 5 5 6 6 7 7 11 8 8 9 10 10 9 11
REMARK H PARENT
REMARK Flexibility Score: inf
ROOT
ATOM      1  C   UNL     1      24.451  36.720  -3.909  1.00  0.00     0.159 C 
ENDROOT
BRANCH   1   2
ATOM      2  N   UNL     1      24.136  38.140  -4.025  1.00  0.00    -0.232 NA
ATOM      3  S   UNL     1      21.471  39.066  -4.622  1.00  0.00    -0.006 S 
ATOM      4  C   UNL     1      22.961  38.549  -4.288  1.00  0.00     0.058 C 
ENDBRANCH   1   2
BRANCH   1   5
ATOM      5  C   UNL     1      25.877  36.467  -4.394  1.00  0.00     0.060 C 
BRANCH   5   6
ATOM      6  C   UNL     1      25.884  35.491  -5.541  1.00  0.00    -0.046 A 
ATOM      7  C   UNL     1      26.363  34.184  -5.356  1.00  0.00     0.004 A 
ATOM      8  C   UNL     1      25.460  35.896  -6.818  1.00  0.00     0.004 A 
ATOM      9  C   UNL     1      26.397  33.288  -6.429  1.00  0.00     0.000 A 
ATOM     10  C   UNL     1      25.497  34.997  -7.888  1.00  0.00     0.000 A 
ATOM     11  C   UNL     1      25.963  33.693  -7.693  1.00  0.00     0.000 A 
ENDBRANCH   5   6
ENDBRANCH   1   5
TORSDOF 3
ENDMDL
MODEL 4
REMARK VINA RESULT:    -5.607      1.773      2.897
REMARK INTER + INTRA:          -6.779
REMARK INTER:                  -6.574
REMARK INTRA:                  -0.205
REMARK UNBOUND:                -0.188
REMARK SMILES S=C=NCCc1ccccc1
REMARK SMILES IDX 4 1 3 2 1 3 2 4 5 5 6 6 7 7 11 8 8 9 10 10 9 11
REMARK H PARENT
REMARK Flexibility Score: inf
ROOT
ATOM      1  C   UNL     1      23.614  37.317  -4.420  1.00  0.00     0.159 C 
ENDROOT
BRANCH   1   2
ATOM      2  N   UNL     1      23.441  38.737  -4.704  1.00  0.00    -0.232 NA
ATOM      3  S   UNL     1      23.606  39.784  -7.386  1.00  0.00    -0.006 S 
ATOM      4  C   UNL     1      23.513  39.200  -5.887  1.00  0.00     0.058 C 
ENDBRANCH   1   2
BRANCH   1   5
ATOM      5  C   UNL     1      25.103  36.993  -4.302  1.00  0.00     0.060 C 
BRANCH   5   6
ATOM      6  C   UNL     1      25.475  35.861  -5.222  1.00  0.00    -0.046 A 
ATOM      7  C   UNL     1      25.198  35.945  -6.597  1.00  0.00     0.004 A 
ATOM      8  C   UNL     1      26.053  34.689  -4.705  1.00  0.00     0.004 A 
ATOM      9  C   UNL     1      25.516  34.879  -7.445  1.00  0.00     0.000 A 
ATOM     10  C   UNL     1      26.368  33.626  -5.557  1.00  0.00     0.000 A 
ATOM     11  C   UNL     1      26.102  33.722  -6.926  1.00  0.00     0.000 A 
ENDBRANCH   5   6
ENDBRANCH   1   5
TORSDOF 3
ENDMDL
MODEL 5
REMARK VINA RESULT:    -5.557      2.273      4.173
REMARK INTER + INTRA:          -6.720
REMARK INTER:                  -6.546
REMARK INTRA:                  -0.174
REMARK UNBOUND:                -0.188
REMARK SMILES S=C=NCCc1ccccc1
REMARK SMILES IDX 4 1 3 2 1 3 2 4 5 5 6 6 7 7 11 8 8 9 10 10 9 11
REMARK H PARENT
REMARK Flexibility Score: inf
ROOT
ATOM      1  C   UNL     1      25.289  35.920  -8.561  1.00  0.00     0.159 C 
ENDROOT
BRANCH   1   2
ATOM      2  N   UNL     1      23.855  35.896  -8.824  1.00  0.00    -0.232 NA
ATOM      3  S   UNL     1      22.060  37.823  -7.650  1.00  0.00    -0.006 S 
ATOM      4  C   UNL     1      23.062  36.746  -8.307  1.00  0.00     0.058 C 
ENDBRANCH   1   2
BRANCH   1   5
ATOM      5  C   UNL     1      25.711  34.613  -7.890  1.00  0.00     0.060 C 
BRANCH   5   6
ATOM      6  C   UNL     1      25.812  34.789  -6.398  1.00  0.00    -0.046 A 
ATOM      7  C   UNL     1      25.800  36.076  -5.835  1.00  0.00     0.004 A 
ATOM      8  C   UNL     1      25.974  33.672  -5.562  1.00  0.00     0.004 A 
ATOM      9  C   UNL     1      25.927  36.240  -4.452  1.00  0.00     0.000 A 
ATOM     10  C   UNL     1      26.101  33.840  -4.180  1.00  0.00     0.000 A 
ATOM     11  C   UNL     1      26.075  35.124  -3.625  1.00  0.00     0.000 A 
ENDBRANCH   5   6
ENDBRANCH   1   5
TORSDOF 3
ENDMDL
MODEL 6
REMARK VINA RESULT:    -5.554      2.085      3.233
REMARK INTER + INTRA:          -6.717
REMARK INTER:                  -6.490
REMARK INTRA:                  -0.227
REMARK UNBOUND:                -0.188
REMARK SMILES S=C=NCCc1ccccc1
REMARK SMILES IDX 4 1 3 2 1 3 2 4 5 5 6 6 7 7 11 8 8 9 10 10 9 11
REMARK H PARENT
REMARK Flexibility Score: inf
ROOT
ATOM      1  C   UNL     1      22.882  36.901  -7.590  1.00  0.00     0.159 C 
ENDROOT
BRANCH   1   2
ATOM      2  N   UNL     1      22.037  36.750  -6.411  1.00  0.00    -0.232 NA
ATOM      3  S   UNL     1      21.602  38.918  -4.561  1.00  0.00    -0.006 S 
ATOM      4  C   UNL     1      21.845  37.706  -5.594  1.00  0.00     0.058 C 
ENDBRANCH   1   2
BRANCH   1   5
ATOM      5  C   UNL     1      24.290  37.320  -7.165  1.00  0.00     0.060 C 
BRANCH   5   6
ATOM      6  C   UNL     1      25.063  36.136  -6.649  1.00  0.00    -0.046 A 
ATOM      7  C   UNL     1      25.333  35.044  -7.491  1.00  0.00     0.004 A 
ATOM      8  C   UNL     1      25.476  36.089  -5.306  1.00  0.00     0.004 A 
ATOM      9  C   UNL     1      26.025  33.932  -7.002  1.00  0.00     0.000 A 
ATOM     10  C   UNL     1      26.166  34.975  -4.821  1.00  0.00     0.000 A 
ATOM     11  C   UNL     1      26.442  33.898  -5.669  1.00  0.00     0.000 A 
ENDBRANCH   5   6
ENDBRANCH   1   5
TORSDOF 3
ENDMDL
MODEL 7
REMARK VINA RESULT:    -5.529      3.379      4.790
REMARK INTER + INTRA:          -6.686
REMARK INTER:                  -6.604
REMARK INTRA:                  -0.083
REMARK UNBOUND:                -0.188
REMARK SMILES S=C=NCCc1ccccc1
REMARK SMILES IDX 4 1 3 2 1 3 2 4 5 5 6 6 7 7 11 8 8 9 10 10 9 11
REMARK H PARENT
REMARK Flexibility Score: inf
ROOT
ATOM      1  C   UNL     1      23.892  35.872  -8.742  1.00  0.00     0.159 C 
ENDROOT
BRANCH   1   2
ATOM      2  N   UNL     1      23.585  35.361 -10.073  1.00  0.00    -0.232 NA
ATOM      3  S   UNL     1      21.489  36.498 -11.695  1.00  0.00    -0.006 S 
ATOM      4  C   UNL     1      22.661  35.862 -10.790  1.00  0.00     0.058 C 
ENDBRANCH   1   2
BRANCH   1   5
ATOM      5  C   UNL     1      25.398  35.787  -8.493  1.00  0.00     0.060 C 
BRANCH   5   6
ATOM      6  C   UNL     1      25.678  35.333  -7.085  1.00  0.00    -0.046 A 
ATOM      7  C   UNL     1      26.021  33.996  -6.826  1.00  0.00     0.004 A 
ATOM      8  C   UNL     1      25.548  36.231  -6.012  1.00  0.00     0.004 A 
ATOM      9  C   UNL     1      26.250  33.568  -5.515  1.00  0.00     0.000 A 
ATOM     10  C   UNL     1      25.778  35.800  -4.702  1.00  0.00     0.000 A 
ATOM     11  C   UNL     1      26.131  34.470  -4.454  1.00  0.00     0.000 A 
ENDBRANCH   5   6
ENDBRANCH   1   5
TORSDOF 3
ENDMDL
MODEL 8
REMARK VINA RESULT:    -5.515      1.988      3.340
REMARK INTER + INTRA:          -6.670
REMARK INTER:                  -6.454
REMARK INTRA:                  -0.216
REMARK UNBOUND:                -0.188
REMARK SMILES S=C=NCCc1ccccc1
REMARK SMILES IDX 4 1 3 2 1 3 2 4 5 5 6 6 7 7 11 8 8 9 10 10 9 11
REMARK H PARENT
REMARK Flexibility Score: inf
ROOT
ATOM      1  C   UNL     1      23.055  36.784  -7.706  1.00  0.00     0.159 C 
ENDROOT
BRANCH   1   2
ATOM      2  N   UNL     1      22.397  37.926  -7.082  1.00  0.00    -0.232 NA
ATOM      3  S   UNL     1      23.064  38.799  -4.416  1.00  0.00    -0.006 S 
ATOM      4  C   UNL     1      22.691  38.312  -5.906  1.00  0.00     0.058 C 
ENDBRANCH   1   2
BRANCH   1   5
ATOM      5  C   UNL     1      24.572  36.945  -7.604  1.00  0.00     0.060 C 
BRANCH   5   6
ATOM      6  C   UNL     1      25.182  35.778  -6.874  1.00  0.00    -0.046 A 
ATOM      7  C   UNL     1      25.442  35.861  -5.496  1.00  0.00     0.004 A 
ATOM      8  C   UNL     1      25.545  34.615  -7.575  1.00  0.00     0.004 A 
ATOM      9  C   UNL     1      26.038  34.789  -4.825  1.00  0.00     0.000 A 
ATOM     10  C   UNL     1      26.140  33.545  -6.900  1.00  0.00     0.000 A 
ATOM     11  C   UNL     1      26.384  33.631  -5.526  1.00  0.00     0.000 A 
ENDBRANCH   5   6
ENDBRANCH   1   5
TORSDOF 3
ENDMDL
MODEL 9
REMARK VINA RESULT:    -5.510      2.901      4.115
REMARK INTER + INTRA:          -6.665
REMARK INTER:                  -6.490
REMARK INTRA:                  -0.174
REMARK UNBOUND:                -0.188
REMARK SMILES S=C=NCCc1ccccc1
REMARK SMILES IDX 4 1 3 2 1 3 2 4 5 5 6 6 7 7 11 8 8 9 10 10 9 11
REMARK H PARENT
REMARK Flexibility Score: inf
ROOT
ATOM      1  C   UNL     1      24.150  37.505  -7.756  1.00  0.00     0.159 C 
ENDROOT
BRANCH   1   2
ATOM      2  N   UNL     1      22.714  37.327  -7.944  1.00  0.00    -0.232 NA
ATOM      3  S   UNL     1      21.567  36.844 -10.544  1.00  0.00    -0.006 S 
ATOM      4  C   UNL     1      22.207  37.114  -9.091  1.00  0.00     0.058 C 
ENDBRANCH   1   2
BRANCH   1   5
ATOM      5  C   UNL     1      24.887  36.237  -8.185  1.00  0.00     0.060 C 
BRANCH   5   6
ATOM      6  C   UNL     1      25.409  35.494  -6.985  1.00  0.00    -0.046 A 
ATOM      7  C   UNL     1      25.775  34.142  -7.092  1.00  0.00     0.004 A 
ATOM      8  C   UNL     1      25.485  36.132  -5.734  1.00  0.00     0.004 A 
ATOM      9  C   UNL     1      26.230  33.444  -5.968  1.00  0.00     0.000 A 
ATOM     10  C   UNL     1      25.941  35.431  -4.614  1.00  0.00     0.000 A 
ATOM     11  C   UNL     1      26.315  34.089  -4.731  1.00  0.00     0.000 A 
ENDBRANCH   5   6
ENDBRANCH   1   5
TORSDOF 3
ENDMDL
MODEL 10
REMARK VINA RESULT:    -5.480      2.313      3.678
REMARK INTER + INTRA:          -6.630
REMARK INTER:                  -6.538
REMARK INTRA:                  -0.092
REMARK UNBOUND:                -0.188
REMARK SMILES S=C=NCCc1ccccc1
REMARK SMILES IDX 4 1 3 2 1 3 2 4 5 5 6 6 7 7 11 8 8 9 10 10 9 11
REMARK H PARENT
REMARK Flexibility Score: inf
ROOT
ATOM      1  C   UNL     1      23.307  38.830  -4.755  1.00  0.00     0.159 C 
ENDROOT
BRANCH   1   2
ATOM      2  N   UNL     1      21.983  38.346  -4.381  1.00  0.00    -0.232 NA
ATOM      3  S   UNL     1      19.669  40.066  -4.407  1.00  0.00    -0.006 S 
ATOM      4  C   UNL     1      20.961  39.104  -4.393  1.00  0.00     0.058 C 
ENDBRANCH   1   2
BRANCH   1   5
ATOM      5  C   UNL     1      24.375  38.050  -3.989  1.00  0.00     0.060 C 
BRANCH   5   6
ATOM      6  C   UNL     1      24.985  36.986  -4.862  1.00  0.00    -0.046 A 
ATOM      7  C   UNL     1      24.597  36.864  -6.207  1.00  0.00     0.004 A 
ATOM      8  C   UNL     1      25.909  36.073  -4.326  1.00  0.00     0.004 A 
ATOM      9  C   UNL     1      25.141  35.855  -7.008  1.00  0.00     0.000 A 
ATOM     10  C   UNL     1      26.450  35.066  -5.131  1.00  0.00     0.000 A 
ATOM     11  C   UNL     1      26.068  34.958  -6.471  1.00  0.00     0.000 A 
ENDBRANCH   5   6
ENDBRANCH   1   5
TORSDOF 3
ENDMDL
MODEL 11
REMARK VINA RESULT:    -5.297      2.827      3.780
REMARK INTER + INTRA:          -6.414
REMARK INTER:                  -6.237
REMARK INTRA:                  -0.178
REMARK UNBOUND:                -0.188
REMARK SMILES S=C=NCCc1ccccc1
REMARK SMILES IDX 4 1 3 2 1 3 2 4 5 5 6 6 7 7 11 8 8 9 10 10 9 11
REMARK H PARENT
REMARK Flexibility Score: inf
ROOT
ATOM      1  C   UNL     1      22.956  38.773  -4.406  1.00  0.00     0.159 C 
ENDROOT
BRANCH   1   2
ATOM      2  N   UNL     1      21.499  38.819  -4.362  1.00  0.00    -0.232 NA
ATOM      3  S   UNL     1      19.981  40.614  -6.032  1.00  0.00    -0.006 S 
ATOM      4  C   UNL     1      20.828  39.611  -5.098  1.00  0.00     0.058 C 
ENDBRANCH   1   2
BRANCH   1   5
ATOM      5  C   UNL     1      23.434  38.962  -5.846  1.00  0.00     0.060 C 
BRANCH   5   6
ATOM      6  C   UNL     1      24.091  37.708  -6.357  1.00  0.00    -0.046 A 
ATOM      7  C   UNL     1      24.645  36.781  -5.458  1.00  0.00     0.004 A 
ATOM      8  C   UNL     1      24.204  37.480  -7.739  1.00  0.00     0.004 A 
ATOM      9  C   UNL     1      25.284  35.633  -5.936  1.00  0.00     0.000 A 
ATOM     10  C   UNL     1      24.844  36.330  -8.212  1.00  0.00     0.000 A 
ATOM     11  C   UNL     1      25.381  35.406  -7.311  1.00  0.00     0.000 A 
ENDBRANCH   5   6
ENDBRANCH   1   5
TORSDOF 3
ENDMDL
MODEL 12
REMARK VINA RESULT:    -5.260      2.882      5.143
REMARK INTER + INTRA:          -6.371
REMARK INTER:                  -6.180
REMARK INTRA:                  -0.191
REMARK UNBOUND:                -0.188
REMARK SMILES S=C=NCCc1ccccc1
REMARK SMILES IDX 4 1 3 2 1 3 2 4 5 5 6 6 7 7 11 8 8 9 10 10 9 11
REMARK H PARENT
REMARK Flexibility Score: inf
ROOT
ATOM      1  C   UNL     1      24.868  36.300  -8.286  1.00  0.00     0.159 C 
ENDROOT
BRANCH   1   2
ATOM      2  N   UNL     1      25.447  34.969  -8.423  1.00  0.00    -0.232 NA
ATOM      3  S   UNL     1      26.289  33.430  -6.134  1.00  0.00    -0.006 S 
ATOM      4  C   UNL     1      25.819  34.289  -7.414  1.00  0.00     0.058 C 
ENDBRANCH   1   2
BRANCH   1   5
ATOM      5  C   UNL     1      23.556  36.213  -7.506  1.00  0.00     0.060 C 
BRANCH   5   6
ATOM      6  C   UNL     1      23.612  37.076  -6.274  1.00  0.00    -0.046 A 
ATOM      7  C   UNL     1      22.967  38.323  -6.253  1.00  0.00     0.004 A 
ATOM      8  C   UNL     1      24.354  36.664  -5.153  1.00  0.00     0.004 A 
ATOM      9  C   UNL     1      23.046  39.138  -5.119  1.00  0.00     0.000 A 
ATOM     10  C   UNL     1      24.430  37.482  -4.022  1.00  0.00     0.000 A 
ATOM     11  C   UNL     1      23.775  38.716  -4.004  1.00  0.00     0.000 A 
ENDBRANCH   5   6
ENDBRANCH   1   5
TORSDOF 3
ENDMDL
MODEL 13
REMARK VINA RESULT:    -5.239      2.004      2.948
REMARK INTER + INTRA:          -6.346
REMARK INTER:                  -6.153
REMARK INTRA:                  -0.194
REMARK UNBOUND:                -0.188
REMARK SMILES S=C=NCCc1ccccc1
REMARK SMILES IDX 4 1 3 2 1 3 2 4 5 5 6 6 7 7 11 8 8 9 10 10 9 11
REMARK H PARENT
REMARK Flexibility Score: inf
ROOT
ATOM      1  C   UNL     1      22.631  37.419  -7.941  1.00  0.00     0.159 C 
ENDROOT
BRANCH   1   2
ATOM      2  N   UNL     1      22.010  37.365  -6.623  1.00  0.00    -0.232 NA
ATOM      3  S   UNL     1      23.103  38.789  -4.366  1.00  0.00    -0.006 S 
ATOM      4  C   UNL     1      22.491  37.993  -5.626  1.00  0.00     0.058 C 
ENDBRANCH   1   2
BRANCH   1   5
ATOM      5  C   UNL     1      24.152  37.444  -7.794  1.00  0.00     0.060 C 
BRANCH   5   6
ATOM      6  C   UNL     1      24.737  36.089  -8.088  1.00  0.00    -0.046 A 
ATOM      7  C   UNL     1      25.371  35.355  -7.071  1.00  0.00     0.004 A 
ATOM      8  C   UNL     1      24.703  35.570  -9.393  1.00  0.00     0.004 A 
ATOM      9  C   UNL     1      25.942  34.110  -7.352  1.00  0.00     0.000 A 
ATOM     10  C   UNL     1      25.276  34.325  -9.670  1.00  0.00     0.000 A 
ATOM     11  C   UNL     1      25.892  33.594  -8.650  1.00  0.00     0.000 A 
ENDBRANCH   5   6
ENDBRANCH   1   5
TORSDOF 3
ENDMDL
MODEL 14
REMARK VINA RESULT:    -5.019      2.075      2.823
REMARK INTER + INTRA:          -6.087
REMARK INTER:                  -5.953
REMARK INTRA:                  -0.134
REMARK UNBOUND:                -0.188
REMARK SMILES S=C=NCCc1ccccc1
REMARK SMILES IDX 4 1 3 2 1 3 2 4 5 5 6 6 7 7 11 8 8 9 10 10 9 11
REMARK H PARENT
REMARK Flexibility Score: inf
ROOT
ATOM      1  C   UNL     1      24.165  38.150  -7.325  1.00  0.00     0.159 C 
ENDROOT
BRANCH   1   2
ATOM      2  N   UNL     1      23.041  39.019  -6.996  1.00  0.00    -0.232 NA
ATOM      3  S   UNL     1      21.688  38.862  -4.454  1.00  0.00    -0.006 S 
ATOM      4  C   UNL     1      22.444  38.951  -5.875  1.00  0.00     0.058 C 
ENDBRANCH   1   2
BRANCH   1   5
ATOM      5  C   UNL     1      24.040  36.834  -6.558  1.00  0.00     0.060 C 
BRANCH   5   6
ATOM      6  C   UNL     1      24.724  35.718  -7.301  1.00  0.00    -0.046 A 
ATOM      7  C   UNL     1      24.585  35.605  -8.695  1.00  0.00     0.004 A 
ATOM      8  C   UNL     1      25.463  34.748  -6.602  1.00  0.00     0.004 A 
ATOM      9  C   UNL     1      25.194  34.550  -9.380  1.00  0.00     0.000 A 
ATOM     10  C   UNL     1      26.071  33.695  -7.291  1.00  0.00     0.000 A 
ATOM     11  C   UNL     1      25.939  33.597  -8.680  1.00  0.00     0.000 A 
ENDBRANCH   5   6
ENDBRANCH   1   5
TORSDOF 3
ENDMDL
MODEL 15
REMARK VINA RESULT:    -4.881      4.175      5.997
REMARK INTER + INTRA:          -5.926
REMARK INTER:                  -5.775
REMARK INTRA:                  -0.151
REMARK UNBOUND:                -0.188
REMARK SMILES S=C=NCCc1ccccc1
REMARK SMILES IDX 4 1 3 2 1 3 2 4 5 5 6 6 7 7 11 8 8 9 10 10 9 11
REMARK H PARENT
REMARK Flexibility Score: inf
ROOT
ATOM      1  C   UNL     1      21.816  38.023  -8.407  1.00  0.00     0.159 C 
ENDROOT
BRANCH   1   2
ATOM      2  N   UNL     1      20.994  37.355  -9.410  1.00  0.00    -0.232 NA
ATOM      3  S   UNL     1      22.158  35.815 -11.553  1.00  0.00    -0.006 S 
ATOM      4  C   UNL     1      21.506  36.675 -10.355  1.00  0.00     0.058 C 
ENDBRANCH   1   2
BRANCH   1   5
ATOM      5  C   UNL     1      22.938  37.089  -7.955  1.00  0.00     0.060 C 
BRANCH   5   6
ATOM      6  C   UNL     1      23.369  37.418  -6.551  1.00  0.00    -0.046 A 
ATOM      7  C   UNL     1      22.867  38.559  -5.904  1.00  0.00     0.004 A 
ATOM      8  C   UNL     1      24.318  36.615  -5.895  1.00  0.00     0.004 A 
ATOM      9  C   UNL     1      23.292  38.880  -4.611  1.00  0.00     0.000 A 
ATOM     10  C   UNL     1      24.741  36.940  -4.602  1.00  0.00     0.000 A 
ATOM     11  C   UNL     1      24.227  38.071  -3.960  1.00  0.00     0.000 A 
ENDBRANCH   5   6
ENDBRANCH   1   5
TORSDOF 3
ENDMDL
