MODEL 1
REMARK VINA RESULT:    -9.886      0.000      0.000
REMARK INTER + INTRA:         -18.362
REMARK INTER:                 -16.821
REMARK INTRA:                  -1.542
REMARK UNBOUND:                -1.542
REMARK SMILES COc1cc2c(Oc3ccc(NC(=O)C4(C(=O)Nc5ccc(F)cc5)CC4)cc3F)ccnc2cc1OCCCN1CCOCC1
REMARK SMILES IDX 3 1 36 2 35 3 34 4 33 5 32 6 31 7 6 8 5 9 4 10 2 11 1 12
REMARK SMILES IDX 37 13 38 14 39 15 40 16 41 17 42 18 46 19 43 20 45 21 44 22
REMARK SMILES IDX 7 23 8 24 9 25 29 26 10 27 28 28 30 29 11 30 12 31 13 32
REMARK SMILES IDX 14 34 15 35 26 36 27 37 16 38 17 39 18 40 19 42 20 43 25 44
REMARK SMILES IDX 21 45 24 46 22 47 23 48
REMARK H PARENT 12 33 18 41
REMARK Flexibility Score: inf
ROOT
ATOM      1  C   UNL     1      11.315  20.684  37.608  1.00  0.00     0.161 A 
ATOM      2  C   UNL     1      11.228  19.355  38.051  1.00  0.00     0.163 A 
ATOM      3  C   UNL     1      11.083  19.085  39.425  1.00  0.00     0.079 A 
ATOM      4  C   UNL     1      11.026  20.130  40.350  1.00  0.00     0.078 A 
ATOM      5  N   UNL     1      10.882  19.853  41.673  1.00  0.00    -0.256 NA
ATOM      6  C   UNL     1      10.828  20.836  42.608  1.00  0.00     0.115 A 
ATOM      7  C   UNL     1      10.922  22.175  42.226  1.00  0.00     0.068 A 
ATOM      8  C   UNL     1      11.067  22.506  40.867  1.00  0.00     0.138 A 
ATOM      9  C   UNL     1      11.121  21.471  39.913  1.00  0.00     0.047 A 
ATOM     10  C   UNL     1      11.263  21.739  38.541  1.00  0.00     0.064 A 
ENDROOT
BRANCH   1  11
ATOM     11  O   UNL     1      11.458  20.914  36.230  1.00  0.00    -0.493 OA
ATOM     12  C   UNL     1      12.704  20.980  35.545  1.00  0.00     0.278 C 
ENDBRANCH   1  11
BRANCH   2  13
ATOM     13  O   UNL     1      11.290  18.330  37.094  1.00  0.00    -0.490 OA
BRANCH  13  14
ATOM     14  C   UNL     1      10.185  17.522  36.699  1.00  0.00     0.231 C 
BRANCH  14  15
ATOM     15  C   UNL     1       9.113  18.392  36.038  1.00  0.00     0.057 C 
BRANCH  15  16
ATOM     16  C   UNL     1       9.004  18.153  34.522  1.00  0.00     0.088 C 
BRANCH  16  17
ATOM     17  N   UNL     1       8.312  19.260  33.826  1.00  0.00    -0.299 NA
ATOM     18  C   UNL     1       7.979  18.907  32.424  1.00  0.00     0.113 C 
ATOM     19  C   UNL     1       9.081  20.525  33.922  1.00  0.00     0.113 C 
ATOM     20  C   UNL     1       7.921  20.154  31.528  1.00  0.00     0.175 C 
ATOM     21  C   UNL     1       9.921  20.779  32.655  1.00  0.00     0.175 C 
ATOM     22  O   UNL     1       9.160  20.849  31.456  1.00  0.00    -0.379 OA
ENDBRANCH  16  17
ENDBRANCH  15  16
ENDBRANCH  14  15
ENDBRANCH  13  14
ENDBRANCH   2  13
BRANCH   8  23
ATOM     23  O   UNL     1      11.211  23.842  40.450  1.00  0.00    -0.454 OA
BRANCH  23  24
ATOM     24  C   UNL     1      12.419  24.549  40.421  1.00  0.00     0.163 A 
ATOM     25  C   UNL     1      13.246  24.427  39.301  1.00  0.00     0.052 A 
ATOM     26  C   UNL     1      12.795  25.410  41.466  1.00  0.00     0.167 A 
ATOM     27  C   UNL     1      14.463  25.111  39.240  1.00  0.00     0.030 A 
ATOM     28  C   UNL     1      14.008  26.104  41.401  1.00  0.00     0.069 A 
ATOM     29  F   UNL     1      11.969  25.612  42.524  1.00  0.00    -0.203 F 
ATOM     30  C   UNL     1      14.868  25.938  40.299  1.00  0.00     0.044 A 
BRANCH  30  31
ATOM     31  N   UNL     1      16.122  26.639  40.196  1.00  0.00    -0.325 N 
ATOM     32  C   UNL     1      17.385  26.133  40.653  1.00  0.00     0.240 C 
ATOM     33  H   UNL     1      16.135  27.533  39.655  1.00  0.00     0.169 HD
ATOM     34  O   UNL     1      17.484  24.974  41.137  1.00  0.00    -0.273 OA
BRANCH  32  35
ATOM     35  C   UNL     1      18.610  26.994  40.537  1.00  0.00     0.128 C 
ATOM     36  C   UNL     1      18.399  28.459  40.172  1.00  0.00     0.028 C 
ATOM     37  C   UNL     1      18.755  28.076  41.603  1.00  0.00     0.028 C 
BRANCH  35  38
ATOM     38  C   UNL     1      19.884  26.369  40.057  1.00  0.00     0.240 C 
ATOM     39  O   UNL     1      20.846  27.106  39.711  1.00  0.00    -0.274 OA
ATOM     40  N   UNL     1      20.025  24.942  40.064  1.00  0.00    -0.325 N 
ATOM     41  H   UNL     1      19.364  24.387  40.654  1.00  0.00     0.169 HD
BRANCH  40  42
ATOM     42  C   UNL     1      21.082  24.244  39.385  1.00  0.00     0.041 A 
ATOM     43  C   UNL     1      22.333  24.036  39.999  1.00  0.00     0.029 A 
ATOM     44  C   UNL     1      20.886  23.809  38.065  1.00  0.00     0.029 A 
ATOM     45  C   UNL     1      23.355  23.376  39.309  1.00  0.00     0.041 A 
ATOM     46  C   UNL     1      21.910  23.148  37.378  1.00  0.00     0.041 A 
ATOM     47  C   UNL     1      23.142  22.927  38.002  1.00  0.00     0.123 A 
ATOM     48  F   UNL     1      24.134  22.286  37.336  1.00  0.00    -0.207 F 
ENDBRANCH  40  42
ENDBRANCH  35  38
ENDBRANCH  32  35
ENDBRANCH  30  31
ENDBRANCH  23  24
ENDBRANCH   8  23
TORSDOF 12
ENDMDL
MODEL 2
REMARK VINA RESULT:    -9.739      1.844      3.161
REMARK INTER + INTRA:         -18.113
REMARK INTER:                 -15.959
REMARK INTRA:                  -2.154
REMARK UNBOUND:                -1.542
REMARK SMILES COc1cc2c(Oc3ccc(NC(=O)C4(C(=O)Nc5ccc(F)cc5)CC4)cc3F)ccnc2cc1OCCCN1CCOCC1
REMARK SMILES IDX 3 1 36 2 35 3 34 4 33 5 32 6 31 7 6 8 5 9 4 10 2 11 1 12
REMARK SMILES IDX 37 13 38 14 39 15 40 16 41 17 42 18 46 19 43 20 45 21 44 22
REMARK SMILES IDX 7 23 8 24 9 25 29 26 10 27 28 28 30 29 11 30 12 31 13 32
REMARK SMILES IDX 14 34 15 35 26 36 27 37 16 38 17 39 18 40 19 42 20 43 25 44
REMARK SMILES IDX 21 45 24 46 22 47 23 48
REMARK H PARENT 12 33 18 41
REMARK Flexibility Score: inf
ROOT
ATOM      1  C   UNL     1       9.832  21.258  37.677  1.00  0.00     0.161 A 
ATOM      2  C   UNL     1       9.677  19.938  38.126  1.00  0.00     0.163 A 
ATOM      3  C   UNL     1       9.897  19.630  39.482  1.00  0.00     0.079 A 
ATOM      4  C   UNL     1      10.268  20.631  40.383  1.00  0.00     0.078 A 
ATOM      5  N   UNL     1      10.473  20.319  41.691  1.00  0.00    -0.256 NA
ATOM      6  C   UNL     1      10.841  21.257  42.601  1.00  0.00     0.115 A 
ATOM      7  C   UNL     1      11.021  22.584  42.209  1.00  0.00     0.068 A 
ATOM      8  C   UNL     1      10.815  22.951  40.867  1.00  0.00     0.138 A 
ATOM      9  C   UNL     1      10.433  21.962  39.938  1.00  0.00     0.047 A 
ATOM     10  C   UNL     1      10.212  22.267  38.585  1.00  0.00     0.064 A 
ENDROOT
BRANCH   1  11
ATOM     11  O   UNL     1       9.603  21.527  36.318  1.00  0.00    -0.493 OA
ATOM     12  C   UNL     1      10.600  21.472  35.303  1.00  0.00     0.278 C 
ENDBRANCH   1  11
BRANCH   2  13
ATOM     13  O   UNL     1       9.305  18.958  37.192  1.00  0.00    -0.490 OA
BRANCH  13  14
ATOM     14  C   UNL     1      10.219  18.207  36.397  1.00  0.00     0.231 C 
BRANCH  14  15
ATOM     15  C   UNL     1      11.567  18.100  37.114  1.00  0.00     0.057 C 
BRANCH  15  16
ATOM     16  C   UNL     1      12.711  18.765  36.328  1.00  0.00     0.088 C 
BRANCH  16  17
ATOM     17  N   UNL     1      13.851  19.133  37.198  1.00  0.00    -0.299 NA
ATOM     18  C   UNL     1      13.589  18.797  38.619  1.00  0.00     0.113 C 
ATOM     19  C   UNL     1      14.235  20.554  37.015  1.00  0.00     0.113 C 
ATOM     20  C   UNL     1      14.358  19.730  39.568  1.00  0.00     0.175 C 
ATOM     21  C   UNL     1      13.622  21.455  38.104  1.00  0.00     0.175 C 
ATOM     22  O   UNL     1      13.988  21.096  39.431  1.00  0.00    -0.379 OA
ENDBRANCH  16  17
ENDBRANCH  15  16
ENDBRANCH  14  15
ENDBRANCH  13  14
ENDBRANCH   2  13
BRANCH   8  23
ATOM     23  O   UNL     1      11.032  24.269  40.426  1.00  0.00    -0.454 OA
BRANCH  23  24
ATOM     24  C   UNL     1      12.264  24.934  40.456  1.00  0.00     0.163 A 
ATOM     25  C   UNL     1      13.156  24.748  39.396  1.00  0.00     0.052 A 
ATOM     26  C   UNL     1      12.602  25.814  41.497  1.00  0.00     0.167 A 
ATOM     27  C   UNL     1      14.398  25.389  39.394  1.00  0.00     0.030 A 
ATOM     28  C   UNL     1      13.841  26.465  41.491  1.00  0.00     0.069 A 
ATOM     29  F   UNL     1      11.718  26.077  42.492  1.00  0.00    -0.203 F 
ATOM     30  C   UNL     1      14.764  26.234  40.452  1.00  0.00     0.044 A 
BRANCH  30  31
ATOM     31  N   UNL     1      16.045  26.889  40.411  1.00  0.00    -0.325 N 
ATOM     32  C   UNL     1      17.300  26.257  40.707  1.00  0.00     0.240 C 
ATOM     33  H   UNL     1      16.081  27.864  40.035  1.00  0.00     0.169 HD
ATOM     34  O   UNL     1      17.361  25.027  40.974  1.00  0.00    -0.273 OA
BRANCH  32  35
ATOM     35  C   UNL     1      18.560  27.072  40.682  1.00  0.00     0.128 C 
ATOM     36  C   UNL     1      18.413  28.577  40.490  1.00  0.00     0.028 C 
ATOM     37  C   UNL     1      18.756  28.017  41.864  1.00  0.00     0.028 C 
BRANCH  35  38
ATOM     38  C   UNL     1      19.805  26.454  40.123  1.00  0.00     0.240 C 
ATOM     39  O   UNL     1      20.714  27.194  39.660  1.00  0.00    -0.274 OA
ATOM     40  N   UNL     1      19.986  25.032  40.187  1.00  0.00    -0.325 N 
ATOM     41  H   UNL     1      19.393  24.493  40.859  1.00  0.00     0.169 HD
BRANCH  40  42
ATOM     42  C   UNL     1      20.999  24.326  39.453  1.00  0.00     0.041 A 
ATOM     43  C   UNL     1      20.741  23.799  38.172  1.00  0.00     0.029 A 
ATOM     44  C   UNL     1      22.254  24.109  40.044  1.00  0.00     0.029 A 
ATOM     45  C   UNL     1      21.736  23.093  37.488  1.00  0.00     0.041 A 
ATOM     46  C   UNL     1      23.248  23.404  39.355  1.00  0.00     0.041 A 
ATOM     47  C   UNL     1      22.990  22.902  38.075  1.00  0.00     0.123 A 
ATOM     48  F   UNL     1      23.953  22.219  37.408  1.00  0.00    -0.207 F 
ENDBRANCH  40  42
ENDBRANCH  35  38
ENDBRANCH  32  35
ENDBRANCH  30  31
ENDBRANCH  23  24
ENDBRANCH   8  23
TORSDOF 12
ENDMDL
MODEL 3
REMARK VINA RESULT:    -9.555      2.414      3.435
REMARK INTER + INTRA:         -17.799
REMARK INTER:                 -16.522
REMARK INTRA:                  -1.277
REMARK UNBOUND:                -1.542
REMARK SMILES COc1cc2c(Oc3ccc(NC(=O)C4(C(=O)Nc5ccc(F)cc5)CC4)cc3F)ccnc2cc1OCCCN1CCOCC1
REMARK SMILES IDX 3 1 36 2 35 3 34 4 33 5 32 6 31 7 6 8 5 9 4 10 2 11 1 12
REMARK SMILES IDX 37 13 38 14 39 15 40 16 41 17 42 18 46 19 43 20 45 21 44 22
REMARK SMILES IDX 7 23 8 24 9 25 29 26 10 27 28 28 30 29 11 30 12 31 13 32
REMARK SMILES IDX 14 34 15 35 26 36 27 37 16 38 17 39 18 40 19 42 20 43 25 44
REMARK SMILES IDX 21 45 24 46 22 47 23 48
REMARK H PARENT 12 33 18 41
REMARK Flexibility Score: inf
ROOT
ATOM      1  C   UNL     1      11.431  19.821  41.441  1.00  0.00     0.161 A 
ATOM      2  C   UNL     1      10.671  19.050  40.548  1.00  0.00     0.163 A 
ATOM      3  C   UNL     1       9.848  19.687  39.600  1.00  0.00     0.079 A 
ATOM      4  C   UNL     1       9.784  21.081  39.541  1.00  0.00     0.078 A 
ATOM      5  N   UNL     1       8.987  21.681  38.617  1.00  0.00    -0.256 NA
ATOM      6  C   UNL     1       8.888  23.033  38.528  1.00  0.00     0.115 A 
ATOM      7  C   UNL     1       9.611  23.849  39.398  1.00  0.00     0.068 A 
ATOM      8  C   UNL     1      10.451  23.269  40.366  1.00  0.00     0.138 A 
ATOM      9  C   UNL     1      10.540  21.865  40.441  1.00  0.00     0.047 A 
ATOM     10  C   UNL     1      11.362  21.228  41.386  1.00  0.00     0.064 A 
ENDROOT
BRANCH   1  11
ATOM     11  O   UNL     1      12.241  19.151  42.371  1.00  0.00    -0.493 OA
ATOM     12  C   UNL     1      11.984  19.088  43.770  1.00  0.00     0.278 C 
ENDBRANCH   1  11
BRANCH   2  13
ATOM     13  O   UNL     1      10.760  17.652  40.636  1.00  0.00    -0.490 OA
BRANCH  13  14
ATOM     14  C   UNL     1      11.308  16.809  39.625  1.00  0.00     0.231 C 
BRANCH  14  15
ATOM     15  C   UNL     1      12.399  17.559  38.857  1.00  0.00     0.057 C 
BRANCH  15  16
ATOM     16  C   UNL     1      12.042  17.772  37.376  1.00  0.00     0.088 C 
BRANCH  16  17
ATOM     17  N   UNL     1      12.992  18.680  36.694  1.00  0.00    -0.299 NA
ATOM     18  C   UNL     1      13.734  19.526  37.660  1.00  0.00     0.113 C 
ATOM     19  C   UNL     1      12.316  19.482  35.645  1.00  0.00     0.113 C 
ATOM     20  C   UNL     1      14.158  20.862  37.028  1.00  0.00     0.175 C 
ATOM     21  C   UNL     1      11.946  20.889  36.152  1.00  0.00     0.175 C 
ATOM     22  O   UNL     1      13.055  21.654  36.606  1.00  0.00    -0.379 OA
ENDBRANCH  16  17
ENDBRANCH  15  16
ENDBRANCH  14  15
ENDBRANCH  13  14
ENDBRANCH   2  13
BRANCH   8  23
ATOM     23  O   UNL     1      11.160  24.060  41.289  1.00  0.00    -0.454 OA
BRANCH  23  24
ATOM     24  C   UNL     1      12.378  24.700  41.031  1.00  0.00     0.163 A 
ATOM     25  C   UNL     1      12.805  25.710  41.897  1.00  0.00     0.052 A 
ATOM     26  C   UNL     1      13.197  24.320  39.954  1.00  0.00     0.167 A 
ATOM     27  C   UNL     1      14.012  26.377  41.667  1.00  0.00     0.030 A 
ATOM     28  C   UNL     1      14.411  24.980  39.730  1.00  0.00     0.069 A 
ATOM     29  F   UNL     1      12.844  23.285  39.151  1.00  0.00    -0.203 F 
ATOM     30  C   UNL     1      14.815  26.036  40.569  1.00  0.00     0.044 A 
BRANCH  30  31
ATOM     31  N   UNL     1      16.059  26.734  40.370  1.00  0.00    -0.325 N 
ATOM     32  C   UNL     1      17.356  26.211  40.696  1.00  0.00     0.240 C 
ATOM     33  H   UNL     1      16.029  27.642  39.853  1.00  0.00     0.169 HD
ATOM     34  O   UNL     1      17.490  25.039  41.139  1.00  0.00    -0.273 OA
BRANCH  32  35
ATOM     35  C   UNL     1      18.570  27.069  40.491  1.00  0.00     0.128 C 
ATOM     36  C   UNL     1      18.341  28.495  40.003  1.00  0.00     0.028 C 
ATOM     37  C   UNL     1      18.717  28.241  41.457  1.00  0.00     0.028 C 
BRANCH  35  38
ATOM     38  C   UNL     1      19.845  26.416  40.052  1.00  0.00     0.240 C 
ATOM     39  O   UNL     1      20.854  27.128  39.800  1.00  0.00    -0.274 OA
ATOM     40  N   UNL     1      19.930  24.985  39.993  1.00  0.00    -0.325 N 
ATOM     41  H   UNL     1      19.214  24.430  40.515  1.00  0.00     0.169 HD
BRANCH  40  42
ATOM     42  C   UNL     1      20.997  24.279  39.339  1.00  0.00     0.041 A 
ATOM     43  C   UNL     1      22.260  24.136  39.947  1.00  0.00     0.029 A 
ATOM     44  C   UNL     1      20.796  23.766  38.048  1.00  0.00     0.029 A 
ATOM     45  C   UNL     1      23.290  23.466  39.280  1.00  0.00     0.041 A 
ATOM     46  C   UNL     1      21.829  23.094  37.384  1.00  0.00     0.041 A 
ATOM     47  C   UNL     1      23.074  22.940  38.003  1.00  0.00     0.123 A 
ATOM     48  F   UNL     1      24.074  22.289  37.360  1.00  0.00    -0.207 F 
ENDBRANCH  40  42
ENDBRANCH  35  38
ENDBRANCH  32  35
ENDBRANCH  30  31
ENDBRANCH  23  24
ENDBRANCH   8  23
TORSDOF 12
ENDMDL
MODEL 4
REMARK VINA RESULT:    -9.511      1.859      2.257
REMARK INTER + INTRA:         -17.726
REMARK INTER:                 -15.909
REMARK INTRA:                  -1.817
REMARK UNBOUND:                -1.542
REMARK SMILES COc1cc2c(Oc3ccc(NC(=O)C4(C(=O)Nc5ccc(F)cc5)CC4)cc3F)ccnc2cc1OCCCN1CCOCC1
REMARK SMILES IDX 3 1 36 2 35 3 34 4 33 5 32 6 31 7 6 8 5 9 4 10 2 11 1 12
REMARK SMILES IDX 37 13 38 14 39 15 40 16 41 17 42 18 46 19 43 20 45 21 44 22
REMARK SMILES IDX 7 23 8 24 9 25 29 26 10 27 28 28 30 29 11 30 12 31 13 32
REMARK SMILES IDX 14 34 15 35 26 36 27 37 16 38 17 39 18 40 19 42 20 43 25 44
REMARK SMILES IDX 21 45 24 46 22 47 23 48
REMARK H PARENT 12 33 18 41
REMARK Flexibility Score: inf
ROOT
ATOM      1  C   UNL     1      12.483  20.099  38.596  1.00  0.00     0.161 A 
ATOM      2  C   UNL     1      12.329  18.908  39.322  1.00  0.00     0.163 A 
ATOM      3  C   UNL     1      11.782  18.947  40.618  1.00  0.00     0.079 A 
ATOM      4  C   UNL     1      11.391  20.161  41.186  1.00  0.00     0.078 A 
ATOM      5  N   UNL     1      10.860  20.181  42.439  1.00  0.00    -0.256 NA
ATOM      6  C   UNL     1      10.472  21.339  43.033  1.00  0.00     0.115 A 
ATOM      7  C   UNL     1      10.614  22.554  42.362  1.00  0.00     0.068 A 
ATOM      8  C   UNL     1      11.153  22.578  41.064  1.00  0.00     0.138 A 
ATOM      9  C   UNL     1      11.549  21.366  40.465  1.00  0.00     0.047 A 
ATOM     10  C   UNL     1      12.094  21.326  39.171  1.00  0.00     0.064 A 
ENDROOT
BRANCH   1  11
ATOM     11  O   UNL     1      13.031  20.022  37.306  1.00  0.00    -0.493 OA
ATOM     12  C   UNL     1      13.567  21.128  36.586  1.00  0.00     0.278 C 
ENDBRANCH   1  11
BRANCH   2  13
ATOM     13  O   UNL     1      12.734  17.706  38.720  1.00  0.00    -0.490 OA
BRANCH  13  14
ATOM     14  C   UNL     1      12.433  16.407  39.223  1.00  0.00     0.231 C 
BRANCH  14  15
ATOM     15  C   UNL     1      11.265  15.803  38.440  1.00  0.00     0.057 C 
BRANCH  15  16
ATOM     16  C   UNL     1       9.901  16.087  39.094  1.00  0.00     0.088 C 
BRANCH  16  17
ATOM     17  N   UNL     1       8.888  16.531  38.111  1.00  0.00    -0.299 NA
ATOM     18  C   UNL     1       9.041  15.836  36.810  1.00  0.00     0.113 C 
ATOM     19  C   UNL     1       8.885  18.007  37.965  1.00  0.00     0.113 C 
ATOM     20  C   UNL     1       8.531  16.701  35.645  1.00  0.00     0.175 C 
ATOM     21  C   UNL     1       9.700  18.461  36.739  1.00  0.00     0.175 C 
ATOM     22  O   UNL     1       9.242  17.924  35.504  1.00  0.00    -0.379 OA
ENDBRANCH  16  17
ENDBRANCH  15  16
ENDBRANCH  14  15
ENDBRANCH  13  14
ENDBRANCH   2  13
BRANCH   8  23
ATOM     23  O   UNL     1      11.353  23.789  40.376  1.00  0.00    -0.454 OA
BRANCH  23  24
ATOM     24  C   UNL     1      12.555  24.506  40.342  1.00  0.00     0.163 A 
ATOM     25  C   UNL     1      13.387  24.374  39.227  1.00  0.00     0.052 A 
ATOM     26  C   UNL     1      12.920  25.384  41.376  1.00  0.00     0.167 A 
ATOM     27  C   UNL     1      14.599  25.067  39.161  1.00  0.00     0.030 A 
ATOM     28  C   UNL     1      14.127  26.088  41.305  1.00  0.00     0.069 A 
ATOM     29  F   UNL     1      12.088  25.595  42.427  1.00  0.00    -0.203 F 
ATOM     30  C   UNL     1      14.993  25.912  40.209  1.00  0.00     0.044 A 
BRANCH  30  31
ATOM     31  N   UNL     1      16.241  26.622  40.101  1.00  0.00    -0.325 N 
ATOM     32  C   UNL     1      17.501  26.150  40.604  1.00  0.00     0.240 C 
ATOM     33  H   UNL     1      16.256  27.492  39.522  1.00  0.00     0.169 HD
ATOM     34  O   UNL     1      17.601  25.013  41.139  1.00  0.00    -0.273 OA
BRANCH  32  35
ATOM     35  C   UNL     1      18.719  27.018  40.475  1.00  0.00     0.128 C 
ATOM     36  C   UNL     1      18.498  28.474  40.081  1.00  0.00     0.028 C 
ATOM     37  C   UNL     1      18.852  28.121  41.520  1.00  0.00     0.028 C 
BRANCH  35  38
ATOM     38  C   UNL     1      19.999  26.394  40.012  1.00  0.00     0.240 C 
ATOM     39  O   UNL     1      20.960  27.132  39.663  1.00  0.00    -0.274 OA
ATOM     40  N   UNL     1      20.149  24.968  40.039  1.00  0.00    -0.325 N 
ATOM     41  H   UNL     1      19.487  24.417  40.632  1.00  0.00     0.169 HD
BRANCH  40  42
ATOM     42  C   UNL     1      21.214  24.268  39.376  1.00  0.00     0.041 A 
ATOM     43  C   UNL     1      22.461  24.071  40.002  1.00  0.00     0.029 A 
ATOM     44  C   UNL     1      21.030  23.817  38.059  1.00  0.00     0.029 A 
ATOM     45  C   UNL     1      23.492  23.409  39.327  1.00  0.00     0.041 A 
ATOM     46  C   UNL     1      22.063  23.153  37.387  1.00  0.00     0.041 A 
ATOM     47  C   UNL     1      23.291  22.944  38.024  1.00  0.00     0.123 A 
ATOM     48  F   UNL     1      24.291  22.301  37.372  1.00  0.00    -0.207 F 
ENDBRANCH  40  42
ENDBRANCH  35  38
ENDBRANCH  32  35
ENDBRANCH  30  31
ENDBRANCH  23  24
ENDBRANCH   8  23
TORSDOF 12
ENDMDL
MODEL 5
REMARK VINA RESULT:    -9.510      2.538      3.280
REMARK INTER + INTRA:         -17.723
REMARK INTER:                 -16.043
REMARK INTRA:                  -1.680
REMARK UNBOUND:                -1.542
REMARK SMILES COc1cc2c(Oc3ccc(NC(=O)C4(C(=O)Nc5ccc(F)cc5)CC4)cc3F)ccnc2cc1OCCCN1CCOCC1
REMARK SMILES IDX 3 1 36 2 35 3 34 4 33 5 32 6 31 7 6 8 5 9 4 10 2 11 1 12
REMARK SMILES IDX 37 13 38 14 39 15 40 16 41 17 42 18 46 19 43 20 45 21 44 22
REMARK SMILES IDX 7 23 8 24 9 25 29 26 10 27 28 28 30 29 11 30 12 31 13 32
REMARK SMILES IDX 14 34 15 35 26 36 27 37 16 38 17 39 18 40 19 42 20 43 25 44
REMARK SMILES IDX 21 45 24 46 22 47 23 48
REMARK H PARENT 12 33 18 41
REMARK Flexibility Score: inf
ROOT
ATOM      1  C   UNL     1      10.023  20.345  39.902  1.00  0.00     0.161 A 
ATOM      2  C   UNL     1       9.891  19.285  40.812  1.00  0.00     0.163 A 
ATOM      3  C   UNL     1      10.066  19.521  42.189  1.00  0.00     0.079 A 
ATOM      4  C   UNL     1      10.370  20.803  42.655  1.00  0.00     0.078 A 
ATOM      5  N   UNL     1      10.533  21.015  43.988  1.00  0.00    -0.256 NA
ATOM      6  C   UNL     1      10.835  22.242  44.485  1.00  0.00     0.115 A 
ATOM      7  C   UNL     1      10.991  23.330  43.625  1.00  0.00     0.068 A 
ATOM      8  C   UNL     1      10.826  23.155  42.240  1.00  0.00     0.138 A 
ATOM      9  C   UNL     1      10.512  21.874  41.744  1.00  0.00     0.047 A 
ATOM     10  C   UNL     1      10.335  21.638  40.371  1.00  0.00     0.064 A 
ENDROOT
BRANCH   1  11
ATOM     11  O   UNL     1       9.840  20.072  38.537  1.00  0.00    -0.493 OA
ATOM     12  C   UNL     1       9.036  20.851  37.657  1.00  0.00     0.278 C 
ENDBRANCH   1  11
BRANCH   2  13
ATOM     13  O   UNL     1       9.586  18.011  40.309  1.00  0.00    -0.490 OA
BRANCH  13  14
ATOM     14  C   UNL     1      10.521  16.942  40.189  1.00  0.00     0.231 C 
BRANCH  14  15
ATOM     15  C   UNL     1      10.819  16.674  38.712  1.00  0.00     0.057 C 
BRANCH  15  16
ATOM     16  C   UNL     1      12.267  17.023  38.326  1.00  0.00     0.088 C 
BRANCH  16  17
ATOM     17  N   UNL     1      12.478  18.483  38.197  1.00  0.00    -0.299 NA
ATOM     18  C   UNL     1      12.543  18.906  36.777  1.00  0.00     0.113 C 
ATOM     19  C   UNL     1      13.660  18.930  38.974  1.00  0.00     0.113 C 
ATOM     20  C   UNL     1      13.403  20.169  36.605  1.00  0.00     0.175 C 
ATOM     21  C   UNL     1      14.909  19.069  38.082  1.00  0.00     0.175 C 
ATOM     22  O   UNL     1      14.755  19.982  37.003  1.00  0.00    -0.379 OA
ENDBRANCH  16  17
ENDBRANCH  15  16
ENDBRANCH  14  15
ENDBRANCH  13  14
ENDBRANCH   2  13
BRANCH   8  23
ATOM     23  O   UNL     1      11.020  24.219  41.339  1.00  0.00    -0.454 OA
BRANCH  23  24
ATOM     24  C   UNL     1      12.248  24.841  41.083  1.00  0.00     0.163 A 
ATOM     25  C   UNL     1      12.710  25.812  41.975  1.00  0.00     0.052 A 
ATOM     26  C   UNL     1      13.042  24.481  39.981  1.00  0.00     0.167 A 
ATOM     27  C   UNL     1      13.927  26.461  41.748  1.00  0.00     0.030 A 
ATOM     28  C   UNL     1      14.266  25.122  39.760  1.00  0.00     0.069 A 
ATOM     29  F   UNL     1      12.654  23.480  39.150  1.00  0.00    -0.203 F 
ATOM     30  C   UNL     1      14.706  26.140  40.627  1.00  0.00     0.044 A 
BRANCH  30  31
ATOM     31  N   UNL     1      15.962  26.818  40.432  1.00  0.00    -0.325 N 
ATOM     32  C   UNL     1      17.250  26.263  40.735  1.00  0.00     0.240 C 
ATOM     33  H   UNL     1      15.945  27.737  39.934  1.00  0.00     0.169 HD
ATOM     34  O   UNL     1      17.366  25.079  41.152  1.00  0.00    -0.273 OA
BRANCH  32  35
ATOM     35  C   UNL     1      18.480  27.101  40.537  1.00  0.00     0.128 C 
ATOM     36  C   UNL     1      18.276  28.533  40.055  1.00  0.00     0.028 C 
ATOM     37  C   UNL     1      18.644  28.265  41.509  1.00  0.00     0.028 C 
BRANCH  35  38
ATOM     38  C   UNL     1      19.744  26.428  40.098  1.00  0.00     0.240 C 
ATOM     39  O   UNL     1      20.768  27.124  39.859  1.00  0.00    -0.274 OA
ATOM     40  N   UNL     1      19.803  24.997  40.024  1.00  0.00    -0.325 N 
ATOM     41  H   UNL     1      19.074  24.450  40.537  1.00  0.00     0.169 HD
BRANCH  40  42
ATOM     42  C   UNL     1      20.860  24.278  39.369  1.00  0.00     0.041 A 
ATOM     43  C   UNL     1      22.108  24.083  39.993  1.00  0.00     0.029 A 
ATOM     44  C   UNL     1      20.666  23.805  38.062  1.00  0.00     0.029 A 
ATOM     45  C   UNL     1      23.130  23.400  39.325  1.00  0.00     0.041 A 
ATOM     46  C   UNL     1      21.691  23.121  37.397  1.00  0.00     0.041 A 
ATOM     47  C   UNL     1      22.920  22.915  38.032  1.00  0.00     0.123 A 
ATOM     48  F   UNL     1      23.912  22.252  37.387  1.00  0.00    -0.207 F 
ENDBRANCH  40  42
ENDBRANCH  35  38
ENDBRANCH  32  35
ENDBRANCH  30  31
ENDBRANCH  23  24
ENDBRANCH   8  23
TORSDOF 12
ENDMDL
MODEL 6
REMARK VINA RESULT:    -9.455      8.553     14.530
REMARK INTER + INTRA:         -17.629
REMARK INTER:                 -16.657
REMARK INTRA:                  -0.972
REMARK UNBOUND:                -1.542
REMARK SMILES COc1cc2c(Oc3ccc(NC(=O)C4(C(=O)Nc5ccc(F)cc5)CC4)cc3F)ccnc2cc1OCCCN1CCOCC1
REMARK SMILES IDX 3 1 36 2 35 3 34 4 33 5 32 6 31 7 6 8 5 9 4 10 2 11 1 12
REMARK SMILES IDX 37 13 38 14 39 15 40 16 41 17 42 18 46 19 43 20 45 21 44 22
REMARK SMILES IDX 7 23 8 24 9 25 29 26 10 27 28 28 30 29 11 30 12 31 13 32
REMARK SMILES IDX 14 34 15 35 26 36 27 37 16 38 17 39 18 40 19 42 20 43 25 44
REMARK SMILES IDX 21 45 24 46 22 47 23 48
REMARK H PARENT 12 33 18 41
REMARK Flexibility Score: inf
ROOT
ATOM      1  C   UNL     1      28.336  18.073  31.533  1.00  0.00     0.161 A 
ATOM      2  C   UNL     1      27.990  17.624  30.249  1.00  0.00     0.163 A 
ATOM      3  C   UNL     1      27.600  18.553  29.266  1.00  0.00     0.079 A 
ATOM      4  C   UNL     1      27.557  19.918  29.559  1.00  0.00     0.078 A 
ATOM      5  N   UNL     1      27.182  20.804  28.597  1.00  0.00    -0.256 NA
ATOM      6  C   UNL     1      27.119  22.138  28.839  1.00  0.00     0.115 A 
ATOM      7  C   UNL     1      27.440  22.639  30.101  1.00  0.00     0.068 A 
ATOM      8  C   UNL     1      27.837  21.759  31.123  1.00  0.00     0.138 A 
ATOM      9  C   UNL     1      27.896  20.378  30.852  1.00  0.00     0.047 A 
ATOM     10  C   UNL     1      28.287  19.450  31.831  1.00  0.00     0.064 A 
ENDROOT
BRANCH   1  11
ATOM     11  O   UNL     1      28.721  17.117  32.487  1.00  0.00    -0.493 OA
ATOM     12  C   UNL     1      27.854  16.560  33.470  1.00  0.00     0.278 C 
ENDBRANCH   1  11
BRANCH   2  13
ATOM     13  O   UNL     1      28.044  16.245  29.989  1.00  0.00    -0.490 OA
BRANCH  13  14
ATOM     14  C   UNL     1      26.946  15.464  29.525  1.00  0.00     0.231 C 
BRANCH  14  15
ATOM     15  C   UNL     1      26.609  14.378  30.550  1.00  0.00     0.057 C 
BRANCH  15  16
ATOM     16  C   UNL     1      25.255  13.702  30.273  1.00  0.00     0.088 C 
BRANCH  16  17
ATOM     17  N   UNL     1      24.121  14.648  30.378  1.00  0.00    -0.299 NA
ATOM     18  C   UNL     1      23.306  14.398  31.592  1.00  0.00     0.113 C 
ATOM     19  C   UNL     1      23.304  14.655  29.140  1.00  0.00     0.113 C 
ATOM     20  C   UNL     1      21.846  14.834  31.389  1.00  0.00     0.175 C 
ATOM     21  C   UNL     1      22.057  13.760  29.276  1.00  0.00     0.175 C 
ATOM     22  O   UNL     1      21.191  14.126  30.344  1.00  0.00    -0.379 OA
ENDBRANCH  16  17
ENDBRANCH  15  16
ENDBRANCH  14  15
ENDBRANCH  13  14
ENDBRANCH   2  13
BRANCH   8  23
ATOM     23  O   UNL     1      28.124  22.224  32.420  1.00  0.00    -0.454 OA
BRANCH  23  24
ATOM     24  C   UNL     1      27.180  22.395  33.440  1.00  0.00     0.163 A 
ATOM     25  C   UNL     1      27.102  21.438  34.454  1.00  0.00     0.052 A 
ATOM     26  C   UNL     1      26.346  23.525  33.490  1.00  0.00     0.167 A 
ATOM     27  C   UNL     1      26.167  21.571  35.484  1.00  0.00     0.030 A 
ATOM     28  C   UNL     1      25.418  23.665  34.528  1.00  0.00     0.069 A 
ATOM     29  F   UNL     1      26.463  24.510  32.565  1.00  0.00    -0.203 F 
ATOM     30  C   UNL     1      25.299  22.672  35.519  1.00  0.00     0.044 A 
BRANCH  30  31
ATOM     31  N   UNL     1      24.357  22.785  36.603  1.00  0.00    -0.325 N 
ATOM     32  C   UNL     1      24.473  23.706  37.699  1.00  0.00     0.240 C 
ATOM     33  H   UNL     1      23.471  22.236  36.535  1.00  0.00     0.169 HD
ATOM     34  O   UNL     1      25.414  24.543  37.747  1.00  0.00    -0.273 OA
BRANCH  32  35
ATOM     35  C   UNL     1      23.449  23.680  38.795  1.00  0.00     0.128 C 
ATOM     36  C   UNL     1      23.167  22.334  39.453  1.00  0.00     0.028 C 
ATOM     37  C   UNL     1      23.988  23.383  40.191  1.00  0.00     0.028 C 
BRANCH  35  38
ATOM     38  C   UNL     1      22.297  24.636  38.725  1.00  0.00     0.240 C 
ATOM     39  O   UNL     1      22.148  25.355  37.701  1.00  0.00    -0.274 OA
ATOM     40  N   UNL     1      21.335  24.672  39.788  1.00  0.00    -0.325 N 
ATOM     41  H   UNL     1      21.294  23.856  40.440  1.00  0.00     0.169 HD
BRANCH  40  42
ATOM     42  C   UNL     1      20.363  25.719  39.945  1.00  0.00     0.041 A 
ATOM     43  C   UNL     1      20.740  27.076  39.925  1.00  0.00     0.029 A 
ATOM     44  C   UNL     1      19.019  25.384  40.176  1.00  0.00     0.029 A 
ATOM     45  C   UNL     1      19.779  28.077  40.104  1.00  0.00     0.041 A 
ATOM     46  C   UNL     1      18.060  26.388  40.353  1.00  0.00     0.041 A 
ATOM     47  C   UNL     1      18.440  27.734  40.312  1.00  0.00     0.123 A 
ATOM     48  F   UNL     1      17.511  28.706  40.484  1.00  0.00    -0.207 F 
ENDBRANCH  40  42
ENDBRANCH  35  38
ENDBRANCH  32  35
ENDBRANCH  30  31
ENDBRANCH  23  24
ENDBRANCH   8  23
TORSDOF 12
ENDMDL
MODEL 7
REMARK VINA RESULT:    -9.346      8.789     15.144
REMARK INTER + INTRA:         -17.445
REMARK INTER:                 -16.458
REMARK INTRA:                  -0.987
REMARK UNBOUND:                -1.542
REMARK SMILES COc1cc2c(Oc3ccc(NC(=O)C4(C(=O)Nc5ccc(F)cc5)CC4)cc3F)ccnc2cc1OCCCN1CCOCC1
REMARK SMILES IDX 3 1 36 2 35 3 34 4 33 5 32 6 31 7 6 8 5 9 4 10 2 11 1 12
REMARK SMILES IDX 37 13 38 14 39 15 40 16 41 17 42 18 46 19 43 20 45 21 44 22
REMARK SMILES IDX 7 23 8 24 9 25 29 26 10 27 28 28 30 29 11 30 12 31 13 32
REMARK SMILES IDX 14 34 15 35 26 36 27 37 16 38 17 39 18 40 19 42 20 43 25 44
REMARK SMILES IDX 21 45 24 46 22 47 23 48
REMARK H PARENT 12 33 18 41
REMARK Flexibility Score: inf
ROOT
ATOM      1  C   UNL     1      28.422  17.953  31.825  1.00  0.00     0.161 A 
ATOM      2  C   UNL     1      28.100  17.400  30.576  1.00  0.00     0.163 A 
ATOM      3  C   UNL     1      27.716  18.245  29.517  1.00  0.00     0.079 A 
ATOM      4  C   UNL     1      27.654  19.628  29.701  1.00  0.00     0.078 A 
ATOM      5  N   UNL     1      27.285  20.431  28.667  1.00  0.00    -0.256 NA
ATOM      6  C   UNL     1      27.206  21.779  28.801  1.00  0.00     0.115 A 
ATOM      7  C   UNL     1      27.503  22.382  30.024  1.00  0.00     0.068 A 
ATOM      8  C   UNL     1      27.894  21.590  31.118  1.00  0.00     0.138 A 
ATOM      9  C   UNL     1      27.970  20.192  30.958  1.00  0.00     0.047 A 
ATOM     10  C   UNL     1      28.355  19.349  32.013  1.00  0.00     0.064 A 
ENDROOT
BRANCH   1  11
ATOM     11  O   UNL     1      28.802  17.080  32.857  1.00  0.00    -0.493 OA
ATOM     12  C   UNL     1      30.131  16.618  33.079  1.00  0.00     0.278 C 
ENDBRANCH   1  11
BRANCH   2  13
ATOM     13  O   UNL     1      28.171  16.006  30.428  1.00  0.00    -0.490 OA
BRANCH  13  14
ATOM     14  C   UNL     1      27.083  15.177  30.028  1.00  0.00     0.231 C 
BRANCH  14  15
ATOM     15  C   UNL     1      26.651  14.286  31.196  1.00  0.00     0.057 C 
BRANCH  15  16
ATOM     16  C   UNL     1      25.896  15.064  32.287  1.00  0.00     0.088 C 
BRANCH  16  17
ATOM     17  N   UNL     1      25.738  14.277  33.531  1.00  0.00    -0.299 NA
ATOM     18  C   UNL     1      25.352  15.134  34.679  1.00  0.00     0.113 C 
ATOM     19  C   UNL     1      26.946  13.465  33.815  1.00  0.00     0.113 C 
ATOM     20  C   UNL     1      25.840  14.543  36.012  1.00  0.00     0.175 C 
ATOM     21  C   UNL     1      27.871  14.155  34.836  1.00  0.00     0.175 C 
ATOM     22  O   UNL     1      27.255  14.429  36.088  1.00  0.00    -0.379 OA
ENDBRANCH  16  17
ENDBRANCH  15  16
ENDBRANCH  14  15
ENDBRANCH  13  14
ENDBRANCH   2  13
BRANCH   8  23
ATOM     23  O   UNL     1      28.157  22.158  32.378  1.00  0.00    -0.454 OA
BRANCH  23  24
ATOM     24  C   UNL     1      27.208  22.341  33.392  1.00  0.00     0.163 A 
ATOM     25  C   UNL     1      27.121  21.391  34.413  1.00  0.00     0.052 A 
ATOM     26  C   UNL     1      26.378  23.474  33.430  1.00  0.00     0.167 A 
ATOM     27  C   UNL     1      26.182  21.535  35.437  1.00  0.00     0.030 A 
ATOM     28  C   UNL     1      25.445  23.625  34.461  1.00  0.00     0.069 A 
ATOM     29  F   UNL     1      26.504  24.452  32.497  1.00  0.00    -0.203 F 
ATOM     30  C   UNL     1      25.317  22.640  35.459  1.00  0.00     0.044 A 
BRANCH  30  31
ATOM     31  N   UNL     1      24.371  22.764  36.537  1.00  0.00    -0.325 N 
ATOM     32  C   UNL     1      24.534  23.619  37.679  1.00  0.00     0.240 C 
ATOM     33  H   UNL     1      23.449  22.282  36.432  1.00  0.00     0.169 HD
ATOM     34  O   UNL     1      25.530  24.385  37.780  1.00  0.00    -0.273 OA
BRANCH  32  35
ATOM     35  C   UNL     1      23.495  23.610  38.762  1.00  0.00     0.128 C 
ATOM     36  C   UNL     1      23.108  22.255  39.345  1.00  0.00     0.028 C 
ATOM     37  C   UNL     1      23.992  23.203  40.146  1.00  0.00     0.028 C 
BRANCH  35  38
ATOM     38  C   UNL     1      22.416  24.649  38.731  1.00  0.00     0.240 C 
ATOM     39  O   UNL     1      22.379  25.478  37.783  1.00  0.00    -0.274 OA
ATOM     40  N   UNL     1      21.393  24.645  39.737  1.00  0.00    -0.325 N 
ATOM     41  H   UNL     1      21.258  23.771  40.294  1.00  0.00     0.169 HD
BRANCH  40  42
ATOM     42  C   UNL     1      20.485  25.738  39.950  1.00  0.00     0.041 A 
ATOM     43  C   UNL     1      19.117  25.513  40.203  1.00  0.00     0.029 A 
ATOM     44  C   UNL     1      20.956  27.056  39.852  1.00  0.00     0.029 A 
ATOM     45  C   UNL     1      18.247  26.594  40.382  1.00  0.00     0.041 A 
ATOM     46  C   UNL     1      20.083  28.135  40.034  1.00  0.00     0.041 A 
ATOM     47  C   UNL     1      18.731  27.903  40.305  1.00  0.00     0.123 A 
ATOM     48  F   UNL     1      17.886  28.949  40.481  1.00  0.00    -0.207 F 
ENDBRANCH  40  42
ENDBRANCH  35  38
ENDBRANCH  32  35
ENDBRANCH  30  31
ENDBRANCH  23  24
ENDBRANCH   8  23
TORSDOF 12
ENDMDL
MODEL 8
REMARK VINA RESULT:    -9.315      2.841      3.785
REMARK INTER + INTRA:         -17.391
REMARK INTER:                 -15.381
REMARK INTRA:                  -2.010
REMARK UNBOUND:                -1.542
REMARK SMILES COc1cc2c(Oc3ccc(NC(=O)C4(C(=O)Nc5ccc(F)cc5)CC4)cc3F)ccnc2cc1OCCCN1CCOCC1
REMARK SMILES IDX 3 1 36 2 35 3 34 4 33 5 32 6 31 7 6 8 5 9 4 10 2 11 1 12
REMARK SMILES IDX 37 13 38 14 39 15 40 16 41 17 42 18 46 19 43 20 45 21 44 22
REMARK SMILES IDX 7 23 8 24 9 25 29 26 10 27 28 28 30 29 11 30 12 31 13 32
REMARK SMILES IDX 14 34 15 35 26 36 27 37 16 38 17 39 18 40 19 42 20 43 25 44
REMARK SMILES IDX 21 45 24 46 22 47 23 48
REMARK H PARENT 12 33 18 41
REMARK Flexibility Score: inf
ROOT
ATOM      1  C   UNL     1      12.273  19.627  40.937  1.00  0.00     0.161 A 
ATOM      2  C   UNL     1      11.879  18.964  42.109  1.00  0.00     0.163 A 
ATOM      3  C   UNL     1      11.103  19.642  43.068  1.00  0.00     0.079 A 
ATOM      4  C   UNL     1      10.722  20.970  42.860  1.00  0.00     0.078 A 
ATOM      5  N   UNL     1       9.969  21.611  43.794  1.00  0.00    -0.256 NA
ATOM      6  C   UNL     1       9.582  22.903  43.638  1.00  0.00     0.115 A 
ATOM      7  C   UNL     1       9.956  23.615  42.497  1.00  0.00     0.068 A 
ATOM      8  C   UNL     1      10.731  22.989  41.504  1.00  0.00     0.138 A 
ATOM      9  C   UNL     1      11.122  21.648  41.686  1.00  0.00     0.047 A 
ATOM     10  C   UNL     1      11.894  20.969  40.729  1.00  0.00     0.064 A 
ENDROOT
BRANCH   1  11
ATOM     11  O   UNL     1      13.045  18.918  40.003  1.00  0.00    -0.493 OA
ATOM     12  C   UNL     1      12.970  19.092  38.592  1.00  0.00     0.278 C 
ENDBRANCH   1  11
BRANCH   2  13
ATOM     13  O   UNL     1      12.280  17.630  42.285  1.00  0.00    -0.490 OA
BRANCH  13  14
ATOM     14  C   UNL     1      11.561  16.661  43.043  1.00  0.00     0.231 C 
BRANCH  14  15
ATOM     15  C   UNL     1      10.980  15.596  42.110  1.00  0.00     0.057 C 
BRANCH  15  16
ATOM     16  C   UNL     1      11.482  15.738  40.662  1.00  0.00     0.088 C 
BRANCH  16  17
ATOM     17  N   UNL     1      10.382  15.654  39.675  1.00  0.00    -0.299 NA
ATOM     18  C   UNL     1      10.890  15.689  38.282  1.00  0.00     0.113 C 
ATOM     19  C   UNL     1       9.349  16.688  39.926  1.00  0.00     0.113 C 
ATOM     20  C   UNL     1       9.848  16.282  37.318  1.00  0.00     0.175 C 
ATOM     21  C   UNL     1       9.541  17.918  39.018  1.00  0.00     0.175 C 
ATOM     22  O   UNL     1       9.504  17.627  37.627  1.00  0.00    -0.379 OA
ENDBRANCH  16  17
ENDBRANCH  15  16
ENDBRANCH  14  15
ENDBRANCH  13  14
ENDBRANCH   2  13
BRANCH   8  23
ATOM     23  O   UNL     1      11.164  23.689  40.363  1.00  0.00    -0.454 OA
BRANCH  23  24
ATOM     24  C   UNL     1      12.385  24.366  40.251  1.00  0.00     0.163 A 
ATOM     25  C   UNL     1      12.669  25.397  41.151  1.00  0.00     0.052 A 
ATOM     26  C   UNL     1      13.344  24.002  39.291  1.00  0.00     0.167 A 
ATOM     27  C   UNL     1      13.874  26.099  41.066  1.00  0.00     0.030 A 
ATOM     28  C   UNL     1      14.556  24.698  39.212  1.00  0.00     0.069 A 
ATOM     29  F   UNL     1      13.127  22.949  38.464  1.00  0.00    -0.203 F 
ATOM     30  C   UNL     1      14.819  25.775  40.081  1.00  0.00     0.044 A 
BRANCH  30  31
ATOM     31  N   UNL     1      16.056  26.510  40.031  1.00  0.00    -0.325 N 
ATOM     32  C   UNL     1      17.295  26.074  40.611  1.00  0.00     0.240 C 
ATOM     33  H   UNL     1      16.085  27.371  39.439  1.00  0.00     0.169 HD
ATOM     34  O   UNL     1      17.389  24.949  41.171  1.00  0.00    -0.273 OA
BRANCH  32  35
ATOM     35  C   UNL     1      18.499  26.967  40.536  1.00  0.00     0.128 C 
ATOM     36  C   UNL     1      18.260  28.431  40.186  1.00  0.00     0.028 C 
ATOM     37  C   UNL     1      18.593  28.037  41.620  1.00  0.00     0.028 C 
BRANCH  35  38
ATOM     38  C   UNL     1      19.800  26.381  40.078  1.00  0.00     0.240 C 
ATOM     39  O   UNL     1      20.759  27.147  39.790  1.00  0.00    -0.274 OA
ATOM     40  N   UNL     1      19.967  24.957  40.041  1.00  0.00    -0.325 N 
ATOM     41  H   UNL     1      19.298  24.371  40.590  1.00  0.00     0.169 HD
BRANCH  40  42
ATOM     42  C   UNL     1      21.059  24.302  39.374  1.00  0.00     0.041 A 
ATOM     43  C   UNL     1      20.921  23.800  38.065  1.00  0.00     0.029 A 
ATOM     44  C   UNL     1      22.270  24.111  40.058  1.00  0.00     0.029 A 
ATOM     45  C   UNL     1      21.990  23.145  37.446  1.00  0.00     0.041 A 
ATOM     46  C   UNL     1      23.338  23.456  39.434  1.00  0.00     0.041 A 
ATOM     47  C   UNL     1      23.199  22.978  38.127  1.00  0.00     0.123 A 
ATOM     48  F   UNL     1      24.234  22.343  37.524  1.00  0.00    -0.207 F 
ENDBRANCH  40  42
ENDBRANCH  35  38
ENDBRANCH  32  35
ENDBRANCH  30  31
ENDBRANCH  23  24
ENDBRANCH   8  23
TORSDOF 12
ENDMDL
MODEL 9
REMARK VINA RESULT:    -9.256      2.232      4.015
REMARK INTER + INTRA:         -17.291
REMARK INTER:                 -15.597
REMARK INTRA:                  -1.695
REMARK UNBOUND:                -1.542
REMARK SMILES COc1cc2c(Oc3ccc(NC(=O)C4(C(=O)Nc5ccc(F)cc5)CC4)cc3F)ccnc2cc1OCCCN1CCOCC1
REMARK SMILES IDX 3 1 36 2 35 3 34 4 33 5 32 6 31 7 6 8 5 9 4 10 2 11 1 12
REMARK SMILES IDX 37 13 38 14 39 15 40 16 41 17 42 18 46 19 43 20 45 21 44 22
REMARK SMILES IDX 7 23 8 24 9 25 29 26 10 27 28 28 30 29 11 30 12 31 13 32
REMARK SMILES IDX 14 34 15 35 26 36 27 37 16 38 17 39 18 40 19 42 20 43 25 44
REMARK SMILES IDX 21 45 24 46 22 47 23 48
REMARK H PARENT 12 33 18 41
REMARK Flexibility Score: inf
ROOT
ATOM      1  C   UNL     1      11.559  20.197  38.057  1.00  0.00     0.161 A 
ATOM      2  C   UNL     1      11.443  18.951  38.691  1.00  0.00     0.163 A 
ATOM      3  C   UNL     1      11.194  18.891  40.075  1.00  0.00     0.079 A 
ATOM      4  C   UNL     1      11.060  20.063  40.822  1.00  0.00     0.078 A 
ATOM      5  N   UNL     1      10.816  19.989  42.158  1.00  0.00    -0.256 NA
ATOM      6  C   UNL     1      10.685  21.102  42.924  1.00  0.00     0.115 A 
ATOM      7  C   UNL     1      10.803  22.368  42.349  1.00  0.00     0.068 A 
ATOM      8  C   UNL     1      11.051  22.491  40.971  1.00  0.00     0.138 A 
ATOM      9  C   UNL     1      11.183  21.323  40.193  1.00  0.00     0.047 A 
ATOM     10  C   UNL     1      11.429  21.382  38.811  1.00  0.00     0.064 A 
ENDROOT
BRANCH   1  11
ATOM     11  O   UNL     1      11.806  20.218  36.675  1.00  0.00    -0.493 OA
ATOM     12  C   UNL     1      12.780  21.039  36.039  1.00  0.00     0.278 C 
ENDBRANCH   1  11
BRANCH   2  13
ATOM     13  O   UNL     1      11.584  17.793  37.910  1.00  0.00    -0.490 OA
BRANCH  13  14
ATOM     14  C   UNL     1      10.499  17.045  37.365  1.00  0.00     0.231 C 
BRANCH  14  15
ATOM     15  C   UNL     1      10.667  15.562  37.705  1.00  0.00     0.057 C 
BRANCH  15  16
ATOM     16  C   UNL     1       9.497  15.008  38.538  1.00  0.00     0.088 C 
BRANCH  16  17
ATOM     17  N   UNL     1       9.603  15.374  39.968  1.00  0.00    -0.299 NA
ATOM     18  C   UNL     1      10.994  15.251  40.467  1.00  0.00     0.113 C 
ATOM     19  C   UNL     1       8.637  14.611  40.795  1.00  0.00     0.113 C 
ATOM     20  C   UNL     1      11.027  14.945  41.973  1.00  0.00     0.175 C 
ATOM     21  C   UNL     1       9.298  13.392  41.465  1.00  0.00     0.175 C 
ATOM     22  O   UNL     1      10.398  13.715  42.308  1.00  0.00    -0.379 OA
ENDBRANCH  16  17
ENDBRANCH  15  16
ENDBRANCH  14  15
ENDBRANCH  13  14
ENDBRANCH   2  13
BRANCH   8  23
ATOM     23  O   UNL     1      11.220  23.750  40.366  1.00  0.00    -0.454 OA
BRANCH  23  24
ATOM     24  C   UNL     1      12.415  24.480  40.351  1.00  0.00     0.163 A 
ATOM     25  C   UNL     1      13.308  24.291  39.293  1.00  0.00     0.052 A 
ATOM     26  C   UNL     1      12.713  25.426  41.346  1.00  0.00     0.167 A 
ATOM     27  C   UNL     1      14.513  24.996  39.248  1.00  0.00     0.030 A 
ATOM     28  C   UNL     1      13.915  26.141  41.296  1.00  0.00     0.069 A 
ATOM     29  F   UNL     1      11.823  25.690  42.336  1.00  0.00    -0.203 F 
ATOM     30  C   UNL     1      14.841  25.910  40.261  1.00  0.00     0.044 A 
BRANCH  30  31
ATOM     31  N   UNL     1      16.086  26.630  40.175  1.00  0.00    -0.325 N 
ATOM     32  C   UNL     1      17.356  26.130  40.621  1.00  0.00     0.240 C 
ATOM     33  H   UNL     1      16.087  27.536  39.654  1.00  0.00     0.169 HD
ATOM     34  O   UNL     1      17.469  24.961  41.079  1.00  0.00    -0.273 OA
BRANCH  32  35
ATOM     35  C   UNL     1      18.569  27.009  40.526  1.00  0.00     0.128 C 
ATOM     36  C   UNL     1      18.340  28.478  40.189  1.00  0.00     0.028 C 
ATOM     37  C   UNL     1      18.697  28.071  41.613  1.00  0.00     0.028 C 
BRANCH  35  38
ATOM     38  C   UNL     1      19.853  26.410  40.038  1.00  0.00     0.240 C 
ATOM     39  O   UNL     1      20.804  27.167  39.704  1.00  0.00    -0.274 OA
ATOM     40  N   UNL     1      20.016  24.985  40.025  1.00  0.00    -0.325 N 
ATOM     41  H   UNL     1      19.363  24.413  40.607  1.00  0.00     0.169 HD
BRANCH  40  42
ATOM     42  C   UNL     1      21.084  24.314  39.337  1.00  0.00     0.041 A 
ATOM     43  C   UNL     1      20.907  23.797  38.039  1.00  0.00     0.029 A 
ATOM     44  C   UNL     1      22.312  24.121  39.990  1.00  0.00     0.029 A 
ATOM     45  C   UNL     1      21.954  23.126  37.399  1.00  0.00     0.041 A 
ATOM     46  C   UNL     1      23.358  23.450  39.346  1.00  0.00     0.041 A 
ATOM     47  C   UNL     1      23.180  22.958  38.049  1.00  0.00     0.123 A 
ATOM     48  F   UNL     1      24.194  22.308  37.426  1.00  0.00    -0.207 F 
ENDBRANCH  40  42
ENDBRANCH  35  38
ENDBRANCH  32  35
ENDBRANCH  30  31
ENDBRANCH  23  24
ENDBRANCH   8  23
TORSDOF 12
ENDMDL
MODEL 10
REMARK VINA RESULT:    -9.074      3.140      6.604
REMARK INTER + INTRA:         -16.982
REMARK INTER:                 -15.866
REMARK INTRA:                  -1.115
REMARK UNBOUND:                -1.542
REMARK SMILES COc1cc2c(Oc3ccc(NC(=O)C4(C(=O)Nc5ccc(F)cc5)CC4)cc3F)ccnc2cc1OCCCN1CCOCC1
REMARK SMILES IDX 3 1 36 2 35 3 34 4 33 5 32 6 31 7 6 8 5 9 4 10 2 11 1 12
REMARK SMILES IDX 37 13 38 14 39 15 40 16 41 17 42 18 46 19 43 20 45 21 44 22
REMARK SMILES IDX 7 23 8 24 9 25 29 26 10 27 28 28 30 29 11 30 12 31 13 32
REMARK SMILES IDX 14 34 15 35 26 36 27 37 16 38 17 39 18 40 19 42 20 43 25 44
REMARK SMILES IDX 21 45 24 46 22 47 23 48
REMARK H PARENT 12 33 18 41
REMARK Flexibility Score: inf
ROOT
ATOM      1  C   UNL     1      11.604  16.579  37.994  1.00  0.00     0.161 A 
ATOM      2  C   UNL     1      10.402  15.856  37.945  1.00  0.00     0.163 A 
ATOM      3  C   UNL     1       9.323  16.347  37.185  1.00  0.00     0.079 A 
ATOM      4  C   UNL     1       9.441  17.547  36.480  1.00  0.00     0.078 A 
ATOM      5  N   UNL     1       8.390  18.005  35.747  1.00  0.00    -0.256 NA
ATOM      6  C   UNL     1       8.457  19.170  35.052  1.00  0.00     0.115 A 
ATOM      7  C   UNL     1       9.624  19.935  35.075  1.00  0.00     0.068 A 
ATOM      8  C   UNL     1      10.735  19.496  35.816  1.00  0.00     0.138 A 
ATOM      9  C   UNL     1      10.645  18.285  36.530  1.00  0.00     0.047 A 
ATOM     10  C   UNL     1      11.722  17.793  37.287  1.00  0.00     0.064 A 
ENDROOT
BRANCH   1  11
ATOM     11  O   UNL     1      12.659  16.058  38.760  1.00  0.00    -0.493 OA
ATOM     12  C   UNL     1      13.476  16.825  39.640  1.00  0.00     0.278 C 
ENDBRANCH   1  11
BRANCH   2  13
ATOM     13  O   UNL     1      10.319  14.655  38.666  1.00  0.00    -0.490 OA
BRANCH  13  14
ATOM     14  C   UNL     1       9.438  14.428  39.763  1.00  0.00     0.231 C 
BRANCH  14  15
ATOM     15  C   UNL     1      10.102  14.878  41.067  1.00  0.00     0.057 C 
BRANCH  15  16
ATOM     16  C   UNL     1       9.105  15.509  42.054  1.00  0.00     0.088 C 
BRANCH  16  17
ATOM     17  N   UNL     1       9.573  16.815  42.570  1.00  0.00    -0.299 NA
ATOM     18  C   UNL     1      10.568  17.439  41.663  1.00  0.00     0.113 C 
ATOM     19  C   UNL     1      10.072  16.701  43.962  1.00  0.00     0.113 C 
ATOM     20  C   UNL     1      11.533  18.356  42.433  1.00  0.00     0.175 C 
ATOM     21  C   UNL     1      11.607  16.576  44.010  1.00  0.00     0.175 C 
ATOM     22  O   UNL     1      12.298  17.665  43.412  1.00  0.00    -0.379 OA
ENDBRANCH  16  17
ENDBRANCH  15  16
ENDBRANCH  14  15
ENDBRANCH  13  14
ENDBRANCH   2  13
BRANCH   8  23
ATOM     23  O   UNL     1      11.911  20.264  35.899  1.00  0.00    -0.454 OA
BRANCH  23  24
ATOM     24  C   UNL     1      12.216  21.156  36.934  1.00  0.00     0.163 A 
ATOM     25  C   UNL     1      11.208  21.518  37.831  1.00  0.00     0.052 A 
ATOM     26  C   UNL     1      13.517  21.656  37.117  1.00  0.00     0.167 A 
ATOM     27  C   UNL     1      11.473  22.412  38.872  1.00  0.00     0.030 A 
ATOM     28  C   UNL     1      13.785  22.542  38.166  1.00  0.00     0.069 A 
ATOM     29  F   UNL     1      14.531  21.251  36.312  1.00  0.00    -0.203 F 
ATOM     30  C   UNL     1      12.757  22.952  39.036  1.00  0.00     0.044 A 
BRANCH  30  31
ATOM     31  N   UNL     1      12.998  23.859  40.128  1.00  0.00    -0.325 N 
ATOM     32  C   UNL     1      12.920  25.290  40.040  1.00  0.00     0.240 C 
ATOM     33  H   UNL     1      13.134  23.448  41.080  1.00  0.00     0.169 HD
ATOM     34  O   UNL     1      12.564  25.856  38.972  1.00  0.00    -0.273 OA
BRANCH  32  35
ATOM     35  C   UNL     1      13.253  26.123  41.244  1.00  0.00     0.128 C 
ATOM     36  C   UNL     1      12.123  26.941  41.859  1.00  0.00     0.028 C 
ATOM     37  C   UNL     1      12.608  25.674  42.552  1.00  0.00     0.028 C 
BRANCH  35  38
ATOM     38  C   UNL     1      14.628  26.706  41.356  1.00  0.00     0.240 C 
ATOM     39  O   UNL     1      14.781  27.843  41.878  1.00  0.00    -0.274 OA
ATOM     40  N   UNL     1      15.765  25.937  40.936  1.00  0.00    -0.325 N 
ATOM     41  H   UNL     1      15.645  24.905  40.829  1.00  0.00     0.169 HD
BRANCH  40  42
ATOM     42  C   UNL     1      17.076  26.494  40.753  1.00  0.00     0.041 A 
ATOM     43  C   UNL     1      17.295  27.885  40.809  1.00  0.00     0.029 A 
ATOM     44  C   UNL     1      18.153  25.643  40.460  1.00  0.00     0.029 A 
ATOM     45  C   UNL     1      18.577  28.406  40.602  1.00  0.00     0.041 A 
ATOM     46  C   UNL     1      19.435  26.167  40.256  1.00  0.00     0.041 A 
ATOM     47  C   UNL     1      19.647  27.547  40.333  1.00  0.00     0.123 A 
ATOM     48  F   UNL     1      20.889  28.054  40.134  1.00  0.00    -0.207 F 
ENDBRANCH  40  42
ENDBRANCH  35  38
ENDBRANCH  32  35
ENDBRANCH  30  31
ENDBRANCH  23  24
ENDBRANCH   8  23
TORSDOF 12
ENDMDL
MODEL 11
REMARK VINA RESULT:    -9.055      1.392      2.081
REMARK INTER + INTRA:         -16.950
REMARK INTER:                 -15.558
REMARK INTRA:                  -1.392
REMARK UNBOUND:                -1.542
REMARK SMILES COc1cc2c(Oc3ccc(NC(=O)C4(C(=O)Nc5ccc(F)cc5)CC4)cc3F)ccnc2cc1OCCCN1CCOCC1
REMARK SMILES IDX 3 1 36 2 35 3 34 4 33 5 32 6 31 7 6 8 5 9 4 10 2 11 1 12
REMARK SMILES IDX 37 13 38 14 39 15 40 16 41 17 42 18 46 19 43 20 45 21 44 22
REMARK SMILES IDX 7 23 8 24 9 25 29 26 10 27 28 28 30 29 11 30 12 31 13 32
REMARK SMILES IDX 14 34 15 35 26 36 27 37 16 38 17 39 18 40 19 42 20 43 25 44
REMARK SMILES IDX 21 45 24 46 22 47 23 48
REMARK H PARENT 12 33 18 41
REMARK Flexibility Score: inf
ROOT
ATOM      1  C   UNL     1      11.006  20.055  38.716  1.00  0.00     0.161 A 
ATOM      2  C   UNL     1       9.934  19.906  37.823  1.00  0.00     0.163 A 
ATOM      3  C   UNL     1       8.951  20.911  37.739  1.00  0.00     0.079 A 
ATOM      4  C   UNL     1       9.035  22.053  38.539  1.00  0.00     0.078 A 
ATOM      5  N   UNL     1       8.080  23.015  38.444  1.00  0.00    -0.256 NA
ATOM      6  C   UNL     1       8.117  24.139  39.206  1.00  0.00     0.115 A 
ATOM      7  C   UNL     1       9.154  24.333  40.120  1.00  0.00     0.068 A 
ATOM      8  C   UNL     1      10.165  23.364  40.247  1.00  0.00     0.138 A 
ATOM      9  C   UNL     1      10.108  22.206  39.447  1.00  0.00     0.047 A 
ATOM     10  C   UNL     1      11.089  21.204  39.527  1.00  0.00     0.064 A 
ENDROOT
BRANCH   1  11
ATOM     11  O   UNL     1      11.969  19.034  38.771  1.00  0.00    -0.493 OA
ATOM     12  C   UNL     1      12.034  18.036  39.784  1.00  0.00     0.278 C 
ENDBRANCH   1  11
BRANCH   2  13
ATOM     13  O   UNL     1       9.881  18.746  37.035  1.00  0.00    -0.490 OA
BRANCH  13  14
ATOM     14  C   UNL     1       8.737  17.904  36.908  1.00  0.00     0.231 C 
BRANCH  14  15
ATOM     15  C   UNL     1       8.738  17.228  35.535  1.00  0.00     0.057 C 
BRANCH  15  16
ATOM     16  C   UNL     1       7.865  17.971  34.508  1.00  0.00     0.088 C 
BRANCH  16  17
ATOM     17  N   UNL     1       8.652  18.469  33.357  1.00  0.00    -0.299 NA
ATOM     18  C   UNL     1       9.260  19.793  33.638  1.00  0.00     0.113 C 
ATOM     19  C   UNL     1       7.848  18.471  32.111  1.00  0.00     0.113 C 
ATOM     20  C   UNL     1       9.460  20.606  32.349  1.00  0.00     0.175 C 
ATOM     21  C   UNL     1       7.264  19.866  31.810  1.00  0.00     0.175 C 
ATOM     22  O   UNL     1       8.242  20.888  31.672  1.00  0.00    -0.379 OA
ENDBRANCH  16  17
ENDBRANCH  15  16
ENDBRANCH  14  15
ENDBRANCH  13  14
ENDBRANCH   2  13
BRANCH   8  23
ATOM     23  O   UNL     1      11.200  23.505  41.190  1.00  0.00    -0.454 OA
BRANCH  23  24
ATOM     24  C   UNL     1      12.358  24.271  41.005  1.00  0.00     0.163 A 
ATOM     25  C   UNL     1      13.170  24.008  39.899  1.00  0.00     0.052 A 
ATOM     26  C   UNL     1      12.694  25.321  41.876  1.00  0.00     0.167 A 
ATOM     27  C   UNL     1      14.337  24.747  39.685  1.00  0.00     0.030 A 
ATOM     28  C   UNL     1      13.856  26.068  41.656  1.00  0.00     0.069 A 
ATOM     29  F   UNL     1      11.876  25.650  42.907  1.00  0.00    -0.203 F 
ATOM     30  C   UNL     1      14.705  25.768  40.574  1.00  0.00     0.044 A 
BRANCH  30  31
ATOM     31  N   UNL     1      15.907  26.518  40.316  1.00  0.00    -0.325 N 
ATOM     32  C   UNL     1      17.221  26.140  40.753  1.00  0.00     0.240 C 
ATOM     33  H   UNL     1      15.838  27.339  39.673  1.00  0.00     0.169 HD
ATOM     34  O   UNL     1      17.415  25.055  41.364  1.00  0.00    -0.273 OA
BRANCH  32  35
ATOM     35  C   UNL     1      18.383  27.045  40.465  1.00  0.00     0.128 C 
ATOM     36  C   UNL     1      18.069  28.418  39.883  1.00  0.00     0.028 C 
ATOM     37  C   UNL     1      18.482  28.288  41.343  1.00  0.00     0.028 C 
BRANCH  35  38
ATOM     38  C   UNL     1      19.685  26.431  40.046  1.00  0.00     0.240 C 
ATOM     39  O   UNL     1      20.683  27.172  39.840  1.00  0.00    -0.274 OA
ATOM     40  N   UNL     1      19.804  25.005  39.956  1.00  0.00    -0.325 N 
ATOM     41  H   UNL     1      19.088  24.421  40.445  1.00  0.00     0.169 HD
BRANCH  40  42
ATOM     42  C   UNL     1      20.905  24.339  39.316  1.00  0.00     0.041 A 
ATOM     43  C   UNL     1      20.783  23.807  38.018  1.00  0.00     0.029 A 
ATOM     44  C   UNL     1      22.109  24.166  40.017  1.00  0.00     0.029 A 
ATOM     45  C   UNL     1      21.862  23.141  37.425  1.00  0.00     0.041 A 
ATOM     46  C   UNL     1      23.186  23.500  39.421  1.00  0.00     0.041 A 
ATOM     47  C   UNL     1      23.064  22.993  38.124  1.00  0.00     0.123 A 
ATOM     48  F   UNL     1      24.107  22.348  37.546  1.00  0.00    -0.207 F 
ENDBRANCH  40  42
ENDBRANCH  35  38
ENDBRANCH  32  35
ENDBRANCH  30  31
ENDBRANCH  23  24
ENDBRANCH   8  23
TORSDOF 12
ENDMDL
MODEL 12
REMARK VINA RESULT:    -8.876      8.730     15.454
REMARK INTER + INTRA:         -16.645
REMARK INTER:                 -16.264
REMARK INTRA:                  -0.381
REMARK UNBOUND:                -1.542
REMARK SMILES COc1cc2c(Oc3ccc(NC(=O)C4(C(=O)Nc5ccc(F)cc5)CC4)cc3F)ccnc2cc1OCCCN1CCOCC1
REMARK SMILES IDX 3 1 36 2 35 3 34 4 33 5 32 6 31 7 6 8 5 9 4 10 2 11 1 12
REMARK SMILES IDX 37 13 38 14 39 15 40 16 41 17 42 18 46 19 43 20 45 21 44 22
REMARK SMILES IDX 7 23 8 24 9 25 29 26 10 27 28 28 30 29 11 30 12 31 13 32
REMARK SMILES IDX 14 34 15 35 26 36 27 37 16 38 17 39 18 40 19 42 20 43 25 44
REMARK SMILES IDX 21 45 24 46 22 47 23 48
REMARK H PARENT 12 33 18 41
REMARK Flexibility Score: inf
ROOT
ATOM      1  C   UNL     1      26.663  18.155  32.343  1.00  0.00     0.161 A 
ATOM      2  C   UNL     1      26.328  17.562  31.116  1.00  0.00     0.163 A 
ATOM      3  C   UNL     1      26.473  18.296  29.923  1.00  0.00     0.079 A 
ATOM      4  C   UNL     1      26.948  19.609  29.953  1.00  0.00     0.078 A 
ATOM      5  N   UNL     1      27.087  20.303  28.792  1.00  0.00    -0.256 NA
ATOM      6  C   UNL     1      27.538  21.584  28.774  1.00  0.00     0.115 A 
ATOM      7  C   UNL     1      27.874  22.227  29.965  1.00  0.00     0.068 A 
ATOM      8  C   UNL     1      27.751  21.544  31.188  1.00  0.00     0.138 A 
ATOM      9  C   UNL     1      27.281  20.216  31.185  1.00  0.00     0.047 A 
ATOM     10  C   UNL     1      27.137  19.482  32.374  1.00  0.00     0.064 A 
ENDROOT
BRANCH   1  11
ATOM     11  O   UNL     1      26.506  17.392  33.511  1.00  0.00    -0.493 OA
ATOM     12  C   UNL     1      25.410  17.507  34.413  1.00  0.00     0.278 C 
ENDBRANCH   1  11
BRANCH   2  13
ATOM     13  O   UNL     1      25.853  16.241  31.123  1.00  0.00    -0.490 OA
BRANCH  13  14
ATOM     14  C   UNL     1      26.614  15.108  31.534  1.00  0.00     0.231 C 
BRANCH  14  15
ATOM     15  C   UNL     1      27.982  15.124  30.849  1.00  0.00     0.057 C 
BRANCH  15  16
ATOM     16  C   UNL     1      29.145  15.258  31.848  1.00  0.00     0.088 C 
BRANCH  16  17
ATOM     17  N   UNL     1      30.330  15.910  31.247  1.00  0.00    -0.299 NA
ATOM     18  C   UNL     1      29.951  17.061  30.391  1.00  0.00     0.113 C 
ATOM     19  C   UNL     1      31.182  14.930  30.529  1.00  0.00     0.113 C 
ATOM     20  C   UNL     1      30.982  17.296  29.274  1.00  0.00     0.175 C 
ATOM     21  C   UNL     1      30.902  14.932  29.014  1.00  0.00     0.175 C 
ATOM     22  O   UNL     1      31.105  16.192  28.387  1.00  0.00    -0.379 OA
ENDBRANCH  16  17
ENDBRANCH  15  16
ENDBRANCH  14  15
ENDBRANCH  13  14
ENDBRANCH   2  13
BRANCH   8  23
ATOM     23  O   UNL     1      28.037  22.176  32.413  1.00  0.00    -0.454 OA
BRANCH  23  24
ATOM     24  C   UNL     1      27.119  22.365  33.453  1.00  0.00     0.163 A 
ATOM     25  C   UNL     1      27.151  21.494  34.546  1.00  0.00     0.052 A 
ATOM     26  C   UNL     1      26.203  23.430  33.444  1.00  0.00     0.167 A 
ATOM     27  C   UNL     1      26.246  21.647  35.600  1.00  0.00     0.030 A 
ATOM     28  C   UNL     1      25.304  23.590  34.505  1.00  0.00     0.069 A 
ATOM     29  F   UNL     1      26.212  24.338  32.436  1.00  0.00    -0.203 F 
ATOM     30  C   UNL     1      25.298  22.681  35.579  1.00  0.00     0.044 A 
BRANCH  30  31
ATOM     31  N   UNL     1      24.389  22.817  36.689  1.00  0.00    -0.325 N 
ATOM     32  C   UNL     1      24.568  23.720  37.790  1.00  0.00     0.240 C 
ATOM     33  H   UNL     1      23.481  22.302  36.638  1.00  0.00     0.169 HD
ATOM     34  O   UNL     1      25.541  24.521  37.822  1.00  0.00    -0.273 OA
BRANCH  32  35
ATOM     35  C   UNL     1      23.572  23.721  38.913  1.00  0.00     0.128 C 
ATOM     36  C   UNL     1      23.359  22.406  39.655  1.00  0.00     0.028 C 
ATOM     37  C   UNL     1      24.156  23.528  40.309  1.00  0.00     0.028 C 
BRANCH  35  38
ATOM     38  C   UNL     1      22.382  24.627  38.817  1.00  0.00     0.240 C 
ATOM     39  O   UNL     1      22.152  25.239  37.740  1.00  0.00    -0.274 OA
ATOM     40  N   UNL     1      21.476  24.733  39.925  1.00  0.00    -0.325 N 
ATOM     41  H   UNL     1      21.502  23.983  40.652  1.00  0.00     0.169 HD
BRANCH  40  42
ATOM     42  C   UNL     1      20.475  25.757  40.036  1.00  0.00     0.041 A 
ATOM     43  C   UNL     1      19.108  25.434  40.153  1.00  0.00     0.029 A 
ATOM     44  C   UNL     1      20.857  27.106  39.973  1.00  0.00     0.029 A 
ATOM     45  C   UNL     1      18.149  26.449  40.235  1.00  0.00     0.041 A 
ATOM     46  C   UNL     1      19.895  28.119  40.057  1.00  0.00     0.041 A 
ATOM     47  C   UNL     1      18.542  27.790  40.194  1.00  0.00     0.123 A 
ATOM     48  F   UNL     1      17.611  28.772  40.274  1.00  0.00    -0.207 F 
ENDBRANCH  40  42
ENDBRANCH  35  38
ENDBRANCH  32  35
ENDBRANCH  30  31
ENDBRANCH  23  24
ENDBRANCH   8  23
TORSDOF 12
ENDMDL
MODEL 13
REMARK VINA RESULT:    -8.609      3.521      6.258
REMARK INTER + INTRA:         -16.189
REMARK INTER:                 -15.249
REMARK INTRA:                  -0.940
REMARK UNBOUND:                -1.542
REMARK SMILES COc1cc2c(Oc3ccc(NC(=O)C4(C(=O)Nc5ccc(F)cc5)CC4)cc3F)ccnc2cc1OCCCN1CCOCC1
REMARK SMILES IDX 3 1 36 2 35 3 34 4 33 5 32 6 31 7 6 8 5 9 4 10 2 11 1 12
REMARK SMILES IDX 37 13 38 14 39 15 40 16 41 17 42 18 46 19 43 20 45 21 44 22
REMARK SMILES IDX 7 23 8 24 9 25 29 26 10 27 28 28 30 29 11 30 12 31 13 32
REMARK SMILES IDX 14 34 15 35 26 36 27 37 16 38 17 39 18 40 19 42 20 43 25 44
REMARK SMILES IDX 21 45 24 46 22 47 23 48
REMARK H PARENT 12 33 18 41
REMARK Flexibility Score: inf
ROOT
ATOM      1  C   UNL     1       8.941  17.093  36.569  1.00  0.00     0.161 A 
ATOM      2  C   UNL     1       9.105  15.758  36.971  1.00  0.00     0.163 A 
ATOM      3  C   UNL     1      10.256  15.382  37.689  1.00  0.00     0.079 A 
ATOM      4  C   UNL     1      11.235  16.327  38.005  1.00  0.00     0.078 A 
ATOM      5  N   UNL     1      12.339  15.948  38.703  1.00  0.00    -0.256 NA
ATOM      6  C   UNL     1      13.318  16.831  39.027  1.00  0.00     0.115 A 
ATOM      7  C   UNL     1      13.214  18.168  38.642  1.00  0.00     0.068 A 
ATOM      8  C   UNL     1      12.086  18.604  37.923  1.00  0.00     0.138 A 
ATOM      9  C   UNL     1      11.081  17.671  37.598  1.00  0.00     0.047 A 
ATOM     10  C   UNL     1       9.931  18.046  36.883  1.00  0.00     0.064 A 
ENDROOT
BRANCH   1  11
ATOM     11  O   UNL     1       7.781  17.431  35.856  1.00  0.00    -0.493 OA
ATOM     12  C   UNL     1       7.715  17.585  34.442  1.00  0.00     0.278 C 
ENDBRANCH   1  11
BRANCH   2  13
ATOM     13  O   UNL     1       8.103  14.835  36.636  1.00  0.00    -0.490 OA
BRANCH  13  14
ATOM     14  C   UNL     1       6.958  14.554  37.437  1.00  0.00     0.231 C 
BRANCH  14  15
ATOM     15  C   UNL     1       7.327  13.559  38.540  1.00  0.00     0.057 C 
BRANCH  15  16
ATOM     16  C   UNL     1       7.175  14.154  39.951  1.00  0.00     0.088 C 
BRANCH  16  17
ATOM     17  N   UNL     1       8.455  14.677  40.481  1.00  0.00    -0.299 NA
ATOM     18  C   UNL     1       9.367  13.584  40.897  1.00  0.00     0.113 C 
ATOM     19  C   UNL     1       8.230  15.666  41.563  1.00  0.00     0.113 C 
ATOM     20  C   UNL     1      10.317  14.039  42.017  1.00  0.00     0.175 C 
ATOM     21  C   UNL     1       8.368  15.027  42.958  1.00  0.00     0.175 C 
ATOM     22  O   UNL     1       9.636  14.431  43.202  1.00  0.00    -0.379 OA
ENDBRANCH  16  17
ENDBRANCH  15  16
ENDBRANCH  14  15
ENDBRANCH  13  14
ENDBRANCH   2  13
BRANCH   8  23
ATOM     23  O   UNL     1      11.968  19.934  37.480  1.00  0.00    -0.454 OA
BRANCH  23  24
ATOM     24  C   UNL     1      12.301  21.065  38.235  1.00  0.00     0.163 A 
ATOM     25  C   UNL     1      11.481  21.424  39.308  1.00  0.00     0.052 A 
ATOM     26  C   UNL     1      13.458  21.816  37.968  1.00  0.00     0.167 A 
ATOM     27  C   UNL     1      11.776  22.551  40.080  1.00  0.00     0.030 A 
ATOM     28  C   UNL     1      13.761  22.938  38.747  1.00  0.00     0.069 A 
ATOM     29  F   UNL     1      14.315  21.436  36.987  1.00  0.00    -0.203 F 
ATOM     30  C   UNL     1      12.905  23.333  39.793  1.00  0.00     0.044 A 
BRANCH  30  31
ATOM     31  N   UNL     1      13.187  24.480  40.618  1.00  0.00    -0.325 N 
ATOM     32  C   UNL     1      12.997  25.846  40.218  1.00  0.00     0.240 C 
ATOM     33  H   UNL     1      13.446  24.308  41.616  1.00  0.00     0.169 HD
ATOM     34  O   UNL     1      12.497  26.130  39.097  1.00  0.00    -0.273 OA
BRANCH  32  35
ATOM     35  C   UNL     1      13.387  26.950  41.157  1.00  0.00     0.128 C 
ATOM     36  C   UNL     1      12.356  28.044  41.411  1.00  0.00     0.028 C 
ATOM     37  C   UNL     1      12.624  26.990  42.477  1.00  0.00     0.028 C 
BRANCH  35  38
ATOM     38  C   UNL     1      14.824  27.369  41.216  1.00  0.00     0.240 C 
ATOM     39  O   UNL     1      15.112  28.565  41.488  1.00  0.00    -0.274 OA
ATOM     40  N   UNL     1      15.859  26.392  41.037  1.00  0.00    -0.325 N 
ATOM     41  H   UNL     1      15.606  25.384  41.149  1.00  0.00     0.169 HD
BRANCH  40  42
ATOM     42  C   UNL     1      17.238  26.728  40.810  1.00  0.00     0.041 A 
ATOM     43  C   UNL     1      17.702  28.050  40.958  1.00  0.00     0.029 A 
ATOM     44  C   UNL     1      18.130  25.732  40.382  1.00  0.00     0.029 A 
ATOM     45  C   UNL     1      19.044  28.357  40.709  1.00  0.00     0.041 A 
ATOM     46  C   UNL     1      19.472  26.043  40.134  1.00  0.00     0.041 A 
ATOM     47  C   UNL     1      19.929  27.354  40.303  1.00  0.00     0.123 A 
ATOM     48  F   UNL     1      21.229  27.654  40.063  1.00  0.00    -0.207 F 
ENDBRANCH  40  42
ENDBRANCH  35  38
ENDBRANCH  32  35
ENDBRANCH  30  31
ENDBRANCH  23  24
ENDBRANCH   8  23
TORSDOF 12
ENDMDL
MODEL 14
REMARK VINA RESULT:    -8.581      2.033      3.106
REMARK INTER + INTRA:         -16.142
REMARK INTER:                 -14.389
REMARK INTRA:                  -1.753
REMARK UNBOUND:                -1.542
REMARK SMILES COc1cc2c(Oc3ccc(NC(=O)C4(C(=O)Nc5ccc(F)cc5)CC4)cc3F)ccnc2cc1OCCCN1CCOCC1
REMARK SMILES IDX 3 1 36 2 35 3 34 4 33 5 32 6 31 7 6 8 5 9 4 10 2 11 1 12
REMARK SMILES IDX 37 13 38 14 39 15 40 16 41 17 42 18 46 19 43 20 45 21 44 22
REMARK SMILES IDX 7 23 8 24 9 25 29 26 10 27 28 28 30 29 11 30 12 31 13 32
REMARK SMILES IDX 14 34 15 35 26 36 27 37 16 38 17 39 18 40 19 42 20 43 25 44
REMARK SMILES IDX 21 45 24 46 22 47 23 48
REMARK H PARENT 12 33 18 41
REMARK Flexibility Score: inf
ROOT
ATOM      1  C   UNL     1       9.535  20.679  39.982  1.00  0.00     0.161 A 
ATOM      2  C   UNL     1       8.315  20.778  39.296  1.00  0.00     0.163 A 
ATOM      3  C   UNL     1       7.674  22.028  39.188  1.00  0.00     0.079 A 
ATOM      4  C   UNL     1       8.245  23.168  39.757  1.00  0.00     0.078 A 
ATOM      5  N   UNL     1       7.616  24.368  39.640  1.00  0.00    -0.256 NA
ATOM      6  C   UNL     1       8.131  25.501  40.183  1.00  0.00     0.115 A 
ATOM      7  C   UNL     1       9.335  25.459  40.887  1.00  0.00     0.068 A 
ATOM      8  C   UNL     1      10.021  24.240  41.027  1.00  0.00     0.138 A 
ATOM      9  C   UNL     1       9.470  23.075  40.456  1.00  0.00     0.047 A 
ATOM     10  C   UNL     1      10.109  21.829  40.562  1.00  0.00     0.064 A 
ENDROOT
BRANCH   1  11
ATOM     11  O   UNL     1      10.145  19.418  40.068  1.00  0.00    -0.493 OA
ATOM     12  C   UNL     1       9.892  18.465  41.096  1.00  0.00     0.278 C 
ENDBRANCH   1  11
BRANCH   2  13
ATOM     13  O   UNL     1       7.770  19.612  38.737  1.00  0.00    -0.490 OA
BRANCH  13  14
ATOM     14  C   UNL     1       7.518  19.420  37.347  1.00  0.00     0.231 C 
BRANCH  14  15
ATOM     15  C   UNL     1       8.711  18.718  36.694  1.00  0.00     0.057 C 
BRANCH  15  16
ATOM     16  C   UNL     1       9.337  19.546  35.557  1.00  0.00     0.088 C 
BRANCH  16  17
ATOM     17  N   UNL     1      10.441  20.409  36.033  1.00  0.00    -0.299 NA
ATOM     18  C   UNL     1      11.227  20.968  34.906  1.00  0.00     0.113 C 
ATOM     19  C   UNL     1      11.293  19.704  37.021  1.00  0.00     0.113 C 
ATOM     20  C   UNL     1      12.681  21.251  35.320  1.00  0.00     0.175 C 
ATOM     21  C   UNL     1      12.559  19.118  36.367  1.00  0.00     0.175 C 
ATOM     22  O   UNL     1      13.384  20.083  35.727  1.00  0.00    -0.379 OA
ENDBRANCH  16  17
ENDBRANCH  15  16
ENDBRANCH  14  15
ENDBRANCH  13  14
ENDBRANCH   2  13
BRANCH   8  23
ATOM     23  O   UNL     1      11.214  24.151  41.768  1.00  0.00    -0.454 OA
BRANCH  23  24
ATOM     24  C   UNL     1      12.415  24.792  41.438  1.00  0.00     0.163 A 
ATOM     25  C   UNL     1      12.935  25.743  42.319  1.00  0.00     0.052 A 
ATOM     26  C   UNL     1      13.127  24.467  40.271  1.00  0.00     0.167 A 
ATOM     27  C   UNL     1      14.127  26.409  42.020  1.00  0.00     0.030 A 
ATOM     28  C   UNL     1      14.326  25.125  39.977  1.00  0.00     0.069 A 
ATOM     29  F   UNL     1      12.686  23.486  39.445  1.00  0.00    -0.203 F 
ATOM     30  C   UNL     1      14.822  26.125  40.836  1.00  0.00     0.044 A 
BRANCH  30  31
ATOM     31  N   UNL     1      16.055  26.820  40.566  1.00  0.00    -0.325 N 
ATOM     32  C   UNL     1      17.367  26.271  40.765  1.00  0.00     0.240 C 
ATOM     33  H   UNL     1      15.994  27.749  40.091  1.00  0.00     0.169 HD
ATOM     34  O   UNL     1      17.522  25.081  41.148  1.00  0.00    -0.273 OA
BRANCH  32  35
ATOM     35  C   UNL     1      18.571  27.126  40.498  1.00  0.00     0.128 C 
ATOM     36  C   UNL     1      18.322  28.547  40.007  1.00  0.00     0.028 C 
ATOM     37  C   UNL     1      18.763  28.306  41.446  1.00  0.00     0.028 C 
BRANCH  35  38
ATOM     38  C   UNL     1      19.825  26.467  40.008  1.00  0.00     0.240 C 
ATOM     39  O   UNL     1      20.789  27.179  39.617  1.00  0.00    -0.274 OA
ATOM     40  N   UNL     1      19.946  25.039  40.058  1.00  0.00    -0.325 N 
ATOM     41  H   UNL     1      19.292  24.513  40.681  1.00  0.00     0.169 HD
BRANCH  40  42
ATOM     42  C   UNL     1      20.977  24.305  39.377  1.00  0.00     0.041 A 
ATOM     43  C   UNL     1      22.229  24.073  39.979  1.00  0.00     0.029 A 
ATOM     44  C   UNL     1      20.753  23.855  38.066  1.00  0.00     0.029 A 
ATOM     45  C   UNL     1      23.226  23.377  39.286  1.00  0.00     0.041 A 
ATOM     46  C   UNL     1      21.751  23.158  37.376  1.00  0.00     0.041 A 
ATOM     47  C   UNL     1      22.985  22.915  37.989  1.00  0.00     0.123 A 
ATOM     48  F   UNL     1      23.952  22.239  37.320  1.00  0.00    -0.207 F 
ENDBRANCH  40  42
ENDBRANCH  35  38
ENDBRANCH  32  35
ENDBRANCH  30  31
ENDBRANCH  23  24
ENDBRANCH   8  23
TORSDOF 12
ENDMDL
MODEL 15
REMARK VINA RESULT:    -8.560      2.812      4.139
REMARK INTER + INTRA:         -16.106
REMARK INTER:                 -14.817
REMARK INTRA:                  -1.289
REMARK UNBOUND:                -1.542
REMARK SMILES COc1cc2c(Oc3ccc(NC(=O)C4(C(=O)Nc5ccc(F)cc5)CC4)cc3F)ccnc2cc1OCCCN1CCOCC1
REMARK SMILES IDX 3 1 36 2 35 3 34 4 33 5 32 6 31 7 6 8 5 9 4 10 2 11 1 12
REMARK SMILES IDX 37 13 38 14 39 15 40 16 41 17 42 18 46 19 43 20 45 21 44 22
REMARK SMILES IDX 7 23 8 24 9 25 29 26 10 27 28 28 30 29 11 30 12 31 13 32
REMARK SMILES IDX 14 34 15 35 26 36 27 37 16 38 17 39 18 40 19 42 20 43 25 44
REMARK SMILES IDX 21 45 24 46 22 47 23 48
REMARK H PARENT 12 33 18 41
REMARK Flexibility Score: inf
ROOT
ATOM      1  C   UNL     1      11.012  20.203  42.744  1.00  0.00     0.161 A 
ATOM      2  C   UNL     1      10.611  19.092  41.986  1.00  0.00     0.163 A 
ATOM      3  C   UNL     1      10.270  19.258  40.630  1.00  0.00     0.079 A 
ATOM      4  C   UNL     1      10.329  20.520  40.034  1.00  0.00     0.078 A 
ATOM      5  N   UNL     1      10.000  20.663  38.722  1.00  0.00    -0.256 NA
ATOM      6  C   UNL     1      10.036  21.871  38.104  1.00  0.00     0.115 A 
ATOM      7  C   UNL     1      10.415  23.012  38.812  1.00  0.00     0.068 A 
ATOM      8  C   UNL     1      10.767  22.908  40.169  1.00  0.00     0.138 A 
ATOM      9  C   UNL     1      10.724  21.645  40.793  1.00  0.00     0.047 A 
ATOM     10  C   UNL     1      11.066  21.478  42.145  1.00  0.00     0.064 A 
ENDROOT
BRANCH   1  11
ATOM     11  O   UNL     1      11.346  19.999  44.092  1.00  0.00    -0.493 OA
ATOM     12  C   UNL     1      11.977  20.966  44.925  1.00  0.00     0.278 C 
ENDBRANCH   1  11
BRANCH   2  13
ATOM     13  O   UNL     1      10.563  17.839  42.617  1.00  0.00    -0.490 OA
BRANCH  13  14
ATOM     14  C   UNL     1      11.025  16.622  42.038  1.00  0.00     0.231 C 
BRANCH  14  15
ATOM     15  C   UNL     1       9.891  15.595  42.010  1.00  0.00     0.057 C 
BRANCH  15  16
ATOM     16  C   UNL     1       8.683  16.067  41.181  1.00  0.00     0.088 C 
BRANCH  16  17
ATOM     17  N   UNL     1       8.642  15.439  39.841  1.00  0.00    -0.299 NA
ATOM     18  C   UNL     1       9.631  14.340  39.717  1.00  0.00     0.113 C 
ATOM     19  C   UNL     1       8.784  16.449  38.764  1.00  0.00     0.113 C 
ATOM     20  C   UNL     1      10.091  14.157  38.261  1.00  0.00     0.175 C 
ATOM     21  C   UNL     1      10.233  16.532  38.247  1.00  0.00     0.175 C 
ATOM     22  O   UNL     1      10.738  15.306  37.732  1.00  0.00    -0.379 OA
ENDBRANCH  16  17
ENDBRANCH  15  16
ENDBRANCH  14  15
ENDBRANCH  13  14
ENDBRANCH   2  13
BRANCH   8  23
ATOM     23  O   UNL     1      11.110  24.044  40.926  1.00  0.00    -0.454 OA
BRANCH  23  24
ATOM     24  C   UNL     1      12.322  24.739  40.829  1.00  0.00     0.163 A 
ATOM     25  C   UNL     1      13.139  24.516  39.717  1.00  0.00     0.052 A 
ATOM     26  C   UNL     1      12.711  25.683  41.794  1.00  0.00     0.167 A 
ATOM     27  C   UNL     1      14.359  25.185  39.589  1.00  0.00     0.030 A 
ATOM     28  C   UNL     1      13.927  26.362  41.661  1.00  0.00     0.069 A 
ATOM     29  F   UNL     1      11.894  25.979  42.837  1.00  0.00    -0.203 F 
ATOM     30  C   UNL     1      14.777  26.096  40.571  1.00  0.00     0.044 A 
BRANCH  30  31
ATOM     31  N   UNL     1      16.034  26.779  40.400  1.00  0.00    -0.325 N 
ATOM     32  C   UNL     1      17.319  26.226  40.723  1.00  0.00     0.240 C 
ATOM     33  H   UNL     1      16.023  27.700  39.905  1.00  0.00     0.169 HD
ATOM     34  O   UNL     1      17.431  25.041  41.137  1.00  0.00    -0.273 OA
BRANCH  32  35
ATOM     35  C   UNL     1      18.549  27.069  40.549  1.00  0.00     0.128 C 
ATOM     36  C   UNL     1      18.346  28.520  40.130  1.00  0.00     0.028 C 
ATOM     37  C   UNL     1      18.727  28.190  41.567  1.00  0.00     0.028 C 
BRANCH  35  38
ATOM     38  C   UNL     1      19.808  26.412  40.069  1.00  0.00     0.240 C 
ATOM     39  O   UNL     1      20.788  27.125  39.725  1.00  0.00    -0.274 OA
ATOM     40  N   UNL     1      19.913  24.982  40.075  1.00  0.00    -0.325 N 
ATOM     41  H   UNL     1      19.238  24.444  40.664  1.00  0.00     0.169 HD
BRANCH  40  42
ATOM     42  C   UNL     1      20.952  24.259  39.396  1.00  0.00     0.041 A 
ATOM     43  C   UNL     1      22.231  24.107  39.968  1.00  0.00     0.029 A 
ATOM     44  C   UNL     1      20.708  23.738  38.115  1.00  0.00     0.029 A 
ATOM     45  C   UNL     1      23.234  23.420  39.276  1.00  0.00     0.041 A 
ATOM     46  C   UNL     1      21.714  23.050  37.427  1.00  0.00     0.041 A 
ATOM     47  C   UNL     1      22.975  22.886  38.011  1.00  0.00     0.123 A 
ATOM     48  F   UNL     1      23.949  22.220  37.344  1.00  0.00    -0.207 F 
ENDBRANCH  40  42
ENDBRANCH  35  38
ENDBRANCH  32  35
ENDBRANCH  30  31
ENDBRANCH  23  24
ENDBRANCH   8  23
TORSDOF 12
ENDMDL
