MODEL 1
REMARK VINA RESULT:    -7.545      0.000      0.000
REMARK INTER + INTRA:         -14.591
REMARK INTER:                 -12.397
REMARK INTRA:                  -2.193
REMARK UNBOUND:                -2.193
REMARK SMILES COc1cc(Nc2ncc(F)c(Nc3ccc4c(n3)N(COP(=O)(O)O)C(=O)C(C)(C)O4)n2)cc(OC)c1OC
REMARK SMILES IDX 14 1 19 2 18 3 17 4 32 5 29 6 30 7 31 8 27 9 28 10 20 11
REMARK SMILES IDX 16 12 15 13 13 14 12 16 7 17 8 18 33 19 9 20 10 21 11 22
REMARK SMILES IDX 6 23 5 25 3 26 4 27 38 28 35 29 34 30 2 31 1 32 39 33 40 34
REMARK SMILES IDX 36 35 37 36 21 37 22 38 23 39 24 40 25 41 26 43
REMARK H PARENT 13 15 6 24 25 42 26 44
REMARK Flexibility Score: inf
ROOT
ATOM      1  C   UNL     1      13.344  18.005  40.134  1.00  0.00     0.134 A 
ATOM      2  N   UNL     1      12.753  18.036  41.360  1.00  0.00    -0.209 NA
ATOM      3  C   UNL     1      11.827  17.113  41.744  1.00  0.00     0.182 A 
ATOM      4  C   UNL     1      11.452  16.100  40.856  1.00  0.00     0.164 A 
ATOM      5  O   UNL     1      10.514  15.140  41.242  1.00  0.00    -0.474 OA
ATOM      6  C   UNL     1      10.199  14.862  42.612  1.00  0.00     0.182 C 
ATOM      7  C   UNL     1       8.751  14.352  42.668  1.00  0.00     0.067 C 
ATOM      8  C   UNL     1      11.157  13.774  43.119  1.00  0.00     0.067 C 
ATOM      9  C   UNL     1      10.359  16.102  43.474  1.00  0.00     0.273 C 
ATOM     10  O   UNL     1       9.814  16.140  44.613  1.00  0.00    -0.270 OA
ATOM     11  N   UNL     1      11.202  17.189  43.039  1.00  0.00    -0.265 N 
ATOM     12  C   UNL     1      12.011  16.067  39.576  1.00  0.00     0.054 A 
ATOM     13  C   UNL     1      12.961  17.019  39.208  1.00  0.00     0.051 A 
ENDROOT
BRANCH   1  14
ATOM     14  N   UNL     1      14.299  19.020  39.794  1.00  0.00    -0.322 N 
ATOM     15  H   UNL     1      15.257  18.944  40.205  1.00  0.00     0.170 HD
BRANCH  14  16
ATOM     16  C   UNL     1      14.021  20.151  38.954  1.00  0.00     0.173 A 
ATOM     17  C   UNL     1      13.092  22.324  38.737  1.00  0.00     0.229 A 
ATOM     18  N   UNL     1      13.538  22.396  37.453  1.00  0.00    -0.218 NA
ATOM     19  N   UNL     1      13.353  21.213  39.477  1.00  0.00    -0.192 NA
ATOM     20  C   UNL     1      14.223  21.369  36.890  1.00  0.00     0.158 A 
ATOM     21  C   UNL     1      14.489  20.220  37.631  1.00  0.00     0.184 A 
ATOM     22  F   UNL     1      15.231  19.224  37.086  1.00  0.00    -0.201 F 
BRANCH  17  23
ATOM     23  N   UNL     1      12.399  23.428  39.339  1.00  0.00    -0.324 N 
ATOM     24  H   UNL     1      11.355  23.392  39.348  1.00  0.00     0.170 HD
BRANCH  23  25
ATOM     25  C   UNL     1      13.044  24.501  40.048  1.00  0.00     0.049 A 
ATOM     26  C   UNL     1      15.014  25.893  40.388  1.00  0.00     0.166 A 
ATOM     27  C   UNL     1      14.353  24.854  39.711  1.00  0.00     0.076 A 
ATOM     28  C   UNL     1      14.364  26.580  41.427  1.00  0.00     0.203 A 
ATOM     29  C   UNL     1      13.045  26.209  41.798  1.00  0.00     0.166 A 
ATOM     30  C   UNL     1      12.407  25.160  41.108  1.00  0.00     0.076 A 
BRANCH  26  31
ATOM     31  O   UNL     1      16.323  26.279  40.056  1.00  0.00    -0.493 OA
ATOM     32  C   UNL     1      17.503  25.671  40.571  1.00  0.00     0.278 C 
ENDBRANCH  26  31
BRANCH  28  33
ATOM     33  O   UNL     1      15.088  27.616  42.048  1.00  0.00    -0.490 OA
ATOM     34  C   UNL     1      14.859  29.014  41.910  1.00  0.00     0.278 C 
ENDBRANCH  28  33
BRANCH  29  35
ATOM     35  O   UNL     1      12.396  26.882  42.845  1.00  0.00    -0.493 OA
ATOM     36  C   UNL     1      12.022  26.294  44.087  1.00  0.00     0.278 C 
ENDBRANCH  29  35
ENDBRANCH  23  25
ENDBRANCH  17  23
ENDBRANCH  14  16
ENDBRANCH   1  14
BRANCH  11  37
ATOM     37  C   UNL     1      11.517  18.299  43.946  1.00  0.00     0.303 C 
BRANCH  37  38
ATOM     38  O   UNL     1      10.495  19.264  43.859  1.00  0.00    -0.265 OA
BRANCH  38  39
ATOM     39  P   UNL     1      11.207  20.794  43.608  1.00  0.00     0.471 P 
ATOM     40  O   UNL     1      10.157  21.875  43.754  1.00  0.00    -0.228 OA
BRANCH  39  41
ATOM     41  O   UNL     1      11.918  20.882  42.070  1.00  0.00    -0.303 OA
ATOM     42  H   UNL     1      12.413  21.741  42.061  1.00  0.00     0.223 HD
ENDBRANCH  39  41
BRANCH  39  43
ATOM     43  O   UNL     1      12.407  21.030  44.778  1.00  0.00    -0.303 OA
ATOM     44  H   UNL     1      12.695  20.115  45.029  1.00  0.00     0.223 HD
ENDBRANCH  39  43
ENDBRANCH  38  39
ENDBRANCH  37  38
ENDBRANCH  11  37
TORSDOF 12
ENDMDL
MODEL 2
REMARK VINA RESULT:    -7.530      5.062      6.666
REMARK INTER + INTRA:         -14.565
REMARK INTER:                 -12.145
REMARK INTRA:                  -2.420
REMARK UNBOUND:                -2.193
REMARK SMILES COc1cc(Nc2ncc(F)c(Nc3ccc4c(n3)N(COP(=O)(O)O)C(=O)C(C)(C)O4)n2)cc(OC)c1OC
REMARK SMILES IDX 14 1 19 2 18 3 17 4 32 5 29 6 30 7 31 8 27 9 28 10 20 11
REMARK SMILES IDX 16 12 15 13 13 14 12 16 7 17 8 18 33 19 9 20 10 21 11 22
REMARK SMILES IDX 6 23 5 25 3 26 4 27 38 28 35 29 34 30 2 31 1 32 39 33 40 34
REMARK SMILES IDX 36 35 37 36 21 37 22 38 23 39 24 40 25 41 26 43
REMARK H PARENT 13 15 6 24 25 42 26 44
REMARK Flexibility Score: inf
ROOT
ATOM      1  C   UNL     1       9.705  17.524  37.368  1.00  0.00     0.134 A 
ATOM      2  N   UNL     1       9.837  18.681  36.662  1.00  0.00    -0.209 NA
ATOM      3  C   UNL     1       9.313  18.833  35.413  1.00  0.00     0.182 A 
ATOM      4  C   UNL     1       8.624  17.771  34.819  1.00  0.00     0.164 A 
ATOM      5  O   UNL     1       8.071  17.919  33.545  1.00  0.00    -0.474 OA
ATOM      6  C   UNL     1       7.797  19.195  32.955  1.00  0.00     0.182 C 
ATOM      7  C   UNL     1       7.889  19.039  31.430  1.00  0.00     0.067 C 
ATOM      8  C   UNL     1       6.376  19.618  33.353  1.00  0.00     0.067 C 
ATOM      9  C   UNL     1       8.780  20.246  33.441  1.00  0.00     0.273 C 
ATOM     10  O   UNL     1       8.909  21.322  32.793  1.00  0.00    -0.270 OA
ATOM     11  N   UNL     1       9.491  20.060  34.683  1.00  0.00    -0.265 N 
ATOM     12  C   UNL     1       8.509  16.559  35.502  1.00  0.00     0.054 A 
ATOM     13  C   UNL     1       9.049  16.429  36.782  1.00  0.00     0.051 A 
ENDROOT
BRANCH   1  14
ATOM     14  N   UNL     1      10.297  17.431  38.672  1.00  0.00    -0.322 N 
ATOM     15  H   UNL     1       9.875  16.757  39.350  1.00  0.00     0.170 HD
BRANCH  14  16
ATOM     16  C   UNL     1      11.407  18.224  39.121  1.00  0.00     0.173 A 
ATOM     17  C   UNL     1      12.176  20.132  40.306  1.00  0.00     0.229 A 
ATOM     18  N   UNL     1      13.466  19.745  40.108  1.00  0.00    -0.218 NA
ATOM     19  N   UNL     1      11.163  19.360  39.828  1.00  0.00    -0.192 NA
ATOM     20  C   UNL     1      13.761  18.612  39.422  1.00  0.00     0.158 A 
ATOM     21  C   UNL     1      12.735  17.817  38.916  1.00  0.00     0.184 A 
ATOM     22  F   UNL     1      13.033  16.651  38.290  1.00  0.00    -0.201 F 
BRANCH  17  23
ATOM     23  N   UNL     1      11.869  21.313  41.062  1.00  0.00    -0.324 N 
ATOM     24  H   UNL     1      11.980  21.260  42.100  1.00  0.00     0.170 HD
BRANCH  23  25
ATOM     25  C   UNL     1      11.556  22.591  40.480  1.00  0.00     0.049 A 
ATOM     26  C   UNL     1      12.320  24.646  39.418  1.00  0.00     0.166 A 
ATOM     27  C   UNL     1      12.591  23.390  39.987  1.00  0.00     0.076 A 
ATOM     28  C   UNL     1      10.998  25.118  39.353  1.00  0.00     0.203 A 
ATOM     29  C   UNL     1       9.943  24.328  39.879  1.00  0.00     0.166 A 
ATOM     30  C   UNL     1      10.242  23.075  40.450  1.00  0.00     0.076 A 
BRANCH  26  31
ATOM     31  O   UNL     1      13.340  25.459  38.899  1.00  0.00    -0.493 OA
ATOM     32  C   UNL     1      14.647  25.573  39.452  1.00  0.00     0.278 C 
ENDBRANCH  26  31
BRANCH  28  33
ATOM     33  O   UNL     1      10.808  26.379  38.758  1.00  0.00    -0.490 OA
ATOM     34  C   UNL     1      10.862  27.643  39.410  1.00  0.00     0.278 C 
ENDBRANCH  28  33
BRANCH  29  35
ATOM     35  O   UNL     1       8.622  24.801  39.832  1.00  0.00    -0.493 OA
ATOM     36  C   UNL     1       8.026  25.662  40.798  1.00  0.00     0.278 C 
ENDBRANCH  29  35
ENDBRANCH  23  25
ENDBRANCH  17  23
ENDBRANCH  14  16
ENDBRANCH   1  14
BRANCH  11  37
ATOM     37  C   UNL     1      10.290  21.151  35.256  1.00  0.00     0.303 C 
BRANCH  37  38
ATOM     38  O   UNL     1      11.560  21.155  34.647  1.00  0.00    -0.265 OA
BRANCH  38  39
ATOM     39  P   UNL     1      12.743  20.894  35.849  1.00  0.00     0.471 P 
ATOM     40  O   UNL     1      12.242  21.415  37.180  1.00  0.00    -0.228 OA
BRANCH  39  41
ATOM     41  O   UNL     1      14.199  21.663  35.437  1.00  0.00    -0.303 OA
ATOM     42  H   UNL     1      14.587  21.963  36.298  1.00  0.00     0.223 HD
ENDBRANCH  39  41
BRANCH  39  43
ATOM     43  O   UNL     1      13.023  19.230  35.978  1.00  0.00    -0.303 OA
ATOM     44  H   UNL     1      12.570  18.838  35.188  1.00  0.00     0.223 HD
ENDBRANCH  39  43
ENDBRANCH  38  39
ENDBRANCH  37  38
ENDBRANCH  11  37
TORSDOF 12
ENDMDL
MODEL 3
REMARK VINA RESULT:    -7.499      0.203      1.991
REMARK INTER + INTRA:         -14.514
REMARK INTER:                 -12.327
REMARK INTRA:                  -2.187
REMARK UNBOUND:                -2.193
REMARK SMILES COc1cc(Nc2ncc(F)c(Nc3ccc4c(n3)N(COP(=O)(O)O)C(=O)C(C)(C)O4)n2)cc(OC)c1OC
REMARK SMILES IDX 14 1 19 2 18 3 17 4 32 5 29 6 30 7 31 8 27 9 28 10 20 11
REMARK SMILES IDX 16 12 15 13 13 14 12 16 7 17 8 18 33 19 9 20 10 21 11 22
REMARK SMILES IDX 6 23 5 25 3 26 4 27 38 28 35 29 34 30 2 31 1 32 39 33 40 34
REMARK SMILES IDX 36 35 37 36 21 37 22 38 23 39 24 40 25 41 26 43
REMARK H PARENT 13 15 6 24 25 42 26 44
REMARK Flexibility Score: inf
ROOT
ATOM      1  C   UNL     1      13.264  18.073  40.260  1.00  0.00     0.134 A 
ATOM      2  N   UNL     1      12.736  18.071  41.515  1.00  0.00    -0.209 NA
ATOM      3  C   UNL     1      11.814  17.150  41.914  1.00  0.00     0.182 A 
ATOM      4  C   UNL     1      11.378  16.174  41.012  1.00  0.00     0.164 A 
ATOM      5  O   UNL     1      10.443  15.217  41.413  1.00  0.00    -0.474 OA
ATOM      6  C   UNL     1      10.192  14.896  42.786  1.00  0.00     0.182 C 
ATOM      7  C   UNL     1       8.741  14.407  42.899  1.00  0.00     0.067 C 
ATOM      8  C   UNL     1      11.155  13.777  43.208  1.00  0.00     0.067 C 
ATOM      9  C   UNL     1      10.417  16.103  43.681  1.00  0.00     0.273 C 
ATOM     10  O   UNL     1       9.931  16.111  44.846  1.00  0.00    -0.270 OA
ATOM     11  N   UNL     1      11.257  17.190  43.240  1.00  0.00    -0.265 N 
ATOM     12  C   UNL     1      11.871  16.176  39.706  1.00  0.00     0.054 A 
ATOM     13  C   UNL     1      12.818  17.125  39.323  1.00  0.00     0.051 A 
ENDROOT
BRANCH   1  14
ATOM     14  N   UNL     1      14.219  19.084  39.906  1.00  0.00    -0.322 N 
ATOM     15  H   UNL     1      15.176  19.015  40.322  1.00  0.00     0.170 HD
BRANCH  14  16
ATOM     16  C   UNL     1      13.942  20.200  39.048  1.00  0.00     0.173 A 
ATOM     17  C   UNL     1      13.055  22.389  38.805  1.00  0.00     0.229 A 
ATOM     18  N   UNL     1      13.466  22.421  37.508  1.00  0.00    -0.218 NA
ATOM     19  N   UNL     1      13.313  21.289  39.564  1.00  0.00    -0.192 NA
ATOM     20  C   UNL     1      14.111  21.365  36.950  1.00  0.00     0.158 A 
ATOM     21  C   UNL     1      14.373  20.228  37.711  1.00  0.00     0.184 A 
ATOM     22  F   UNL     1      15.077  19.203  37.170  1.00  0.00    -0.201 F 
BRANCH  17  23
ATOM     23  N   UNL     1      12.404  23.522  39.400  1.00  0.00    -0.324 N 
ATOM     24  H   UNL     1      11.359  23.521  39.416  1.00  0.00     0.170 HD
BRANCH  23  25
ATOM     25  C   UNL     1      13.090  24.579  40.094  1.00  0.00     0.049 A 
ATOM     26  C   UNL     1      13.082  26.290  41.828  1.00  0.00     0.166 A 
ATOM     27  C   UNL     1      12.442  25.248  41.135  1.00  0.00     0.076 A 
ATOM     28  C   UNL     1      14.383  26.678  41.468  1.00  0.00     0.203 A 
ATOM     29  C   UNL     1      15.039  26.025  40.393  1.00  0.00     0.166 A 
ATOM     30  C   UNL     1      14.374  24.989  39.709  1.00  0.00     0.076 A 
BRANCH  26  31
ATOM     31  O   UNL     1      12.458  26.965  42.890  1.00  0.00    -0.493 OA
ATOM     32  C   UNL     1      11.975  26.342  44.075  1.00  0.00     0.278 C 
ENDBRANCH  26  31
BRANCH  28  33
ATOM     33  O   UNL     1      14.960  27.721  42.219  1.00  0.00    -0.490 OA
ATOM     34  C   UNL     1      14.880  29.114  41.939  1.00  0.00     0.278 C 
ENDBRANCH  28  33
BRANCH  29  35
ATOM     35  O   UNL     1      16.333  26.420  40.018  1.00  0.00    -0.493 OA
ATOM     36  C   UNL     1      17.539  25.904  40.573  1.00  0.00     0.278 C 
ENDBRANCH  29  35
ENDBRANCH  23  25
ENDBRANCH  17  23
ENDBRANCH  14  16
ENDBRANCH   1  14
BRANCH  11  37
ATOM     37  C   UNL     1      11.636  18.264  44.168  1.00  0.00     0.303 C 
BRANCH  37  38
ATOM     38  O   UNL     1      10.622  19.242  44.173  1.00  0.00    -0.265 OA
BRANCH  38  39
ATOM     39  P   UNL     1      11.339  20.772  43.940  1.00  0.00     0.471 P 
ATOM     40  O   UNL     1      10.318  21.859  44.205  1.00  0.00    -0.228 OA
BRANCH  39  41
ATOM     41  O   UNL     1      11.944  20.920  42.361  1.00  0.00    -0.303 OA
ATOM     42  H   UNL     1      11.254  21.429  41.865  1.00  0.00     0.223 HD
ENDBRANCH  39  41
BRANCH  39  43
ATOM     43  O   UNL     1      12.620  20.942  45.033  1.00  0.00    -0.303 OA
ATOM     44  H   UNL     1      12.262  20.603  45.893  1.00  0.00     0.223 HD
ENDBRANCH  39  43
ENDBRANCH  38  39
ENDBRANCH  37  38
ENDBRANCH  11  37
TORSDOF 12
ENDMDL
MODEL 4
REMARK VINA RESULT:    -7.433      5.093      6.995
REMARK INTER + INTRA:         -14.406
REMARK INTER:                 -12.213
REMARK INTRA:                  -2.193
REMARK UNBOUND:                -2.193
REMARK SMILES COc1cc(Nc2ncc(F)c(Nc3ccc4c(n3)N(COP(=O)(O)O)C(=O)C(C)(C)O4)n2)cc(OC)c1OC
REMARK SMILES IDX 14 1 19 2 18 3 17 4 32 5 29 6 30 7 31 8 27 9 28 10 20 11
REMARK SMILES IDX 16 12 15 13 13 14 12 16 7 17 8 18 33 19 9 20 10 21 11 22
REMARK SMILES IDX 6 23 5 25 3 26 4 27 38 28 35 29 34 30 2 31 1 32 39 33 40 34
REMARK SMILES IDX 36 35 37 36 21 37 22 38 23 39 24 40 25 41 26 43
REMARK H PARENT 13 15 6 24 25 42 26 44
REMARK Flexibility Score: inf
ROOT
ATOM      1  C   UNL     1       9.528  17.432  37.352  1.00  0.00     0.134 A 
ATOM      2  N   UNL     1       9.743  18.556  36.614  1.00  0.00    -0.209 NA
ATOM      3  C   UNL     1       9.225  18.713  35.363  1.00  0.00     0.182 A 
ATOM      4  C   UNL     1       8.456  17.690  34.801  1.00  0.00     0.164 A 
ATOM      5  O   UNL     1       7.908  17.845  33.525  1.00  0.00    -0.474 OA
ATOM      6  C   UNL     1       7.728  19.122  32.900  1.00  0.00     0.182 C 
ATOM      7  C   UNL     1       7.799  18.918  31.380  1.00  0.00     0.067 C 
ATOM      8  C   UNL     1       6.345  19.662  33.292  1.00  0.00     0.067 C 
ATOM      9  C   UNL     1       8.789  20.109  33.355  1.00  0.00     0.273 C 
ATOM     10  O   UNL     1       8.995  21.154  32.677  1.00  0.00    -0.270 OA
ATOM     11  N   UNL     1       9.491  19.904  34.599  1.00  0.00    -0.265 N 
ATOM     12  C   UNL     1       8.253  16.509  35.517  1.00  0.00     0.054 A 
ATOM     13  C   UNL     1       8.788  16.374  36.798  1.00  0.00     0.051 A 
ENDROOT
BRANCH   1  14
ATOM     14  N   UNL     1      10.119  17.331  38.656  1.00  0.00    -0.322 N 
ATOM     15  H   UNL     1       9.626  16.745  39.368  1.00  0.00     0.170 HD
BRANCH  14  16
ATOM     16  C   UNL     1      11.320  18.004  39.060  1.00  0.00     0.173 A 
ATOM     17  C   UNL     1      12.327  19.820  40.210  1.00  0.00     0.229 A 
ATOM     18  N   UNL     1      13.562  19.302  39.965  1.00  0.00    -0.218 NA
ATOM     19  N   UNL     1      11.222  19.158  39.773  1.00  0.00    -0.192 NA
ATOM     20  C   UNL     1      13.712  18.145  39.272  1.00  0.00     0.158 A 
ATOM     21  C   UNL     1      12.591  17.461  38.807  1.00  0.00     0.184 A 
ATOM     22  F   UNL     1      12.742  16.271  38.174  1.00  0.00    -0.201 F 
BRANCH  17  23
ATOM     23  N   UNL     1      12.173  21.026  40.974  1.00  0.00    -0.324 N 
ATOM     24  H   UNL     1      12.418  20.985  41.989  1.00  0.00     0.170 HD
BRANCH  23  25
ATOM     25  C   UNL     1      11.841  22.307  40.410  1.00  0.00     0.049 A 
ATOM     26  C   UNL     1      10.141  23.930  39.767  1.00  0.00     0.166 A 
ATOM     27  C   UNL     1      10.500  22.688  40.319  1.00  0.00     0.076 A 
ATOM     28  C   UNL     1      11.135  24.798  39.285  1.00  0.00     0.203 A 
ATOM     29  C   UNL     1      12.498  24.407  39.345  1.00  0.00     0.166 A 
ATOM     30  C   UNL     1      12.831  23.155  39.897  1.00  0.00     0.076 A 
BRANCH  26  31
ATOM     31  O   UNL     1       8.802  24.343  39.682  1.00  0.00    -0.493 OA
ATOM     32  C   UNL     1       7.907  24.424  40.785  1.00  0.00     0.278 C 
ENDBRANCH  26  31
BRANCH  28  33
ATOM     33  O   UNL     1      10.697  26.028  38.759  1.00  0.00    -0.490 OA
ATOM     34  C   UNL     1      10.904  27.317  39.326  1.00  0.00     0.278 C 
ENDBRANCH  28  33
BRANCH  29  35
ATOM     35  O   UNL     1      13.495  25.264  38.850  1.00  0.00    -0.493 OA
ATOM     36  C   UNL     1      14.700  25.598  39.533  1.00  0.00     0.278 C 
ENDBRANCH  29  35
ENDBRANCH  23  25
ENDBRANCH  17  23
ENDBRANCH  14  16
ENDBRANCH   1  14
BRANCH  11  37
ATOM     37  C   UNL     1      10.373  20.946  35.139  1.00  0.00     0.303 C 
BRANCH  37  38
ATOM     38  O   UNL     1      11.660  20.783  34.592  1.00  0.00    -0.265 OA
BRANCH  38  39
ATOM     39  P   UNL     1      12.809  20.922  35.846  1.00  0.00     0.471 P 
ATOM     40  O   UNL     1      12.144  21.478  37.088  1.00  0.00    -0.228 OA
BRANCH  39  41
ATOM     41  O   UNL     1      14.094  21.926  35.378  1.00  0.00    -0.303 OA
ATOM     42  H   UNL     1      14.152  22.619  36.084  1.00  0.00     0.223 HD
ENDBRANCH  39  41
BRANCH  39  43
ATOM     43  O   UNL     1      13.419  19.381  36.192  1.00  0.00    -0.303 OA
ATOM     44  H   UNL     1      14.316  19.367  35.769  1.00  0.00     0.223 HD
ENDBRANCH  39  43
ENDBRANCH  38  39
ENDBRANCH  37  38
ENDBRANCH  11  37
TORSDOF 12
ENDMDL
MODEL 5
REMARK VINA RESULT:    -7.353      4.941      6.611
REMARK INTER + INTRA:         -14.274
REMARK INTER:                 -13.102
REMARK INTRA:                  -1.171
REMARK UNBOUND:                -2.193
REMARK SMILES COc1cc(Nc2ncc(F)c(Nc3ccc4c(n3)N(COP(=O)(O)O)C(=O)C(C)(C)O4)n2)cc(OC)c1OC
REMARK SMILES IDX 14 1 19 2 18 3 17 4 32 5 29 6 30 7 31 8 27 9 28 10 20 11
REMARK SMILES IDX 16 12 15 13 13 14 12 16 7 17 8 18 33 19 9 20 10 21 11 22
REMARK SMILES IDX 6 23 5 25 3 26 4 27 38 28 35 29 34 30 2 31 1 32 39 33 40 34
REMARK SMILES IDX 36 35 37 36 21 37 22 38 23 39 24 40 25 41 26 43
REMARK H PARENT 13 15 6 24 25 42 26 44
REMARK Flexibility Score: inf
ROOT
ATOM      1  C   UNL     1       9.736  22.280  38.601  1.00  0.00     0.134 A 
ATOM      2  N   UNL     1      10.759  21.740  37.883  1.00  0.00    -0.209 NA
ATOM      3  C   UNL     1      10.548  21.010  36.752  1.00  0.00     0.182 A 
ATOM      4  C   UNL     1       9.241  20.791  36.307  1.00  0.00     0.164 A 
ATOM      5  O   UNL     1       9.011  20.056  35.141  1.00  0.00    -0.474 OA
ATOM      6  C   UNL     1      10.012  19.848  34.138  1.00  0.00     0.182 C 
ATOM      7  C   UNL     1       9.705  18.519  33.432  1.00  0.00     0.067 C 
ATOM      8  C   UNL     1       9.938  21.004  33.130  1.00  0.00     0.067 C 
ATOM      9  C   UNL     1      11.402  19.815  34.749  1.00  0.00     0.273 C 
ATOM     10  O   UNL     1      12.358  19.316  34.092  1.00  0.00    -0.270 OA
ATOM     11  N   UNL     1      11.650  20.432  36.030  1.00  0.00    -0.265 N 
ATOM     12  C   UNL     1       8.169  21.297  37.044  1.00  0.00     0.054 A 
ATOM     13  C   UNL     1       8.411  22.046  38.196  1.00  0.00     0.051 A 
ENDROOT
BRANCH   1  14
ATOM     14  N   UNL     1      10.034  23.024  39.791  1.00  0.00    -0.322 N 
ATOM     15  H   UNL     1       9.508  22.780  40.661  1.00  0.00     0.170 HD
BRANCH  14  16
ATOM     16  C   UNL     1      10.981  24.101  39.862  1.00  0.00     0.173 A 
ATOM     17  C   UNL     1      13.230  24.794  40.171  1.00  0.00     0.229 A 
ATOM     18  N   UNL     1      12.877  26.083  39.913  1.00  0.00    -0.218 NA
ATOM     19  N   UNL     1      12.284  23.817  40.125  1.00  0.00    -0.192 NA
ATOM     20  C   UNL     1      11.592  26.415  39.630  1.00  0.00     0.158 A 
ATOM     21  C   UNL     1      10.610  25.428  39.590  1.00  0.00     0.184 A 
ATOM     22  F   UNL     1       9.341  25.754  39.242  1.00  0.00    -0.201 F 
BRANCH  17  23
ATOM     23  N   UNL     1      14.597  24.443  40.435  1.00  0.00    -0.324 N 
ATOM     24  H   UNL     1      14.866  23.441  40.316  1.00  0.00     0.170 HD
BRANCH  23  25
ATOM     25  C   UNL     1      15.640  25.395  40.712  1.00  0.00     0.049 A 
ATOM     26  C   UNL     1      16.291  27.646  41.377  1.00  0.00     0.166 A 
ATOM     27  C   UNL     1      15.297  26.691  41.106  1.00  0.00     0.076 A 
ATOM     28  C   UNL     1      17.648  27.307  41.239  1.00  0.00     0.203 A 
ATOM     29  C   UNL     1      18.006  26.003  40.810  1.00  0.00     0.166 A 
ATOM     30  C   UNL     1      16.991  25.065  40.538  1.00  0.00     0.076 A 
BRANCH  26  31
ATOM     31  O   UNL     1      15.972  28.949  41.793  1.00  0.00    -0.493 OA
ATOM     32  C   UNL     1      14.650  29.460  41.916  1.00  0.00     0.278 C 
ENDBRANCH  26  31
BRANCH  28  33
ATOM     33  O   UNL     1      18.583  28.315  41.542  1.00  0.00    -0.490 OA
ATOM     34  C   UNL     1      19.662  28.747  40.720  1.00  0.00     0.278 C 
ENDBRANCH  28  33
BRANCH  29  35
ATOM     35  O   UNL     1      19.360  25.663  40.655  1.00  0.00    -0.493 OA
ATOM     36  C   UNL     1      19.912  24.996  39.524  1.00  0.00     0.278 C 
ENDBRANCH  29  35
ENDBRANCH  23  25
ENDBRANCH  17  23
ENDBRANCH  14  16
ENDBRANCH   1  14
BRANCH  11  37
ATOM     37  C   UNL     1      13.021  20.576  36.536  1.00  0.00     0.303 C 
BRANCH  37  38
ATOM     38  O   UNL     1      13.468  19.326  37.005  1.00  0.00    -0.265 OA
BRANCH  38  39
ATOM     39  P   UNL     1      13.692  19.424  38.694  1.00  0.00     0.471 P 
ATOM     40  O   UNL     1      12.767  18.446  39.389  1.00  0.00    -0.228 OA
BRANCH  39  41
ATOM     41  O   UNL     1      13.394  20.999  39.251  1.00  0.00    -0.303 OA
ATOM     42  H   UNL     1      13.992  21.581  38.717  1.00  0.00     0.223 HD
ENDBRANCH  39  41
BRANCH  39  43
ATOM     43  O   UNL     1      15.295  19.014  39.051  1.00  0.00    -0.303 OA
ATOM     44  H   UNL     1      15.840  19.625  38.492  1.00  0.00     0.223 HD
ENDBRANCH  39  43
ENDBRANCH  38  39
ENDBRANCH  37  38
ENDBRANCH  11  37
TORSDOF 12
ENDMDL
MODEL 6
REMARK VINA RESULT:    -7.325      3.532      4.708
REMARK INTER + INTRA:         -14.229
REMARK INTER:                 -12.694
REMARK INTRA:                  -1.535
REMARK UNBOUND:                -2.193
REMARK SMILES COc1cc(Nc2ncc(F)c(Nc3ccc4c(n3)N(COP(=O)(O)O)C(=O)C(C)(C)O4)n2)cc(OC)c1OC
REMARK SMILES IDX 14 1 19 2 18 3 17 4 32 5 29 6 30 7 31 8 27 9 28 10 20 11
REMARK SMILES IDX 16 12 15 13 13 14 12 16 7 17 8 18 33 19 9 20 10 21 11 22
REMARK SMILES IDX 6 23 5 25 3 26 4 27 38 28 35 29 34 30 2 31 1 32 39 33 40 34
REMARK SMILES IDX 36 35 37 36 21 37 22 38 23 39 24 40 25 41 26 43
REMARK H PARENT 13 15 6 24 25 42 26 44
REMARK Flexibility Score: inf
ROOT
ATOM      1  C   UNL     1      12.868  18.448  39.261  1.00  0.00     0.134 A 
ATOM      2  N   UNL     1      11.705  18.749  38.619  1.00  0.00    -0.209 NA
ATOM      3  C   UNL     1      10.780  17.798  38.307  1.00  0.00     0.182 A 
ATOM      4  C   UNL     1      11.025  16.462  38.641  1.00  0.00     0.164 A 
ATOM      5  O   UNL     1      10.079  15.480  38.338  1.00  0.00    -0.474 OA
ATOM      6  C   UNL     1       8.701  15.774  38.079  1.00  0.00     0.182 C 
ATOM      7  C   UNL     1       8.153  14.686  37.144  1.00  0.00     0.067 C 
ATOM      8  C   UNL     1       7.940  15.749  39.412  1.00  0.00     0.067 C 
ATOM      9  C   UNL     1       8.543  17.147  37.447  1.00  0.00     0.273 C 
ATOM     10  O   UNL     1       7.469  17.435  36.849  1.00  0.00    -0.270 OA
ATOM     11  N   UNL     1       9.572  18.145  37.607  1.00  0.00    -0.265 N 
ATOM     12  C   UNL     1      12.226  16.117  39.262  1.00  0.00     0.054 A 
ATOM     13  C   UNL     1      13.155  17.109  39.576  1.00  0.00     0.051 A 
ENDROOT
BRANCH   1  14
ATOM     14  N   UNL     1      13.802  19.500  39.543  1.00  0.00    -0.322 N 
ATOM     15  H   UNL     1      14.567  19.300  40.227  1.00  0.00     0.170 HD
BRANCH  14  16
ATOM     16  C   UNL     1      13.739  20.818  38.976  1.00  0.00     0.173 A 
ATOM     17  C   UNL     1      13.521  23.156  39.324  1.00  0.00     0.229 A 
ATOM     18  N   UNL     1      13.712  23.380  37.995  1.00  0.00    -0.218 NA
ATOM     19  N   UNL     1      13.556  21.883  39.802  1.00  0.00    -0.192 NA
ATOM     20  C   UNL     1      13.915  22.352  37.132  1.00  0.00     0.158 A 
ATOM     21  C   UNL     1      13.941  21.041  37.604  1.00  0.00     0.184 A 
ATOM     22  F   UNL     1      14.210  20.023  36.750  1.00  0.00    -0.201 F 
BRANCH  17  23
ATOM     23  N   UNL     1      13.343  24.250  40.237  1.00  0.00    -0.324 N 
ATOM     24  H   UNL     1      12.418  24.327  40.717  1.00  0.00     0.170 HD
BRANCH  23  25
ATOM     25  C   UNL     1      14.390  25.153  40.635  1.00  0.00     0.049 A 
ATOM     26  C   UNL     1      15.057  27.352  41.442  1.00  0.00     0.166 A 
ATOM     27  C   UNL     1      14.058  26.444  41.053  1.00  0.00     0.076 A 
ATOM     28  C   UNL     1      16.408  26.971  41.399  1.00  0.00     0.203 A 
ATOM     29  C   UNL     1      16.759  25.672  40.947  1.00  0.00     0.166 A 
ATOM     30  C   UNL     1      15.739  24.783  40.556  1.00  0.00     0.076 A 
BRANCH  26  31
ATOM     31  O   UNL     1      14.747  28.649  41.884  1.00  0.00    -0.493 OA
ATOM     32  C   UNL     1      13.463  29.254  41.784  1.00  0.00     0.278 C 
ENDBRANCH  26  31
BRANCH  28  33
ATOM     33  O   UNL     1      17.348  27.933  41.817  1.00  0.00    -0.490 OA
ATOM     34  C   UNL     1      18.177  28.731  40.978  1.00  0.00     0.278 C 
ENDBRANCH  28  33
BRANCH  29  35
ATOM     35  O   UNL     1      18.109  25.291  40.887  1.00  0.00    -0.493 OA
ATOM     36  C   UNL     1      18.976  25.521  39.781  1.00  0.00     0.278 C 
ENDBRANCH  29  35
ENDBRANCH  23  25
ENDBRANCH  17  23
ENDBRANCH  14  16
ENDBRANCH   1  14
BRANCH  11  37
ATOM     37  C   UNL     1       9.345  19.528  37.169  1.00  0.00     0.303 C 
BRANCH  37  38
ATOM     38  O   UNL     1       9.498  19.595  35.770  1.00  0.00    -0.265 OA
BRANCH  38  39
ATOM     39  P   UNL     1      10.330  21.033  35.380  1.00  0.00     0.471 P 
ATOM     40  O   UNL     1      10.504  21.876  36.626  1.00  0.00    -0.228 OA
BRANCH  39  41
ATOM     41  O   UNL     1       9.490  21.913  34.197  1.00  0.00    -0.303 OA
ATOM     42  H   UNL     1       9.308  22.795  34.610  1.00  0.00     0.223 HD
ENDBRANCH  39  41
BRANCH  39  43
ATOM     43  O   UNL     1      11.857  20.625  34.774  1.00  0.00    -0.303 OA
ATOM     44  H   UNL     1      11.976  21.209  33.981  1.00  0.00     0.223 HD
ENDBRANCH  39  43
ENDBRANCH  38  39
ENDBRANCH  37  38
ENDBRANCH  11  37
TORSDOF 12
ENDMDL
MODEL 7
REMARK VINA RESULT:    -7.162     14.076     17.212
REMARK INTER + INTRA:         -13.961
REMARK INTER:                 -12.553
REMARK INTRA:                  -1.408
REMARK UNBOUND:                -2.193
REMARK SMILES COc1cc(Nc2ncc(F)c(Nc3ccc4c(n3)N(COP(=O)(O)O)C(=O)C(C)(C)O4)n2)cc(OC)c1OC
REMARK SMILES IDX 14 1 19 2 18 3 17 4 32 5 29 6 30 7 31 8 27 9 28 10 20 11
REMARK SMILES IDX 16 12 15 13 13 14 12 16 7 17 8 18 33 19 9 20 10 21 11 22
REMARK SMILES IDX 6 23 5 25 3 26 4 27 38 28 35 29 34 30 2 31 1 32 39 33 40 34
REMARK SMILES IDX 36 35 37 36 21 37 22 38 23 39 24 40 25 41 26 43
REMARK H PARENT 13 15 6 24 25 42 26 44
REMARK Flexibility Score: inf
ROOT
ATOM      1  C   UNL     1      27.559  20.726  29.809  1.00  0.00     0.134 A 
ATOM      2  N   UNL     1      27.305  19.421  30.100  1.00  0.00    -0.209 NA
ATOM      3  C   UNL     1      28.235  18.441  29.918  1.00  0.00     0.182 A 
ATOM      4  C   UNL     1      29.493  18.771  29.405  1.00  0.00     0.164 A 
ATOM      5  O   UNL     1      30.459  17.778  29.226  1.00  0.00    -0.474 OA
ATOM      6  C   UNL     1      30.416  16.514  29.899  1.00  0.00     0.182 C 
ATOM      7  C   UNL     1      31.125  15.482  29.011  1.00  0.00     0.067 C 
ATOM      8  C   UNL     1      31.157  16.650  31.237  1.00  0.00     0.067 C 
ATOM      9  C   UNL     1      28.984  16.086  30.170  1.00  0.00     0.273 C 
ATOM     10  O   UNL     1      28.737  14.878  30.440  1.00  0.00    -0.270 OA
ATOM     11  N   UNL     1      27.925  17.067  30.211  1.00  0.00    -0.265 N 
ATOM     12  C   UNL     1      29.770  20.095  29.059  1.00  0.00     0.054 A 
ATOM     13  C   UNL     1      28.804  21.081  29.260  1.00  0.00     0.051 A 
ENDROOT
BRANCH   1  14
ATOM     14  N   UNL     1      26.526  21.701  30.012  1.00  0.00    -0.322 N 
ATOM     15  H   UNL     1      25.839  21.848  29.239  1.00  0.00     0.170 HD
BRANCH  14  16
ATOM     16  C   UNL     1      26.391  22.511  31.190  1.00  0.00     0.173 A 
ATOM     17  C   UNL     1      26.219  22.622  33.555  1.00  0.00     0.229 A 
ATOM     18  N   UNL     1      26.239  23.982  33.501  1.00  0.00    -0.218 NA
ATOM     19  N   UNL     1      26.315  21.903  32.403  1.00  0.00    -0.192 NA
ATOM     20  C   UNL     1      26.330  24.636  32.315  1.00  0.00     0.158 A 
ATOM     21  C   UNL     1      26.417  23.914  31.127  1.00  0.00     0.184 A 
ATOM     22  F   UNL     1      26.575  24.570  29.950  1.00  0.00    -0.201 F 
BRANCH  17  23
ATOM     23  N   UNL     1      26.158  21.935  34.814  1.00  0.00    -0.324 N 
ATOM     24  H   UNL     1      26.682  21.035  34.895  1.00  0.00     0.170 HD
BRANCH  23  25
ATOM     25  C   UNL     1      25.546  22.470  36.001  1.00  0.00     0.049 A 
ATOM     26  C   UNL     1      25.677  22.946  38.386  1.00  0.00     0.166 A 
ATOM     27  C   UNL     1      26.249  22.437  37.208  1.00  0.00     0.076 A 
ATOM     28  C   UNL     1      24.379  23.482  38.363  1.00  0.00     0.203 A 
ATOM     29  C   UNL     1      23.645  23.493  37.149  1.00  0.00     0.166 A 
ATOM     30  C   UNL     1      24.238  22.971  35.982  1.00  0.00     0.076 A 
BRANCH  26  31
ATOM     31  O   UNL     1      26.370  22.941  39.608  1.00  0.00    -0.493 OA
ATOM     32  C   UNL     1      26.954  21.788  40.204  1.00  0.00     0.278 C 
ENDBRANCH  26  31
BRANCH  28  33
ATOM     33  O   UNL     1      23.881  23.982  39.581  1.00  0.00    -0.490 OA
ATOM     34  C   UNL     1      23.217  23.239  40.597  1.00  0.00     0.278 C 
ENDBRANCH  28  33
BRANCH  29  35
ATOM     35  O   UNL     1      22.341  24.013  37.122  1.00  0.00    -0.493 OA
ATOM     36  C   UNL     1      21.171  23.311  37.533  1.00  0.00     0.278 C 
ENDBRANCH  29  35
ENDBRANCH  23  25
ENDBRANCH  17  23
ENDBRANCH  14  16
ENDBRANCH   1  14
BRANCH  11  37
ATOM     37  C   UNL     1      26.579  16.693  30.662  1.00  0.00     0.303 C 
BRANCH  37  38
ATOM     38  O   UNL     1      26.686  15.939  31.847  1.00  0.00    -0.265 OA
BRANCH  38  39
ATOM     39  P   UNL     1      26.284  16.939  33.169  1.00  0.00     0.471 P 
ATOM     40  O   UNL     1      24.938  16.527  33.729  1.00  0.00    -0.228 OA
BRANCH  39  41
ATOM     41  O   UNL     1      26.241  18.569  32.701  1.00  0.00    -0.303 OA
ATOM     42  H   UNL     1      26.696  18.599  31.821  1.00  0.00     0.223 HD
ENDBRANCH  39  41
BRANCH  39  43
ATOM     43  O   UNL     1      27.462  16.747  34.370  1.00  0.00    -0.303 OA
ATOM     44  H   UNL     1      27.586  15.766  34.444  1.00  0.00     0.223 HD
ENDBRANCH  39  43
ENDBRANCH  38  39
ENDBRANCH  37  38
ENDBRANCH  11  37
TORSDOF 12
ENDMDL
MODEL 8
REMARK VINA RESULT:    -7.157      4.809      9.798
REMARK INTER + INTRA:         -13.953
REMARK INTER:                 -12.549
REMARK INTRA:                  -1.404
REMARK UNBOUND:                -2.193
REMARK SMILES COc1cc(Nc2ncc(F)c(Nc3ccc4c(n3)N(COP(=O)(O)O)C(=O)C(C)(C)O4)n2)cc(OC)c1OC
REMARK SMILES IDX 14 1 19 2 18 3 17 4 32 5 29 6 30 7 31 8 27 9 28 10 20 11
REMARK SMILES IDX 16 12 15 13 13 14 12 16 7 17 8 18 33 19 9 20 10 21 11 22
REMARK SMILES IDX 6 23 5 25 3 26 4 27 38 28 35 29 34 30 2 31 1 32 39 33 40 34
REMARK SMILES IDX 36 35 37 36 21 37 22 38 23 39 24 40 25 41 26 43
REMARK H PARENT 13 15 6 24 25 42 26 44
REMARK Flexibility Score: inf
ROOT
ATOM      1  C   UNL     1      11.988  23.118  39.967  1.00  0.00     0.134 A 
ATOM      2  N   UNL     1      12.772  24.125  40.441  1.00  0.00    -0.209 NA
ATOM      3  C   UNL     1      12.314  25.401  40.577  1.00  0.00     0.182 A 
ATOM      4  C   UNL     1      10.999  25.704  40.213  1.00  0.00     0.164 A 
ATOM      5  O   UNL     1      10.513  27.005  40.360  1.00  0.00    -0.474 OA
ATOM      6  C   UNL     1      11.115  27.971  41.231  1.00  0.00     0.182 C 
ATOM      7  C   UNL     1      10.830  29.366  40.656  1.00  0.00     0.067 C 
ATOM      8  C   UNL     1      10.476  27.837  42.621  1.00  0.00     0.067 C 
ATOM      9  C   UNL     1      12.611  27.742  41.351  1.00  0.00     0.273 C 
ATOM     10  O   UNL     1      13.348  28.670  41.789  1.00  0.00    -0.270 OA
ATOM     11  N   UNL     1      13.177  26.447  41.058  1.00  0.00    -0.265 N 
ATOM     12  C   UNL     1      10.182  24.702  39.685  1.00  0.00     0.054 A 
ATOM     13  C   UNL     1      10.673  23.402  39.560  1.00  0.00     0.051 A 
ENDROOT
BRANCH   1  14
ATOM     14  N   UNL     1      12.544  21.802  39.836  1.00  0.00    -0.322 N 
ATOM     15  H   UNL     1      12.642  21.227  40.703  1.00  0.00     0.170 HD
BRANCH  14  16
ATOM     16  C   UNL     1      13.005  21.233  38.601  1.00  0.00     0.173 A 
ATOM     17  C   UNL     1      12.764  21.054  36.246  1.00  0.00     0.229 A 
ATOM     18  N   UNL     1      13.879  20.276  36.183  1.00  0.00    -0.218 NA
ATOM     19  N   UNL     1      12.351  21.538  37.449  1.00  0.00    -0.192 NA
ATOM     20  C   UNL     1      14.577  19.956  37.302  1.00  0.00     0.158 A 
ATOM     21  C   UNL     1      14.160  20.435  38.543  1.00  0.00     0.184 A 
ATOM     22  F   UNL     1      14.897  20.168  39.650  1.00  0.00    -0.201 F 
BRANCH  17  23
ATOM     23  N   UNL     1      12.051  21.419  35.055  1.00  0.00    -0.324 N 
ATOM     24  H   UNL     1      12.458  22.181  34.467  1.00  0.00     0.170 HD
BRANCH  23  25
ATOM     25  C   UNL     1      10.902  20.715  34.550  1.00  0.00     0.049 A 
ATOM     26  C   UNL     1       9.103  20.554  32.916  1.00  0.00     0.166 A 
ATOM     27  C   UNL     1      10.232  21.214  33.430  1.00  0.00     0.076 A 
ATOM     28  C   UNL     1       8.626  19.388  33.538  1.00  0.00     0.203 A 
ATOM     29  C   UNL     1       9.280  18.891  34.695  1.00  0.00     0.166 A 
ATOM     30  C   UNL     1      10.407  19.574  35.194  1.00  0.00     0.076 A 
BRANCH  26  31
ATOM     31  O   UNL     1       8.424  21.025  31.780  1.00  0.00    -0.493 OA
ATOM     32  C   UNL     1       8.669  20.584  30.449  1.00  0.00     0.278 C 
ENDBRANCH  26  31
BRANCH  28  33
ATOM     33  O   UNL     1       7.497  18.780  32.956  1.00  0.00    -0.490 OA
ATOM     34  C   UNL     1       7.481  17.587  32.180  1.00  0.00     0.278 C 
ENDBRANCH  28  33
BRANCH  29  35
ATOM     35  O   UNL     1       8.799  17.735  35.330  1.00  0.00    -0.493 OA
ATOM     36  C   UNL     1       7.846  17.720  36.388  1.00  0.00     0.278 C 
ENDBRANCH  29  35
ENDBRANCH  23  25
ENDBRANCH  17  23
ENDBRANCH  14  16
ENDBRANCH   1  14
BRANCH  11  37
ATOM     37  C   UNL     1      14.586  26.163  41.357  1.00  0.00     0.303 C 
BRANCH  37  38
ATOM     38  O   UNL     1      15.378  26.591  40.274  1.00  0.00    -0.265 OA
BRANCH  38  39
ATOM     39  P   UNL     1      16.724  27.443  40.885  1.00  0.00     0.471 P 
ATOM     40  O   UNL     1      17.836  26.470  41.219  1.00  0.00    -0.228 OA
BRANCH  39  41
ATOM     41  O   UNL     1      16.298  28.332  42.267  1.00  0.00    -0.303 OA
ATOM     42  H   UNL     1      16.888  29.128  42.256  1.00  0.00     0.223 HD
ENDBRANCH  39  41
BRANCH  39  43
ATOM     43  O   UNL     1      17.270  28.516  39.695  1.00  0.00    -0.303 OA
ATOM     44  H   UNL     1      16.622  28.416  38.952  1.00  0.00     0.223 HD
ENDBRANCH  39  43
ENDBRANCH  38  39
ENDBRANCH  37  38
ENDBRANCH  11  37
TORSDOF 12
ENDMDL
MODEL 9
REMARK VINA RESULT:    -7.145      4.973      7.540
REMARK INTER + INTRA:         -13.933
REMARK INTER:                 -11.612
REMARK INTRA:                  -2.320
REMARK UNBOUND:                -2.193
REMARK SMILES COc1cc(Nc2ncc(F)c(Nc3ccc4c(n3)N(COP(=O)(O)O)C(=O)C(C)(C)O4)n2)cc(OC)c1OC
REMARK SMILES IDX 14 1 19 2 18 3 17 4 32 5 29 6 30 7 31 8 27 9 28 10 20 11
REMARK SMILES IDX 16 12 15 13 13 14 12 16 7 17 8 18 33 19 9 20 10 21 11 22
REMARK SMILES IDX 6 23 5 25 3 26 4 27 38 28 35 29 34 30 2 31 1 32 39 33 40 34
REMARK SMILES IDX 36 35 37 36 21 37 22 38 23 39 24 40 25 41 26 43
REMARK H PARENT 13 15 6 24 25 42 26 44
REMARK Flexibility Score: inf
ROOT
ATOM      1  C   UNL     1      11.886  17.731  38.620  1.00  0.00     0.134 A 
ATOM      2  N   UNL     1      11.749  18.826  39.417  1.00  0.00    -0.209 NA
ATOM      3  C   UNL     1      11.259  18.744  40.687  1.00  0.00     0.182 A 
ATOM      4  C   UNL     1      10.869  17.502  41.198  1.00  0.00     0.164 A 
ATOM      5  O   UNL     1      10.378  17.403  42.501  1.00  0.00    -0.474 OA
ATOM      6  C   UNL     1      10.615  18.399  43.504  1.00  0.00     0.182 C 
ATOM      7  C   UNL     1       9.441  18.362  44.493  1.00  0.00     0.067 C 
ATOM      8  C   UNL     1      11.922  18.053  44.232  1.00  0.00     0.067 C 
ATOM      9  C   UNL     1      10.746  19.780  42.885  1.00  0.00     0.273 C 
ATOM     10  O   UNL     1      10.620  20.802  43.616  1.00  0.00    -0.270 OA
ATOM     11  N   UNL     1      11.103  19.925  41.495  1.00  0.00    -0.265 N 
ATOM     12  C   UNL     1      10.960  16.367  40.390  1.00  0.00     0.054 A 
ATOM     13  C   UNL     1      11.469  16.475  39.096  1.00  0.00     0.051 A 
ENDROOT
BRANCH   1  14
ATOM     14  N   UNL     1      12.395  17.895  37.289  1.00  0.00    -0.322 N 
ATOM     15  H   UNL     1      12.506  17.038  36.702  1.00  0.00     0.170 HD
BRANCH  14  16
ATOM     16  C   UNL     1      12.792  19.152  36.719  1.00  0.00     0.173 A 
ATOM     17  C   UNL     1      12.253  20.998  35.328  1.00  0.00     0.229 A 
ATOM     18  N   UNL     1      13.423  21.605  35.666  1.00  0.00    -0.218 NA
ATOM     19  N   UNL     1      11.943  19.790  35.871  1.00  0.00    -0.192 NA
ATOM     20  C   UNL     1      14.298  21.017  36.521  1.00  0.00     0.158 A 
ATOM     21  C   UNL     1      13.999  19.774  37.077  1.00  0.00     0.184 A 
ATOM     22  F   UNL     1      14.845  19.221  37.982  1.00  0.00    -0.201 F 
BRANCH  17  23
ATOM     23  N   UNL     1      11.316  21.641  34.451  1.00  0.00    -0.324 N 
ATOM     24  H   UNL     1      11.536  22.616  34.146  1.00  0.00     0.170 HD
BRANCH  23  25
ATOM     25  C   UNL     1      10.178  20.988  33.860  1.00  0.00     0.049 A 
ATOM     26  C   UNL     1       8.875  20.453  31.873  1.00  0.00     0.166 A 
ATOM     27  C   UNL     1       9.980  21.074  32.480  1.00  0.00     0.076 A 
ATOM     28  C   UNL     1       7.946  19.748  32.657  1.00  0.00     0.203 A 
ATOM     29  C   UNL     1       8.121  19.681  34.064  1.00  0.00     0.166 A 
ATOM     30  C   UNL     1       9.234  20.317  34.649  1.00  0.00     0.076 A 
BRANCH  26  31
ATOM     31  O   UNL     1       8.664  20.508  30.486  1.00  0.00    -0.493 OA
ATOM     32  C   UNL     1       9.699  20.515  29.508  1.00  0.00     0.278 C 
ENDBRANCH  26  31
BRANCH  28  33
ATOM     33  O   UNL     1       6.874  19.144  31.974  1.00  0.00    -0.490 OA
ATOM     34  C   UNL     1       6.802  17.793  31.530  1.00  0.00     0.278 C 
ENDBRANCH  28  33
BRANCH  29  35
ATOM     35  O   UNL     1       7.188  18.992  34.854  1.00  0.00    -0.493 OA
ATOM     36  C   UNL     1       7.415  17.731  35.476  1.00  0.00     0.278 C 
ENDBRANCH  29  35
ENDBRANCH  23  25
ENDBRANCH  17  23
ENDBRANCH  14  16
ENDBRANCH   1  14
BRANCH  11  37
ATOM     37  C   UNL     1      11.421  21.246  40.940  1.00  0.00     0.303 C 
BRANCH  37  38
ATOM     38  O   UNL     1      10.236  21.838  40.461  1.00  0.00    -0.265 OA
BRANCH  38  39
ATOM     39  P   UNL     1      10.412  22.141  38.791  1.00  0.00     0.471 P 
ATOM     40  O   UNL     1       9.599  23.359  38.405  1.00  0.00    -0.228 OA
BRANCH  39  41
ATOM     41  O   UNL     1       9.913  20.800  37.879  1.00  0.00    -0.303 OA
ATOM     42  H   UNL     1      10.448  20.039  38.222  1.00  0.00     0.223 HD
ENDBRANCH  39  41
BRANCH  39  43
ATOM     43  O   UNL     1      12.045  22.444  38.467  1.00  0.00    -0.303 OA
ATOM     44  H   UNL     1      12.502  21.584  38.656  1.00  0.00     0.223 HD
ENDBRANCH  39  43
ENDBRANCH  38  39
ENDBRANCH  37  38
ENDBRANCH  11  37
TORSDOF 12
ENDMDL
MODEL 10
REMARK VINA RESULT:    -7.140      4.964      6.594
REMARK INTER + INTRA:         -13.924
REMARK INTER:                 -11.880
REMARK INTRA:                  -2.044
REMARK UNBOUND:                -2.193
REMARK SMILES COc1cc(Nc2ncc(F)c(Nc3ccc4c(n3)N(COP(=O)(O)O)C(=O)C(C)(C)O4)n2)cc(OC)c1OC
REMARK SMILES IDX 14 1 19 2 18 3 17 4 32 5 29 6 30 7 31 8 27 9 28 10 20 11
REMARK SMILES IDX 16 12 15 13 13 14 12 16 7 17 8 18 33 19 9 20 10 21 11 22
REMARK SMILES IDX 6 23 5 25 3 26 4 27 38 28 35 29 34 30 2 31 1 32 39 33 40 34
REMARK SMILES IDX 36 35 37 36 21 37 22 38 23 39 24 40 25 41 26 43
REMARK H PARENT 13 15 6 24 25 42 26 44
REMARK Flexibility Score: inf
ROOT
ATOM      1  C   UNL     1       9.974  17.720  37.271  1.00  0.00     0.134 A 
ATOM      2  N   UNL     1      10.081  18.812  36.466  1.00  0.00    -0.209 NA
ATOM      3  C   UNL     1       9.440  18.898  35.266  1.00  0.00     0.182 A 
ATOM      4  C   UNL     1       8.650  17.830  34.829  1.00  0.00     0.164 A 
ATOM      5  O   UNL     1       7.977  17.910  33.607  1.00  0.00    -0.474 OA
ATOM      6  C   UNL     1       7.698  19.151  32.948  1.00  0.00     0.182 C 
ATOM      7  C   UNL     1       7.628  18.878  31.439  1.00  0.00     0.067 C 
ATOM      8  C   UNL     1       6.345  19.674  33.449  1.00  0.00     0.067 C 
ATOM      9  C   UNL     1       8.769  20.185  33.251  1.00  0.00     0.273 C 
ATOM     10  O   UNL     1       8.877  21.202  32.510  1.00  0.00    -0.270 OA
ATOM     11  N   UNL     1       9.594  20.057  34.428  1.00  0.00    -0.265 N 
ATOM     12  C   UNL     1       8.553  16.679  35.613  1.00  0.00     0.054 A 
ATOM     13  C   UNL     1       9.214  16.618  36.840  1.00  0.00     0.051 A 
ENDROOT
BRANCH   1  14
ATOM     14  N   UNL     1      10.690  17.694  38.514  1.00  0.00    -0.322 N 
ATOM     15  H   UNL     1      10.717  16.793  39.041  1.00  0.00     0.170 HD
BRANCH  14  16
ATOM     16  C   UNL     1      11.345  18.830  39.099  1.00  0.00     0.173 A 
ATOM     17  C   UNL     1      11.159  20.993  40.060  1.00  0.00     0.229 A 
ATOM     18  N   UNL     1      12.495  21.001  40.321  1.00  0.00    -0.218 NA
ATOM     19  N   UNL     1      10.597  19.903  39.471  1.00  0.00    -0.192 NA
ATOM     20  C   UNL     1      13.282  19.948  39.984  1.00  0.00     0.158 A 
ATOM     21  C   UNL     1      12.723  18.830  39.369  1.00  0.00     0.184 A 
ATOM     22  F   UNL     1      13.501  17.753  39.094  1.00  0.00    -0.201 F 
BRANCH  17  23
ATOM     23  N   UNL     1      10.325  22.095  40.451  1.00  0.00    -0.324 N 
ATOM     24  H   UNL     1       9.320  21.889  40.648  1.00  0.00     0.170 HD
BRANCH  23  25
ATOM     25  C   UNL     1      10.810  23.422  40.723  1.00  0.00     0.049 A 
ATOM     26  C   UNL     1      11.514  25.600  39.890  1.00  0.00     0.166 A 
ATOM     27  C   UNL     1      11.035  24.299  39.659  1.00  0.00     0.076 A 
ATOM     28  C   UNL     1      11.786  26.027  41.200  1.00  0.00     0.203 A 
ATOM     29  C   UNL     1      11.590  25.133  42.285  1.00  0.00     0.166 A 
ATOM     30  C   UNL     1      11.115  23.832  42.027  1.00  0.00     0.076 A 
BRANCH  26  31
ATOM     31  O   UNL     1      11.731  26.506  38.839  1.00  0.00    -0.493 OA
ATOM     32  C   UNL     1      10.712  27.274  38.208  1.00  0.00     0.278 C 
ENDBRANCH  26  31
BRANCH  28  33
ATOM     33  O   UNL     1      12.251  27.347  41.350  1.00  0.00    -0.490 OA
ATOM     34  C   UNL     1      13.604  27.758  41.514  1.00  0.00     0.278 C 
ENDBRANCH  28  33
BRANCH  29  35
ATOM     35  O   UNL     1      11.875  25.549  43.596  1.00  0.00    -0.493 OA
ATOM     36  C   UNL     1      11.291  25.000  44.774  1.00  0.00     0.278 C 
ENDBRANCH  29  35
ENDBRANCH  23  25
ENDBRANCH  17  23
ENDBRANCH  14  16
ENDBRANCH   1  14
BRANCH  11  37
ATOM     37  C   UNL     1      10.493  21.145  34.832  1.00  0.00     0.303 C 
BRANCH  37  38
ATOM     38  O   UNL     1      11.803  20.833  34.420  1.00  0.00    -0.265 OA
BRANCH  38  39
ATOM     39  P   UNL     1      12.840  20.932  35.771  1.00  0.00     0.471 P 
ATOM     40  O   UNL     1      13.393  19.560  36.093  1.00  0.00    -0.228 OA
BRANCH  39  41
ATOM     41  O   UNL     1      12.015  21.554  37.118  1.00  0.00    -0.303 OA
ATOM     42  H   UNL     1      12.487  22.396  37.346  1.00  0.00     0.223 HD
ENDBRANCH  39  41
BRANCH  39  43
ATOM     43  O   UNL     1      14.123  21.968  35.392  1.00  0.00    -0.303 OA
ATOM     44  H   UNL     1      13.966  22.775  35.946  1.00  0.00     0.223 HD
ENDBRANCH  39  43
ENDBRANCH  38  39
ENDBRANCH  37  38
ENDBRANCH  11  37
TORSDOF 12
ENDMDL
MODEL 11
REMARK VINA RESULT:    -7.124      5.000      6.770
REMARK INTER + INTRA:         -13.899
REMARK INTER:                 -11.870
REMARK INTRA:                  -2.028
REMARK UNBOUND:                -2.193
REMARK SMILES COc1cc(Nc2ncc(F)c(Nc3ccc4c(n3)N(COP(=O)(O)O)C(=O)C(C)(C)O4)n2)cc(OC)c1OC
REMARK SMILES IDX 14 1 19 2 18 3 17 4 32 5 29 6 30 7 31 8 27 9 28 10 20 11
REMARK SMILES IDX 16 12 15 13 13 14 12 16 7 17 8 18 33 19 9 20 10 21 11 22
REMARK SMILES IDX 6 23 5 25 3 26 4 27 38 28 35 29 34 30 2 31 1 32 39 33 40 34
REMARK SMILES IDX 36 35 37 36 21 37 22 38 23 39 24 40 25 41 26 43
REMARK H PARENT 13 15 6 24 25 42 26 44
REMARK Flexibility Score: inf
ROOT
ATOM      1  C   UNL     1       9.831  17.706  37.294  1.00  0.00     0.134 A 
ATOM      2  N   UNL     1       9.969  18.804  36.502  1.00  0.00    -0.209 NA
ATOM      3  C   UNL     1       9.375  18.898  35.279  1.00  0.00     0.182 A 
ATOM      4  C   UNL     1       8.604  17.834  34.803  1.00  0.00     0.164 A 
ATOM      5  O   UNL     1       7.979  17.923  33.557  1.00  0.00    -0.474 OA
ATOM      6  C   UNL     1       7.725  19.169  32.897  1.00  0.00     0.182 C 
ATOM      7  C   UNL     1       7.713  18.907  31.384  1.00  0.00     0.067 C 
ATOM      8  C   UNL     1       6.352  19.688  33.349  1.00  0.00     0.067 C 
ATOM      9  C   UNL     1       8.783  20.201  33.249  1.00  0.00     0.273 C 
ATOM     10  O   UNL     1       8.919  21.223  32.521  1.00  0.00    -0.270 OA
ATOM     11  N   UNL     1       9.562  20.064  34.456  1.00  0.00    -0.265 N 
ATOM     12  C   UNL     1       8.477  16.677  35.575  1.00  0.00     0.054 A 
ATOM     13  C   UNL     1       9.090  16.607  36.826  1.00  0.00     0.051 A 
ENDROOT
BRANCH   1  14
ATOM     14  N   UNL     1      10.499  17.671  38.564  1.00  0.00    -0.322 N 
ATOM     15  H   UNL     1      10.470  16.777  39.104  1.00  0.00     0.170 HD
BRANCH  14  16
ATOM     16  C   UNL     1      11.176  18.789  39.157  1.00  0.00     0.173 A 
ATOM     17  C   UNL     1      11.032  20.939  40.155  1.00  0.00     0.229 A 
ATOM     18  N   UNL     1      12.371  20.925  40.397  1.00  0.00    -0.218 NA
ATOM     19  N   UNL     1      10.447  19.866  39.556  1.00  0.00    -0.192 NA
ATOM     20  C   UNL     1      13.140  19.868  40.033  1.00  0.00     0.158 A 
ATOM     21  C   UNL     1      12.558  18.766  39.408  1.00  0.00     0.184 A 
ATOM     22  F   UNL     1      13.318  17.684  39.106  1.00  0.00    -0.201 F 
BRANCH  17  23
ATOM     23  N   UNL     1      10.218  22.044  40.575  1.00  0.00    -0.324 N 
ATOM     24  H   UNL     1       9.241  21.833  40.878  1.00  0.00     0.170 HD
BRANCH  23  25
ATOM     25  C   UNL     1      10.700  23.391  40.737  1.00  0.00     0.049 A 
ATOM     26  C   UNL     1      11.334  25.218  42.216  1.00  0.00     0.166 A 
ATOM     27  C   UNL     1      10.871  23.906  42.024  1.00  0.00     0.076 A 
ATOM     28  C   UNL     1      11.615  26.034  41.108  1.00  0.00     0.203 A 
ATOM     29  C   UNL     1      11.415  25.531  39.796  1.00  0.00     0.166 A 
ATOM     30  C   UNL     1      10.944  24.214  39.630  1.00  0.00     0.076 A 
BRANCH  26  31
ATOM     31  O   UNL     1      11.532  25.753  43.500  1.00  0.00    -0.493 OA
ATOM     32  C   UNL     1      11.972  25.007  44.630  1.00  0.00     0.278 C 
ENDBRANCH  26  31
BRANCH  28  33
ATOM     33  O   UNL     1      12.086  27.332  41.384  1.00  0.00    -0.490 OA
ATOM     34  C   UNL     1      11.295  28.498  41.584  1.00  0.00     0.278 C 
ENDBRANCH  28  33
BRANCH  29  35
ATOM     35  O   UNL     1      11.679  26.347  38.685  1.00  0.00    -0.493 OA
ATOM     36  C   UNL     1      10.764  27.279  38.118  1.00  0.00     0.278 C 
ENDBRANCH  29  35
ENDBRANCH  23  25
ENDBRANCH  17  23
ENDBRANCH  14  16
ENDBRANCH   1  14
BRANCH  11  37
ATOM     37  C   UNL     1      10.444  21.150  34.902  1.00  0.00     0.303 C 
BRANCH  37  38
ATOM     38  O   UNL     1      11.760  20.868  34.489  1.00  0.00    -0.265 OA
BRANCH  38  39
ATOM     39  P   UNL     1      12.783  20.911  35.854  1.00  0.00     0.471 P 
ATOM     40  O   UNL     1      13.216  19.505  36.211  1.00  0.00    -0.228 OA
BRANCH  39  41
ATOM     41  O   UNL     1      11.994  21.628  37.175  1.00  0.00    -0.303 OA
ATOM     42  H   UNL     1      11.993  22.600  36.981  1.00  0.00     0.223 HD
ENDBRANCH  39  41
BRANCH  39  43
ATOM     43  O   UNL     1      14.153  21.829  35.473  1.00  0.00    -0.303 OA
ATOM     44  H   UNL     1      14.842  21.530  36.119  1.00  0.00     0.223 HD
ENDBRANCH  39  43
ENDBRANCH  38  39
ENDBRANCH  37  38
ENDBRANCH  11  37
TORSDOF 12
ENDMDL
MODEL 12
REMARK VINA RESULT:    -7.053      1.936      3.004
REMARK INTER + INTRA:         -13.781
REMARK INTER:                 -11.228
REMARK INTRA:                  -2.552
REMARK UNBOUND:                -2.193
REMARK SMILES COc1cc(Nc2ncc(F)c(Nc3ccc4c(n3)N(COP(=O)(O)O)C(=O)C(C)(C)O4)n2)cc(OC)c1OC
REMARK SMILES IDX 14 1 19 2 18 3 17 4 32 5 29 6 30 7 31 8 27 9 28 10 20 11
REMARK SMILES IDX 16 12 15 13 13 14 12 16 7 17 8 18 33 19 9 20 10 21 11 22
REMARK SMILES IDX 6 23 5 25 3 26 4 27 38 28 35 29 34 30 2 31 1 32 39 33 40 34
REMARK SMILES IDX 36 35 37 36 21 37 22 38 23 39 24 40 25 41 26 43
REMARK H PARENT 13 15 6 24 25 42 26 44
REMARK Flexibility Score: inf
ROOT
ATOM      1  C   UNL     1      13.444  18.070  39.977  1.00  0.00     0.134 A 
ATOM      2  N   UNL     1      12.826  18.103  41.189  1.00  0.00    -0.209 NA
ATOM      3  C   UNL     1      11.886  17.185  41.551  1.00  0.00     0.182 A 
ATOM      4  C   UNL     1      11.526  16.175  40.653  1.00  0.00     0.164 A 
ATOM      5  O   UNL     1      10.574  15.220  41.017  1.00  0.00    -0.474 OA
ATOM      6  C   UNL     1      10.226  14.942  42.379  1.00  0.00     0.182 C 
ATOM      7  C   UNL     1       8.775  14.440  42.402  1.00  0.00     0.067 C 
ATOM      8  C   UNL     1      11.166  13.849  42.907  1.00  0.00     0.067 C 
ATOM      9  C   UNL     1      10.374  16.180  43.246  1.00  0.00     0.273 C 
ATOM     10  O   UNL     1       9.804  16.221  44.372  1.00  0.00    -0.270 OA
ATOM     11  N   UNL     1      11.233  17.263  42.831  1.00  0.00    -0.265 N 
ATOM     12  C   UNL     1      12.113  16.139  39.387  1.00  0.00     0.054 A 
ATOM     13  C   UNL     1      13.077  17.087  39.042  1.00  0.00     0.051 A 
ENDROOT
BRANCH   1  14
ATOM     14  N   UNL     1      14.413  19.080  39.659  1.00  0.00    -0.322 N 
ATOM     15  H   UNL     1      15.402  18.913  39.951  1.00  0.00     0.170 HD
BRANCH  14  16
ATOM     16  C   UNL     1      14.111  20.318  38.998  1.00  0.00     0.173 A 
ATOM     17  C   UNL     1      13.644  22.639  39.175  1.00  0.00     0.229 A 
ATOM     18  N   UNL     1      13.631  22.748  37.819  1.00  0.00    -0.218 NA
ATOM     19  N   UNL     1      13.901  21.432  39.749  1.00  0.00    -0.192 NA
ATOM     20  C   UNL     1      13.851  21.669  37.025  1.00  0.00     0.158 A 
ATOM     21  C   UNL     1      14.104  20.424  37.598  1.00  0.00     0.184 A 
ATOM     22  F   UNL     1      14.388  19.363  36.803  1.00  0.00    -0.201 F 
BRANCH  17  23
ATOM     23  N   UNL     1      13.447  23.791  40.009  1.00  0.00    -0.324 N 
ATOM     24  H   UNL     1      14.252  24.098  40.600  1.00  0.00     0.170 HD
BRANCH  23  25
ATOM     25  C   UNL     1      12.273  24.623  39.980  1.00  0.00     0.049 A 
ATOM     26  C   UNL     1       9.848  24.810  39.861  1.00  0.00     0.166 A 
ATOM     27  C   UNL     1      11.013  24.025  39.898  1.00  0.00     0.076 A 
ATOM     28  C   UNL     1       9.942  26.211  39.890  1.00  0.00     0.203 A 
ATOM     29  C   UNL     1      11.219  26.828  39.942  1.00  0.00     0.166 A 
ATOM     30  C   UNL     1      12.372  26.020  39.972  1.00  0.00     0.076 A 
BRANCH  26  31
ATOM     31  O   UNL     1       8.569  24.233  39.798  1.00  0.00    -0.493 OA
ATOM     32  C   UNL     1       7.942  23.533  40.867  1.00  0.00     0.278 C 
ENDBRANCH  26  31
BRANCH  28  33
ATOM     33  O   UNL     1       8.729  26.925  39.862  1.00  0.00    -0.490 OA
ATOM     34  C   UNL     1       8.039  27.473  40.980  1.00  0.00     0.278 C 
ENDBRANCH  28  33
BRANCH  29  35
ATOM     35  O   UNL     1      11.320  28.229  39.955  1.00  0.00    -0.493 OA
ATOM     36  C   UNL     1      11.530  29.023  41.119  1.00  0.00     0.278 C 
ENDBRANCH  29  35
ENDBRANCH  23  25
ENDBRANCH  17  23
ENDBRANCH  14  16
ENDBRANCH   1  14
BRANCH  11  37
ATOM     37  C   UNL     1      11.533  18.371  43.747  1.00  0.00     0.303 C 
BRANCH  37  38
ATOM     38  O   UNL     1      10.495  19.320  43.671  1.00  0.00    -0.265 OA
BRANCH  38  39
ATOM     39  P   UNL     1      11.181  20.859  43.406  1.00  0.00     0.471 P 
ATOM     40  O   UNL     1      10.098  21.917  43.460  1.00  0.00    -0.228 OA
BRANCH  39  41
ATOM     41  O   UNL     1      11.972  20.917  41.906  1.00  0.00    -0.303 OA
ATOM     42  H   UNL     1      11.247  20.937  41.230  1.00  0.00     0.223 HD
ENDBRANCH  39  41
BRANCH  39  43
ATOM     43  O   UNL     1      12.311  21.165  44.629  1.00  0.00    -0.303 OA
ATOM     44  H   UNL     1      12.543  22.123  44.522  1.00  0.00     0.223 HD
ENDBRANCH  39  43
ENDBRANCH  38  39
ENDBRANCH  37  38
ENDBRANCH  11  37
TORSDOF 12
ENDMDL
MODEL 13
REMARK VINA RESULT:    -7.023      4.992      8.305
REMARK INTER + INTRA:         -13.732
REMARK INTER:                 -11.553
REMARK INTRA:                  -2.178
REMARK UNBOUND:                -2.193
REMARK SMILES COc1cc(Nc2ncc(F)c(Nc3ccc4c(n3)N(COP(=O)(O)O)C(=O)C(C)(C)O4)n2)cc(OC)c1OC
REMARK SMILES IDX 14 1 19 2 18 3 17 4 32 5 29 6 30 7 31 8 27 9 28 10 20 11
REMARK SMILES IDX 16 12 15 13 13 14 12 16 7 17 8 18 33 19 9 20 10 21 11 22
REMARK SMILES IDX 6 23 5 25 3 26 4 27 38 28 35 29 34 30 2 31 1 32 39 33 40 34
REMARK SMILES IDX 36 35 37 36 21 37 22 38 23 39 24 40 25 41 26 43
REMARK H PARENT 13 15 6 24 25 42 26 44
REMARK Flexibility Score: inf
ROOT
ATOM      1  C   UNL     1       9.281  17.003  37.454  1.00  0.00     0.134 A 
ATOM      2  N   UNL     1       9.512  18.229  36.909  1.00  0.00    -0.209 NA
ATOM      3  C   UNL     1       9.100  18.555  35.652  1.00  0.00     0.182 A 
ATOM      4  C   UNL     1       8.427  17.604  34.878  1.00  0.00     0.164 A 
ATOM      5  O   UNL     1       7.988  17.930  33.593  1.00  0.00    -0.474 OA
ATOM      6  C   UNL     1       7.809  19.279  33.146  1.00  0.00     0.182 C 
ATOM      7  C   UNL     1       8.022  19.304  31.625  1.00  0.00     0.067 C 
ATOM      8  C   UNL     1       6.376  19.716  33.481  1.00  0.00     0.067 C 
ATOM      9  C   UNL     1       8.784  20.218  33.835  1.00  0.00     0.273 C 
ATOM     10  O   UNL     1       9.005  21.357  33.337  1.00  0.00    -0.270 OA
ATOM     11  N   UNL     1       9.382  19.852  35.096  1.00  0.00    -0.265 N 
ATOM     12  C   UNL     1       8.211  16.325  35.395  1.00  0.00     0.054 A 
ATOM     13  C   UNL     1       8.637  16.017  36.687  1.00  0.00     0.051 A 
ENDROOT
BRANCH   1  14
ATOM     14  N   UNL     1       9.758  16.726  38.779  1.00  0.00    -0.322 N 
ATOM     15  H   UNL     1       9.152  16.148  39.403  1.00  0.00     0.170 HD
BRANCH  14  16
ATOM     16  C   UNL     1      10.995  17.218  39.318  1.00  0.00     0.173 A 
ATOM     17  C   UNL     1      12.101  18.573  40.923  1.00  0.00     0.229 A 
ATOM     18  N   UNL     1      13.308  18.128  40.478  1.00  0.00    -0.218 NA
ATOM     19  N   UNL     1      10.960  18.100  40.352  1.00  0.00    -0.192 NA
ATOM     20  C   UNL     1      13.396  17.235  39.460  1.00  0.00     0.158 A 
ATOM     21  C   UNL     1      12.237  16.751  38.857  1.00  0.00     0.184 A 
ATOM     22  F   UNL     1      12.327  15.809  37.885  1.00  0.00    -0.201 F 
BRANCH  17  23
ATOM     23  N   UNL     1      12.013  19.489  42.024  1.00  0.00    -0.324 N 
ATOM     24  H   UNL     1      11.924  20.505  41.797  1.00  0.00     0.170 HD
BRANCH  23  25
ATOM     25  C   UNL     1      11.900  19.092  43.403  1.00  0.00     0.049 A 
ATOM     26  C   UNL     1      11.614  17.321  45.050  1.00  0.00     0.166 A 
ATOM     27  C   UNL     1      11.734  17.740  43.714  1.00  0.00     0.076 A 
ATOM     28  C   UNL     1      11.644  18.265  46.089  1.00  0.00     0.203 A 
ATOM     29  C   UNL     1      11.780  19.644  45.781  1.00  0.00     0.166 A 
ATOM     30  C   UNL     1      11.893  20.040  44.434  1.00  0.00     0.076 A 
BRANCH  26  31
ATOM     31  O   UNL     1      11.465  15.966  45.389  1.00  0.00    -0.493 OA
ATOM     32  C   UNL     1      11.661  14.879  44.492  1.00  0.00     0.278 C 
ENDBRANCH  26  31
BRANCH  28  33
ATOM     33  O   UNL     1      11.529  17.765  47.400  1.00  0.00    -0.490 OA
ATOM     34  C   UNL     1      10.353  17.744  48.201  1.00  0.00     0.278 C 
ENDBRANCH  28  33
BRANCH  29  35
ATOM     35  O   UNL     1      11.795  20.594  46.815  1.00  0.00    -0.493 OA
ATOM     36  C   UNL     1      10.764  21.544  47.069  1.00  0.00     0.278 C 
ENDBRANCH  29  35
ENDBRANCH  23  25
ENDBRANCH  17  23
ENDBRANCH  14  16
ENDBRANCH   1  14
BRANCH  11  37
ATOM     37  C   UNL     1      10.169  20.827  35.860  1.00  0.00     0.303 C 
BRANCH  37  38
ATOM     38  O   UNL     1      11.462  20.905  35.308  1.00  0.00    -0.265 OA
BRANCH  38  39
ATOM     39  P   UNL     1      12.528  19.999  36.283  1.00  0.00     0.471 P 
ATOM     40  O   UNL     1      13.934  20.548  36.149  1.00  0.00    -0.228 OA
BRANCH  39  41
ATOM     41  O   UNL     1      12.503  18.360  35.842  1.00  0.00    -0.303 OA
ATOM     42  H   UNL     1      11.764  17.961  36.369  1.00  0.00     0.223 HD
ENDBRANCH  39  41
BRANCH  39  43
ATOM     43  O   UNL     1      12.035  20.137  37.896  1.00  0.00    -0.303 OA
ATOM     44  H   UNL     1      12.302  21.053  38.163  1.00  0.00     0.223 HD
ENDBRANCH  39  43
ENDBRANCH  38  39
ENDBRANCH  37  38
ENDBRANCH  11  37
TORSDOF 12
ENDMDL
MODEL 14
REMARK VINA RESULT:    -6.981      5.081      7.793
REMARK INTER + INTRA:         -13.663
REMARK INTER:                 -11.432
REMARK INTRA:                  -2.231
REMARK UNBOUND:                -2.193
REMARK SMILES COc1cc(Nc2ncc(F)c(Nc3ccc4c(n3)N(COP(=O)(O)O)C(=O)C(C)(C)O4)n2)cc(OC)c1OC
REMARK SMILES IDX 14 1 19 2 18 3 17 4 32 5 29 6 30 7 31 8 27 9 28 10 20 11
REMARK SMILES IDX 16 12 15 13 13 14 12 16 7 17 8 18 33 19 9 20 10 21 11 22
REMARK SMILES IDX 6 23 5 25 3 26 4 27 38 28 35 29 34 30 2 31 1 32 39 33 40 34
REMARK SMILES IDX 36 35 37 36 21 37 22 38 23 39 24 40 25 41 26 43
REMARK H PARENT 13 15 6 24 25 42 26 44
REMARK Flexibility Score: inf
ROOT
ATOM      1  C   UNL     1      11.828  17.668  38.471  1.00  0.00     0.134 A 
ATOM      2  N   UNL     1      11.707  18.745  39.296  1.00  0.00    -0.209 NA
ATOM      3  C   UNL     1      11.230  18.636  40.568  1.00  0.00     0.182 A 
ATOM      4  C   UNL     1      10.836  17.384  41.053  1.00  0.00     0.164 A 
ATOM      5  O   UNL     1      10.358  17.257  42.359  1.00  0.00    -0.474 OA
ATOM      6  C   UNL     1      10.613  18.227  43.383  1.00  0.00     0.182 C 
ATOM      7  C   UNL     1       9.448  18.174  44.383  1.00  0.00     0.067 C 
ATOM      8  C   UNL     1      11.925  17.854  44.088  1.00  0.00     0.067 C 
ATOM      9  C   UNL     1      10.747  19.621  42.796  1.00  0.00     0.273 C 
ATOM     10  O   UNL     1      10.636  20.626  43.553  1.00  0.00    -0.270 OA
ATOM     11  N   UNL     1      11.091  19.797  41.406  1.00  0.00    -0.265 N 
ATOM     12  C   UNL     1      10.911  16.269  40.217  1.00  0.00     0.054 A 
ATOM     13  C   UNL     1      11.408  16.404  38.921  1.00  0.00     0.051 A 
ENDROOT
BRANCH   1  14
ATOM     14  N   UNL     1      12.324  17.862  37.139  1.00  0.00    -0.322 N 
ATOM     15  H   UNL     1      12.436  17.017  36.535  1.00  0.00     0.170 HD
BRANCH  14  16
ATOM     16  C   UNL     1      12.708  19.132  36.590  1.00  0.00     0.173 A 
ATOM     17  C   UNL     1      12.140  21.004  35.246  1.00  0.00     0.229 A 
ATOM     18  N   UNL     1      13.313  21.609  35.579  1.00  0.00    -0.218 NA
ATOM     19  N   UNL     1      11.843  19.784  35.768  1.00  0.00    -0.192 NA
ATOM     20  C   UNL     1      14.202  21.007  36.408  1.00  0.00     0.158 A 
ATOM     21  C   UNL     1      13.918  19.752  36.942  1.00  0.00     0.184 A 
ATOM     22  F   UNL     1      14.779  19.183  37.822  1.00  0.00    -0.201 F 
BRANCH  17  23
ATOM     23  N   UNL     1      11.187  21.661  34.397  1.00  0.00    -0.324 N 
ATOM     24  H   UNL     1      11.379  22.656  34.140  1.00  0.00     0.170 HD
BRANCH  23  25
ATOM     25  C   UNL     1      10.070  21.005  33.771  1.00  0.00     0.049 A 
ATOM     26  C   UNL     1       7.971  19.788  33.989  1.00  0.00     0.166 A 
ATOM     27  C   UNL     1       9.071  20.442  34.569  1.00  0.00     0.076 A 
ATOM     28  C   UNL     1       7.874  19.681  32.592  1.00  0.00     0.203 A 
ATOM     29  C   UNL     1       8.898  20.223  31.772  1.00  0.00     0.166 A 
ATOM     30  C   UNL     1       9.994  20.868  32.378  1.00  0.00     0.076 A 
BRANCH  26  31
ATOM     31  O   UNL     1       6.945  19.231  34.770  1.00  0.00    -0.493 OA
ATOM     32  C   UNL     1       7.035  17.990  35.461  1.00  0.00     0.278 C 
ENDBRANCH  26  31
BRANCH  28  33
ATOM     33  O   UNL     1       6.736  19.023  32.087  1.00  0.00    -0.490 OA
ATOM     34  C   UNL     1       6.662  17.672  31.646  1.00  0.00     0.278 C 
ENDBRANCH  28  33
BRANCH  29  35
ATOM     35  O   UNL     1       8.814  20.106  30.376  1.00  0.00    -0.493 OA
ATOM     36  C   UNL     1       7.742  20.595  29.577  1.00  0.00     0.278 C 
ENDBRANCH  29  35
ENDBRANCH  23  25
ENDBRANCH  17  23
ENDBRANCH  14  16
ENDBRANCH   1  14
BRANCH  11  37
ATOM     37  C   UNL     1      11.412  21.130  40.880  1.00  0.00     0.303 C 
BRANCH  37  38
ATOM     38  O   UNL     1      10.226  21.740  40.427  1.00  0.00    -0.265 OA
BRANCH  38  39
ATOM     39  P   UNL     1      10.397  22.102  38.768  1.00  0.00     0.471 P 
ATOM     40  O   UNL     1       9.617  23.356  38.436  1.00  0.00    -0.228 OA
BRANCH  39  41
ATOM     41  O   UNL     1       9.852  20.811  37.811  1.00  0.00    -0.303 OA
ATOM     42  H   UNL     1       8.909  20.667  38.080  1.00  0.00     0.223 HD
ENDBRANCH  39  41
BRANCH  39  43
ATOM     43  O   UNL     1      12.036  22.369  38.439  1.00  0.00    -0.303 OA
ATOM     44  H   UNL     1      12.050  22.736  37.518  1.00  0.00     0.223 HD
ENDBRANCH  39  43
ENDBRANCH  38  39
ENDBRANCH  37  38
ENDBRANCH  11  37
TORSDOF 12
ENDMDL
MODEL 15
REMARK VINA RESULT:    -6.884      3.413      4.644
REMARK INTER + INTRA:         -13.504
REMARK INTER:                 -11.205
REMARK INTRA:                  -2.299
REMARK UNBOUND:                -2.193
REMARK SMILES COc1cc(Nc2ncc(F)c(Nc3ccc4c(n3)N(COP(=O)(O)O)C(=O)C(C)(C)O4)n2)cc(OC)c1OC
REMARK SMILES IDX 14 1 19 2 18 3 17 4 32 5 29 6 30 7 31 8 27 9 28 10 20 11
REMARK SMILES IDX 16 12 15 13 13 14 12 16 7 17 8 18 33 19 9 20 10 21 11 22
REMARK SMILES IDX 6 23 5 25 3 26 4 27 38 28 35 29 34 30 2 31 1 32 39 33 40 34
REMARK SMILES IDX 36 35 37 36 21 37 22 38 23 39 24 40 25 41 26 43
REMARK H PARENT 13 15 6 24 25 42 26 44
REMARK Flexibility Score: inf
ROOT
ATOM      1  C   UNL     1       9.181  19.877  37.073  1.00  0.00     0.134 A 
ATOM      2  N   UNL     1       9.929  18.752  37.241  1.00  0.00    -0.209 NA
ATOM      3  C   UNL     1       9.399  17.592  37.721  1.00  0.00     0.182 A 
ATOM      4  C   UNL     1       8.045  17.543  38.069  1.00  0.00     0.164 A 
ATOM      5  O   UNL     1       7.488  16.356  38.550  1.00  0.00    -0.474 OA
ATOM      6  C   UNL     1       8.083  15.070  38.339  1.00  0.00     0.182 C 
ATOM      7  C   UNL     1       7.671  14.163  39.507  1.00  0.00     0.067 C 
ATOM      8  C   UNL     1       7.548  14.499  37.018  1.00  0.00     0.067 C 
ATOM      9  C   UNL     1       9.596  15.174  38.255  1.00  0.00     0.273 C 
ATOM     10  O   UNL     1      10.299  14.136  38.409  1.00  0.00    -0.270 OA
ATOM     11  N   UNL     1      10.223  16.427  37.909  1.00  0.00    -0.265 N 
ATOM     12  C   UNL     1       7.262  18.693  37.947  1.00  0.00     0.054 A 
ATOM     13  C   UNL     1       7.826  19.867  37.448  1.00  0.00     0.051 A 
ENDROOT
BRANCH   1  14
ATOM     14  N   UNL     1       9.811  21.067  36.577  1.00  0.00    -0.322 N 
ATOM     15  H   UNL     1       9.206  21.775  36.101  1.00  0.00     0.170 HD
BRANCH  14  16
ATOM     16  C   UNL     1      11.218  21.338  36.659  1.00  0.00     0.173 A 
ATOM     17  C   UNL     1      13.071  22.009  37.982  1.00  0.00     0.229 A 
ATOM     18  N   UNL     1      13.912  21.778  36.937  1.00  0.00    -0.218 NA
ATOM     19  N   UNL     1      11.739  21.769  37.838  1.00  0.00    -0.192 NA
ATOM     20  C   UNL     1      13.443  21.332  35.744  1.00  0.00     0.158 A 
ATOM     21  C   UNL     1      12.080  21.093  35.577  1.00  0.00     0.184 A 
ATOM     22  F   UNL     1      11.624  20.584  34.405  1.00  0.00    -0.201 F 
BRANCH  17  23
ATOM     23  N   UNL     1      13.577  22.447  39.252  1.00  0.00    -0.324 N 
ATOM     24  H   UNL     1      14.136  21.761  39.807  1.00  0.00     0.170 HD
BRANCH  23  25
ATOM     25  C   UNL     1      13.484  23.797  39.741  1.00  0.00     0.049 A 
ATOM     26  C   UNL     1      12.099  25.674  40.443  1.00  0.00     0.166 A 
ATOM     27  C   UNL     1      12.225  24.356  39.972  1.00  0.00     0.076 A 
ATOM     28  C   UNL     1      13.247  26.451  40.672  1.00  0.00     0.203 A 
ATOM     29  C   UNL     1      14.530  25.903  40.411  1.00  0.00     0.166 A 
ATOM     30  C   UNL     1      14.629  24.582  39.933  1.00  0.00     0.076 A 
BRANCH  26  31
ATOM     31  O   UNL     1      10.846  26.252  40.701  1.00  0.00    -0.493 OA
ATOM     32  C   UNL     1      10.005  25.909  41.797  1.00  0.00     0.278 C 
ENDBRANCH  26  31
BRANCH  28  33
ATOM     33  O   UNL     1      13.039  27.757  41.155  1.00  0.00    -0.490 OA
ATOM     34  C   UNL     1      13.088  28.178  42.514  1.00  0.00     0.278 C 
ENDBRANCH  28  33
BRANCH  29  35
ATOM     35  O   UNL     1      15.680  26.680  40.623  1.00  0.00    -0.493 OA
ATOM     36  C   UNL     1      17.019  26.215  40.482  1.00  0.00     0.278 C 
ENDBRANCH  29  35
ENDBRANCH  23  25
ENDBRANCH  17  23
ENDBRANCH  14  16
ENDBRANCH   1  14
BRANCH  11  37
ATOM     37  C   UNL     1      11.664  16.490  37.636  1.00  0.00     0.303 C 
BRANCH  37  38
ATOM     38  O   UNL     1      12.363  16.450  38.858  1.00  0.00    -0.265 OA
BRANCH  38  39
ATOM     39  P   UNL     1      13.111  17.962  39.111  1.00  0.00     0.471 P 
ATOM     40  O   UNL     1      13.758  18.433  37.825  1.00  0.00    -0.228 OA
BRANCH  39  41
ATOM     41  O   UNL     1      14.274  17.861  40.342  1.00  0.00    -0.303 OA
ATOM     42  H   UNL     1      14.222  16.928  40.673  1.00  0.00     0.223 HD
ENDBRANCH  39  41
BRANCH  39  43
ATOM     43  O   UNL     1      11.926  19.080  39.572  1.00  0.00    -0.303 OA
ATOM     44  H   UNL     1      12.366  19.964  39.479  1.00  0.00     0.223 HD
ENDBRANCH  39  43
ENDBRANCH  38  39
ENDBRANCH  37  38
ENDBRANCH  11  37
TORSDOF 12
ENDMDL
