MODEL 1
REMARK VINA RESULT:    -8.390      0.000      0.000
REMARK INTER + INTRA:         -14.870
REMARK INTER:                 -13.295
REMARK INTRA:                  -1.575
REMARK UNBOUND:                -1.575
REMARK SMILES CC[C@@H]1C(=O)N(C)c2cnc(Nc3ccc(C(=O)N[C@H]4CC[C@H](N5CCN(CC6CC6)CC5)CC4)cc3OC)nc2N1C(C)C
REMARK SMILES IDX 17 1 18 2 19 3 16 5 13 6 14 7 37 8 15 9 36 10 12 11 11 13
REMARK SMILES IDX 3 14 42 15 4 16 41 17 6 18 5 19 40 20 8 21 7 22 9 23 10 24
REMARK SMILES IDX 2 25 1 26 43 27 44 28 45 29 38 30 39 31 20 32 35 33 21 34
REMARK SMILES IDX 34 35 22 36 23 37 24 38 25 39 33 40 26 41 32 42 27 43 28 44
REMARK SMILES IDX 29 45 30 46 31 47
REMARK H PARENT 19 4 12 12
REMARK Flexibility Score: inf
ROOT
ATOM      1  C   UNL     1      29.414  22.560   8.364  1.00  0.00     0.251 C 
ATOM      2  O   UNL     1      30.293  22.004   7.652  1.00  0.00    -0.269 OA
ATOM      3  N   UNL     1      29.500  23.966   8.655  1.00  0.00    -0.349 N 
ATOM      4  H   UNL     1      28.760  24.384   9.265  1.00  0.00     0.164 HD
ENDROOT
BRANCH   1   5
ATOM      5  C   UNL     1      28.275  21.765   8.869  1.00  0.00     0.043 A 
ATOM      6  C   UNL     1      26.149  20.228   9.900  1.00  0.00     0.084 A 
ATOM      7  C   UNL     1      26.350  21.554  10.326  1.00  0.00     0.031 A 
ATOM      8  C   UNL     1      27.017  19.672   8.940  1.00  0.00     0.143 A 
ATOM      9  C   UNL     1      27.391  22.321   9.799  1.00  0.00     0.016 A 
ATOM     10  C   UNL     1      28.080  20.445   8.436  1.00  0.00     0.062 A 
BRANCH   6  11
ATOM     11  N   UNL     1      25.132  19.406  10.497  1.00  0.00    -0.321 N 
ATOM     12  H   UNL     1      25.063  18.406  10.198  1.00  0.00     0.170 HD
BRANCH  11  13
ATOM     13  C   UNL     1      24.163  19.866  11.450  1.00  0.00     0.229 A 
ATOM     14  C   UNL     1      22.576  19.659  15.995  1.00  0.00     0.173 C 
ATOM     15  N   UNL     1      23.744  19.852  15.112  1.00  0.00    -0.340 N 
ATOM     16  C   UNL     1      21.545  20.712  15.684  1.00  0.00     0.249 C 
ATOM     17  C   UNL     1      23.486  20.066  13.711  1.00  0.00     0.159 A 
ATOM     18  N   UNL     1      21.361  21.155  14.321  1.00  0.00    -0.309 N 
ATOM     19  O   UNL     1      20.813  21.154  16.611  1.00  0.00    -0.272 OA
ATOM     20  N   UNL     1      24.387  19.667  12.775  1.00  0.00    -0.193 NA
ATOM     21  C   UNL     1      22.295  20.697  13.316  1.00  0.00     0.105 A 
ATOM     22  C   UNL     1      20.236  22.026  13.961  1.00  0.00     0.153 C 
ATOM     23  C   UNL     1      22.072  20.867  11.939  1.00  0.00     0.145 A 
ATOM     24  N   UNL     1      23.004  20.449  11.043  1.00  0.00    -0.219 NA
BRANCH  14  25
ATOM     25  C   UNL     1      21.942  18.268  15.787  1.00  0.00     0.032 C 
ATOM     26  C   UNL     1      22.081  17.358  17.003  1.00  0.00     0.006 C 
ENDBRANCH  14  25
BRANCH  15  27
ATOM     27  C   UNL     1      25.073  20.219  15.651  1.00  0.00     0.078 C 
ATOM     28  C   UNL     1      25.124  21.712  15.998  1.00  0.00     0.031 C 
ATOM     29  C   UNL     1      25.467  19.355  16.854  1.00  0.00     0.031 C 
ENDBRANCH  15  27
ENDBRANCH  11  13
ENDBRANCH   6  11
BRANCH   8  30
ATOM     30  O   UNL     1      26.793  18.354   8.508  1.00  0.00    -0.495 OA
ATOM     31  C   UNL     1      26.199  18.002   7.261  1.00  0.00     0.278 C 
ENDBRANCH   8  30
ENDBRANCH   1   5
BRANCH   3  32
ATOM     32  C   UNL     1      30.557  24.836   8.125  1.00  0.00     0.082 C 
ATOM     33  C   UNL     1      30.159  25.372   6.735  1.00  0.00     0.026 C 
ATOM     34  C   UNL     1      30.808  26.004   9.104  1.00  0.00     0.026 C 
ATOM     35  C   UNL     1      31.200  26.361   6.191  1.00  0.00     0.021 C 
ATOM     36  C   UNL     1      31.833  27.002   8.551  1.00  0.00     0.021 C 
ATOM     37  C   UNL     1      31.382  27.540   7.177  1.00  0.00     0.057 C 
BRANCH  37  38
ATOM     38  N   UNL     1      32.305  28.599   6.698  1.00  0.00    -0.298 NA
ATOM     39  C   UNL     1      31.635  29.911   6.559  1.00  0.00     0.100 C 
ATOM     40  C   UNL     1      33.082  28.266   5.491  1.00  0.00     0.100 C 
ATOM     41  C   UNL     1      32.513  30.932   5.797  1.00  0.00     0.100 C 
ATOM     42  C   UNL     1      34.248  29.268   5.334  1.00  0.00     0.100 C 
ATOM     43  N   UNL     1      33.949  30.609   5.903  1.00  0.00    -0.301 NA
BRANCH  43  44
ATOM     44  C   UNL     1      34.449  30.772   7.288  1.00  0.00     0.088 C 
BRANCH  44  45
ATOM     45  C   UNL     1      35.779  30.016   7.455  1.00  0.00     0.003 C 
ATOM     46  C   UNL     1      36.310  29.958   8.882  1.00  0.00     0.005 C 
ATOM     47  C   UNL     1      36.973  30.867   7.852  1.00  0.00     0.005 C 
ENDBRANCH  44  45
ENDBRANCH  43  44
ENDBRANCH  37  38
ENDBRANCH   3  32
TORSDOF 10
ENDMDL
MODEL 2
REMARK VINA RESULT:    -7.865      3.927      5.691
REMARK INTER + INTRA:         -14.038
REMARK INTER:                 -12.118
REMARK INTRA:                  -1.920
REMARK UNBOUND:                -1.575
REMARK SMILES CC[C@@H]1C(=O)N(C)c2cnc(Nc3ccc(C(=O)N[C@H]4CC[C@H](N5CCN(CC6CC6)CC5)CC4)cc3OC)nc2N1C(C)C
REMARK SMILES IDX 17 1 18 2 19 3 16 5 13 6 14 7 37 8 15 9 36 10 12 11 11 13
REMARK SMILES IDX 3 14 42 15 4 16 41 17 6 18 5 19 40 20 8 21 7 22 9 23 10 24
REMARK SMILES IDX 2 25 1 26 43 27 44 28 45 29 38 30 39 31 20 32 35 33 21 34
REMARK SMILES IDX 34 35 22 36 23 37 24 38 25 39 33 40 26 41 32 42 27 43 28 44
REMARK SMILES IDX 29 45 30 46 31 47
REMARK H PARENT 19 4 12 12
REMARK Flexibility Score: inf
ROOT
ATOM      1  C   UNL     1      26.596  25.872   8.671  1.00  0.00     0.251 C 
ATOM      2  O   UNL     1      26.342  26.471   7.590  1.00  0.00    -0.269 OA
ATOM      3  N   UNL     1      27.755  25.028   8.777  1.00  0.00    -0.349 N 
ATOM      4  H   UNL     1      27.918  24.535   9.686  1.00  0.00     0.164 HD
ENDROOT
BRANCH   1   5
ATOM      5  C   UNL     1      25.714  26.075   9.840  1.00  0.00     0.043 A 
ATOM      6  C   UNL     1      24.037  26.376  12.085  1.00  0.00     0.084 A 
ATOM      7  C   UNL     1      25.436  26.327  12.234  1.00  0.00     0.031 A 
ATOM      8  C   UNL     1      23.476  26.283  10.796  1.00  0.00     0.143 A 
ATOM      9  C   UNL     1      26.265  26.199  11.120  1.00  0.00     0.016 A 
ATOM     10  C   UNL     1      24.322  26.126   9.682  1.00  0.00     0.062 A 
BRANCH   6  11
ATOM     11  N   UNL     1      23.173  26.425  13.233  1.00  0.00    -0.321 N 
ATOM     12  H   UNL     1      22.900  27.363  13.609  1.00  0.00     0.170 HD
BRANCH  11  13
ATOM     13  C   UNL     1      22.684  25.277  13.940  1.00  0.00     0.229 A 
ATOM     14  C   UNL     1      21.873  20.528  13.830  1.00  0.00     0.173 C 
ATOM     15  N   UNL     1      22.851  21.610  13.600  1.00  0.00    -0.340 N 
ATOM     16  C   UNL     1      21.421  20.571  15.266  1.00  0.00     0.249 C 
ATOM     17  C   UNL     1      22.520  22.919  14.102  1.00  0.00     0.159 A 
ATOM     18  N   UNL     1      21.267  21.844  15.932  1.00  0.00    -0.309 N 
ATOM     19  O   UNL     1      21.127  19.495  15.855  1.00  0.00    -0.272 OA
ATOM     20  N   UNL     1      22.981  24.035  13.477  1.00  0.00    -0.193 NA
ATOM     21  C   UNL     1      21.719  23.037  15.250  1.00  0.00     0.105 A 
ATOM     22  C   UNL     1      20.641  21.927  17.257  1.00  0.00     0.153 C 
ATOM     23  C   UNL     1      21.402  24.332  15.694  1.00  0.00     0.145 A 
ATOM     24  N   UNL     1      21.886  25.415  15.033  1.00  0.00    -0.219 NA
BRANCH  14  25
ATOM     25  C   UNL     1      20.639  20.686  12.917  1.00  0.00     0.032 C 
ATOM     26  C   UNL     1      20.994  20.749  11.435  1.00  0.00     0.006 C 
ENDBRANCH  14  25
BRANCH  15  27
ATOM     27  C   UNL     1      24.261  21.322  13.250  1.00  0.00     0.078 C 
ATOM     28  C   UNL     1      25.120  21.204  14.515  1.00  0.00     0.031 C 
ATOM     29  C   UNL     1      24.394  20.075  12.369  1.00  0.00     0.031 C 
ENDBRANCH  15  27
ENDBRANCH  11  13
ENDBRANCH   6  11
BRANCH   8  30
ATOM     30  O   UNL     1      22.079  26.353  10.660  1.00  0.00    -0.495 OA
ATOM     31  C   UNL     1      21.228  25.224  10.483  1.00  0.00     0.278 C 
ENDBRANCH   8  30
ENDBRANCH   1   5
BRANCH   3  32
ATOM     32  C   UNL     1      28.719  24.840   7.686  1.00  0.00     0.082 C 
ATOM     33  C   UNL     1      30.150  24.732   8.252  1.00  0.00     0.026 C 
ATOM     34  C   UNL     1      28.357  23.571   6.884  1.00  0.00     0.026 C 
ATOM     35  C   UNL     1      31.174  24.441   7.147  1.00  0.00     0.021 C 
ATOM     36  C   UNL     1      29.392  23.270   5.793  1.00  0.00     0.021 C 
ATOM     37  C   UNL     1      30.802  23.136   6.404  1.00  0.00     0.057 C 
BRANCH  37  38
ATOM     38  N   UNL     1      31.785  22.721   5.371  1.00  0.00    -0.298 NA
ATOM     39  C   UNL     1      31.133  22.275   4.119  1.00  0.00     0.100 C 
ATOM     40  C   UNL     1      32.804  21.754   5.816  1.00  0.00     0.100 C 
ATOM     41  C   UNL     1      32.131  21.581   3.161  1.00  0.00     0.100 C 
ATOM     42  C   UNL     1      33.957  21.708   4.788  1.00  0.00     0.100 C 
ATOM     43  N   UNL     1      33.519  22.021   3.402  1.00  0.00    -0.301 NA
BRANCH  43  44
ATOM     44  C   UNL     1      33.714  23.445   3.044  1.00  0.00     0.088 C 
BRANCH  44  45
ATOM     45  C   UNL     1      34.858  24.043   3.883  1.00  0.00     0.003 C 
ATOM     46  C   UNL     1      34.445  25.164   4.828  1.00  0.00     0.005 C 
ATOM     47  C   UNL     1      35.230  25.480   3.559  1.00  0.00     0.005 C 
ENDBRANCH  44  45
ENDBRANCH  43  44
ENDBRANCH  37  38
ENDBRANCH   3  32
TORSDOF 10
ENDMDL
MODEL 3
REMARK VINA RESULT:    -7.828      3.776      5.209
REMARK INTER + INTRA:         -13.979
REMARK INTER:                 -12.386
REMARK INTRA:                  -1.594
REMARK UNBOUND:                -1.575
REMARK SMILES CC[C@@H]1C(=O)N(C)c2cnc(Nc3ccc(C(=O)N[C@H]4CC[C@H](N5CCN(CC6CC6)CC5)CC4)cc3OC)nc2N1C(C)C
REMARK SMILES IDX 17 1 18 2 19 3 16 5 13 6 14 7 37 8 15 9 36 10 12 11 11 13
REMARK SMILES IDX 3 14 42 15 4 16 41 17 6 18 5 19 40 20 8 21 7 22 9 23 10 24
REMARK SMILES IDX 2 25 1 26 43 27 44 28 45 29 38 30 39 31 20 32 35 33 21 34
REMARK SMILES IDX 34 35 22 36 23 37 24 38 25 39 33 40 26 41 32 42 27 43 28 44
REMARK SMILES IDX 29 45 30 46 31 47
REMARK H PARENT 19 4 12 12
REMARK Flexibility Score: inf
ROOT
ATOM      1  C   UNL     1      26.632  24.355   9.015  1.00  0.00     0.251 C 
ATOM      2  O   UNL     1      26.929  25.554   8.758  1.00  0.00    -0.269 OA
ATOM      3  N   UNL     1      27.447  23.284   8.511  1.00  0.00    -0.349 N 
ATOM      4  H   UNL     1      27.154  22.303   8.732  1.00  0.00     0.164 HD
ENDROOT
BRANCH   1   5
ATOM      5  C   UNL     1      25.462  24.062   9.869  1.00  0.00     0.043 A 
ATOM      6  C   UNL     1      23.186  23.481  11.426  1.00  0.00     0.084 A 
ATOM      7  C   UNL     1      24.058  22.455  11.018  1.00  0.00     0.031 A 
ATOM      8  C   UNL     1      23.464  24.812  11.059  1.00  0.00     0.143 A 
ATOM      9  C   UNL     1      25.196  22.747  10.264  1.00  0.00     0.016 A 
ATOM     10  C   UNL     1      24.600  25.091  10.275  1.00  0.00     0.062 A 
BRANCH   6  11
ATOM     11  N   UNL     1      21.969  23.179  12.132  1.00  0.00    -0.321 N 
ATOM     12  H   UNL     1      21.213  23.902  12.148  1.00  0.00     0.170 HD
BRANCH  11  13
ATOM     13  C   UNL     1      21.725  21.969  12.862  1.00  0.00     0.229 A 
ATOM     14  C   UNL     1      22.750  19.353  16.777  1.00  0.00     0.173 C 
ATOM     15  N   UNL     1      22.350  20.676  16.256  1.00  0.00    -0.340 N 
ATOM     16  C   UNL     1      21.722  18.332  16.365  1.00  0.00     0.249 C 
ATOM     17  C   UNL     1      21.930  20.747  14.880  1.00  0.00     0.159 A 
ATOM     18  N   UNL     1      21.078  18.443  15.076  1.00  0.00    -0.309 N 
ATOM     19  O   UNL     1      21.477  17.358  17.128  1.00  0.00    -0.272 OA
ATOM     20  N   UNL     1      22.121  21.883  14.158  1.00  0.00    -0.193 NA
ATOM     21  C   UNL     1      21.314  19.632  14.288  1.00  0.00     0.105 A 
ATOM     22  C   UNL     1      20.226  17.360  14.567  1.00  0.00     0.153 C 
ATOM     23  C   UNL     1      20.938  19.735  12.938  1.00  0.00     0.145 A 
ATOM     24  N   UNL     1      21.152  20.892  12.259  1.00  0.00    -0.219 NA
BRANCH  14  25
ATOM     25  C   UNL     1      24.124  18.925  16.220  1.00  0.00     0.032 C 
ATOM     26  C   UNL     1      24.925  18.067  17.194  1.00  0.00     0.006 C 
ENDBRANCH  14  25
BRANCH  15  27
ATOM     27  C   UNL     1      21.998  21.793  17.162  1.00  0.00     0.078 C 
ATOM     28  C   UNL     1      20.512  21.740  17.536  1.00  0.00     0.031 C 
ATOM     29  C   UNL     1      22.886  21.825  18.411  1.00  0.00     0.031 C 
ENDBRANCH  15  27
ENDBRANCH  11  13
ENDBRANCH   6  11
BRANCH   8  30
ATOM     30  O   UNL     1      22.595  25.828  11.490  1.00  0.00    -0.495 OA
ATOM     31  C   UNL     1      22.734  27.206  11.151  1.00  0.00     0.278 C 
ENDBRANCH   8  30
ENDBRANCH   1   5
BRANCH   3  32
ATOM     32  C   UNL     1      28.667  23.499   7.723  1.00  0.00     0.082 C 
ATOM     33  C   UNL     1      29.813  22.619   8.265  1.00  0.00     0.026 C 
ATOM     34  C   UNL     1      28.391  23.175   6.239  1.00  0.00     0.026 C 
ATOM     35  C   UNL     1      31.078  22.748   7.407  1.00  0.00     0.021 C 
ATOM     36  C   UNL     1      29.661  23.284   5.385  1.00  0.00     0.021 C 
ATOM     37  C   UNL     1      30.770  22.365   5.939  1.00  0.00     0.057 C 
BRANCH  37  38
ATOM     38  N   UNL     1      31.955  22.373   5.045  1.00  0.00    -0.298 NA
ATOM     39  C   UNL     1      31.601  22.082   3.638  1.00  0.00     0.100 C 
ATOM     40  C   UNL     1      33.093  21.550   5.491  1.00  0.00     0.100 C 
ATOM     41  C   UNL     1      32.853  21.810   2.770  1.00  0.00     0.100 C 
ATOM     42  C   UNL     1      34.358  21.944   4.697  1.00  0.00     0.100 C 
ATOM     43  N   UNL     1      34.059  22.449   3.331  1.00  0.00    -0.301 NA
BRANCH  43  44
ATOM     44  C   UNL     1      33.977  23.927   3.268  1.00  0.00     0.088 C 
BRANCH  44  45
ATOM     45  C   UNL     1      34.780  24.544   4.428  1.00  0.00     0.003 C 
ATOM     46  C   UNL     1      33.963  25.389   5.397  1.00  0.00     0.005 C 
ATOM     47  C   UNL     1      34.909  26.058   4.405  1.00  0.00     0.005 C 
ENDBRANCH  44  45
ENDBRANCH  43  44
ENDBRANCH  37  38
ENDBRANCH   3  32
TORSDOF 10
ENDMDL
MODEL 4
REMARK VINA RESULT:    -7.764      4.229      6.355
REMARK INTER + INTRA:         -13.878
REMARK INTER:                 -12.210
REMARK INTRA:                  -1.668
REMARK UNBOUND:                -1.575
REMARK SMILES CC[C@@H]1C(=O)N(C)c2cnc(Nc3ccc(C(=O)N[C@H]4CC[C@H](N5CCN(CC6CC6)CC5)CC4)cc3OC)nc2N1C(C)C
REMARK SMILES IDX 17 1 18 2 19 3 16 5 13 6 14 7 37 8 15 9 36 10 12 11 11 13
REMARK SMILES IDX 3 14 42 15 4 16 41 17 6 18 5 19 40 20 8 21 7 22 9 23 10 24
REMARK SMILES IDX 2 25 1 26 43 27 44 28 45 29 38 30 39 31 20 32 35 33 21 34
REMARK SMILES IDX 34 35 22 36 23 37 24 38 25 39 33 40 26 41 32 42 27 43 28 44
REMARK SMILES IDX 29 45 30 46 31 47
REMARK H PARENT 19 4 12 12
REMARK Flexibility Score: inf
ROOT
ATOM      1  C   UNL     1      26.504  24.546   9.357  1.00  0.00     0.251 C 
ATOM      2  O   UNL     1      27.104  25.653   9.443  1.00  0.00    -0.269 OA
ATOM      3  N   UNL     1      27.088  23.462   8.616  1.00  0.00    -0.349 N 
ATOM      4  H   UNL     1      26.548  22.566   8.556  1.00  0.00     0.164 HD
ENDROOT
BRANCH   1   5
ATOM      5  C   UNL     1      25.215  24.361  10.056  1.00  0.00     0.043 A 
ATOM      6  C   UNL     1      22.719  23.988  11.312  1.00  0.00     0.084 A 
ATOM      7  C   UNL     1      23.557  22.891  11.038  1.00  0.00     0.031 A 
ATOM      8  C   UNL     1      23.143  25.285  10.963  1.00  0.00     0.143 A 
ATOM      9  C   UNL     1      24.801  23.080  10.434  1.00  0.00     0.016 A 
ATOM     10  C   UNL     1      24.388  25.461  10.329  1.00  0.00     0.062 A 
BRANCH   6  11
ATOM     11  N   UNL     1      21.403  23.794  11.858  1.00  0.00    -0.321 N 
ATOM     12  H   UNL     1      20.581  23.892  11.218  1.00  0.00     0.170 HD
BRANCH  11  13
ATOM     13  C   UNL     1      21.121  23.518  13.237  1.00  0.00     0.229 A 
ATOM     14  C   UNL     1      20.599  25.318  17.676  1.00  0.00     0.173 C 
ATOM     15  N   UNL     1      20.215  25.431  16.254  1.00  0.00    -0.340 N 
ATOM     16  C   UNL     1      20.208  23.954  18.184  1.00  0.00     0.249 C 
ATOM     17  C   UNL     1      20.555  24.331  15.388  1.00  0.00     0.159 A 
ATOM     18  N   UNL     1      20.307  22.808  17.310  1.00  0.00    -0.309 N 
ATOM     19  O   UNL     1      19.851  23.821  19.386  1.00  0.00    -0.272 OA
ATOM     20  N   UNL     1      20.806  24.544  14.069  1.00  0.00    -0.193 NA
ATOM     21  C   UNL     1      20.618  23.030  15.915  1.00  0.00     0.105 A 
ATOM     22  C   UNL     1      20.127  21.448  17.832  1.00  0.00     0.153 C 
ATOM     23  C   UNL     1      20.973  21.989  15.040  1.00  0.00     0.145 A 
ATOM     24  N   UNL     1      21.216  22.254  13.731  1.00  0.00    -0.219 NA
BRANCH  14  25
ATOM     25  C   UNL     1      22.120  25.498  17.861  1.00  0.00     0.032 C 
ATOM     26  C   UNL     1      22.584  26.934  17.647  1.00  0.00     0.006 C 
ENDBRANCH  14  25
BRANCH  15  27
ATOM     27  C   UNL     1      19.192  26.400  15.801  1.00  0.00     0.078 C 
ATOM     28  C   UNL     1      17.791  25.780  15.867  1.00  0.00     0.031 C 
ATOM     29  C   UNL     1      19.256  27.716  16.584  1.00  0.00     0.031 C 
ENDBRANCH  15  27
ENDBRANCH  11  13
ENDBRANCH   6  11
BRANCH   8  30
ATOM     30  O   UNL     1      22.306  26.374  11.261  1.00  0.00    -0.495 OA
ATOM     31  C   UNL     1      22.557  27.718  10.862  1.00  0.00     0.278 C 
ENDBRANCH   8  30
ENDBRANCH   1   5
BRANCH   3  32
ATOM     32  C   UNL     1      28.400  23.544   7.963  1.00  0.00     0.082 C 
ATOM     33  C   UNL     1      29.222  22.272   8.256  1.00  0.00     0.026 C 
ATOM     34  C   UNL     1      28.212  23.729   6.441  1.00  0.00     0.026 C 
ATOM     35  C   UNL     1      30.564  22.282   7.511  1.00  0.00     0.021 C 
ATOM     36  C   UNL     1      29.552  23.719   5.695  1.00  0.00     0.021 C 
ATOM     37  C   UNL     1      30.327  22.417   5.987  1.00  0.00     0.057 C 
BRANCH  37  38
ATOM     38  N   UNL     1      31.565  22.347   5.170  1.00  0.00    -0.298 NA
ATOM     39  C   UNL     1      31.298  21.911   3.780  1.00  0.00     0.100 C 
ATOM     40  C   UNL     1      32.677  21.586   5.765  1.00  0.00     0.100 C 
ATOM     41  C   UNL     1      32.602  21.566   3.022  1.00  0.00     0.100 C 
ATOM     42  C   UNL     1      33.986  21.911   5.012  1.00  0.00     0.100 C 
ATOM     43  N   UNL     1      33.769  22.272   3.586  1.00  0.00    -0.301 NA
BRANCH  43  44
ATOM     44  C   UNL     1      33.684  23.735   3.369  1.00  0.00     0.088 C 
BRANCH  44  45
ATOM     45  C   UNL     1      34.824  24.442   4.123  1.00  0.00     0.003 C 
ATOM     46  C   UNL     1      34.405  25.677   4.911  1.00  0.00     0.005 C 
ATOM     47  C   UNL     1      35.192  25.825   3.613  1.00  0.00     0.005 C 
ENDBRANCH  44  45
ENDBRANCH  43  44
ENDBRANCH  37  38
ENDBRANCH   3  32
TORSDOF 10
ENDMDL
MODEL 5
REMARK VINA RESULT:    -7.714      3.711      5.216
REMARK INTER + INTRA:         -13.799
REMARK INTER:                 -12.212
REMARK INTRA:                  -1.587
REMARK UNBOUND:                -1.575
REMARK SMILES CC[C@@H]1C(=O)N(C)c2cnc(Nc3ccc(C(=O)N[C@H]4CC[C@H](N5CCN(CC6CC6)CC5)CC4)cc3OC)nc2N1C(C)C
REMARK SMILES IDX 17 1 18 2 19 3 16 5 13 6 14 7 37 8 15 9 36 10 12 11 11 13
REMARK SMILES IDX 3 14 42 15 4 16 41 17 6 18 5 19 40 20 8 21 7 22 9 23 10 24
REMARK SMILES IDX 2 25 1 26 43 27 44 28 45 29 38 30 39 31 20 32 35 33 21 34
REMARK SMILES IDX 34 35 22 36 23 37 24 38 25 39 33 40 26 41 32 42 27 43 28 44
REMARK SMILES IDX 29 45 30 46 31 47
REMARK H PARENT 19 4 12 12
REMARK Flexibility Score: inf
ROOT
ATOM      1  C   UNL     1      26.542  24.358   9.386  1.00  0.00     0.251 C 
ATOM      2  O   UNL     1      27.094  25.487   9.491  1.00  0.00    -0.269 OA
ATOM      3  N   UNL     1      27.162  23.317   8.614  1.00  0.00    -0.349 N 
ATOM      4  H   UNL     1      26.661  22.401   8.538  1.00  0.00     0.164 HD
ENDROOT
BRANCH   1   5
ATOM      5  C   UNL     1      25.270  24.102  10.094  1.00  0.00     0.043 A 
ATOM      6  C   UNL     1      22.807  23.597  11.368  1.00  0.00     0.084 A 
ATOM      7  C   UNL     1      23.666  22.538  11.018  1.00  0.00     0.031 A 
ATOM      8  C   UNL     1      23.193  24.922  11.085  1.00  0.00     0.143 A 
ATOM      9  C   UNL     1      24.894  22.792  10.406  1.00  0.00     0.016 A 
ATOM     10  C   UNL     1      24.422  25.164  10.442  1.00  0.00     0.062 A 
BRANCH   6  11
ATOM     11  N   UNL     1      21.506  23.340  11.923  1.00  0.00    -0.321 N 
ATOM     12  H   UNL     1      20.669  23.479  11.311  1.00  0.00     0.170 HD
BRANCH  11  13
ATOM     13  C   UNL     1      21.258  22.946  13.280  1.00  0.00     0.229 A 
ATOM     14  C   UNL     1      22.006  19.650  16.714  1.00  0.00     0.173 C 
ATOM     15  N   UNL     1      22.625  20.516  15.690  1.00  0.00    -0.340 N 
ATOM     16  C   UNL     1      21.265  20.511  17.704  1.00  0.00     0.249 C 
ATOM     17  C   UNL     1      21.803  21.549  15.113  1.00  0.00     0.159 A 
ATOM     18  N   UNL     1      20.585  21.702  17.250  1.00  0.00    -0.309 N 
ATOM     19  O   UNL     1      21.201  20.151  18.911  1.00  0.00    -0.272 OA
ATOM     20  N   UNL     1      22.019  21.969  13.838  1.00  0.00    -0.193 NA
ATOM     21  C   UNL     1      20.779  22.127  15.880  1.00  0.00     0.105 A 
ATOM     22  C   UNL     1      19.695  22.447  18.149  1.00  0.00     0.153 C 
ATOM     23  C   UNL     1      19.987  23.117  15.273  1.00  0.00     0.145 A 
ATOM     24  N   UNL     1      20.242  23.500  13.995  1.00  0.00    -0.219 NA
BRANCH  14  25
ATOM     25  C   UNL     1      21.010  18.657  16.080  1.00  0.00     0.032 C 
ATOM     26  C   UNL     1      21.628  17.815  14.969  1.00  0.00     0.006 C 
ENDBRANCH  14  25
BRANCH  15  27
ATOM     27  C   UNL     1      24.094  20.613  15.540  1.00  0.00     0.078 C 
ATOM     28  C   UNL     1      24.623  21.889  16.207  1.00  0.00     0.031 C 
ATOM     29  C   UNL     1      24.813  19.368  16.073  1.00  0.00     0.031 C 
ENDBRANCH  15  27
ENDBRANCH  11  13
ENDBRANCH   6  11
BRANCH   8  30
ATOM     30  O   UNL     1      22.335  25.970  11.458  1.00  0.00    -0.495 OA
ATOM     31  C   UNL     1      22.467  27.318  11.013  1.00  0.00     0.278 C 
ENDBRANCH   8  30
ENDBRANCH   1   5
BRANCH   3  32
ATOM     32  C   UNL     1      28.462  23.470   7.948  1.00  0.00     0.082 C 
ATOM     33  C   UNL     1      29.380  22.280   8.291  1.00  0.00     0.026 C 
ATOM     34  C   UNL     1      28.255  23.572   6.421  1.00  0.00     0.026 C 
ATOM     35  C   UNL     1      30.714  22.359   7.537  1.00  0.00     0.021 C 
ATOM     36  C   UNL     1      29.589  23.631   5.667  1.00  0.00     0.021 C 
ATOM     37  C   UNL     1      30.463  22.407   6.010  1.00  0.00     0.057 C 
BRANCH  37  38
ATOM     38  N   UNL     1      31.699  22.396   5.188  1.00  0.00    -0.298 NA
ATOM     39  C   UNL     1      31.429  22.071   3.769  1.00  0.00     0.100 C 
ATOM     40  C   UNL     1      32.808  21.585   5.720  1.00  0.00     0.100 C 
ATOM     41  C   UNL     1      32.731  21.781   2.984  1.00  0.00     0.100 C 
ATOM     42  C   UNL     1      34.119  21.962   4.993  1.00  0.00     0.100 C 
ATOM     43  N   UNL     1      33.901  22.436   3.600  1.00  0.00    -0.301 NA
BRANCH  43  44
ATOM     44  C   UNL     1      33.823  23.911   3.499  1.00  0.00     0.088 C 
BRANCH  44  45
ATOM     45  C   UNL     1      34.632  24.557   4.638  1.00  0.00     0.003 C 
ATOM     46  C   UNL     1      33.874  25.590   5.461  1.00  0.00     0.005 C 
ATOM     47  C   UNL     1      34.943  26.034   4.468  1.00  0.00     0.005 C 
ENDBRANCH  44  45
ENDBRANCH  43  44
ENDBRANCH  37  38
ENDBRANCH   3  32
TORSDOF 10
ENDMDL
MODEL 6
REMARK VINA RESULT:    -7.695      4.007      5.648
REMARK INTER + INTRA:         -13.769
REMARK INTER:                 -11.915
REMARK INTRA:                  -1.854
REMARK UNBOUND:                -1.575
REMARK SMILES CC[C@@H]1C(=O)N(C)c2cnc(Nc3ccc(C(=O)N[C@H]4CC[C@H](N5CCN(CC6CC6)CC5)CC4)cc3OC)nc2N1C(C)C
REMARK SMILES IDX 17 1 18 2 19 3 16 5 13 6 14 7 37 8 15 9 36 10 12 11 11 13
REMARK SMILES IDX 3 14 42 15 4 16 41 17 6 18 5 19 40 20 8 21 7 22 9 23 10 24
REMARK SMILES IDX 2 25 1 26 43 27 44 28 45 29 38 30 39 31 20 32 35 33 21 34
REMARK SMILES IDX 34 35 22 36 23 37 24 38 25 39 33 40 26 41 32 42 27 43 28 44
REMARK SMILES IDX 29 45 30 46 31 47
REMARK H PARENT 19 4 12 12
REMARK Flexibility Score: inf
ROOT
ATOM      1  C   UNL     1      26.891  25.859   8.691  1.00  0.00     0.251 C 
ATOM      2  O   UNL     1      26.855  26.714   7.765  1.00  0.00    -0.269 OA
ATOM      3  N   UNL     1      27.898  24.834   8.693  1.00  0.00    -0.349 N 
ATOM      4  H   UNL     1      27.881  24.134   9.471  1.00  0.00     0.164 HD
ENDROOT
BRANCH   1   5
ATOM      5  C   UNL     1      25.912  25.942   9.796  1.00  0.00     0.043 A 
ATOM      6  C   UNL     1      24.036  26.185  11.885  1.00  0.00     0.084 A 
ATOM      7  C   UNL     1      23.611  26.022  10.553  1.00  0.00     0.031 A 
ATOM      8  C   UNL     1      25.414  26.216  12.172  1.00  0.00     0.143 A 
ATOM      9  C   UNL     1      24.541  25.882   9.522  1.00  0.00     0.016 A 
ATOM     10  C   UNL     1      26.344  26.101  11.121  1.00  0.00     0.062 A 
BRANCH   6  11
ATOM     11  N   UNL     1      23.086  26.413  12.940  1.00  0.00    -0.321 N 
ATOM     12  H   UNL     1      22.796  27.397  13.143  1.00  0.00     0.170 HD
BRANCH  11  13
ATOM     13  C   UNL     1      22.532  25.389  13.777  1.00  0.00     0.229 A 
ATOM     14  C   UNL     1      21.962  20.660  14.511  1.00  0.00     0.173 C 
ATOM     15  N   UNL     1      22.917  21.751  14.228  1.00  0.00    -0.340 N 
ATOM     16  C   UNL     1      21.263  20.946  15.815  1.00  0.00     0.249 C 
ATOM     17  C   UNL     1      22.445  23.102  14.390  1.00  0.00     0.159 A 
ATOM     18  N   UNL     1      20.939  22.308  16.171  1.00  0.00    -0.309 N 
ATOM     19  O   UNL     1      20.918  19.985  16.555  1.00  0.00    -0.272 OA
ATOM     20  N   UNL     1      22.960  24.108  13.633  1.00  0.00    -0.193 NA
ATOM     21  C   UNL     1      21.450  23.378  15.342  1.00  0.00     0.105 A 
ATOM     22  C   UNL     1      20.086  22.598  17.331  1.00  0.00     0.153 C 
ATOM     23  C   UNL     1      21.003  24.705  15.455  1.00  0.00     0.145 A 
ATOM     24  N   UNL     1      21.549  25.674  14.674  1.00  0.00    -0.219 NA
BRANCH  14  25
ATOM     25  C   UNL     1      20.902  20.541  13.396  1.00  0.00     0.032 C 
ATOM     26  C   UNL     1      21.473  20.031  12.078  1.00  0.00     0.006 C 
ENDBRANCH  14  25
BRANCH  15  27
ATOM     27  C   UNL     1      24.377  21.512  14.179  1.00  0.00     0.078 C 
ATOM     28  C   UNL     1      24.791  20.473  15.229  1.00  0.00     0.031 C 
ATOM     29  C   UNL     1      24.850  21.106  12.778  1.00  0.00     0.031 C 
ENDBRANCH  15  27
ENDBRANCH  11  13
ENDBRANCH   6  11
BRANCH   8  30
ATOM     30  O   UNL     1      25.824  26.359  13.508  1.00  0.00    -0.495 OA
ATOM     31  C   UNL     1      26.326  25.298  14.316  1.00  0.00     0.278 C 
ENDBRANCH   8  30
ENDBRANCH   1   5
BRANCH   3  32
ATOM     32  C   UNL     1      28.951  24.735   7.675  1.00  0.00     0.082 C 
ATOM     33  C   UNL     1      30.268  24.249   8.314  1.00  0.00     0.026 C 
ATOM     34  C   UNL     1      28.503  23.768   6.557  1.00  0.00     0.026 C 
ATOM     35  C   UNL     1      31.366  24.043   7.262  1.00  0.00     0.021 C 
ATOM     36  C   UNL     1      29.609  23.548   5.516  1.00  0.00     0.021 C 
ATOM     37  C   UNL     1      30.896  23.030   6.191  1.00  0.00     0.057 C 
BRANCH  37  38
ATOM     38  N   UNL     1      31.925  22.696   5.174  1.00  0.00    -0.298 NA
ATOM     39  C   UNL     1      31.329  22.228   3.902  1.00  0.00     0.100 C 
ATOM     40  C   UNL     1      32.996  21.792   5.627  1.00  0.00     0.100 C 
ATOM     41  C   UNL     1      32.391  21.616   2.957  1.00  0.00     0.100 C 
ATOM     42  C   UNL     1      34.170  21.838   4.624  1.00  0.00     0.100 C 
ATOM     43  N   UNL     1      33.741  22.143   3.233  1.00  0.00    -0.301 NA
BRANCH  43  44
ATOM     44  C   UNL     1      33.849  23.582   2.900  1.00  0.00     0.088 C 
BRANCH  44  45
ATOM     45  C   UNL     1      34.936  24.240   3.769  1.00  0.00     0.003 C 
ATOM     46  C   UNL     1      34.426  25.281   4.757  1.00  0.00     0.005 C 
ATOM     47  C   UNL     1      35.184  25.716   3.507  1.00  0.00     0.005 C 
ENDBRANCH  44  45
ENDBRANCH  43  44
ENDBRANCH  37  38
ENDBRANCH   3  32
TORSDOF 10
ENDMDL
MODEL 7
REMARK VINA RESULT:    -7.660      2.966     14.226
REMARK INTER + INTRA:         -13.714
REMARK INTER:                 -12.247
REMARK INTRA:                  -1.467
REMARK UNBOUND:                -1.575
REMARK SMILES CC[C@@H]1C(=O)N(C)c2cnc(Nc3ccc(C(=O)N[C@H]4CC[C@H](N5CCN(CC6CC6)CC5)CC4)cc3OC)nc2N1C(C)C
REMARK SMILES IDX 17 1 18 2 19 3 16 5 13 6 14 7 37 8 15 9 36 10 12 11 11 13
REMARK SMILES IDX 3 14 42 15 4 16 41 17 6 18 5 19 40 20 8 21 7 22 9 23 10 24
REMARK SMILES IDX 2 25 1 26 43 27 44 28 45 29 38 30 39 31 20 32 35 33 21 34
REMARK SMILES IDX 34 35 22 36 23 37 24 38 25 39 33 40 26 41 32 42 27 43 28 44
REMARK SMILES IDX 29 45 30 46 31 47
REMARK H PARENT 19 4 12 12
REMARK Flexibility Score: inf
ROOT
ATOM      1  C   UNL     1      24.174  22.931  11.817  1.00  0.00     0.251 C 
ATOM      2  O   UNL     1      23.820  23.735  12.721  1.00  0.00    -0.269 OA
ATOM      3  N   UNL     1      23.832  21.538  11.912  1.00  0.00    -0.349 N 
ATOM      4  H   UNL     1      24.161  20.901  11.149  1.00  0.00     0.164 HD
ENDROOT
BRANCH   1   5
ATOM      5  C   UNL     1      24.911  23.437  10.639  1.00  0.00     0.043 A 
ATOM      6  C   UNL     1      26.242  24.398   8.349  1.00  0.00     0.084 A 
ATOM      7  C   UNL     1      25.504  25.271   9.170  1.00  0.00     0.031 A 
ATOM      8  C   UNL     1      26.322  23.033   8.686  1.00  0.00     0.143 A 
ATOM      9  C   UNL     1      24.862  24.797  10.315  1.00  0.00     0.016 A 
ATOM     10  C   UNL     1      25.647  22.561   9.829  1.00  0.00     0.062 A 
BRANCH   6  11
ATOM     11  N   UNL     1      26.837  24.862   7.124  1.00  0.00    -0.321 N 
ATOM     12  H   UNL     1      26.364  24.624   6.222  1.00  0.00     0.170 HD
BRANCH  11  13
ATOM     13  C   UNL     1      28.065  25.597   7.038  1.00  0.00     0.229 A 
ATOM     14  C   UNL     1      30.607  29.384   8.593  1.00  0.00     0.173 C 
ATOM     15  N   UNL     1      29.807  28.203   8.977  1.00  0.00    -0.340 N 
ATOM     16  C   UNL     1      31.784  28.934   7.769  1.00  0.00     0.249 C 
ATOM     17  C   UNL     1      29.505  27.245   7.945  1.00  0.00     0.159 A 
ATOM     18  N   UNL     1      31.637  27.826   6.853  1.00  0.00    -0.309 N 
ATOM     19  O   UNL     1      32.872  29.566   7.848  1.00  0.00    -0.272 OA
ATOM     20  N   UNL     1      28.363  26.510   7.999  1.00  0.00    -0.193 NA
ATOM     21  C   UNL     1      30.404  27.069   6.880  1.00  0.00     0.105 A 
ATOM     22  C   UNL     1      32.701  27.495   5.898  1.00  0.00     0.153 C 
ATOM     23  C   UNL     1      30.062  26.139   5.884  1.00  0.00     0.145 A 
ATOM     24  N   UNL     1      28.908  25.430   5.983  1.00  0.00    -0.219 NA
BRANCH  14  25
ATOM     25  C   UNL     1      29.771  30.379   7.761  1.00  0.00     0.032 C 
ATOM     26  C   UNL     1      29.886  31.818   8.254  1.00  0.00     0.006 C 
ENDBRANCH  14  25
BRANCH  15  27
ATOM     27  C   UNL     1      29.660  27.790  10.391  1.00  0.00     0.078 C 
ATOM     28  C   UNL     1      30.897  28.193  11.204  1.00  0.00     0.031 C 
ATOM     29  C   UNL     1      28.376  28.340  11.023  1.00  0.00     0.031 C 
ENDBRANCH  15  27
ENDBRANCH  11  13
ENDBRANCH   6  11
BRANCH   8  30
ATOM     30  O   UNL     1      27.079  22.177   7.868  1.00  0.00    -0.495 OA
ATOM     31  C   UNL     1      28.132  21.338   8.335  1.00  0.00     0.278 C 
ENDBRANCH   8  30
ENDBRANCH   1   5
BRANCH   3  32
ATOM     32  C   UNL     1      23.036  20.975  13.010  1.00  0.00     0.082 C 
ATOM     33  C   UNL     1      21.935  20.051  12.450  1.00  0.00     0.026 C 
ATOM     34  C   UNL     1      23.957  20.197  13.974  1.00  0.00     0.026 C 
ATOM     35  C   UNL     1      21.142  19.371  13.574  1.00  0.00     0.021 C 
ATOM     36  C   UNL     1      23.161  19.501  15.086  1.00  0.00     0.021 C 
ATOM     37  C   UNL     1      22.095  18.562  14.486  1.00  0.00     0.057 C 
BRANCH  37  38
ATOM     38  N   UNL     1      21.410  17.793  15.555  1.00  0.00    -0.298 NA
ATOM     39  C   UNL     1      20.436  16.819  15.012  1.00  0.00     0.100 C 
ATOM     40  C   UNL     1      20.814  18.599  16.635  1.00  0.00     0.100 C 
ATOM     41  C   UNL     1      19.527  16.231  16.119  1.00  0.00     0.100 C 
ATOM     42  C   UNL     1      20.484  17.688  17.838  1.00  0.00     0.100 C 
ATOM     43  N   UNL     1      20.171  16.288  17.446  1.00  0.00    -0.301 NA
BRANCH  43  44
ATOM     44  C   UNL     1      21.346  15.391  17.526  1.00  0.00     0.088 C 
BRANCH  44  45
ATOM     45  C   UNL     1      20.905  13.932  17.310  1.00  0.00     0.003 C 
ATOM     46  C   UNL     1      20.248  13.273  18.517  1.00  0.00     0.005 C 
ATOM     47  C   UNL     1      21.667  12.889  18.110  1.00  0.00     0.005 C 
ENDBRANCH  44  45
ENDBRANCH  43  44
ENDBRANCH  37  38
ENDBRANCH   3  32
TORSDOF 10
ENDMDL
MODEL 8
REMARK VINA RESULT:    -7.638      2.510      3.608
REMARK INTER + INTRA:         -13.679
REMARK INTER:                 -12.054
REMARK INTRA:                  -1.624
REMARK UNBOUND:                -1.575
REMARK SMILES CC[C@@H]1C(=O)N(C)c2cnc(Nc3ccc(C(=O)N[C@H]4CC[C@H](N5CCN(CC6CC6)CC5)CC4)cc3OC)nc2N1C(C)C
REMARK SMILES IDX 17 1 18 2 19 3 16 5 13 6 14 7 37 8 15 9 36 10 12 11 11 13
REMARK SMILES IDX 3 14 42 15 4 16 41 17 6 18 5 19 40 20 8 21 7 22 9 23 10 24
REMARK SMILES IDX 2 25 1 26 43 27 44 28 45 29 38 30 39 31 20 32 35 33 21 34
REMARK SMILES IDX 34 35 22 36 23 37 24 38 25 39 33 40 26 41 32 42 27 43 28 44
REMARK SMILES IDX 29 45 30 46 31 47
REMARK H PARENT 19 4 12 12
REMARK Flexibility Score: inf
ROOT
ATOM      1  C   UNL     1      28.675  21.245   9.427  1.00  0.00     0.251 C 
ATOM      2  O   UNL     1      29.562  20.390   9.697  1.00  0.00    -0.269 OA
ATOM      3  N   UNL     1      28.991  22.384   8.610  1.00  0.00    -0.349 N 
ATOM      4  H   UNL     1      28.230  23.078   8.425  1.00  0.00     0.164 HD
ENDROOT
BRANCH   1   5
ATOM      5  C   UNL     1      27.298  21.047   9.927  1.00  0.00     0.043 A 
ATOM      6  C   UNL     1      24.648  20.646  10.799  1.00  0.00     0.084 A 
ATOM      7  C   UNL     1      25.541  19.563  10.692  1.00  0.00     0.031 A 
ATOM      8  C   UNL     1      25.092  21.943  10.476  1.00  0.00     0.143 A 
ATOM      9  C   UNL     1      26.858  19.766  10.279  1.00  0.00     0.016 A 
ATOM     10  C   UNL     1      26.416  22.132  10.034  1.00  0.00     0.062 A 
BRANCH   6  11
ATOM     11  N   UNL     1      23.268  20.434  11.144  1.00  0.00    -0.321 N 
ATOM     12  H   UNL     1      22.617  20.094  10.398  1.00  0.00     0.170 HD
BRANCH  11  13
ATOM     13  C   UNL     1      22.697  20.696  12.433  1.00  0.00     0.229 A 
ATOM     14  C   UNL     1      21.833  19.025  16.869  1.00  0.00     0.173 C 
ATOM     15  N   UNL     1      22.844  19.235  15.813  1.00  0.00    -0.340 N 
ATOM     16  C   UNL     1      21.244  20.356  17.257  1.00  0.00     0.249 C 
ATOM     17  C   UNL     1      22.484  20.092  14.713  1.00  0.00     0.159 A 
ATOM     18  N   UNL     1      21.045  21.373  16.250  1.00  0.00    -0.309 N 
ATOM     19  O   UNL     1      20.880  20.547  18.449  1.00  0.00    -0.272 OA
ATOM     20  N   UNL     1      23.020  19.893  13.480  1.00  0.00    -0.193 NA
ATOM     21  C   UNL     1      21.577  21.144  14.925  1.00  0.00     0.105 A 
ATOM     22  C   UNL     1      20.295  22.597  16.557  1.00  0.00     0.153 C 
ATOM     23  C   UNL     1      21.237  21.945  13.821  1.00  0.00     0.145 A 
ATOM     24  N   UNL     1      21.799  21.704  12.608  1.00  0.00    -0.219 NA
BRANCH  14  25
ATOM     25  C   UNL     1      20.695  18.104  16.379  1.00  0.00     0.032 C 
ATOM     26  C   UNL     1      21.199  16.877  15.628  1.00  0.00     0.006 C 
ENDBRANCH  14  25
BRANCH  15  27
ATOM     27  C   UNL     1      24.276  18.937  16.039  1.00  0.00     0.078 C 
ATOM     28  C   UNL     1      25.066  20.228  16.284  1.00  0.00     0.031 C 
ATOM     29  C   UNL     1      24.484  17.932  17.178  1.00  0.00     0.031 C 
ENDBRANCH  15  27
ENDBRANCH  11  13
ENDBRANCH   6  11
BRANCH   8  30
ATOM     30  O   UNL     1      24.196  23.017  10.607  1.00  0.00    -0.495 OA
ATOM     31  C   UNL     1      24.306  24.044  11.588  1.00  0.00     0.278 C 
ENDBRANCH   8  30
ENDBRANCH   1   5
BRANCH   3  32
ATOM     32  C   UNL     1      30.314  22.607   8.012  1.00  0.00     0.082 C 
ATOM     33  C   UNL     1      30.377  21.977   6.606  1.00  0.00     0.026 C 
ATOM     34  C   UNL     1      30.602  24.122   7.940  1.00  0.00     0.026 C 
ATOM     35  C   UNL     1      31.714  22.272   5.914  1.00  0.00     0.021 C 
ATOM     36  C   UNL     1      31.930  24.417   7.231  1.00  0.00     0.021 C 
ATOM     37  C   UNL     1      31.939  23.800   5.816  1.00  0.00     0.057 C 
BRANCH  37  38
ATOM     38  N   UNL     1      33.168  24.190   5.081  1.00  0.00    -0.298 NA
ATOM     39  C   UNL     1      33.171  23.695   3.686  1.00  0.00     0.100 C 
ATOM     40  C   UNL     1      34.439  23.882   5.759  1.00  0.00     0.100 C 
ATOM     41  C   UNL     1      34.558  23.852   3.018  1.00  0.00     0.100 C 
ATOM     42  C   UNL     1      35.588  24.665   5.085  1.00  0.00     0.100 C 
ATOM     43  N   UNL     1      35.349  24.931   3.642  1.00  0.00    -0.301 NA
BRANCH  43  44
ATOM     44  C   UNL     1      34.753  26.264   3.393  1.00  0.00     0.088 C 
BRANCH  44  45
ATOM     45  C   UNL     1      34.824  27.116   4.673  1.00  0.00     0.003 C 
ATOM     46  C   UNL     1      33.492  27.691   5.138  1.00  0.00     0.005 C 
ATOM     47  C   UNL     1      34.537  28.597   4.494  1.00  0.00     0.005 C 
ENDBRANCH  44  45
ENDBRANCH  43  44
ENDBRANCH  37  38
ENDBRANCH   3  32
TORSDOF 10
ENDMDL
MODEL 9
REMARK VINA RESULT:    -7.610      2.619     13.855
REMARK INTER + INTRA:         -13.634
REMARK INTER:                 -11.923
REMARK INTRA:                  -1.711
REMARK UNBOUND:                -1.575
REMARK SMILES CC[C@@H]1C(=O)N(C)c2cnc(Nc3ccc(C(=O)N[C@H]4CC[C@H](N5CCN(CC6CC6)CC5)CC4)cc3OC)nc2N1C(C)C
REMARK SMILES IDX 17 1 18 2 19 3 16 5 13 6 14 7 37 8 15 9 36 10 12 11 11 13
REMARK SMILES IDX 3 14 42 15 4 16 41 17 6 18 5 19 40 20 8 21 7 22 9 23 10 24
REMARK SMILES IDX 2 25 1 26 43 27 44 28 45 29 38 30 39 31 20 32 35 33 21 34
REMARK SMILES IDX 34 35 22 36 23 37 24 38 25 39 33 40 26 41 32 42 27 43 28 44
REMARK SMILES IDX 29 45 30 46 31 47
REMARK H PARENT 19 4 12 12
REMARK Flexibility Score: inf
ROOT
ATOM      1  C   UNL     1      25.556  20.977  10.872  1.00  0.00     0.251 C 
ATOM      2  O   UNL     1      26.123  19.850  10.881  1.00  0.00    -0.269 OA
ATOM      3  N   UNL     1      24.519  21.274  11.822  1.00  0.00    -0.349 N 
ATOM      4  H   UNL     1      24.063  22.215  11.768  1.00  0.00     0.164 HD
ENDROOT
BRANCH   1   5
ATOM      5  C   UNL     1      25.992  22.003   9.901  1.00  0.00     0.043 A 
ATOM      6  C   UNL     1      26.753  23.942   8.003  1.00  0.00     0.084 A 
ATOM      7  C   UNL     1      25.816  24.249   9.007  1.00  0.00     0.031 A 
ATOM      8  C   UNL     1      27.322  22.654   7.958  1.00  0.00     0.143 A 
ATOM      9  C   UNL     1      25.456  23.294   9.958  1.00  0.00     0.016 A 
ATOM     10  C   UNL     1      26.930  21.690   8.906  1.00  0.00     0.062 A 
BRANCH   6  11
ATOM     11  N   UNL     1      27.068  24.893   6.971  1.00  0.00    -0.321 N 
ATOM     12  H   UNL     1      26.407  24.988   6.166  1.00  0.00     0.170 HD
BRANCH  11  13
ATOM     13  C   UNL     1      28.254  25.699   6.934  1.00  0.00     0.229 A 
ATOM     14  C   UNL     1      30.603  29.487   8.764  1.00  0.00     0.173 C 
ATOM     15  N   UNL     1      29.872  28.238   9.060  1.00  0.00    -0.340 N 
ATOM     16  C   UNL     1      31.794  29.168   7.900  1.00  0.00     0.249 C 
ATOM     17  C   UNL     1      29.612  27.348   7.958  1.00  0.00     0.159 A 
ATOM     18  N   UNL     1      31.697  28.128   6.901  1.00  0.00    -0.309 N 
ATOM     19  O   UNL     1      32.847  29.851   8.020  1.00  0.00    -0.272 OA
ATOM     20  N   UNL     1      28.512  26.549   7.962  1.00  0.00    -0.193 NA
ATOM     21  C   UNL     1      30.508  27.305   6.877  1.00  0.00     0.105 A 
ATOM     22  C   UNL     1      32.768  27.931   5.916  1.00  0.00     0.153 C 
ATOM     23  C   UNL     1      30.206  26.438   5.813  1.00  0.00     0.145 A 
ATOM     24  N   UNL     1      29.093  25.661   5.864  1.00  0.00    -0.219 NA
BRANCH  14  25
ATOM     25  C   UNL     1      29.705  30.497   8.018  1.00  0.00     0.032 C 
ATOM     26  C   UNL     1      29.469  31.783   8.802  1.00  0.00     0.006 C 
ENDBRANCH  14  25
BRANCH  15  27
ATOM     27  C   UNL     1      29.764  27.709  10.438  1.00  0.00     0.078 C 
ATOM     28  C   UNL     1      30.819  26.624  10.687  1.00  0.00     0.031 C 
ATOM     29  C   UNL     1      29.848  28.820  11.491  1.00  0.00     0.031 C 
ENDBRANCH  15  27
ENDBRANCH  11  13
ENDBRANCH   6  11
BRANCH   8  30
ATOM     30  O   UNL     1      28.271  22.368   6.962  1.00  0.00    -0.495 OA
ATOM     31  C   UNL     1      29.678  22.309   7.181  1.00  0.00     0.278 C 
ENDBRANCH   8  30
ENDBRANCH   1   5
BRANCH   3  32
ATOM     32  C   UNL     1      24.087  20.336  12.866  1.00  0.00     0.082 C 
ATOM     33  C   UNL     1      24.522  20.847  14.254  1.00  0.00     0.026 C 
ATOM     34  C   UNL     1      22.554  20.165  12.808  1.00  0.00     0.026 C 
ATOM     35  C   UNL     1      24.006  19.938  15.378  1.00  0.00     0.021 C 
ATOM     36  C   UNL     1      22.036  19.273  13.943  1.00  0.00     0.021 C 
ATOM     37  C   UNL     1      22.463  19.836  15.315  1.00  0.00     0.057 C 
BRANCH  37  38
ATOM     38  N   UNL     1      21.858  19.047  16.418  1.00  0.00    -0.298 NA
ATOM     39  C   UNL     1      21.531  19.884  17.595  1.00  0.00     0.100 C 
ATOM     40  C   UNL     1      22.599  17.836  16.813  1.00  0.00     0.100 C 
ATOM     41  C   UNL     1      21.172  19.027  18.833  1.00  0.00     0.100 C 
ATOM     42  C   UNL     1      21.689  16.932  17.674  1.00  0.00     0.100 C 
ATOM     43  N   UNL     1      20.673  17.691  18.450  1.00  0.00    -0.301 NA
BRANCH  43  44
ATOM     44  C   UNL     1      19.364  17.771  17.763  1.00  0.00     0.088 C 
BRANCH  44  45
ATOM     45  C   UNL     1      19.172  16.538  16.860  1.00  0.00     0.003 C 
ATOM     46  C   UNL     1      19.166  16.830  15.366  1.00  0.00     0.005 C 
ATOM     47  C   UNL     1      17.866  16.487  16.086  1.00  0.00     0.005 C 
ENDBRANCH  44  45
ENDBRANCH  43  44
ENDBRANCH  37  38
ENDBRANCH   3  32
TORSDOF 10
ENDMDL
MODEL 10
REMARK VINA RESULT:    -7.575      5.810      7.625
REMARK INTER + INTRA:         -13.578
REMARK INTER:                 -11.716
REMARK INTRA:                  -1.862
REMARK UNBOUND:                -1.575
REMARK SMILES CC[C@@H]1C(=O)N(C)c2cnc(Nc3ccc(C(=O)N[C@H]4CC[C@H](N5CCN(CC6CC6)CC5)CC4)cc3OC)nc2N1C(C)C
REMARK SMILES IDX 17 1 18 2 19 3 16 5 13 6 14 7 37 8 15 9 36 10 12 11 11 13
REMARK SMILES IDX 3 14 42 15 4 16 41 17 6 18 5 19 40 20 8 21 7 22 9 23 10 24
REMARK SMILES IDX 2 25 1 26 43 27 44 28 45 29 38 30 39 31 20 32 35 33 21 34
REMARK SMILES IDX 34 35 22 36 23 37 24 38 25 39 33 40 26 41 32 42 27 43 28 44
REMARK SMILES IDX 29 45 30 46 31 47
REMARK H PARENT 19 4 12 12
REMARK Flexibility Score: inf
ROOT
ATOM      1  C   UNL     1      27.049  26.706   9.276  1.00  0.00     0.251 C 
ATOM      2  O   UNL     1      28.099  27.082   9.865  1.00  0.00    -0.269 OA
ATOM      3  N   UNL     1      27.112  25.687   8.264  1.00  0.00    -0.349 N 
ATOM      4  H   UNL     1      26.220  25.417   7.787  1.00  0.00     0.164 HD
ENDROOT
BRANCH   1   5
ATOM      5  C   UNL     1      25.749  27.295   9.659  1.00  0.00     0.043 A 
ATOM      6  C   UNL     1      23.286  28.397  10.473  1.00  0.00     0.084 A 
ATOM      7  C   UNL     1      24.473  29.148  10.560  1.00  0.00     0.031 A 
ATOM      8  C   UNL     1      23.334  27.086   9.963  1.00  0.00     0.143 A 
ATOM      9  C   UNL     1      25.689  28.608  10.138  1.00  0.00     0.016 A 
ATOM     10  C   UNL     1      24.570  26.541   9.565  1.00  0.00     0.062 A 
BRANCH   6  11
ATOM     11  N   UNL     1      22.045  28.916  10.982  1.00  0.00    -0.321 N 
ATOM     12  H   UNL     1      21.306  29.197  10.296  1.00  0.00     0.170 HD
BRANCH  11  13
ATOM     13  C   UNL     1      21.753  29.123  12.370  1.00  0.00     0.229 A 
ATOM     14  C   UNL     1      19.825  27.301  16.393  1.00  0.00     0.173 C 
ATOM     15  N   UNL     1      20.752  27.075  15.266  1.00  0.00    -0.340 N 
ATOM     16  C   UNL     1      20.273  28.518  17.160  1.00  0.00     0.249 C 
ATOM     17  C   UNL     1      21.104  28.215  14.459  1.00  0.00     0.159 A 
ATOM     18  N   UNL     1      20.848  29.640  16.454  1.00  0.00    -0.309 N 
ATOM     19  O   UNL     1      20.088  28.566  18.407  1.00  0.00    -0.272 OA
ATOM     20  N   UNL     1      21.412  28.060  13.144  1.00  0.00    -0.193 NA
ATOM     21  C   UNL     1      21.135  29.492  15.044  1.00  0.00     0.105 A 
ATOM     22  C   UNL     1      21.107  30.909  17.144  1.00  0.00     0.153 C 
ATOM     23  C   UNL     1      21.464  30.580  14.218  1.00  0.00     0.145 A 
ATOM     24  N   UNL     1      21.762  30.373  12.908  1.00  0.00    -0.219 NA
BRANCH  14  25
ATOM     25  C   UNL     1      18.383  27.533  15.894  1.00  0.00     0.032 C 
ATOM     26  C   UNL     1      17.555  26.254  15.842  1.00  0.00     0.006 C 
ENDBRANCH  14  25
BRANCH  15  27
ATOM     27  C   UNL     1      21.600  25.864  15.190  1.00  0.00     0.078 C 
ATOM     28  C   UNL     1      22.811  25.991  16.122  1.00  0.00     0.031 C 
ATOM     29  C   UNL     1      20.807  24.584  15.479  1.00  0.00     0.031 C 
ENDBRANCH  15  27
ENDBRANCH  11  13
ENDBRANCH   6  11
BRANCH   8  30
ATOM     30  O   UNL     1      22.138  26.355   9.862  1.00  0.00    -0.495 OA
ATOM     31  C   UNL     1      21.778  25.275  10.720  1.00  0.00     0.278 C 
ENDBRANCH   8  30
ENDBRANCH   1   5
BRANCH   3  32
ATOM     32  C   UNL     1      28.353  25.000   7.885  1.00  0.00     0.082 C 
ATOM     33  C   UNL     1      28.056  23.538   7.493  1.00  0.00     0.026 C 
ATOM     34  C   UNL     1      29.025  25.749   6.714  1.00  0.00     0.026 C 
ATOM     35  C   UNL     1      29.318  22.817   7.001  1.00  0.00     0.021 C 
ATOM     36  C   UNL     1      30.276  25.017   6.211  1.00  0.00     0.021 C 
ATOM     37  C   UNL     1      29.929  23.572   5.796  1.00  0.00     0.057 C 
BRANCH  37  38
ATOM     38  N   UNL     1      31.107  22.901   5.191  1.00  0.00    -0.298 NA
ATOM     39  C   UNL     1      30.796  22.292   3.878  1.00  0.00     0.100 C 
ATOM     40  C   UNL     1      31.817  21.952   6.066  1.00  0.00     0.100 C 
ATOM     41  C   UNL     1      31.931  21.360   3.389  1.00  0.00     0.100 C 
ATOM     42  C   UNL     1      33.203  21.631   5.463  1.00  0.00     0.100 C 
ATOM     43  N   UNL     1      33.234  21.724   3.980  1.00  0.00    -0.301 NA
BRANCH  43  44
ATOM     44  C   UNL     1      33.708  23.041   3.495  1.00  0.00     0.088 C 
BRANCH  44  45
ATOM     45  C   UNL     1      34.610  23.695   4.558  1.00  0.00     0.003 C 
ATOM     46  C   UNL     1      34.149  25.065   5.037  1.00  0.00     0.005 C 
ATOM     47  C   UNL     1      35.354  24.941   4.112  1.00  0.00     0.005 C 
ENDBRANCH  44  45
ENDBRANCH  43  44
ENDBRANCH  37  38
ENDBRANCH   3  32
TORSDOF 10
ENDMDL
MODEL 11
REMARK VINA RESULT:    -7.569      3.767      5.344
REMARK INTER + INTRA:         -13.569
REMARK INTER:                 -12.486
REMARK INTRA:                  -1.083
REMARK UNBOUND:                -1.575
REMARK SMILES CC[C@@H]1C(=O)N(C)c2cnc(Nc3ccc(C(=O)N[C@H]4CC[C@H](N5CCN(CC6CC6)CC5)CC4)cc3OC)nc2N1C(C)C
REMARK SMILES IDX 17 1 18 2 19 3 16 5 13 6 14 7 37 8 15 9 36 10 12 11 11 13
REMARK SMILES IDX 3 14 42 15 4 16 41 17 6 18 5 19 40 20 8 21 7 22 9 23 10 24
REMARK SMILES IDX 2 25 1 26 43 27 44 28 45 29 38 30 39 31 20 32 35 33 21 34
REMARK SMILES IDX 34 35 22 36 23 37 24 38 25 39 33 40 26 41 32 42 27 43 28 44
REMARK SMILES IDX 29 45 30 46 31 47
REMARK H PARENT 19 4 12 12
REMARK Flexibility Score: inf
ROOT
ATOM      1  C   UNL     1      26.414  21.718   9.994  1.00  0.00     0.251 C 
ATOM      2  O   UNL     1      27.131  20.734   9.662  1.00  0.00    -0.269 OA
ATOM      3  N   UNL     1      26.773  23.047   9.582  1.00  0.00    -0.349 N 
ATOM      4  H   UNL     1      26.161  23.837   9.894  1.00  0.00     0.164 HD
ENDROOT
BRANCH   1   5
ATOM      5  C   UNL     1      25.182  21.489  10.778  1.00  0.00     0.043 A 
ATOM      6  C   UNL     1      22.794  21.025  12.200  1.00  0.00     0.084 A 
ATOM      7  C   UNL     1      23.696  19.974  11.948  1.00  0.00     0.031 A 
ATOM      8  C   UNL     1      23.099  22.322  11.744  1.00  0.00     0.143 A 
ATOM      9  C   UNL     1      24.887  20.210  11.261  1.00  0.00     0.016 A 
ATOM     10  C   UNL     1      24.291  22.542  11.028  1.00  0.00     0.062 A 
BRANCH   6  11
ATOM     11  N   UNL     1      21.527  20.775  12.834  1.00  0.00    -0.321 N 
ATOM     12  H   UNL     1      20.703  21.347  12.538  1.00  0.00     0.170 HD
BRANCH  11  13
ATOM     13  C   UNL     1      21.311  19.822  13.884  1.00  0.00     0.229 A 
ATOM     14  C   UNL     1      22.458  18.429  18.353  1.00  0.00     0.173 C 
ATOM     15  N   UNL     1      22.034  19.550  17.488  1.00  0.00    -0.340 N 
ATOM     16  C   UNL     1      21.427  17.333  18.276  1.00  0.00     0.249 C 
ATOM     17  C   UNL     1      21.578  19.225  16.161  1.00  0.00     0.159 A 
ATOM     18  N   UNL     1      20.748  17.073  17.028  1.00  0.00    -0.309 N 
ATOM     19  O   UNL     1      21.209  16.617  19.291  1.00  0.00    -0.272 OA
ATOM     20  N   UNL     1      21.741  20.109  15.141  1.00  0.00    -0.193 NA
ATOM     21  C   UNL     1      20.955  17.988  15.927  1.00  0.00     0.105 A 
ATOM     22  C   UNL     1      19.892  15.890  16.871  1.00  0.00     0.153 C 
ATOM     23  C   UNL     1      20.543  17.703  14.614  1.00  0.00     0.145 A 
ATOM     24  N   UNL     1      20.731  18.619  13.629  1.00  0.00    -0.219 NA
BRANCH  14  25
ATOM     25  C   UNL     1      23.820  17.861  17.904  1.00  0.00     0.032 C 
ATOM     26  C   UNL     1      24.994  18.766  18.261  1.00  0.00     0.006 C 
ENDBRANCH  14  25
BRANCH  15  27
ATOM     27  C   UNL     1      21.697  20.878  18.048  1.00  0.00     0.078 C 
ATOM     28  C   UNL     1      20.177  21.068  18.115  1.00  0.00     0.031 C 
ATOM     29  C   UNL     1      22.348  21.110  19.416  1.00  0.00     0.031 C 
ENDBRANCH  15  27
ENDBRANCH  11  13
ENDBRANCH   6  11
BRANCH   8  30
ATOM     30  O   UNL     1      22.199  23.365  12.020  1.00  0.00    -0.495 OA
ATOM     31  C   UNL     1      21.697  24.277  11.047  1.00  0.00     0.278 C 
ENDBRANCH   8  30
ENDBRANCH   1   5
BRANCH   3  32
ATOM     32  C   UNL     1      27.937  23.344   8.737  1.00  0.00     0.082 C 
ATOM     33  C   UNL     1      29.212  22.729   9.349  1.00  0.00     0.026 C 
ATOM     34  C   UNL     1      27.699  22.793   7.314  1.00  0.00     0.026 C 
ATOM     35  C   UNL     1      30.432  22.940   8.444  1.00  0.00     0.021 C 
ATOM     36  C   UNL     1      28.927  22.987   6.415  1.00  0.00     0.021 C 
ATOM     37  C   UNL     1      30.172  22.328   7.046  1.00  0.00     0.057 C 
BRANCH  37  38
ATOM     38  N   UNL     1      31.332  22.403   6.122  1.00  0.00    -0.298 NA
ATOM     39  C   UNL     1      30.932  22.770   4.744  1.00  0.00     0.100 C 
ATOM     40  C   UNL     1      32.223  21.230   6.125  1.00  0.00     0.100 C 
ATOM     41  C   UNL     1      32.086  22.570   3.734  1.00  0.00     0.100 C 
ATOM     42  C   UNL     1      33.556  21.593   5.431  1.00  0.00     0.100 C 
ATOM     43  N   UNL     1      33.408  22.641   4.388  1.00  0.00    -0.301 NA
BRANCH  43  44
ATOM     44  C   UNL     1      33.697  24.003   4.894  1.00  0.00     0.088 C 
BRANCH  44  45
ATOM     45  C   UNL     1      35.065  24.475   4.370  1.00  0.00     0.003 C 
ATOM     46  C   UNL     1      35.032  25.763   3.557  1.00  0.00     0.005 C 
ATOM     47  C   UNL     1      35.246  24.422   2.863  1.00  0.00     0.005 C 
ENDBRANCH  44  45
ENDBRANCH  43  44
ENDBRANCH  37  38
ENDBRANCH   3  32
TORSDOF 10
ENDMDL
MODEL 12
REMARK VINA RESULT:    -7.563      2.839     13.747
REMARK INTER + INTRA:         -13.559
REMARK INTER:                 -12.489
REMARK INTRA:                  -1.070
REMARK UNBOUND:                -1.575
REMARK SMILES CC[C@@H]1C(=O)N(C)c2cnc(Nc3ccc(C(=O)N[C@H]4CC[C@H](N5CCN(CC6CC6)CC5)CC4)cc3OC)nc2N1C(C)C
REMARK SMILES IDX 17 1 18 2 19 3 16 5 13 6 14 7 37 8 15 9 36 10 12 11 11 13
REMARK SMILES IDX 3 14 42 15 4 16 41 17 6 18 5 19 40 20 8 21 7 22 9 23 10 24
REMARK SMILES IDX 2 25 1 26 43 27 44 28 45 29 38 30 39 31 20 32 35 33 21 34
REMARK SMILES IDX 34 35 22 36 23 37 24 38 25 39 33 40 26 41 32 42 27 43 28 44
REMARK SMILES IDX 29 45 30 46 31 47
REMARK H PARENT 19 4 12 12
REMARK Flexibility Score: inf
ROOT
ATOM      1  C   UNL     1      24.973  20.592  11.269  1.00  0.00     0.251 C 
ATOM      2  O   UNL     1      24.890  19.335  11.332  1.00  0.00    -0.269 OA
ATOM      3  N   UNL     1      24.168  21.415  12.130  1.00  0.00    -0.349 N 
ATOM      4  H   UNL     1      24.255  22.454  12.032  1.00  0.00     0.164 HD
ENDROOT
BRANCH   1   5
ATOM      5  C   UNL     1      25.930  21.212  10.329  1.00  0.00     0.043 A 
ATOM      6  C   UNL     1      27.721  22.347   8.472  1.00  0.00     0.084 A 
ATOM      7  C   UNL     1      26.416  22.854   8.614  1.00  0.00     0.031 A 
ATOM      8  C   UNL     1      28.134  21.267   9.277  1.00  0.00     0.143 A 
ATOM      9  C   UNL     1      25.537  22.304   9.548  1.00  0.00     0.016 A 
ATOM     10  C   UNL     1      27.230  20.702  10.196  1.00  0.00     0.062 A 
BRANCH   6  11
ATOM     11  N   UNL     1      28.604  22.853   7.456  1.00  0.00    -0.321 N 
ATOM     12  H   UNL     1      28.940  22.193   6.717  1.00  0.00     0.170 HD
BRANCH  11  13
ATOM     13  C   UNL     1      29.102  24.197   7.400  1.00  0.00     0.229 A 
ATOM     14  C   UNL     1      29.098  28.577   9.408  1.00  0.00     0.173 C 
ATOM     15  N   UNL     1      29.257  27.126   9.632  1.00  0.00    -0.340 N 
ATOM     16  C   UNL     1      30.129  29.037   8.410  1.00  0.00     0.249 C 
ATOM     17  C   UNL     1      29.403  26.289   8.468  1.00  0.00     0.159 A 
ATOM     18  N   UNL     1      30.507  28.169   7.319  1.00  0.00    -0.309 N 
ATOM     19  O   UNL     1      30.610  30.198   8.509  1.00  0.00    -0.272 OA
ATOM     20  N   UNL     1      28.966  25.002   8.486  1.00  0.00    -0.193 NA
ATOM     21  C   UNL     1      30.008  26.811   7.313  1.00  0.00     0.105 A 
ATOM     22  C   UNL     1      31.354  28.663   6.226  1.00  0.00     0.153 C 
ATOM     23  C   UNL     1      30.112  25.969   6.193  1.00  0.00     0.145 A 
ATOM     24  N   UNL     1      29.659  24.690   6.261  1.00  0.00    -0.219 NA
BRANCH  14  25
ATOM     25  C   UNL     1      27.695  28.908   8.858  1.00  0.00     0.032 C 
ATOM     26  C   UNL     1      26.634  29.019   9.948  1.00  0.00     0.006 C 
ENDBRANCH  14  25
BRANCH  15  27
ATOM     27  C   UNL     1      29.656  26.583  10.950  1.00  0.00     0.078 C 
ATOM     28  C   UNL     1      30.476  27.614  11.735  1.00  0.00     0.031 C 
ATOM     29  C   UNL     1      28.452  26.094  11.762  1.00  0.00     0.031 C 
ENDBRANCH  15  27
ENDBRANCH  11  13
ENDBRANCH   6  11
BRANCH   8  30
ATOM     30  O   UNL     1      29.446  20.784   9.138  1.00  0.00    -0.495 OA
ATOM     31  C   UNL     1      30.498  21.027  10.068  1.00  0.00     0.278 C 
ENDBRANCH   8  30
ENDBRANCH   1   5
BRANCH   3  32
ATOM     32  C   UNL     1      23.254  20.872  13.143  1.00  0.00     0.082 C 
ATOM     33  C   UNL     1      22.160  20.018  12.471  1.00  0.00     0.026 C 
ATOM     34  C   UNL     1      24.050  20.029  14.163  1.00  0.00     0.026 C 
ATOM     35  C   UNL     1      21.242  19.358  13.508  1.00  0.00     0.021 C 
ATOM     36  C   UNL     1      23.129  19.353  15.187  1.00  0.00     0.021 C 
ATOM     37  C   UNL     1      22.073  18.482  14.476  1.00  0.00     0.057 C 
BRANCH  37  38
ATOM     38  N   UNL     1      21.261  17.729  15.465  1.00  0.00    -0.298 NA
ATOM     39  C   UNL     1      20.030  17.161  14.869  1.00  0.00     0.100 C 
ATOM     40  C   UNL     1      20.967  18.442  16.721  1.00  0.00     0.100 C 
ATOM     41  C   UNL     1      19.057  16.629  15.948  1.00  0.00     0.100 C 
ATOM     42  C   UNL     1      20.465  17.435  17.781  1.00  0.00     0.100 C 
ATOM     43  N   UNL     1      19.761  16.266  17.193  1.00  0.00    -0.301 NA
BRANCH  43  44
ATOM     44  C   UNL     1      20.649  15.096  17.000  1.00  0.00     0.088 C 
BRANCH  44  45
ATOM     45  C   UNL     1      21.072  14.530  18.367  1.00  0.00     0.003 C 
ATOM     46  C   UNL     1      20.939  13.019  18.507  1.00  0.00     0.005 C 
ATOM     47  C   UNL     1      19.952  13.944  19.211  1.00  0.00     0.005 C 
ENDBRANCH  44  45
ENDBRANCH  43  44
ENDBRANCH  37  38
ENDBRANCH   3  32
TORSDOF 10
ENDMDL
MODEL 13
REMARK VINA RESULT:    -7.527      3.120     14.349
REMARK INTER + INTRA:         -13.503
REMARK INTER:                 -11.969
REMARK INTRA:                  -1.534
REMARK UNBOUND:                -1.575
REMARK SMILES CC[C@@H]1C(=O)N(C)c2cnc(Nc3ccc(C(=O)N[C@H]4CC[C@H](N5CCN(CC6CC6)CC5)CC4)cc3OC)nc2N1C(C)C
REMARK SMILES IDX 17 1 18 2 19 3 16 5 13 6 14 7 37 8 15 9 36 10 12 11 11 13
REMARK SMILES IDX 3 14 42 15 4 16 41 17 6 18 5 19 40 20 8 21 7 22 9 23 10 24
REMARK SMILES IDX 2 25 1 26 43 27 44 28 45 29 38 30 39 31 20 32 35 33 21 34
REMARK SMILES IDX 34 35 22 36 23 37 24 38 25 39 33 40 26 41 32 42 27 43 28 44
REMARK SMILES IDX 29 45 30 46 31 47
REMARK H PARENT 19 4 12 12
REMARK Flexibility Score: inf
ROOT
ATOM      1  C   UNL     1      30.917  24.071   6.694  1.00  0.00     0.251 C 
ATOM      2  O   UNL     1      31.112  22.842   6.491  1.00  0.00    -0.269 OA
ATOM      3  N   UNL     1      29.774  24.508   7.450  1.00  0.00    -0.349 N 
ATOM      4  H   UNL     1      29.640  25.538   7.579  1.00  0.00     0.164 HD
ENDROOT
BRANCH   1   5
ATOM      5  C   UNL     1      31.891  25.058   6.181  1.00  0.00     0.043 A 
ATOM      6  C   UNL     1      33.701  26.944   5.129  1.00  0.00     0.084 A 
ATOM      7  C   UNL     1      32.508  27.361   5.747  1.00  0.00     0.031 A 
ATOM      8  C   UNL     1      33.994  25.568   5.048  1.00  0.00     0.143 A 
ATOM      9  C   UNL     1      31.622  26.426   6.286  1.00  0.00     0.016 A 
ATOM     10  C   UNL     1      33.080  24.634   5.570  1.00  0.00     0.062 A 
BRANCH   6  11
ATOM     11  N   UNL     1      34.578  27.894   4.500  1.00  0.00    -0.321 N 
ATOM     12  H   UNL     1      35.226  27.552   3.753  1.00  0.00     0.170 HD
BRANCH  11  13
ATOM     13  C   UNL     1      34.668  29.282   4.850  1.00  0.00     0.229 A 
ATOM     14  C   UNL     1      35.304  32.512   8.369  1.00  0.00     0.173 C 
ATOM     15  N   UNL     1      35.813  31.284   7.725  1.00  0.00    -0.340 N 
ATOM     16  C   UNL     1      35.276  33.625   7.354  1.00  0.00     0.249 C 
ATOM     17  C   UNL     1      35.262  30.933   6.441  1.00  0.00     0.159 A 
ATOM     18  N   UNL     1      34.943  33.333   5.979  1.00  0.00    -0.309 N 
ATOM     19  O   UNL     1      35.490  34.809   7.730  1.00  0.00    -0.272 OA
ATOM     20  N   UNL     1      35.179  29.631   6.059  1.00  0.00    -0.193 NA
ATOM     21  C   UNL     1      34.813  31.948   5.581  1.00  0.00     0.105 A 
ATOM     22  C   UNL     1      34.714  34.417   5.016  1.00  0.00     0.153 C 
ATOM     23  C   UNL     1      34.263  31.562   4.347  1.00  0.00     0.145 A 
ATOM     24  N   UNL     1      34.201  30.247   4.012  1.00  0.00    -0.219 NA
BRANCH  14  25
ATOM     25  C   UNL     1      33.876  32.305   8.917  1.00  0.00     0.032 C 
ATOM     26  C   UNL     1      33.775  32.518  10.423  1.00  0.00     0.006 C 
ENDBRANCH  14  25
BRANCH  15  27
ATOM     27  C   UNL     1      37.090  30.661   8.142  1.00  0.00     0.078 C 
ATOM     28  C   UNL     1      38.209  31.707   8.202  1.00  0.00     0.031 C 
ATOM     29  C   UNL     1      36.958  29.908   9.471  1.00  0.00     0.031 C 
ENDBRANCH  15  27
ENDBRANCH  11  13
ENDBRANCH   6  11
BRANCH   8  30
ATOM     30  O   UNL     1      35.198  25.167   4.446  1.00  0.00    -0.495 OA
ATOM     31  C   UNL     1      35.294  24.555   3.162  1.00  0.00     0.278 C 
ENDBRANCH   8  30
ENDBRANCH   1   5
BRANCH   3  32
ATOM     32  C   UNL     1      28.808  23.585   8.058  1.00  0.00     0.082 C 
ATOM     33  C   UNL     1      29.236  23.237   9.498  1.00  0.00     0.026 C 
ATOM     34  C   UNL     1      27.403  24.227   8.051  1.00  0.00     0.026 C 
ATOM     35  C   UNL     1      28.199  22.348  10.197  1.00  0.00     0.021 C 
ATOM     36  C   UNL     1      26.370  23.346   8.768  1.00  0.00     0.021 C 
ATOM     37  C   UNL     1      26.819  23.050  10.214  1.00  0.00     0.057 C 
BRANCH  37  38
ATOM     38  N   UNL     1      25.766  22.306  10.949  1.00  0.00    -0.298 NA
ATOM     39  C   UNL     1      25.933  20.839  10.841  1.00  0.00     0.100 C 
ATOM     40  C   UNL     1      24.380  22.709  10.654  1.00  0.00     0.100 C 
ATOM     41  C   UNL     1      24.690  20.075  11.359  1.00  0.00     0.100 C 
ATOM     42  C   UNL     1      23.435  22.143  11.738  1.00  0.00     0.100 C 
ATOM     43  N   UNL     1      23.923  20.872  12.336  1.00  0.00    -0.301 NA
BRANCH  43  44
ATOM     44  C   UNL     1      24.682  21.079  13.592  1.00  0.00     0.088 C 
BRANCH  44  45
ATOM     45  C   UNL     1      24.238  20.050  14.646  1.00  0.00     0.003 C 
ATOM     46  C   UNL     1      22.797  19.573  14.513  1.00  0.00     0.005 C 
ATOM     47  C   UNL     1      23.188  20.531  15.634  1.00  0.00     0.005 C 
ENDBRANCH  44  45
ENDBRANCH  43  44
ENDBRANCH  37  38
ENDBRANCH   3  32
TORSDOF 10
ENDMDL
MODEL 14
REMARK VINA RESULT:    -7.455      3.032     14.343
REMARK INTER + INTRA:         -13.389
REMARK INTER:                 -12.627
REMARK INTRA:                  -0.762
REMARK UNBOUND:                -1.575
REMARK SMILES CC[C@@H]1C(=O)N(C)c2cnc(Nc3ccc(C(=O)N[C@H]4CC[C@H](N5CCN(CC6CC6)CC5)CC4)cc3OC)nc2N1C(C)C
REMARK SMILES IDX 17 1 18 2 19 3 16 5 13 6 14 7 37 8 15 9 36 10 12 11 11 13
REMARK SMILES IDX 3 14 42 15 4 16 41 17 6 18 5 19 40 20 8 21 7 22 9 23 10 24
REMARK SMILES IDX 2 25 1 26 43 27 44 28 45 29 38 30 39 31 20 32 35 33 21 34
REMARK SMILES IDX 34 35 22 36 23 37 24 38 25 39 33 40 26 41 32 42 27 43 28 44
REMARK SMILES IDX 29 45 30 46 31 47
REMARK H PARENT 19 4 12 12
REMARK Flexibility Score: inf
ROOT
ATOM      1  C   UNL     1      24.827  22.191  11.679  1.00  0.00     0.251 C 
ATOM      2  O   UNL     1      25.451  22.382  12.758  1.00  0.00    -0.269 OA
ATOM      3  N   UNL     1      23.593  21.454  11.676  1.00  0.00    -0.349 N 
ATOM      4  H   UNL     1      23.117  21.303  10.756  1.00  0.00     0.164 HD
ENDROOT
BRANCH   1   5
ATOM      5  C   UNL     1      25.355  22.763  10.422  1.00  0.00     0.043 A 
ATOM      6  C   UNL     1      26.439  23.861   8.063  1.00  0.00     0.084 A 
ATOM      7  C   UNL     1      26.577  22.489   8.347  1.00  0.00     0.031 A 
ATOM      8  C   UNL     1      25.741  24.687   8.966  1.00  0.00     0.143 A 
ATOM      9  C   UNL     1      26.022  21.944   9.506  1.00  0.00     0.016 A 
ATOM     10  C   UNL     1      25.209  24.130  10.145  1.00  0.00     0.062 A 
BRANCH   6  11
ATOM     11  N   UNL     1      27.077  24.445   6.915  1.00  0.00    -0.321 N 
ATOM     12  H   UNL     1      26.534  25.130   6.340  1.00  0.00     0.170 HD
BRANCH  11  13
ATOM     13  C   UNL     1      28.401  24.127   6.464  1.00  0.00     0.229 A 
ATOM     14  C   UNL     1      33.039  25.431   6.357  1.00  0.00     0.173 C 
ATOM     15  N   UNL     1      31.848  25.202   7.201  1.00  0.00    -0.340 N 
ATOM     16  C   UNL     1      33.382  24.153   5.635  1.00  0.00     0.249 C 
ATOM     17  C   UNL     1      30.733  24.516   6.601  1.00  0.00     0.159 A 
ATOM     18  N   UNL     1      32.324  23.280   5.181  1.00  0.00    -0.309 N 
ATOM     19  O   UNL     1      34.590  23.889   5.387  1.00  0.00    -0.272 OA
ATOM     20  N   UNL     1      29.463  24.770   7.014  1.00  0.00    -0.193 NA
ATOM     21  C   UNL     1      30.967  23.574   5.585  1.00  0.00     0.105 A 
ATOM     22  C   UNL     1      32.618  22.138   4.307  1.00  0.00     0.153 C 
ATOM     23  C   UNL     1      29.851  22.941   5.012  1.00  0.00     0.145 A 
ATOM     24  N   UNL     1      28.601  23.231   5.459  1.00  0.00    -0.219 NA
BRANCH  14  25
ATOM     25  C   UNL     1      32.779  26.536   5.312  1.00  0.00     0.032 C 
ATOM     26  C   UNL     1      32.640  27.923   5.928  1.00  0.00     0.006 C 
ENDBRANCH  14  25
BRANCH  15  27
ATOM     27  C   UNL     1      31.915  25.288   8.677  1.00  0.00     0.078 C 
ATOM     28  C   UNL     1      31.433  26.661   9.162  1.00  0.00     0.031 C 
ATOM     29  C   UNL     1      31.139  24.154   9.358  1.00  0.00     0.031 C 
ENDBRANCH  15  27
ENDBRANCH  11  13
ENDBRANCH   6  11
BRANCH   8  30
ATOM     30  O   UNL     1      25.593  26.050   8.660  1.00  0.00    -0.495 OA
ATOM     31  C   UNL     1      24.552  26.882   9.165  1.00  0.00     0.278 C 
ENDBRANCH   8  30
ENDBRANCH   1   5
BRANCH   3  32
ATOM     32  C   UNL     1      22.966  20.924  12.894  1.00  0.00     0.082 C 
ATOM     33  C   UNL     1      21.599  20.295  12.559  1.00  0.00     0.026 C 
ATOM     34  C   UNL     1      23.898  19.879  13.545  1.00  0.00     0.026 C 
ATOM     35  C   UNL     1      20.957  19.647  13.793  1.00  0.00     0.021 C 
ATOM     36  C   UNL     1      23.248  19.218  14.767  1.00  0.00     0.021 C 
ATOM     37  C   UNL     1      21.901  18.571  14.383  1.00  0.00     0.057 C 
BRANCH  37  38
ATOM     38  N   UNL     1      21.331  17.823  15.531  1.00  0.00    -0.298 NA
ATOM     39  C   UNL     1      20.281  16.866  15.114  1.00  0.00     0.100 C 
ATOM     40  C   UNL     1      20.882  18.647  16.667  1.00  0.00     0.100 C 
ATOM     41  C   UNL     1      19.497  16.303  16.325  1.00  0.00     0.100 C 
ATOM     42  C   UNL     1      20.678  17.750  17.908  1.00  0.00     0.100 C 
ATOM     43  N   UNL     1      20.293  16.355  17.566  1.00  0.00    -0.301 NA
BRANCH  43  44
ATOM     44  C   UNL     1      21.452  15.433  17.515  1.00  0.00     0.088 C 
BRANCH  44  45
ATOM     45  C   UNL     1      20.962  13.991  17.291  1.00  0.00     0.003 C 
ATOM     46  C   UNL     1      20.387  13.308  18.524  1.00  0.00     0.005 C 
ATOM     47  C   UNL     1      21.761  12.909  17.997  1.00  0.00     0.005 C 
ENDBRANCH  44  45
ENDBRANCH  43  44
ENDBRANCH  37  38
ENDBRANCH   3  32
TORSDOF 10
ENDMDL
MODEL 15
REMARK VINA RESULT:    -7.357      6.427      8.286
REMARK INTER + INTRA:         -13.234
REMARK INTER:                 -11.499
REMARK INTRA:                  -1.734
REMARK UNBOUND:                -1.575
REMARK SMILES CC[C@@H]1C(=O)N(C)c2cnc(Nc3ccc(C(=O)N[C@H]4CC[C@H](N5CCN(CC6CC6)CC5)CC4)cc3OC)nc2N1C(C)C
REMARK SMILES IDX 17 1 18 2 19 3 16 5 13 6 14 7 37 8 15 9 36 10 12 11 11 13
REMARK SMILES IDX 3 14 42 15 4 16 41 17 6 18 5 19 40 20 8 21 7 22 9 23 10 24
REMARK SMILES IDX 2 25 1 26 43 27 44 28 45 29 38 30 39 31 20 32 35 33 21 34
REMARK SMILES IDX 34 35 22 36 23 37 24 38 25 39 33 40 26 41 32 42 27 43 28 44
REMARK SMILES IDX 29 45 30 46 31 47
REMARK H PARENT 19 4 12 12
REMARK Flexibility Score: inf
ROOT
ATOM      1  C   UNL     1      25.978  25.832   9.625  1.00  0.00     0.251 C 
ATOM      2  O   UNL     1      25.873  24.681  10.130  1.00  0.00    -0.269 OA
ATOM      3  N   UNL     1      27.038  26.123   8.699  1.00  0.00    -0.349 N 
ATOM      4  H   UNL     1      27.100  27.096   8.318  1.00  0.00     0.164 HD
ENDROOT
BRANCH   1   5
ATOM      5  C   UNL     1      24.982  26.870   9.966  1.00  0.00     0.043 A 
ATOM      6  C   UNL     1      23.085  28.876  10.532  1.00  0.00     0.084 A 
ATOM      7  C   UNL     1      22.686  27.645   9.978  1.00  0.00     0.031 A 
ATOM      8  C   UNL     1      24.447  29.098  10.814  1.00  0.00     0.143 A 
ATOM      9  C   UNL     1      23.624  26.646   9.717  1.00  0.00     0.016 A 
ATOM     10  C   UNL     1      25.388  28.093  10.521  1.00  0.00     0.062 A 
BRANCH   6  11
ATOM     11  N   UNL     1      22.137  29.940  10.727  1.00  0.00    -0.321 N 
ATOM     12  H   UNL     1      22.053  30.671   9.983  1.00  0.00     0.170 HD
BRANCH  11  13
ATOM     13  C   UNL     1      21.321  30.105  11.894  1.00  0.00     0.229 A 
ATOM     14  C   UNL     1      19.588  28.087  15.912  1.00  0.00     0.173 C 
ATOM     15  N   UNL     1      20.790  28.365  15.100  1.00  0.00    -0.340 N 
ATOM     16  C   UNL     1      18.935  29.391  16.287  1.00  0.00     0.249 C 
ATOM     17  C   UNL     1      20.657  29.318  14.027  1.00  0.00     0.159 A 
ATOM     18  N   UNL     1      18.942  30.492  15.351  1.00  0.00    -0.309 N 
ATOM     19  O   UNL     1      18.340  29.489  17.395  1.00  0.00    -0.272 OA
ATOM     20  N   UNL     1      21.428  29.212  12.912  1.00  0.00    -0.193 NA
ATOM     21  C   UNL     1      19.727  30.364  14.143  1.00  0.00     0.105 A 
ATOM     22  C   UNL     1      18.146  31.699  15.606  1.00  0.00     0.153 C 
ATOM     23  C   UNL     1      19.614  31.259  13.066  1.00  0.00     0.145 A 
ATOM     24  N   UNL     1      20.407  31.110  11.972  1.00  0.00    -0.219 NA
BRANCH  14  25
ATOM     25  C   UNL     1      18.571  27.230  15.130  1.00  0.00     0.032 C 
ATOM     26  C   UNL     1      18.109  25.997  15.899  1.00  0.00     0.006 C 
ENDBRANCH  14  25
BRANCH  15  27
ATOM     27  C   UNL     1      22.148  28.024  15.580  1.00  0.00     0.078 C 
ATOM     28  C   UNL     1      22.206  28.058  17.112  1.00  0.00     0.031 C 
ATOM     29  C   UNL     1      22.632  26.676  15.035  1.00  0.00     0.031 C 
ENDBRANCH  15  27
ENDBRANCH  11  13
ENDBRANCH   6  11
BRANCH   8  30
ATOM     30  O   UNL     1      24.828  30.324  11.386  1.00  0.00    -0.495 OA
ATOM     31  C   UNL     1      25.103  30.517  12.770  1.00  0.00     0.278 C 
ENDBRANCH   8  30
ENDBRANCH   1   5
BRANCH   3  32
ATOM     32  C   UNL     1      28.017  25.124   8.252  1.00  0.00     0.082 C 
ATOM     33  C   UNL     1      27.483  24.369   7.018  1.00  0.00     0.026 C 
ATOM     34  C   UNL     1      29.356  25.819   7.924  1.00  0.00     0.026 C 
ATOM     35  C   UNL     1      28.519  23.381   6.466  1.00  0.00     0.021 C 
ATOM     36  C   UNL     1      30.386  24.834   7.354  1.00  0.00     0.021 C 
ATOM     37  C   UNL     1      29.826  24.126   6.103  1.00  0.00     0.057 C 
BRANCH  37  38
ATOM     38  N   UNL     1      30.863  23.268   5.476  1.00  0.00    -0.298 NA
ATOM     39  C   UNL     1      30.373  22.593   4.253  1.00  0.00     0.100 C 
ATOM     40  C   UNL     1      31.531  22.316   6.381  1.00  0.00     0.100 C 
ATOM     41  C   UNL     1      31.346  21.492   3.770  1.00  0.00     0.100 C 
ATOM     42  C   UNL     1      32.814  21.778   5.709  1.00  0.00     0.100 C 
ATOM     43  N   UNL     1      32.728  21.742   4.225  1.00  0.00    -0.301 NA
BRANCH  43  44
ATOM     44  C   UNL     1      33.308  22.945   3.584  1.00  0.00     0.088 C 
BRANCH  44  45
ATOM     45  C   UNL     1      34.412  23.533   4.482  1.00  0.00     0.003 C 
ATOM     46  C   UNL     1      34.164  24.960   4.954  1.00  0.00     0.005 C 
ATOM     47  C   UNL     1      35.209  24.678   3.879  1.00  0.00     0.005 C 
ENDBRANCH  44  45
ENDBRANCH  43  44
ENDBRANCH  37  38
ENDBRANCH   3  32
TORSDOF 10
ENDMDL
