MODEL 1
REMARK VINA RESULT:    -8.842      0.000      0.000
REMARK INTER + INTRA:         -16.465
REMARK INTER:                 -14.529
REMARK INTRA:                  -1.937
REMARK UNBOUND:                -1.937
REMARK SMILES COc1cc(Nc2ncc(F)c(Nc3ccc4c(n3)N(COP(=O)(O)O)C(=O)C(C)(C)O4)n2)cc(OC)c1OC
REMARK SMILES IDX 14 1 19 2 18 3 17 4 32 5 29 6 30 7 31 8 27 9 28 10 20 11
REMARK SMILES IDX 16 12 15 13 13 14 12 16 7 17 8 18 33 19 9 20 10 21 11 22
REMARK SMILES IDX 6 23 5 25 3 26 4 27 38 28 35 29 34 30 2 31 1 32 39 33 40 34
REMARK SMILES IDX 36 35 37 36 21 37 22 38 23 39 24 40 25 41 26 43
REMARK H PARENT 13 15 6 24 25 42 26 44
REMARK Flexibility Score: inf
ROOT
ATOM      1  C   UNL     1      15.159  10.955  18.561  1.00  0.00     0.134 A 
ATOM      2  N   UNL     1      14.574  11.008  19.789  1.00  0.00    -0.209 NA
ATOM      3  C   UNL     1      14.684  12.097  20.601  1.00  0.00     0.182 A 
ATOM      4  C   UNL     1      15.430  13.201  20.177  1.00  0.00     0.164 A 
ATOM      5  O   UNL     1      15.540  14.329  20.993  1.00  0.00    -0.474 OA
ATOM      6  C   UNL     1      14.623  14.618  22.056  1.00  0.00     0.182 C 
ATOM      7  C   UNL     1      15.374  15.432  23.119  1.00  0.00     0.067 C 
ATOM      8  C   UNL     1      13.464  15.446  21.485  1.00  0.00     0.067 C 
ATOM      9  C   UNL     1      14.066  13.340  22.661  1.00  0.00     0.273 C 
ATOM     10  O   UNL     1      13.521  13.379  23.799  1.00  0.00    -0.270 OA
ATOM     11  N   UNL     1      14.073  12.112  21.904  1.00  0.00    -0.265 N 
ATOM     12  C   UNL     1      16.076  13.160  18.940  1.00  0.00     0.054 A 
ATOM     13  C   UNL     1      15.944  12.036  18.124  1.00  0.00     0.051 A 
ENDROOT
BRANCH   1  14
ATOM     14  N   UNL     1      15.013   9.768  17.769  1.00  0.00    -0.322 N 
ATOM     15  H   UNL     1      15.826   9.114  17.719  1.00  0.00     0.170 HD
BRANCH  14  16
ATOM     16  C   UNL     1      13.839   9.435  17.012  1.00  0.00     0.173 A 
ATOM     17  C   UNL     1      12.365   9.972  15.231  1.00  0.00     0.229 A 
ATOM     18  N   UNL     1      11.670   8.822  15.447  1.00  0.00    -0.218 NA
ATOM     19  N   UNL     1      13.450  10.256  16.001  1.00  0.00    -0.192 NA
ATOM     20  C   UNL     1      12.028   7.961  16.433  1.00  0.00     0.158 A 
ATOM     21  C   UNL     1      13.129   8.244  17.239  1.00  0.00     0.184 A 
ATOM     22  F   UNL     1      13.523   7.349  18.179  1.00  0.00    -0.201 F 
BRANCH  17  23
ATOM     23  N   UNL     1      12.004  10.861  14.163  1.00  0.00    -0.324 N 
ATOM     24  H   UNL     1      12.301  10.596  13.197  1.00  0.00     0.170 HD
BRANCH  23  25
ATOM     25  C   UNL     1      11.148  12.008  14.316  1.00  0.00     0.049 A 
ATOM     26  C   UNL     1       9.681  13.346  15.727  1.00  0.00     0.166 A 
ATOM     27  C   UNL     1      10.528  12.239  15.547  1.00  0.00     0.076 A 
ATOM     28  C   UNL     1       9.438  14.227  14.660  1.00  0.00     0.203 A 
ATOM     29  C   UNL     1      10.039  13.984  13.398  1.00  0.00     0.166 A 
ATOM     30  C   UNL     1      10.878  12.864  13.240  1.00  0.00     0.076 A 
BRANCH  26  31
ATOM     31  O   UNL     1       9.061  13.611  16.959  1.00  0.00    -0.493 OA
ATOM     32  C   UNL     1       8.734  12.623  17.931  1.00  0.00     0.278 C 
ENDBRANCH  26  31
BRANCH  28  33
ATOM     33  O   UNL     1       8.589  15.318  14.924  1.00  0.00    -0.490 OA
ATOM     34  C   UNL     1       7.182  15.369  14.716  1.00  0.00     0.278 C 
ENDBRANCH  28  33
BRANCH  29  35
ATOM     35  O   UNL     1       9.787  14.852  12.323  1.00  0.00    -0.493 OA
ATOM     36  C   UNL     1       8.729  14.703  11.382  1.00  0.00     0.278 C 
ENDBRANCH  29  35
ENDBRANCH  23  25
ENDBRANCH  17  23
ENDBRANCH  14  16
ENDBRANCH   1  14
BRANCH  11  37
ATOM     37  C   UNL     1      13.365  10.925  22.400  1.00  0.00     0.303 C 
BRANCH  37  38
ATOM     38  O   UNL     1      14.308  10.005  22.898  1.00  0.00    -0.265 OA
BRANCH  38  39
ATOM     39  P   UNL     1      13.864   8.438  22.390  1.00  0.00     0.471 P 
ATOM     40  O   UNL     1      15.107   7.599  22.181  1.00  0.00    -0.228 OA
BRANCH  39  41
ATOM     41  O   UNL     1      12.961   8.503  20.955  1.00  0.00    -0.303 OA
ATOM     42  H   UNL     1      13.169   9.387  20.557  1.00  0.00     0.223 HD
ENDBRANCH  39  41
BRANCH  39  43
ATOM     43  O   UNL     1      12.917   7.727  23.599  1.00  0.00    -0.303 OA
ATOM     44  H   UNL     1      12.375   7.045  23.124  1.00  0.00     0.223 HD
ENDBRANCH  39  43
ENDBRANCH  38  39
ENDBRANCH  37  38
ENDBRANCH  11  37
TORSDOF 12
ENDMDL
MODEL 2
REMARK VINA RESULT:    -8.819      0.179      2.046
REMARK INTER + INTRA:         -16.427
REMARK INTER:                 -14.537
REMARK INTRA:                  -1.889
REMARK UNBOUND:                -1.937
REMARK SMILES COc1cc(Nc2ncc(F)c(Nc3ccc4c(n3)N(COP(=O)(O)O)C(=O)C(C)(C)O4)n2)cc(OC)c1OC
REMARK SMILES IDX 14 1 19 2 18 3 17 4 32 5 29 6 30 7 31 8 27 9 28 10 20 11
REMARK SMILES IDX 16 12 15 13 13 14 12 16 7 17 8 18 33 19 9 20 10 21 11 22
REMARK SMILES IDX 6 23 5 25 3 26 4 27 38 28 35 29 34 30 2 31 1 32 39 33 40 34
REMARK SMILES IDX 36 35 37 36 21 37 22 38 23 39 24 40 25 41 26 43
REMARK H PARENT 13 15 6 24 25 42 26 44
REMARK Flexibility Score: inf
ROOT
ATOM      1  C   UNL     1      15.202  10.970  18.604  1.00  0.00     0.134 A 
ATOM      2  N   UNL     1      14.605  11.024  19.826  1.00  0.00    -0.209 NA
ATOM      3  C   UNL     1      14.709  12.114  20.639  1.00  0.00     0.182 A 
ATOM      4  C   UNL     1      15.460  13.217  20.221  1.00  0.00     0.164 A 
ATOM      5  O   UNL     1      15.563  14.345  21.038  1.00  0.00    -0.474 OA
ATOM      6  C   UNL     1      14.637  14.635  22.092  1.00  0.00     0.182 C 
ATOM      7  C   UNL     1      15.379  15.449  23.162  1.00  0.00     0.067 C 
ATOM      8  C   UNL     1      13.484  15.465  21.510  1.00  0.00     0.067 C 
ATOM      9  C   UNL     1      14.073  13.359  22.692  1.00  0.00     0.273 C 
ATOM     10  O   UNL     1      13.518  13.398  23.825  1.00  0.00    -0.270 OA
ATOM     11  N   UNL     1      14.086  12.130  21.936  1.00  0.00    -0.265 N 
ATOM     12  C   UNL     1      16.118  13.175  18.990  1.00  0.00     0.054 A 
ATOM     13  C   UNL     1      15.992  12.051  18.174  1.00  0.00     0.051 A 
ENDROOT
BRANCH   1  14
ATOM     14  N   UNL     1      15.062   9.783  17.810  1.00  0.00    -0.322 N 
ATOM     15  H   UNL     1      15.880   9.135  17.757  1.00  0.00     0.170 HD
BRANCH  14  16
ATOM     16  C   UNL     1      13.888   9.441  17.058  1.00  0.00     0.173 A 
ATOM     17  C   UNL     1      12.427   9.947  15.256  1.00  0.00     0.229 A 
ATOM     18  N   UNL     1      11.720   8.809  15.500  1.00  0.00    -0.218 NA
ATOM     19  N   UNL     1      13.512  10.240  16.024  1.00  0.00    -0.192 NA
ATOM     20  C   UNL     1      12.065   7.971  16.510  1.00  0.00     0.158 A 
ATOM     21  C   UNL     1      13.166   8.264  17.312  1.00  0.00     0.184 A 
ATOM     22  F   UNL     1      13.546   7.391  18.278  1.00  0.00    -0.201 F 
BRANCH  17  23
ATOM     23  N   UNL     1      12.080  10.811  14.164  1.00  0.00    -0.324 N 
ATOM     24  H   UNL     1      12.401  10.531  13.210  1.00  0.00     0.170 HD
BRANCH  23  25
ATOM     25  C   UNL     1      11.208  11.950  14.276  1.00  0.00     0.049 A 
ATOM     26  C   UNL     1      10.169  13.896  13.243  1.00  0.00     0.166 A 
ATOM     27  C   UNL     1      11.009  12.772  13.165  1.00  0.00     0.076 A 
ATOM     28  C   UNL     1       9.529  14.212  14.453  1.00  0.00     0.203 A 
ATOM     29  C   UNL     1       9.749  13.401  15.597  1.00  0.00     0.166 A 
ATOM     30  C   UNL     1      10.601  12.284  15.494  1.00  0.00     0.076 A 
BRANCH  26  31
ATOM     31  O   UNL     1       9.938  14.727  12.135  1.00  0.00    -0.493 OA
ATOM     32  C   UNL     1       9.158  14.367  11.000  1.00  0.00     0.278 C 
ENDBRANCH  26  31
BRANCH  28  33
ATOM     33  O   UNL     1       8.695  15.346  14.448  1.00  0.00    -0.490 OA
ATOM     34  C   UNL     1       7.276  15.356  14.335  1.00  0.00     0.278 C 
ENDBRANCH  28  33
BRANCH  29  35
ATOM     35  O   UNL     1       9.125  13.721  16.814  1.00  0.00    -0.493 OA
ATOM     36  C   UNL     1       8.702  12.774  17.790  1.00  0.00     0.278 C 
ENDBRANCH  29  35
ENDBRANCH  23  25
ENDBRANCH  17  23
ENDBRANCH  14  16
ENDBRANCH   1  14
BRANCH  11  37
ATOM     37  C   UNL     1      13.372  10.944  22.426  1.00  0.00     0.303 C 
BRANCH  37  38
ATOM     38  O   UNL     1      14.312  10.012  22.907  1.00  0.00    -0.265 OA
BRANCH  38  39
ATOM     39  P   UNL     1      13.823   8.448  22.431  1.00  0.00     0.471 P 
ATOM     40  O   UNL     1      15.043   7.580  22.202  1.00  0.00    -0.228 OA
BRANCH  39  41
ATOM     41  O   UNL     1      12.885   8.514  21.019  1.00  0.00    -0.303 OA
ATOM     42  H   UNL     1      13.247   7.800  20.433  1.00  0.00     0.223 HD
ENDBRANCH  39  41
BRANCH  39  43
ATOM     43  O   UNL     1      12.892   7.772  23.673  1.00  0.00    -0.303 OA
ATOM     44  H   UNL     1      12.435   7.000  23.251  1.00  0.00     0.223 HD
ENDBRANCH  39  43
ENDBRANCH  38  39
ENDBRANCH  37  38
ENDBRANCH  11  37
TORSDOF 12
ENDMDL
MODEL 3
REMARK VINA RESULT:    -8.615      2.907      6.593
REMARK INTER + INTRA:         -16.091
REMARK INTER:                 -13.723
REMARK INTRA:                  -2.368
REMARK UNBOUND:                -1.937
REMARK SMILES COc1cc(Nc2ncc(F)c(Nc3ccc4c(n3)N(COP(=O)(O)O)C(=O)C(C)(C)O4)n2)cc(OC)c1OC
REMARK SMILES IDX 14 1 19 2 18 3 17 4 32 5 29 6 30 7 31 8 27 9 28 10 20 11
REMARK SMILES IDX 16 12 15 13 13 14 12 16 7 17 8 18 33 19 9 20 10 21 11 22
REMARK SMILES IDX 6 23 5 25 3 26 4 27 38 28 35 29 34 30 2 31 1 32 39 33 40 34
REMARK SMILES IDX 36 35 37 36 21 37 22 38 23 39 24 40 25 41 26 43
REMARK H PARENT 13 15 6 24 25 42 26 44
REMARK Flexibility Score: inf
ROOT
ATOM      1  C   UNL     1      11.328  10.527  15.864  1.00  0.00     0.134 A 
ATOM      2  N   UNL     1      10.660  11.195  16.845  1.00  0.00    -0.209 NA
ATOM      3  C   UNL     1      10.097  12.419  16.637  1.00  0.00     0.182 A 
ATOM      4  C   UNL     1      10.211  13.027  15.384  1.00  0.00     0.164 A 
ATOM      5  O   UNL     1       9.627  14.275  15.154  1.00  0.00    -0.474 OA
ATOM      6  C   UNL     1       8.576  14.809  15.969  1.00  0.00     0.182 C 
ATOM      7  C   UNL     1       8.670  16.341  15.917  1.00  0.00     0.067 C 
ATOM      8  C   UNL     1       7.231  14.347  15.391  1.00  0.00     0.067 C 
ATOM      9  C   UNL     1       8.691  14.318  17.402  1.00  0.00     0.273 C 
ATOM     10  O   UNL     1       8.076  14.931  18.319  1.00  0.00    -0.270 OA
ATOM     11  N   UNL     1       9.419  13.109  17.703  1.00  0.00    -0.265 N 
ATOM     12  C   UNL     1      10.925  12.385  14.370  1.00  0.00     0.054 A 
ATOM     13  C   UNL     1      11.487  11.131  14.604  1.00  0.00     0.051 A 
ENDROOT
BRANCH   1  14
ATOM     14  N   UNL     1      11.908   9.248  16.160  1.00  0.00    -0.322 N 
ATOM     15  H   UNL     1      11.772   8.481  15.464  1.00  0.00     0.170 HD
BRANCH  14  16
ATOM     16  C   UNL     1      12.632   8.942  17.361  1.00  0.00     0.173 A 
ATOM     17  C   UNL     1      14.053   9.692  19.108  1.00  0.00     0.229 A 
ATOM     18  N   UNL     1      13.964   8.476  19.714  1.00  0.00    -0.218 NA
ATOM     19  N   UNL     1      13.373   9.917  17.951  1.00  0.00    -0.192 NA
ATOM     20  C   UNL     1      13.225   7.475  19.173  1.00  0.00     0.158 A 
ATOM     21  C   UNL     1      12.532   7.686  17.982  1.00  0.00     0.184 A 
ATOM     22  F   UNL     1      11.742   6.705  17.480  1.00  0.00    -0.201 F 
BRANCH  17  23
ATOM     23  N   UNL     1      14.808  10.759  19.704  1.00  0.00    -0.324 N 
ATOM     24  H   UNL     1      15.192  10.597  20.661  1.00  0.00     0.170 HD
BRANCH  23  25
ATOM     25  C   UNL     1      15.183  11.967  19.019  1.00  0.00     0.049 A 
ATOM     26  C   UNL     1      16.886  13.273  17.867  1.00  0.00     0.166 A 
ATOM     27  C   UNL     1      16.486  12.103  18.534  1.00  0.00     0.076 A 
ATOM     28  C   UNL     1      15.977  14.329  17.694  1.00  0.00     0.203 A 
ATOM     29  C   UNL     1      14.659  14.214  18.209  1.00  0.00     0.166 A 
ATOM     30  C   UNL     1      14.285  13.034  18.880  1.00  0.00     0.076 A 
BRANCH  26  31
ATOM     31  O   UNL     1      18.185  13.426  17.355  1.00  0.00    -0.493 OA
ATOM     32  C   UNL     1      19.380  13.238  18.105  1.00  0.00     0.278 C 
ENDBRANCH  26  31
BRANCH  28  33
ATOM     33  O   UNL     1      16.450  15.462  17.004  1.00  0.00    -0.490 OA
ATOM     34  C   UNL     1      16.137  15.835  15.667  1.00  0.00     0.278 C 
ENDBRANCH  28  33
BRANCH  29  35
ATOM     35  O   UNL     1      13.751  15.273  18.053  1.00  0.00    -0.493 OA
ATOM     36  C   UNL     1      12.625  15.263  17.179  1.00  0.00     0.278 C 
ENDBRANCH  29  35
ENDBRANCH  23  25
ENDBRANCH  17  23
ENDBRANCH  14  16
ENDBRANCH   1  14
BRANCH  11  37
ATOM     37  C   UNL     1       9.372  12.525  19.049  1.00  0.00     0.303 C 
BRANCH  37  38
ATOM     38  O   UNL     1       8.294  11.621  19.117  1.00  0.00    -0.265 OA
BRANCH  38  39
ATOM     39  P   UNL     1       8.851  10.156  19.792  1.00  0.00     0.471 P 
ATOM     40  O   UNL     1      10.053  10.424  20.674  1.00  0.00    -0.228 OA
BRANCH  39  41
ATOM     41  O   UNL     1       9.262   9.049  18.573  1.00  0.00    -0.303 OA
ATOM     42  H   UNL     1       8.404   8.635  18.299  1.00  0.00     0.223 HD
ENDBRANCH  39  41
BRANCH  39  43
ATOM     43  O   UNL     1       7.613   9.492  20.736  1.00  0.00    -0.303 OA
ATOM     44  H   UNL     1       8.042   9.290  21.607  1.00  0.00     0.223 HD
ENDBRANCH  39  43
ENDBRANCH  38  39
ENDBRANCH  37  38
ENDBRANCH  11  37
TORSDOF 12
ENDMDL
MODEL 4
REMARK VINA RESULT:    -8.575      2.320      3.418
REMARK INTER + INTRA:         -16.027
REMARK INTER:                 -14.459
REMARK INTRA:                  -1.568
REMARK UNBOUND:                -1.937
REMARK SMILES COc1cc(Nc2ncc(F)c(Nc3ccc4c(n3)N(COP(=O)(O)O)C(=O)C(C)(C)O4)n2)cc(OC)c1OC
REMARK SMILES IDX 14 1 19 2 18 3 17 4 32 5 29 6 30 7 31 8 27 9 28 10 20 11
REMARK SMILES IDX 16 12 15 13 13 14 12 16 7 17 8 18 33 19 9 20 10 21 11 22
REMARK SMILES IDX 6 23 5 25 3 26 4 27 38 28 35 29 34 30 2 31 1 32 39 33 40 34
REMARK SMILES IDX 36 35 37 36 21 37 22 38 23 39 24 40 25 41 26 43
REMARK H PARENT 13 15 6 24 25 42 26 44
REMARK Flexibility Score: inf
ROOT
ATOM      1  C   UNL     1      15.173  10.932  18.429  1.00  0.00     0.134 A 
ATOM      2  N   UNL     1      14.612  10.720  19.651  1.00  0.00    -0.209 NA
ATOM      3  C   UNL     1      14.771  11.594  20.685  1.00  0.00     0.182 A 
ATOM      4  C   UNL     1      15.541  12.746  20.503  1.00  0.00     0.164 A 
ATOM      5  O   UNL     1      15.700  13.656  21.550  1.00  0.00    -0.474 OA
ATOM      6  C   UNL     1      14.812  13.719  22.673  1.00  0.00     0.182 C 
ATOM      7  C   UNL     1      15.608  14.252  23.874  1.00  0.00     0.067 C 
ATOM      8  C   UNL     1      13.667  14.684  22.334  1.00  0.00     0.067 C 
ATOM      9  C   UNL     1      14.229  12.352  22.987  1.00  0.00     0.273 C 
ATOM     10  O   UNL     1      13.707  12.145  24.119  1.00  0.00    -0.270 OA
ATOM     11  N   UNL     1      14.185  11.327  21.972  1.00  0.00    -0.265 N 
ATOM     12  C   UNL     1      16.162  12.971  19.272  1.00  0.00     0.054 A 
ATOM     13  C   UNL     1      15.980  12.065  18.228  1.00  0.00     0.051 A 
ENDROOT
BRANCH   1  14
ATOM     14  N   UNL     1      14.976   9.960  17.392  1.00  0.00    -0.322 N 
ATOM     15  H   UNL     1      15.806   9.407  17.081  1.00  0.00     0.170 HD
BRANCH  14  16
ATOM     16  C   UNL     1      13.725   9.719  16.729  1.00  0.00     0.173 A 
ATOM     17  C   UNL     1      12.091  10.454  15.173  1.00  0.00     0.229 A 
ATOM     18  N   UNL     1      11.398   9.294  15.340  1.00  0.00    -0.218 NA
ATOM     19  N   UNL     1      13.253  10.645  15.853  1.00  0.00    -0.192 NA
ATOM     20  C   UNL     1      11.836   8.331  16.191  1.00  0.00     0.158 A 
ATOM     21  C   UNL     1      13.018   8.518  16.904  1.00  0.00     0.184 A 
ATOM     22  F   UNL     1      13.486   7.526  17.702  1.00  0.00    -0.201 F 
BRANCH  17  23
ATOM     23  N   UNL     1      11.642  11.453  14.244  1.00  0.00    -0.324 N 
ATOM     24  H   UNL     1      10.665  11.369  13.885  1.00  0.00     0.170 HD
BRANCH  23  25
ATOM     25  C   UNL     1      12.395  12.626  13.889  1.00  0.00     0.049 A 
ATOM     26  C   UNL     1      13.504  13.958  12.178  1.00  0.00     0.166 A 
ATOM     27  C   UNL     1      12.763  12.826  12.556  1.00  0.00     0.076 A 
ATOM     28  C   UNL     1      13.896  14.898  13.146  1.00  0.00     0.203 A 
ATOM     29  C   UNL     1      13.553  14.689  14.507  1.00  0.00     0.166 A 
ATOM     30  C   UNL     1      12.816  13.543  14.862  1.00  0.00     0.076 A 
BRANCH  26  31
ATOM     31  O   UNL     1      13.871  14.190  10.842  1.00  0.00    -0.493 OA
ATOM     32  C   UNL     1      12.958  14.491   9.792  1.00  0.00     0.278 C 
ENDBRANCH  26  31
BRANCH  28  33
ATOM     33  O   UNL     1      14.625  16.011  12.685  1.00  0.00    -0.490 OA
ATOM     34  C   UNL     1      14.100  17.291  12.350  1.00  0.00     0.278 C 
ENDBRANCH  28  33
BRANCH  29  35
ATOM     35  O   UNL     1      13.956  15.616  15.481  1.00  0.00    -0.493 OA
ATOM     36  C   UNL     1      14.934  15.374  16.487  1.00  0.00     0.278 C 
ENDBRANCH  29  35
ENDBRANCH  23  25
ENDBRANCH  17  23
ENDBRANCH  14  16
ENDBRANCH   1  14
BRANCH  11  37
ATOM     37  C   UNL     1      13.452  10.076  22.205  1.00  0.00     0.303 C 
BRANCH  37  38
ATOM     38  O   UNL     1      14.335   9.123  22.748  1.00  0.00    -0.265 OA
BRANCH  38  39
ATOM     39  P   UNL     1      13.950   7.591  22.104  1.00  0.00     0.471 P 
ATOM     40  O   UNL     1      13.124   7.760  20.845  1.00  0.00    -0.228 OA
BRANCH  39  41
ATOM     41  O   UNL     1      13.096   6.659  23.236  1.00  0.00    -0.303 OA
ATOM     42  H   UNL     1      12.959   7.256  24.014  1.00  0.00     0.223 HD
ENDBRANCH  39  41
BRANCH  39  43
ATOM     43  O   UNL     1      15.390   6.791  21.715  1.00  0.00    -0.303 OA
ATOM     44  H   UNL     1      15.434   6.032  22.350  1.00  0.00     0.223 HD
ENDBRANCH  39  43
ENDBRANCH  38  39
ENDBRANCH  37  38
ENDBRANCH  11  37
TORSDOF 12
ENDMDL
MODEL 5
REMARK VINA RESULT:    -8.559      2.240      2.690
REMARK INTER + INTRA:         -16.000
REMARK INTER:                 -14.365
REMARK INTRA:                  -1.635
REMARK UNBOUND:                -1.937
REMARK SMILES COc1cc(Nc2ncc(F)c(Nc3ccc4c(n3)N(COP(=O)(O)O)C(=O)C(C)(C)O4)n2)cc(OC)c1OC
REMARK SMILES IDX 14 1 19 2 18 3 17 4 32 5 29 6 30 7 31 8 27 9 28 10 20 11
REMARK SMILES IDX 16 12 15 13 13 14 12 16 7 17 8 18 33 19 9 20 10 21 11 22
REMARK SMILES IDX 6 23 5 25 3 26 4 27 38 28 35 29 34 30 2 31 1 32 39 33 40 34
REMARK SMILES IDX 36 35 37 36 21 37 22 38 23 39 24 40 25 41 26 43
REMARK H PARENT 13 15 6 24 25 42 26 44
REMARK Flexibility Score: inf
ROOT
ATOM      1  C   UNL     1      15.210  10.862  18.413  1.00  0.00     0.134 A 
ATOM      2  N   UNL     1      14.659  10.696  19.647  1.00  0.00    -0.209 NA
ATOM      3  C   UNL     1      14.809  11.617  20.640  1.00  0.00     0.182 A 
ATOM      4  C   UNL     1      15.561  12.772  20.402  1.00  0.00     0.164 A 
ATOM      5  O   UNL     1      15.711  13.731  21.406  1.00  0.00    -0.474 OA
ATOM      6  C   UNL     1      14.828  13.830  22.531  1.00  0.00     0.182 C 
ATOM      7  C   UNL     1      15.621  14.428  23.702  1.00  0.00     0.067 C 
ATOM      8  C   UNL     1      13.667  14.761  22.155  1.00  0.00     0.067 C 
ATOM      9  C   UNL     1      14.267  12.470  22.909  1.00  0.00     0.273 C 
ATOM     10  O   UNL     1      13.755  12.306  24.051  1.00  0.00    -0.270 OA
ATOM     11  N   UNL     1      14.234  11.400  21.941  1.00  0.00    -0.265 N 
ATOM     12  C   UNL     1      16.172  12.951  19.159  1.00  0.00     0.054 A 
ATOM     13  C   UNL     1      15.999  11.996  18.157  1.00  0.00     0.051 A 
ENDROOT
BRANCH   1  14
ATOM     14  N   UNL     1      15.023   9.841  17.422  1.00  0.00    -0.322 N 
ATOM     15  H   UNL     1      15.851   9.259  17.161  1.00  0.00     0.170 HD
BRANCH  14  16
ATOM     16  C   UNL     1      13.786   9.587  16.739  1.00  0.00     0.173 A 
ATOM     17  C   UNL     1      12.186  10.287  15.131  1.00  0.00     0.229 A 
ATOM     18  N   UNL     1      11.487   9.133  15.312  1.00  0.00    -0.218 NA
ATOM     19  N   UNL     1      13.335  10.492  15.831  1.00  0.00    -0.192 NA
ATOM     20  C   UNL     1      11.904   8.191  16.195  1.00  0.00     0.158 A 
ATOM     21  C   UNL     1      13.072   8.392  16.928  1.00  0.00     0.184 A 
ATOM     22  F   UNL     1      13.520   7.419  17.760  1.00  0.00    -0.201 F 
BRANCH  17  23
ATOM     23  N   UNL     1      11.760  11.264  14.169  1.00  0.00    -0.324 N 
ATOM     24  H   UNL     1      10.845  11.100  13.693  1.00  0.00     0.170 HD
BRANCH  23  25
ATOM     25  C   UNL     1      12.437  12.510  13.924  1.00  0.00     0.049 A 
ATOM     26  C   UNL     1      13.286  14.628  14.775  1.00  0.00     0.166 A 
ATOM     27  C   UNL     1      12.635  13.400  14.982  1.00  0.00     0.076 A 
ATOM     28  C   UNL     1      13.733  14.979  13.491  1.00  0.00     0.203 A 
ATOM     29  C   UNL     1      13.509  14.095  12.403  1.00  0.00     0.166 A 
ATOM     30  C   UNL     1      12.848  12.873  12.635  1.00  0.00     0.076 A 
BRANCH  26  31
ATOM     31  O   UNL     1      13.514  15.532  15.826  1.00  0.00    -0.493 OA
ATOM     32  C   UNL     1      14.406  15.304  16.912  1.00  0.00     0.278 C 
ENDBRANCH  26  31
BRANCH  28  33
ATOM     33  O   UNL     1      14.387  16.220  13.367  1.00  0.00    -0.490 OA
ATOM     34  C   UNL     1      13.906  17.368  12.678  1.00  0.00     0.278 C 
ENDBRANCH  28  33
BRANCH  29  35
ATOM     35  O   UNL     1      13.940  14.447  11.114  1.00  0.00    -0.493 OA
ATOM     36  C   UNL     1      13.082  14.686  10.002  1.00  0.00     0.278 C 
ENDBRANCH  29  35
ENDBRANCH  23  25
ENDBRANCH  17  23
ENDBRANCH  14  16
ENDBRANCH   1  14
BRANCH  11  37
ATOM     37  C   UNL     1      13.522  10.150  22.234  1.00  0.00     0.303 C 
BRANCH  37  38
ATOM     38  O   UNL     1      14.447   9.193  22.691  1.00  0.00    -0.265 OA
BRANCH  38  39
ATOM     39  P   UNL     1      14.023   7.671  22.046  1.00  0.00     0.471 P 
ATOM     40  O   UNL     1      13.278   6.864  23.089  1.00  0.00    -0.228 OA
BRANCH  39  41
ATOM     41  O   UNL     1      15.404   6.825  21.539  1.00  0.00    -0.303 OA
ATOM     42  H   UNL     1      15.432   6.940  20.555  1.00  0.00     0.223 HD
ENDBRANCH  39  41
BRANCH  39  43
ATOM     43  O   UNL     1      13.012   7.913  20.711  1.00  0.00    -0.303 OA
ATOM     44  H   UNL     1      12.443   7.102  20.677  1.00  0.00     0.223 HD
ENDBRANCH  39  43
ENDBRANCH  38  39
ENDBRANCH  37  38
ENDBRANCH  11  37
TORSDOF 12
ENDMDL
MODEL 6
REMARK VINA RESULT:    -8.552      2.907      6.620
REMARK INTER + INTRA:         -15.988
REMARK INTER:                 -13.692
REMARK INTRA:                  -2.295
REMARK UNBOUND:                -1.937
REMARK SMILES COc1cc(Nc2ncc(F)c(Nc3ccc4c(n3)N(COP(=O)(O)O)C(=O)C(C)(C)O4)n2)cc(OC)c1OC
REMARK SMILES IDX 14 1 19 2 18 3 17 4 32 5 29 6 30 7 31 8 27 9 28 10 20 11
REMARK SMILES IDX 16 12 15 13 13 14 12 16 7 17 8 18 33 19 9 20 10 21 11 22
REMARK SMILES IDX 6 23 5 25 3 26 4 27 38 28 35 29 34 30 2 31 1 32 39 33 40 34
REMARK SMILES IDX 36 35 37 36 21 37 22 38 23 39 24 40 25 41 26 43
REMARK H PARENT 13 15 6 24 25 42 26 44
REMARK Flexibility Score: inf
ROOT
ATOM      1  C   UNL     1      11.317  10.564  15.869  1.00  0.00     0.134 A 
ATOM      2  N   UNL     1      10.636  11.214  16.853  1.00  0.00    -0.209 NA
ATOM      3  C   UNL     1      10.081  12.444  16.661  1.00  0.00     0.182 A 
ATOM      4  C   UNL     1      10.215  13.077  15.422  1.00  0.00     0.164 A 
ATOM      5  O   UNL     1       9.639  14.331  15.209  1.00  0.00    -0.474 OA
ATOM      6  C   UNL     1       8.578  14.852  16.018  1.00  0.00     0.182 C 
ATOM      7  C   UNL     1       8.678  16.385  15.998  1.00  0.00     0.067 C 
ATOM      8  C   UNL     1       7.240  14.407  15.410  1.00  0.00     0.067 C 
ATOM      9  C   UNL     1       8.670  14.333  17.442  1.00  0.00     0.273 C 
ATOM     10  O   UNL     1       8.043  14.930  18.362  1.00  0.00    -0.270 OA
ATOM     11  N   UNL     1       9.389  13.116  17.730  1.00  0.00    -0.265 N 
ATOM     12  C   UNL     1      10.942  12.453  14.406  1.00  0.00     0.054 A 
ATOM     13  C   UNL     1      11.497  11.192  14.624  1.00  0.00     0.051 A 
ENDROOT
BRANCH   1  14
ATOM     14  N   UNL     1      11.888   9.278  16.148  1.00  0.00    -0.322 N 
ATOM     15  H   UNL     1      11.747   8.520  15.442  1.00  0.00     0.170 HD
BRANCH  14  16
ATOM     16  C   UNL     1      12.611   8.951  17.344  1.00  0.00     0.173 A 
ATOM     17  C   UNL     1      13.991   9.682  19.132  1.00  0.00     0.229 A 
ATOM     18  N   UNL     1      13.937   8.443  19.692  1.00  0.00    -0.218 NA
ATOM     19  N   UNL     1      13.314   9.927  17.978  1.00  0.00    -0.192 NA
ATOM     20  C   UNL     1      13.236   7.438  19.107  1.00  0.00     0.158 A 
ATOM     21  C   UNL     1      12.547   7.671  17.918  1.00  0.00     0.184 A 
ATOM     22  F   UNL     1      11.794   6.683  17.372  1.00  0.00    -0.201 F 
BRANCH  17  23
ATOM     23  N   UNL     1      14.704  10.750  19.774  1.00  0.00    -0.324 N 
ATOM     24  H   UNL     1      15.000  10.602  20.765  1.00  0.00     0.170 HD
BRANCH  23  25
ATOM     25  C   UNL     1      15.156  11.941  19.105  1.00  0.00     0.049 A 
ATOM     26  C   UNL     1      14.667  14.168  18.246  1.00  0.00     0.166 A 
ATOM     27  C   UNL     1      14.260  12.994  18.902  1.00  0.00     0.076 A 
ATOM     28  C   UNL     1      15.985  14.287  17.773  1.00  0.00     0.203 A 
ATOM     29  C   UNL     1      16.894  13.212  17.946  1.00  0.00     0.166 A 
ATOM     30  C   UNL     1      16.459  12.043  18.601  1.00  0.00     0.076 A 
BRANCH  26  31
ATOM     31  O   UNL     1      13.791  15.247  18.046  1.00  0.00    -0.493 OA
ATOM     32  C   UNL     1      12.696  15.244  17.137  1.00  0.00     0.278 C 
ENDBRANCH  26  31
BRANCH  28  33
ATOM     33  O   UNL     1      16.319  15.499  17.137  1.00  0.00    -0.490 OA
ATOM     34  C   UNL     1      16.318  15.752  15.737  1.00  0.00     0.278 C 
ENDBRANCH  28  33
BRANCH  29  35
ATOM     35  O   UNL     1      18.207  13.319  17.461  1.00  0.00    -0.493 OA
ATOM     36  C   UNL     1      19.380  12.972  18.191  1.00  0.00     0.278 C 
ENDBRANCH  29  35
ENDBRANCH  23  25
ENDBRANCH  17  23
ENDBRANCH  14  16
ENDBRANCH   1  14
BRANCH  11  37
ATOM     37  C   UNL     1       9.320  12.505  19.063  1.00  0.00     0.303 C 
BRANCH  37  38
ATOM     38  O   UNL     1       8.266  11.572  19.084  1.00  0.00    -0.265 OA
BRANCH  38  39
ATOM     39  P   UNL     1       8.838  10.116  19.766  1.00  0.00     0.471 P 
ATOM     40  O   UNL     1      10.039  10.400  20.643  1.00  0.00    -0.228 OA
BRANCH  39  41
ATOM     41  O   UNL     1       9.258   9.006  18.552  1.00  0.00    -0.303 OA
ATOM     42  H   UNL     1       9.102   8.113  18.951  1.00  0.00     0.223 HD
ENDBRANCH  39  41
BRANCH  39  43
ATOM     43  O   UNL     1       7.609   9.444  20.715  1.00  0.00    -0.303 OA
ATOM     44  H   UNL     1       7.798   8.471  20.719  1.00  0.00     0.223 HD
ENDBRANCH  39  43
ENDBRANCH  38  39
ENDBRANCH  37  38
ENDBRANCH  11  37
TORSDOF 12
ENDMDL
MODEL 7
REMARK VINA RESULT:    -8.546      3.380      5.894
REMARK INTER + INTRA:         -15.978
REMARK INTER:                 -12.916
REMARK INTRA:                  -3.062
REMARK UNBOUND:                -1.937
REMARK SMILES COc1cc(Nc2ncc(F)c(Nc3ccc4c(n3)N(COP(=O)(O)O)C(=O)C(C)(C)O4)n2)cc(OC)c1OC
REMARK SMILES IDX 14 1 19 2 18 3 17 4 32 5 29 6 30 7 31 8 27 9 28 10 20 11
REMARK SMILES IDX 16 12 15 13 13 14 12 16 7 17 8 18 33 19 9 20 10 21 11 22
REMARK SMILES IDX 6 23 5 25 3 26 4 27 38 28 35 29 34 30 2 31 1 32 39 33 40 34
REMARK SMILES IDX 36 35 37 36 21 37 22 38 23 39 24 40 25 41 26 43
REMARK H PARENT 13 15 6 24 25 42 26 44
REMARK Flexibility Score: inf
ROOT
ATOM      1  C   UNL     1      13.991  10.970  19.393  1.00  0.00     0.134 A 
ATOM      2  N   UNL     1      12.992  10.463  18.619  1.00  0.00    -0.209 NA
ATOM      3  C   UNL     1      11.749  10.204  19.114  1.00  0.00     0.182 A 
ATOM      4  C   UNL     1      11.478  10.452  20.463  1.00  0.00     0.164 A 
ATOM      5  O   UNL     1      10.204  10.204  20.979  1.00  0.00    -0.474 OA
ATOM      6  C   UNL     1       9.035  10.098  20.159  1.00  0.00     0.182 C 
ATOM      7  C   UNL     1       8.038   9.176  20.876  1.00  0.00     0.067 C 
ATOM      8  C   UNL     1       8.428  11.499  19.996  1.00  0.00     0.067 C 
ATOM      9  C   UNL     1       9.377   9.546  18.786  1.00  0.00     0.273 C 
ATOM     10  O   UNL     1       8.458   9.073  18.061  1.00  0.00    -0.270 OA
ATOM     11  N   UNL     1      10.723   9.645  18.275  1.00  0.00    -0.265 N 
ATOM     12  C   UNL     1      12.494  10.934  21.291  1.00  0.00     0.054 A 
ATOM     13  C   UNL     1      13.757  11.196  20.760  1.00  0.00     0.051 A 
ENDROOT
BRANCH   1  14
ATOM     14  N   UNL     1      15.280  11.202  18.806  1.00  0.00    -0.322 N 
ATOM     15  H   UNL     1      15.980  10.427  18.848  1.00  0.00     0.170 HD
BRANCH  14  16
ATOM     16  C   UNL     1      15.685  12.436  18.194  1.00  0.00     0.173 A 
ATOM     17  C   UNL     1      15.057  14.498  17.199  1.00  0.00     0.229 A 
ATOM     18  N   UNL     1      16.365  14.863  17.109  1.00  0.00    -0.218 NA
ATOM     19  N   UNL     1      14.731  13.300  17.757  1.00  0.00    -0.192 NA
ATOM     20  C   UNL     1      17.354  14.043  17.546  1.00  0.00     0.158 A 
ATOM     21  C   UNL     1      17.037  12.808  18.108  1.00  0.00     0.184 A 
ATOM     22  F   UNL     1      18.024  12.020  18.604  1.00  0.00    -0.201 F 
BRANCH  17  23
ATOM     23  N   UNL     1      14.013  15.384  16.768  1.00  0.00    -0.324 N 
ATOM     24  H   UNL     1      14.056  16.374  17.102  1.00  0.00     0.170 HD
BRANCH  23  25
ATOM     25  C   UNL     1      13.001  15.039  15.805  1.00  0.00     0.049 A 
ATOM     26  C   UNL     1      12.383  14.607  13.489  1.00  0.00     0.166 A 
ATOM     27  C   UNL     1      13.348  14.936  14.456  1.00  0.00     0.076 A 
ATOM     28  C   UNL     1      11.049  14.391  13.873  1.00  0.00     0.203 A 
ATOM     29  C   UNL     1      10.680  14.523  15.237  1.00  0.00     0.166 A 
ATOM     30  C   UNL     1      11.665  14.861  16.186  1.00  0.00     0.076 A 
BRANCH  26  31
ATOM     31  O   UNL     1      12.710  14.479  12.129  1.00  0.00    -0.493 OA
ATOM     32  C   UNL     1      13.516  13.441  11.583  1.00  0.00     0.278 C 
ENDBRANCH  26  31
BRANCH  28  33
ATOM     33  O   UNL     1      10.145  14.053  12.848  1.00  0.00    -0.490 OA
ATOM     34  C   UNL     1       9.257  14.938  12.172  1.00  0.00     0.278 C 
ENDBRANCH  28  33
BRANCH  29  35
ATOM     35  O   UNL     1       9.345  14.325  15.624  1.00  0.00    -0.493 OA
ATOM     36  C   UNL     1       8.900  13.339  16.552  1.00  0.00     0.278 C 
ENDBRANCH  29  35
ENDBRANCH  23  25
ENDBRANCH  17  23
ENDBRANCH  14  16
ENDBRANCH   1  14
BRANCH  11  37
ATOM     37  C   UNL     1      11.019   9.292  16.881  1.00  0.00     0.303 C 
BRANCH  37  38
ATOM     38  O   UNL     1      10.731  10.399  16.059  1.00  0.00    -0.265 OA
BRANCH  38  39
ATOM     39  P   UNL     1      12.029  10.626  14.974  1.00  0.00     0.471 P 
ATOM     40  O   UNL     1      12.624   9.285  14.601  1.00  0.00    -0.228 OA
BRANCH  39  41
ATOM     41  O   UNL     1      13.222  11.618  15.661  1.00  0.00    -0.303 OA
ATOM     42  H   UNL     1      13.034  11.614  16.634  1.00  0.00     0.223 HD
ENDBRANCH  39  41
BRANCH  39  43
ATOM     43  O   UNL     1      11.438  11.374  13.575  1.00  0.00    -0.303 OA
ATOM     44  H   UNL     1      10.627  11.859  13.874  1.00  0.00     0.223 HD
ENDBRANCH  39  43
ENDBRANCH  38  39
ENDBRANCH  37  38
ENDBRANCH  11  37
TORSDOF 12
ENDMDL
MODEL 8
REMARK VINA RESULT:    -8.492      3.486      5.539
REMARK INTER + INTRA:         -15.889
REMARK INTER:                 -14.978
REMARK INTRA:                  -0.911
REMARK UNBOUND:                -1.937
REMARK SMILES COc1cc(Nc2ncc(F)c(Nc3ccc4c(n3)N(COP(=O)(O)O)C(=O)C(C)(C)O4)n2)cc(OC)c1OC
REMARK SMILES IDX 14 1 19 2 18 3 17 4 32 5 29 6 30 7 31 8 27 9 28 10 20 11
REMARK SMILES IDX 16 12 15 13 13 14 12 16 7 17 8 18 33 19 9 20 10 21 11 22
REMARK SMILES IDX 6 23 5 25 3 26 4 27 38 28 35 29 34 30 2 31 1 32 39 33 40 34
REMARK SMILES IDX 36 35 37 36 21 37 22 38 23 39 24 40 25 41 26 43
REMARK H PARENT 13 15 6 24 25 42 26 44
REMARK Flexibility Score: inf
ROOT
ATOM      1  C   UNL     1      11.957  10.257  15.288  1.00  0.00     0.134 A 
ATOM      2  N   UNL     1      11.470  10.460  16.543  1.00  0.00    -0.209 NA
ATOM      3  C   UNL     1      11.982   9.821  17.633  1.00  0.00     0.182 A 
ATOM      4  C   UNL     1      13.036   8.916  17.471  1.00  0.00     0.164 A 
ATOM      5  O   UNL     1      13.579   8.266  18.582  1.00  0.00    -0.474 OA
ATOM      6  C   UNL     1      13.422   8.745  19.923  1.00  0.00     0.182 C 
ATOM      7  C   UNL     1      13.485   7.535  20.866  1.00  0.00     0.067 C 
ATOM      8  C   UNL     1      14.575   9.710  20.231  1.00  0.00     0.067 C 
ATOM      9  C   UNL     1      12.104   9.482  20.091  1.00  0.00     0.273 C 
ATOM     10  O   UNL     1      11.644   9.674  21.251  1.00  0.00    -0.270 OA
ATOM     11  N   UNL     1      11.429  10.039  18.944  1.00  0.00    -0.265 N 
ATOM     12  C   UNL     1      13.529   8.657  16.191  1.00  0.00     0.054 A 
ATOM     13  C   UNL     1      12.992   9.327  15.091  1.00  0.00     0.051 A 
ENDROOT
BRANCH   1  14
ATOM     14  N   UNL     1      11.357  10.953  14.186  1.00  0.00    -0.322 N 
ATOM     15  H   UNL     1      10.573  10.480  13.681  1.00  0.00     0.170 HD
BRANCH  14  16
ATOM     16  C   UNL     1      11.780  12.239  13.708  1.00  0.00     0.173 A 
ATOM     17  C   UNL     1      11.534  13.981  12.114  1.00  0.00     0.229 A 
ATOM     18  N   UNL     1      12.450  14.733  12.783  1.00  0.00    -0.218 NA
ATOM     19  N   UNL     1      11.196  12.753  12.593  1.00  0.00    -0.192 NA
ATOM     20  C   UNL     1      13.049  14.272  13.910  1.00  0.00     0.158 A 
ATOM     21  C   UNL     1      12.722  13.012  14.406  1.00  0.00     0.184 A 
ATOM     22  F   UNL     1      13.273  12.582  15.569  1.00  0.00    -0.201 F 
BRANCH  17  23
ATOM     23  N   UNL     1      10.878  14.488  10.943  1.00  0.00    -0.324 N 
ATOM     24  H   UNL     1      11.376  14.384  10.030  1.00  0.00     0.170 HD
BRANCH  23  25
ATOM     25  C   UNL     1       9.532  14.998  10.924  1.00  0.00     0.049 A 
ATOM     26  C   UNL     1       7.513  15.611  12.141  1.00  0.00     0.166 A 
ATOM     27  C   UNL     1       8.831  15.123  12.126  1.00  0.00     0.076 A 
ATOM     28  C   UNL     1       6.881  15.967  10.938  1.00  0.00     0.203 A 
ATOM     29  C   UNL     1       7.574  15.814   9.708  1.00  0.00     0.166 A 
ATOM     30  C   UNL     1       8.892  15.317   9.719  1.00  0.00     0.076 A 
BRANCH  26  31
ATOM     31  O   UNL     1       6.794  15.764  13.337  1.00  0.00    -0.493 OA
ATOM     32  C   UNL     1       7.135  15.145  14.573  1.00  0.00     0.278 C 
ENDBRANCH  26  31
BRANCH  28  33
ATOM     33  O   UNL     1       5.566  16.459  11.038  1.00  0.00    -0.490 OA
ATOM     34  C   UNL     1       5.176  17.823  11.149  1.00  0.00     0.278 C 
ENDBRANCH  28  33
BRANCH  29  35
ATOM     35  O   UNL     1       6.942  16.153   8.501  1.00  0.00    -0.493 OA
ATOM     36  C   UNL     1       6.955  17.446   7.905  1.00  0.00     0.278 C 
ENDBRANCH  29  35
ENDBRANCH  23  25
ENDBRANCH  17  23
ENDBRANCH  14  16
ENDBRANCH   1  14
BRANCH  11  37
ATOM     37  C   UNL     1      10.264  10.916  19.116  1.00  0.00     0.303 C 
BRANCH  37  38
ATOM     38  O   UNL     1       9.107  10.224  18.708  1.00  0.00    -0.265 OA
BRANCH  38  39
ATOM     39  P   UNL     1       7.973  10.254  19.982  1.00  0.00     0.471 P 
ATOM     40  O   UNL     1       8.205   9.071  20.900  1.00  0.00    -0.228 OA
BRANCH  39  41
ATOM     41  O   UNL     1       6.388  10.216  19.379  1.00  0.00    -0.303 OA
ATOM     42  H   UNL     1       5.925   9.518  19.908  1.00  0.00     0.223 HD
ENDBRANCH  39  41
BRANCH  39  43
ATOM     43  O   UNL     1       8.187  11.684  20.862  1.00  0.00    -0.303 OA
ATOM     44  H   UNL     1       8.149  12.404  20.182  1.00  0.00     0.223 HD
ENDBRANCH  39  43
ENDBRANCH  38  39
ENDBRANCH  37  38
ENDBRANCH  11  37
TORSDOF 12
ENDMDL
MODEL 9
REMARK VINA RESULT:    -8.432      3.424      5.609
REMARK INTER + INTRA:         -15.790
REMARK INTER:                 -12.684
REMARK INTRA:                  -3.107
REMARK UNBOUND:                -1.937
REMARK SMILES COc1cc(Nc2ncc(F)c(Nc3ccc4c(n3)N(COP(=O)(O)O)C(=O)C(C)(C)O4)n2)cc(OC)c1OC
REMARK SMILES IDX 14 1 19 2 18 3 17 4 32 5 29 6 30 7 31 8 27 9 28 10 20 11
REMARK SMILES IDX 16 12 15 13 13 14 12 16 7 17 8 18 33 19 9 20 10 21 11 22
REMARK SMILES IDX 6 23 5 25 3 26 4 27 38 28 35 29 34 30 2 31 1 32 39 33 40 34
REMARK SMILES IDX 36 35 37 36 21 37 22 38 23 39 24 40 25 41 26 43
REMARK H PARENT 13 15 6 24 25 42 26 44
REMARK Flexibility Score: inf
ROOT
ATOM      1  C   UNL     1      14.133  11.012  19.312  1.00  0.00     0.134 A 
ATOM      2  N   UNL     1      13.130  10.467  18.569  1.00  0.00    -0.209 NA
ATOM      3  C   UNL     1      11.890  10.232  19.084  1.00  0.00     0.182 A 
ATOM      4  C   UNL     1      11.627  10.546  20.421  1.00  0.00     0.164 A 
ATOM      5  O   UNL     1      10.356  10.323  20.956  1.00  0.00    -0.474 OA
ATOM      6  C   UNL     1       9.182  10.176  20.148  1.00  0.00     0.182 C 
ATOM      7  C   UNL     1       8.190   9.290  20.915  1.00  0.00     0.067 C 
ATOM      8  C   UNL     1       8.573  11.567  19.920  1.00  0.00     0.067 C 
ATOM      9  C   UNL     1       9.517   9.557  18.802  1.00  0.00     0.273 C 
ATOM     10  O   UNL     1       8.594   9.049  18.106  1.00  0.00    -0.270 OA
ATOM     11  N   UNL     1      10.859   9.632  18.279  1.00  0.00    -0.265 N 
ATOM     12  C   UNL     1      12.647  11.069  21.218  1.00  0.00     0.054 A 
ATOM     13  C   UNL     1      13.906  11.305  20.668  1.00  0.00     0.051 A 
ENDROOT
BRANCH   1  14
ATOM     14  N   UNL     1      15.418  11.216  18.707  1.00  0.00    -0.322 N 
ATOM     15  H   UNL     1      16.083  10.410  18.696  1.00  0.00     0.170 HD
BRANCH  14  16
ATOM     16  C   UNL     1      15.866  12.459  18.146  1.00  0.00     0.173 A 
ATOM     17  C   UNL     1      15.308  14.548  17.165  1.00  0.00     0.229 A 
ATOM     18  N   UNL     1      16.622  14.903  17.154  1.00  0.00    -0.218 NA
ATOM     19  N   UNL     1      14.943  13.341  17.676  1.00  0.00    -0.192 NA
ATOM     20  C   UNL     1      17.580  14.064  17.625  1.00  0.00     0.158 A 
ATOM     21  C   UNL     1      17.223  12.820  18.142  1.00  0.00     0.184 A 
ATOM     22  F   UNL     1      18.175  12.014  18.673  1.00  0.00    -0.201 F 
BRANCH  17  23
ATOM     23  N   UNL     1      14.296  15.453  16.698  1.00  0.00    -0.324 N 
ATOM     24  H   UNL     1      14.416  16.465  16.927  1.00  0.00     0.170 HD
BRANCH  23  25
ATOM     25  C   UNL     1      13.215  15.080  15.824  1.00  0.00     0.049 A 
ATOM     26  C   UNL     1      10.873  14.478  15.539  1.00  0.00     0.166 A 
ATOM     27  C   UNL     1      11.948  14.849  16.364  1.00  0.00     0.076 A 
ATOM     28  C   UNL     1      11.069  14.320  14.157  1.00  0.00     0.203 A 
ATOM     29  C   UNL     1      12.360  14.522  13.603  1.00  0.00     0.166 A 
ATOM     30  C   UNL     1      13.423  14.887  14.452  1.00  0.00     0.076 A 
BRANCH  26  31
ATOM     31  O   UNL     1       9.585  14.258  16.055  1.00  0.00    -0.493 OA
ATOM     32  C   UNL     1       8.881  15.169  16.892  1.00  0.00     0.278 C 
ENDBRANCH  26  31
BRANCH  28  33
ATOM     33  O   UNL     1       9.940  13.958  13.397  1.00  0.00    -0.490 OA
ATOM     34  C   UNL     1       9.109  14.832  12.641  1.00  0.00     0.278 C 
ENDBRANCH  28  33
BRANCH  29  35
ATOM     35  O   UNL     1      12.566  14.350  12.224  1.00  0.00    -0.493 OA
ATOM     36  C   UNL     1      13.560  13.511  11.644  1.00  0.00     0.278 C 
ENDBRANCH  29  35
ENDBRANCH  23  25
ENDBRANCH  17  23
ENDBRANCH  14  16
ENDBRANCH   1  14
BRANCH  11  37
ATOM     37  C   UNL     1      11.148   9.211  16.902  1.00  0.00     0.303 C 
BRANCH  37  38
ATOM     38  O   UNL     1      10.786  10.249  16.022  1.00  0.00    -0.265 OA
BRANCH  38  39
ATOM     39  P   UNL     1      12.089  10.547  14.962  1.00  0.00     0.471 P 
ATOM     40  O   UNL     1      12.739   9.236  14.571  1.00  0.00    -0.228 OA
BRANCH  39  41
ATOM     41  O   UNL     1      13.235  11.568  15.687  1.00  0.00    -0.303 OA
ATOM     42  H   UNL     1      12.707  12.198  16.241  1.00  0.00     0.223 HD
ENDBRANCH  39  41
BRANCH  39  43
ATOM     43  O   UNL     1      11.491  11.302  13.570  1.00  0.00    -0.303 OA
ATOM     44  H   UNL     1      11.561  12.272  13.761  1.00  0.00     0.223 HD
ENDBRANCH  39  43
ENDBRANCH  38  39
ENDBRANCH  37  38
ENDBRANCH  11  37
TORSDOF 12
ENDMDL
MODEL 10
REMARK VINA RESULT:    -8.379      4.199      8.139
REMARK INTER + INTRA:         -15.703
REMARK INTER:                 -13.666
REMARK INTRA:                  -2.037
REMARK UNBOUND:                -1.937
REMARK SMILES COc1cc(Nc2ncc(F)c(Nc3ccc4c(n3)N(COP(=O)(O)O)C(=O)C(C)(C)O4)n2)cc(OC)c1OC
REMARK SMILES IDX 14 1 19 2 18 3 17 4 32 5 29 6 30 7 31 8 27 9 28 10 20 11
REMARK SMILES IDX 16 12 15 13 13 14 12 16 7 17 8 18 33 19 9 20 10 21 11 22
REMARK SMILES IDX 6 23 5 25 3 26 4 27 38 28 35 29 34 30 2 31 1 32 39 33 40 34
REMARK SMILES IDX 36 35 37 36 21 37 22 38 23 39 24 40 25 41 26 43
REMARK H PARENT 13 15 6 24 25 42 26 44
REMARK Flexibility Score: inf
ROOT
ATOM      1  C   UNL     1      13.025   8.687  22.118  1.00  0.00     0.134 A 
ATOM      2  N   UNL     1      12.322   9.382  21.182  1.00  0.00    -0.209 NA
ATOM      3  C   UNL     1      12.504   9.188  19.845  1.00  0.00     0.182 A 
ATOM      4  C   UNL     1      13.450   8.257  19.405  1.00  0.00     0.164 A 
ATOM      5  O   UNL     1      13.636   8.040  18.037  1.00  0.00    -0.474 OA
ATOM      6  C   UNL     1      12.661   8.394  17.049  1.00  0.00     0.182 C 
ATOM      7  C   UNL     1      13.404   8.685  15.737  1.00  0.00     0.067 C 
ATOM      8  C   UNL     1      11.709   7.205  16.858  1.00  0.00     0.067 C 
ATOM      9  C   UNL     1      11.855   9.606  17.484  1.00  0.00     0.273 C 
ATOM     10  O   UNL     1      11.200  10.257  16.623  1.00  0.00    -0.270 OA
ATOM     11  N   UNL     1      11.762   9.957  18.881  1.00  0.00    -0.265 N 
ATOM     12  C   UNL     1      14.215   7.559  20.341  1.00  0.00     0.054 A 
ATOM     13  C   UNL     1      14.007   7.770  21.704  1.00  0.00     0.051 A 
ENDROOT
BRANCH   1  14
ATOM     14  N   UNL     1      12.791   8.955  23.508  1.00  0.00    -0.322 N 
ATOM     15  H   UNL     1      12.351   8.200  24.081  1.00  0.00     0.170 HD
BRANCH  14  16
ATOM     16  C   UNL     1      13.089  10.200  24.158  1.00  0.00     0.173 A 
ATOM     17  C   UNL     1      13.741  12.474  23.962  1.00  0.00     0.229 A 
ATOM     18  N   UNL     1      13.576  12.646  25.302  1.00  0.00    -0.218 NA
ATOM     19  N   UNL     1      13.478  11.262  23.403  1.00  0.00    -0.192 NA
ATOM     20  C   UNL     1      13.173  11.622  26.096  1.00  0.00     0.158 A 
ATOM     21  C   UNL     1      12.912  10.371  25.541  1.00  0.00     0.184 A 
ATOM     22  F   UNL     1      12.446   9.369  26.327  1.00  0.00    -0.201 F 
BRANCH  17  23
ATOM     23  N   UNL     1      14.133  13.570  23.122  1.00  0.00    -0.324 N 
ATOM     24  H   UNL     1      13.830  14.527  23.410  1.00  0.00     0.170 HD
BRANCH  23  25
ATOM     25  C   UNL     1      15.023  13.453  21.998  1.00  0.00     0.049 A 
ATOM     26  C   UNL     1      17.274  13.642  21.087  1.00  0.00     0.166 A 
ATOM     27  C   UNL     1      16.380  13.741  22.166  1.00  0.00     0.076 A 
ATOM     28  C   UNL     1      16.806  13.264  19.818  1.00  0.00     0.203 A 
ATOM     29  C   UNL     1      15.425  12.999  19.629  1.00  0.00     0.166 A 
ATOM     30  C   UNL     1      14.547  13.111  20.725  1.00  0.00     0.076 A 
BRANCH  26  31
ATOM     31  O   UNL     1      18.645  13.909  21.236  1.00  0.00    -0.493 OA
ATOM     32  C   UNL     1      19.215  15.211  21.310  1.00  0.00     0.278 C 
ENDBRANCH  26  31
BRANCH  28  33
ATOM     33  O   UNL     1      17.767  13.176  18.792  1.00  0.00    -0.490 OA
ATOM     34  C   UNL     1      17.975  14.113  17.741  1.00  0.00     0.278 C 
ENDBRANCH  28  33
BRANCH  29  35
ATOM     35  O   UNL     1      14.948  12.636  18.359  1.00  0.00    -0.493 OA
ATOM     36  C   UNL     1      15.097  11.349  17.766  1.00  0.00     0.278 C 
ENDBRANCH  29  35
ENDBRANCH  23  25
ENDBRANCH  17  23
ENDBRANCH  14  16
ENDBRANCH   1  14
BRANCH  11  37
ATOM     37  C   UNL     1      10.834  11.003  19.327  1.00  0.00     0.303 C 
BRANCH  37  38
ATOM     38  O   UNL     1       9.701  10.395  19.900  1.00  0.00    -0.265 OA
BRANCH  38  39
ATOM     39  P   UNL     1       8.394  10.539  18.813  1.00  0.00     0.471 P 
ATOM     40  O   UNL     1       8.468  11.873  18.100  1.00  0.00    -0.228 OA
BRANCH  39  41
ATOM     41  O   UNL     1       6.913  10.400  19.629  1.00  0.00    -0.303 OA
ATOM     42  H   UNL     1       6.785  11.270  20.086  1.00  0.00     0.223 HD
ENDBRANCH  39  41
BRANCH  39  43
ATOM     43  O   UNL     1       8.504   9.297  17.669  1.00  0.00    -0.303 OA
ATOM     44  H   UNL     1       9.305   8.779  17.937  1.00  0.00     0.223 HD
ENDBRANCH  39  43
ENDBRANCH  38  39
ENDBRANCH  37  38
ENDBRANCH  11  37
TORSDOF 12
ENDMDL
MODEL 11
REMARK VINA RESULT:    -8.366      2.222      7.322
REMARK INTER + INTRA:         -15.682
REMARK INTER:                 -13.748
REMARK INTRA:                  -1.934
REMARK UNBOUND:                -1.937
REMARK SMILES COc1cc(Nc2ncc(F)c(Nc3ccc4c(n3)N(COP(=O)(O)O)C(=O)C(C)(C)O4)n2)cc(OC)c1OC
REMARK SMILES IDX 14 1 19 2 18 3 17 4 32 5 29 6 30 7 31 8 27 9 28 10 20 11
REMARK SMILES IDX 16 12 15 13 13 14 12 16 7 17 8 18 33 19 9 20 10 21 11 22
REMARK SMILES IDX 6 23 5 25 3 26 4 27 38 28 35 29 34 30 2 31 1 32 39 33 40 34
REMARK SMILES IDX 36 35 37 36 21 37 22 38 23 39 24 40 25 41 26 43
REMARK H PARENT 13 15 6 24 25 42 26 44
REMARK Flexibility Score: inf
ROOT
ATOM      1  C   UNL     1      11.340  11.081  14.984  1.00  0.00     0.134 A 
ATOM      2  N   UNL     1      10.698  11.519  16.102  1.00  0.00    -0.209 NA
ATOM      3  C   UNL     1      10.048  12.716  16.145  1.00  0.00     0.182 A 
ATOM      4  C   UNL     1      10.041  13.539  15.015  1.00  0.00     0.164 A 
ATOM      5  O   UNL     1       9.367  14.762  15.042  1.00  0.00    -0.474 OA
ATOM      6  C   UNL     1       8.340  15.068  15.993  1.00  0.00     0.182 C 
ATOM      7  C   UNL     1       8.335  16.589  16.208  1.00  0.00     0.067 C 
ATOM      8  C   UNL     1       6.992  14.617  15.415  1.00  0.00     0.067 C 
ATOM      9  C   UNL     1       8.579  14.347  17.308  1.00  0.00     0.273 C 
ATOM     10  O   UNL     1       7.989  14.746  18.351  1.00  0.00    -0.270 OA
ATOM     11  N   UNL     1       9.399  13.161  17.351  1.00  0.00    -0.265 N 
ATOM     12  C   UNL     1      10.725  13.135  13.866  1.00  0.00     0.054 A 
ATOM     13  C   UNL     1      11.379  11.903  13.845  1.00  0.00     0.051 A 
ENDROOT
BRANCH   1  14
ATOM     14  N   UNL     1      12.017   9.816  15.018  1.00  0.00    -0.322 N 
ATOM     15  H   UNL     1      12.061   9.266  14.131  1.00  0.00     0.170 HD
BRANCH  14  16
ATOM     16  C   UNL     1      12.608   9.241  16.193  1.00  0.00     0.173 A 
ATOM     17  C   UNL     1      14.009   9.516  18.090  1.00  0.00     0.229 A 
ATOM     18  N   UNL     1      13.701   8.259  18.510  1.00  0.00    -0.218 NA
ATOM     19  N   UNL     1      13.446   9.999  16.949  1.00  0.00    -0.192 NA
ATOM     20  C   UNL     1      12.858   7.468  17.799  1.00  0.00     0.158 A 
ATOM     21  C   UNL     1      12.283   7.944  16.622  1.00  0.00     0.184 A 
ATOM     22  F   UNL     1      11.389   7.175  15.951  1.00  0.00    -0.201 F 
BRANCH  17  23
ATOM     23  N   UNL     1      14.873  10.361  18.864  1.00  0.00    -0.324 N 
ATOM     24  H   UNL     1      15.812  10.582  18.464  1.00  0.00     0.170 HD
BRANCH  23  25
ATOM     25  C   UNL     1      14.480  11.031  20.076  1.00  0.00     0.049 A 
ATOM     26  C   UNL     1      14.014  13.109  21.258  1.00  0.00     0.166 A 
ATOM     27  C   UNL     1      14.389  12.425  20.090  1.00  0.00     0.076 A 
ATOM     28  C   UNL     1      13.740  12.392  22.435  1.00  0.00     0.203 A 
ATOM     29  C   UNL     1      13.859  10.978  22.441  1.00  0.00     0.166 A 
ATOM     30  C   UNL     1      14.243  10.316  21.258  1.00  0.00     0.076 A 
BRANCH  26  31
ATOM     31  O   UNL     1      13.897  14.508  21.292  1.00  0.00    -0.493 OA
ATOM     32  C   UNL     1      13.058  15.272  20.434  1.00  0.00     0.278 C 
ENDBRANCH  26  31
BRANCH  28  33
ATOM     33  O   UNL     1      13.359  13.149  23.560  1.00  0.00    -0.490 OA
ATOM     34  C   UNL     1      14.204  13.574  24.623  1.00  0.00     0.278 C 
ENDBRANCH  28  33
BRANCH  29  35
ATOM     35  O   UNL     1      13.602  10.257  23.618  1.00  0.00    -0.493 OA
ATOM     36  C   UNL     1      12.752   9.118  23.711  1.00  0.00     0.278 C 
ENDBRANCH  29  35
ENDBRANCH  23  25
ENDBRANCH  17  23
ENDBRANCH  14  16
ENDBRANCH   1  14
BRANCH  11  37
ATOM     37  C   UNL     1       9.477  12.350  18.573  1.00  0.00     0.303 C 
BRANCH  37  38
ATOM     38  O   UNL     1       8.448  11.390  18.551  1.00  0.00    -0.265 OA
BRANCH  38  39
ATOM     39  P   UNL     1       8.920  10.059  19.509  1.00  0.00     0.471 P 
ATOM     40  O   UNL     1       9.368   8.921  18.616  1.00  0.00    -0.228 OA
BRANCH  39  41
ATOM     41  O   UNL     1       7.642   9.548  20.501  1.00  0.00    -0.303 OA
ATOM     42  H   UNL     1       8.040   8.876  21.112  1.00  0.00     0.223 HD
ENDBRANCH  39  41
BRANCH  39  43
ATOM     43  O   UNL     1      10.216  10.533  20.489  1.00  0.00    -0.303 OA
ATOM     44  H   UNL     1      10.937   9.885  20.282  1.00  0.00     0.223 HD
ENDBRANCH  39  43
ENDBRANCH  38  39
ENDBRANCH  37  38
ENDBRANCH  11  37
TORSDOF 12
ENDMDL
MODEL 12
REMARK VINA RESULT:    -8.365      2.143      7.152
REMARK INTER + INTRA:         -15.680
REMARK INTER:                 -13.196
REMARK INTRA:                  -2.485
REMARK UNBOUND:                -1.937
REMARK SMILES COc1cc(Nc2ncc(F)c(Nc3ccc4c(n3)N(COP(=O)(O)O)C(=O)C(C)(C)O4)n2)cc(OC)c1OC
REMARK SMILES IDX 14 1 19 2 18 3 17 4 32 5 29 6 30 7 31 8 27 9 28 10 20 11
REMARK SMILES IDX 16 12 15 13 13 14 12 16 7 17 8 18 33 19 9 20 10 21 11 22
REMARK SMILES IDX 6 23 5 25 3 26 4 27 38 28 35 29 34 30 2 31 1 32 39 33 40 34
REMARK SMILES IDX 36 35 37 36 21 37 22 38 23 39 24 40 25 41 26 43
REMARK H PARENT 13 15 6 24 25 42 26 44
REMARK Flexibility Score: inf
ROOT
ATOM      1  C   UNL     1      11.409  10.983  15.092  1.00  0.00     0.134 A 
ATOM      2  N   UNL     1      10.785  11.485  16.193  1.00  0.00    -0.209 NA
ATOM      3  C   UNL     1      10.129  12.679  16.176  1.00  0.00     0.182 A 
ATOM      4  C   UNL     1      10.095  13.431  14.997  1.00  0.00     0.164 A 
ATOM      5  O   UNL     1       9.414  14.650  14.962  1.00  0.00    -0.474 OA
ATOM      6  C   UNL     1       8.404  15.009  15.913  1.00  0.00     0.182 C 
ATOM      7  C   UNL     1       8.393  16.540  16.034  1.00  0.00     0.067 C 
ATOM      8  C   UNL     1       7.047  14.516  15.390  1.00  0.00     0.067 C 
ATOM      9  C   UNL     1       8.672  14.371  17.265  1.00  0.00     0.273 C 
ATOM     10  O   UNL     1       8.099  14.830  18.292  1.00  0.00    -0.270 OA
ATOM     11  N   UNL     1       9.501  13.194  17.364  1.00  0.00    -0.265 N 
ATOM     12  C   UNL     1      10.760  12.962  13.863  1.00  0.00     0.054 A 
ATOM     13  C   UNL     1      11.421  11.734  13.904  1.00  0.00     0.051 A 
ENDROOT
BRANCH   1  14
ATOM     14  N   UNL     1      12.094   9.726  15.190  1.00  0.00    -0.322 N 
ATOM     15  H   UNL     1      12.146   9.133  14.331  1.00  0.00     0.170 HD
BRANCH  14  16
ATOM     16  C   UNL     1      12.684   9.212  16.393  1.00  0.00     0.173 A 
ATOM     17  C   UNL     1      14.107   9.575  18.258  1.00  0.00     0.229 A 
ATOM     18  N   UNL     1      13.777   8.353  18.759  1.00  0.00    -0.218 NA
ATOM     19  N   UNL     1      13.544   9.998  17.094  1.00  0.00    -0.192 NA
ATOM     20  C   UNL     1      12.911   7.538  18.105  1.00  0.00     0.158 A 
ATOM     21  C   UNL     1      12.335   7.952  16.906  1.00  0.00     0.184 A 
ATOM     22  F   UNL     1      11.420   7.163  16.290  1.00  0.00    -0.201 F 
BRANCH  17  23
ATOM     23  N   UNL     1      14.996  10.448  18.972  1.00  0.00    -0.324 N 
ATOM     24  H   UNL     1      15.938  10.619  18.554  1.00  0.00     0.170 HD
BRANCH  23  25
ATOM     25  C   UNL     1      14.626  11.205  20.139  1.00  0.00     0.049 A 
ATOM     26  C   UNL     1      13.811  11.241  22.434  1.00  0.00     0.166 A 
ATOM     27  C   UNL     1      14.185  10.531  21.281  1.00  0.00     0.076 A 
ATOM     28  C   UNL     1      13.862  12.645  22.443  1.00  0.00     0.203 A 
ATOM     29  C   UNL     1      14.279  13.340  21.278  1.00  0.00     0.166 A 
ATOM     30  C   UNL     1      14.643  12.606  20.133  1.00  0.00     0.076 A 
BRANCH  26  31
ATOM     31  O   UNL     1      13.382  10.586  23.600  1.00  0.00    -0.493 OA
ATOM     32  C   UNL     1      12.838   9.271  23.638  1.00  0.00     0.278 C 
ENDBRANCH  26  31
BRANCH  28  33
ATOM     33  O   UNL     1      13.483  13.282  23.640  1.00  0.00    -0.490 OA
ATOM     34  C   UNL     1      14.353  13.789  24.645  1.00  0.00     0.278 C 
ENDBRANCH  28  33
BRANCH  29  35
ATOM     35  O   UNL     1      14.318  14.744  21.277  1.00  0.00    -0.493 OA
ATOM     36  C   UNL     1      13.198  15.593  21.044  1.00  0.00     0.278 C 
ENDBRANCH  29  35
ENDBRANCH  23  25
ENDBRANCH  17  23
ENDBRANCH  14  16
ENDBRANCH   1  14
BRANCH  11  37
ATOM     37  C   UNL     1       9.607  12.460  18.631  1.00  0.00     0.303 C 
BRANCH  37  38
ATOM     38  O   UNL     1       8.606  11.470  18.672  1.00  0.00    -0.265 OA
BRANCH  38  39
ATOM     39  P   UNL     1       9.345   9.957  18.946  1.00  0.00     0.471 P 
ATOM     40  O   UNL     1       8.681   9.270  20.121  1.00  0.00    -0.228 OA
BRANCH  39  41
ATOM     41  O   UNL     1      11.005  10.142  19.245  1.00  0.00    -0.303 OA
ATOM     42  H   UNL     1      11.108  10.015  20.223  1.00  0.00     0.223 HD
ENDBRANCH  39  41
BRANCH  39  43
ATOM     43  O   UNL     1       9.144   9.000  17.564  1.00  0.00    -0.303 OA
ATOM     44  H   UNL     1       9.335   8.076  17.869  1.00  0.00     0.223 HD
ENDBRANCH  39  43
ENDBRANCH  38  39
ENDBRANCH  37  38
ENDBRANCH  11  37
TORSDOF 12
ENDMDL
MODEL 13
REMARK VINA RESULT:    -8.356      3.552      6.002
REMARK INTER + INTRA:         -15.667
REMARK INTER:                 -12.869
REMARK INTRA:                  -2.797
REMARK UNBOUND:                -1.937
REMARK SMILES COc1cc(Nc2ncc(F)c(Nc3ccc4c(n3)N(COP(=O)(O)O)C(=O)C(C)(C)O4)n2)cc(OC)c1OC
REMARK SMILES IDX 14 1 19 2 18 3 17 4 32 5 29 6 30 7 31 8 27 9 28 10 20 11
REMARK SMILES IDX 16 12 15 13 13 14 12 16 7 17 8 18 33 19 9 20 10 21 11 22
REMARK SMILES IDX 6 23 5 25 3 26 4 27 38 28 35 29 34 30 2 31 1 32 39 33 40 34
REMARK SMILES IDX 36 35 37 36 21 37 22 38 23 39 24 40 25 41 26 43
REMARK H PARENT 13 15 6 24 25 42 26 44
REMARK Flexibility Score: inf
ROOT
ATOM      1  C   UNL     1      11.906  10.327  15.308  1.00  0.00     0.134 A 
ATOM      2  N   UNL     1      11.382  10.465  16.556  1.00  0.00    -0.209 NA
ATOM      3  C   UNL     1      11.913   9.835  17.642  1.00  0.00     0.182 A 
ATOM      4  C   UNL     1      13.028   9.006  17.480  1.00  0.00     0.164 A 
ATOM      5  O   UNL     1      13.591   8.365  18.587  1.00  0.00    -0.474 OA
ATOM      6  C   UNL     1      13.375   8.799  19.935  1.00  0.00     0.182 C 
ATOM      7  C   UNL     1      13.500   7.572  20.851  1.00  0.00     0.067 C 
ATOM      8  C   UNL     1      14.455   9.830  20.292  1.00  0.00     0.067 C 
ATOM      9  C   UNL     1      12.008   9.442  20.092  1.00  0.00     0.273 C 
ATOM     10  O   UNL     1      11.513   9.574  21.246  1.00  0.00    -0.270 OA
ATOM     11  N   UNL     1      11.321   9.982  18.944  1.00  0.00    -0.265 N 
ATOM     12  C   UNL     1      13.563   8.813  16.205  1.00  0.00     0.054 A 
ATOM     13  C   UNL     1      13.004   9.473  15.111  1.00  0.00     0.051 A 
ENDROOT
BRANCH   1  14
ATOM     14  N   UNL     1      11.282  11.010  14.210  1.00  0.00    -0.322 N 
ATOM     15  H   UNL     1      10.782  10.430  13.498  1.00  0.00     0.170 HD
BRANCH  14  16
ATOM     16  C   UNL     1      11.327  12.430  14.003  1.00  0.00     0.173 A 
ATOM     17  C   UNL     1      10.678  14.596  14.725  1.00  0.00     0.229 A 
ATOM     18  N   UNL     1      11.440  15.159  13.749  1.00  0.00    -0.218 NA
ATOM     19  N   UNL     1      10.645  13.242  14.854  1.00  0.00    -0.192 NA
ATOM     20  C   UNL     1      12.153  14.392  12.885  1.00  0.00     0.158 A 
ATOM     21  C   UNL     1      12.119  13.004  12.995  1.00  0.00     0.184 A 
ATOM     22  F   UNL     1      12.885  12.244  12.173  1.00  0.00    -0.201 F 
BRANCH  17  23
ATOM     23  N   UNL     1       9.955  15.412  15.659  1.00  0.00    -0.324 N 
ATOM     24  H   UNL     1      10.497  15.837  16.445  1.00  0.00     0.170 HD
BRANCH  23  25
ATOM     25  C   UNL     1       8.576  15.794  15.505  1.00  0.00     0.049 A 
ATOM     26  C   UNL     1       6.715  16.354  14.036  1.00  0.00     0.166 A 
ATOM     27  C   UNL     1       8.056  15.974  14.221  1.00  0.00     0.076 A 
ATOM     28  C   UNL     1       5.886  16.571  15.149  1.00  0.00     0.203 A 
ATOM     29  C   UNL     1       6.414  16.420  16.458  1.00  0.00     0.166 A 
ATOM     30  C   UNL     1       7.762  16.046  16.617  1.00  0.00     0.076 A 
BRANCH  26  31
ATOM     31  O   UNL     1       6.164  16.523  12.756  1.00  0.00    -0.493 OA
ATOM     32  C   UNL     1       6.881  16.363  11.536  1.00  0.00     0.278 C 
ENDBRANCH  26  31
BRANCH  28  33
ATOM     33  O   UNL     1       4.553  16.936  14.881  1.00  0.00    -0.490 OA
ATOM     34  C   UNL     1       4.019  18.255  14.872  1.00  0.00     0.278 C 
ENDBRANCH  28  33
BRANCH  29  35
ATOM     35  O   UNL     1       5.594  16.651  17.574  1.00  0.00    -0.493 OA
ATOM     36  C   UNL     1       6.023  17.245  18.796  1.00  0.00     0.278 C 
ENDBRANCH  29  35
ENDBRANCH  23  25
ENDBRANCH  17  23
ENDBRANCH  14  16
ENDBRANCH   1  14
BRANCH  11  37
ATOM     37  C   UNL     1      10.096  10.774  19.113  1.00  0.00     0.303 C 
BRANCH  37  38
ATOM     38  O   UNL     1      10.438  12.043  19.618  1.00  0.00    -0.265 OA
BRANCH  38  39
ATOM     39  P   UNL     1       9.673  13.235  18.667  1.00  0.00     0.471 P 
ATOM     40  O   UNL     1      10.641  14.367  18.391  1.00  0.00    -0.228 OA
BRANCH  39  41
ATOM     41  O   UNL     1       8.290  13.833  19.449  1.00  0.00    -0.303 OA
ATOM     42  H   UNL     1       8.204  14.772  19.142  1.00  0.00     0.223 HD
ENDBRANCH  39  41
BRANCH  39  43
ATOM     43  O   UNL     1       9.208  12.537  17.197  1.00  0.00    -0.303 OA
ATOM     44  H   UNL     1       9.802  11.750  17.095  1.00  0.00     0.223 HD
ENDBRANCH  39  43
ENDBRANCH  38  39
ENDBRANCH  37  38
ENDBRANCH  11  37
TORSDOF 12
ENDMDL
MODEL 14
REMARK VINA RESULT:    -8.294      3.588      5.739
REMARK INTER + INTRA:         -15.565
REMARK INTER:                 -12.705
REMARK INTRA:                  -2.859
REMARK UNBOUND:                -1.937
REMARK SMILES COc1cc(Nc2ncc(F)c(Nc3ccc4c(n3)N(COP(=O)(O)O)C(=O)C(C)(C)O4)n2)cc(OC)c1OC
REMARK SMILES IDX 14 1 19 2 18 3 17 4 32 5 29 6 30 7 31 8 27 9 28 10 20 11
REMARK SMILES IDX 16 12 15 13 13 14 12 16 7 17 8 18 33 19 9 20 10 21 11 22
REMARK SMILES IDX 6 23 5 25 3 26 4 27 38 28 35 29 34 30 2 31 1 32 39 33 40 34
REMARK SMILES IDX 36 35 37 36 21 37 22 38 23 39 24 40 25 41 26 43
REMARK H PARENT 13 15 6 24 25 42 26 44
REMARK Flexibility Score: inf
ROOT
ATOM      1  C   UNL     1      11.899  10.415  15.241  1.00  0.00     0.134 A 
ATOM      2  N   UNL     1      11.380  10.535  16.493  1.00  0.00    -0.209 NA
ATOM      3  C   UNL     1      11.912   9.884  17.566  1.00  0.00     0.182 A 
ATOM      4  C   UNL     1      13.022   9.052  17.388  1.00  0.00     0.164 A 
ATOM      5  O   UNL     1      13.585   8.390  18.481  1.00  0.00    -0.474 OA
ATOM      6  C   UNL     1      13.376   8.802  19.838  1.00  0.00     0.182 C 
ATOM      7  C   UNL     1      13.497   7.560  20.732  1.00  0.00     0.067 C 
ATOM      8  C   UNL     1      14.463   9.822  20.208  1.00  0.00     0.067 C 
ATOM      9  C   UNL     1      12.013   9.450  20.010  1.00  0.00     0.273 C 
ATOM     10  O   UNL     1      11.523   9.566  21.168  1.00  0.00    -0.270 OA
ATOM     11  N   UNL     1      11.325  10.013  18.873  1.00  0.00    -0.265 N 
ATOM     12  C   UNL     1      13.551   8.877  16.108  1.00  0.00     0.054 A 
ATOM     13  C   UNL     1      12.993   9.558  15.026  1.00  0.00     0.051 A 
ENDROOT
BRANCH   1  14
ATOM     14  N   UNL     1      11.276  11.118  14.156  1.00  0.00    -0.322 N 
ATOM     15  H   UNL     1      10.779  10.552  13.432  1.00  0.00     0.170 HD
BRANCH  14  16
ATOM     16  C   UNL     1      11.318  12.542  13.979  1.00  0.00     0.173 A 
ATOM     17  C   UNL     1      10.622  14.689  14.717  1.00  0.00     0.229 A 
ATOM     18  N   UNL     1      11.419  15.277  13.783  1.00  0.00    -0.218 NA
ATOM     19  N   UNL     1      10.595  13.332  14.817  1.00  0.00    -0.192 NA
ATOM     20  C   UNL     1      12.172  14.533  12.934  1.00  0.00     0.158 A 
ATOM     21  C   UNL     1      12.146  13.142  13.016  1.00  0.00     0.184 A 
ATOM     22  F   UNL     1      12.950  12.405  12.211  1.00  0.00    -0.201 F 
BRANCH  17  23
ATOM     23  N   UNL     1       9.855  15.482  15.636  1.00  0.00    -0.324 N 
ATOM     24  H   UNL     1      10.359  15.886  16.456  1.00  0.00     0.170 HD
BRANCH  23  25
ATOM     25  C   UNL     1       8.484  15.866  15.427  1.00  0.00     0.049 A 
ATOM     26  C   UNL     1       6.298  16.397  16.360  1.00  0.00     0.166 A 
ATOM     27  C   UNL     1       7.643  16.029  16.530  1.00  0.00     0.076 A 
ATOM     28  C   UNL     1       5.781  16.593  15.069  1.00  0.00     0.203 A 
ATOM     29  C   UNL     1       6.619  16.401  13.939  1.00  0.00     0.166 A 
ATOM     30  C   UNL     1       7.962  16.025  14.136  1.00  0.00     0.076 A 
BRANCH  26  31
ATOM     31  O   UNL     1       5.438  16.585  17.454  1.00  0.00    -0.493 OA
ATOM     32  C   UNL     1       5.478  17.702  18.335  1.00  0.00     0.278 C 
ENDBRANCH  26  31
BRANCH  28  33
ATOM     33  O   UNL     1       4.428  16.973  14.982  1.00  0.00    -0.490 OA
ATOM     34  C   UNL     1       3.927  18.286  14.753  1.00  0.00     0.278 C 
ENDBRANCH  28  33
BRANCH  29  35
ATOM     35  O   UNL     1       6.103  16.579  12.646  1.00  0.00    -0.493 OA
ATOM     36  C   UNL     1       6.708  17.369  11.626  1.00  0.00     0.278 C 
ENDBRANCH  29  35
ENDBRANCH  23  25
ENDBRANCH  17  23
ENDBRANCH  14  16
ENDBRANCH   1  14
BRANCH  11  37
ATOM     37  C   UNL     1      10.105  10.809  19.059  1.00  0.00     0.303 C 
BRANCH  37  38
ATOM     38  O   UNL     1      10.457  12.073  19.570  1.00  0.00    -0.265 OA
BRANCH  38  39
ATOM     39  P   UNL     1       9.672  13.274  18.648  1.00  0.00     0.471 P 
ATOM     40  O   UNL     1      10.637  14.403  18.352  1.00  0.00    -0.228 OA
BRANCH  39  41
ATOM     41  O   UNL     1       8.314  13.875  19.471  1.00  0.00    -0.303 OA
ATOM     42  H   UNL     1       7.839  13.073  19.807  1.00  0.00     0.223 HD
ENDBRANCH  39  41
BRANCH  39  43
ATOM     43  O   UNL     1       9.163  12.588  17.187  1.00  0.00    -0.303 OA
ATOM     44  H   UNL     1      10.002  12.401  16.693  1.00  0.00     0.223 HD
ENDBRANCH  39  43
ENDBRANCH  38  39
ENDBRANCH  37  38
ENDBRANCH  11  37
TORSDOF 12
ENDMDL
MODEL 15
REMARK VINA RESULT:    -8.273      4.153      8.188
REMARK INTER + INTRA:         -15.530
REMARK INTER:                 -13.483
REMARK INTRA:                  -2.047
REMARK UNBOUND:                -1.937
REMARK SMILES COc1cc(Nc2ncc(F)c(Nc3ccc4c(n3)N(COP(=O)(O)O)C(=O)C(C)(C)O4)n2)cc(OC)c1OC
REMARK SMILES IDX 14 1 19 2 18 3 17 4 32 5 29 6 30 7 31 8 27 9 28 10 20 11
REMARK SMILES IDX 16 12 15 13 13 14 12 16 7 17 8 18 33 19 9 20 10 21 11 22
REMARK SMILES IDX 6 23 5 25 3 26 4 27 38 28 35 29 34 30 2 31 1 32 39 33 40 34
REMARK SMILES IDX 36 35 37 36 21 37 22 38 23 39 24 40 25 41 26 43
REMARK H PARENT 13 15 6 24 25 42 26 44
REMARK Flexibility Score: inf
ROOT
ATOM      1  C   UNL     1      13.064   8.700  22.279  1.00  0.00     0.134 A 
ATOM      2  N   UNL     1      12.392   9.393  21.319  1.00  0.00    -0.209 NA
ATOM      3  C   UNL     1      12.603   9.185  19.989  1.00  0.00     0.182 A 
ATOM      4  C   UNL     1      13.548   8.239  19.580  1.00  0.00     0.164 A 
ATOM      5  O   UNL     1      13.765   8.007  18.220  1.00  0.00    -0.474 OA
ATOM      6  C   UNL     1      12.818   8.362  17.205  1.00  0.00     0.182 C 
ATOM      7  C   UNL     1      13.595   8.632  15.909  1.00  0.00     0.067 C 
ATOM      8  C   UNL     1      11.857   7.181  17.003  1.00  0.00     0.067 C 
ATOM      9  C   UNL     1      12.015   9.587  17.609  1.00  0.00     0.273 C 
ATOM     10  O   UNL     1      11.388  10.237  16.727  1.00  0.00    -0.270 OA
ATOM     11  N   UNL     1      11.893   9.952  19.000  1.00  0.00    -0.265 N 
ATOM     12  C   UNL     1      14.283   7.541  20.541  1.00  0.00     0.054 A 
ATOM     13  C   UNL     1      14.045   7.768  21.896  1.00  0.00     0.051 A 
ENDROOT
BRANCH   1  14
ATOM     14  N   UNL     1      12.800   8.984  23.660  1.00  0.00    -0.322 N 
ATOM     15  H   UNL     1      12.340   8.239  24.230  1.00  0.00     0.170 HD
BRANCH  14  16
ATOM     16  C   UNL     1      13.094  10.233  24.304  1.00  0.00     0.173 A 
ATOM     17  C   UNL     1      13.794  12.492  24.104  1.00  0.00     0.229 A 
ATOM     18  N   UNL     1      13.578  12.686  25.434  1.00  0.00    -0.218 NA
ATOM     19  N   UNL     1      13.532  11.277  23.552  1.00  0.00    -0.192 NA
ATOM     20  C   UNL     1      13.126  11.681  26.225  1.00  0.00     0.158 A 
ATOM     21  C   UNL     1      12.864  10.427  25.677  1.00  0.00     0.184 A 
ATOM     22  F   UNL     1      12.349   9.444  26.457  1.00  0.00    -0.201 F 
BRANCH  17  23
ATOM     23  N   UNL     1      14.239  13.569  23.265  1.00  0.00    -0.324 N 
ATOM     24  H   UNL     1      14.052  14.543  23.595  1.00  0.00     0.170 HD
BRANCH  23  25
ATOM     25  C   UNL     1      15.040  13.398  22.082  1.00  0.00     0.049 A 
ATOM     26  C   UNL     1      15.223  12.639  19.775  1.00  0.00     0.166 A 
ATOM     27  C   UNL     1      14.467  12.826  20.944  1.00  0.00     0.076 A 
ATOM     28  C   UNL     1      16.576  13.016  19.746  1.00  0.00     0.203 A 
ATOM     29  C   UNL     1      17.177  13.570  20.906  1.00  0.00     0.166 A 
ATOM     30  C   UNL     1      16.398  13.741  22.068  1.00  0.00     0.076 A 
BRANCH  26  31
ATOM     31  O   UNL     1      14.665  12.083  18.613  1.00  0.00    -0.493 OA
ATOM     32  C   UNL     1      13.834  12.786  17.696  1.00  0.00     0.278 C 
ENDBRANCH  26  31
BRANCH  28  33
ATOM     33  O   UNL     1      17.263  12.808  18.534  1.00  0.00    -0.490 OA
ATOM     34  C   UNL     1      17.551  13.787  17.542  1.00  0.00     0.278 C 
ENDBRANCH  28  33
BRANCH  29  35
ATOM     35  O   UNL     1      18.533  13.934  20.888  1.00  0.00    -0.493 OA
ATOM     36  C   UNL     1      19.495  13.553  21.866  1.00  0.00     0.278 C 
ENDBRANCH  29  35
ENDBRANCH  23  25
ENDBRANCH  17  23
ENDBRANCH  14  16
ENDBRANCH   1  14
BRANCH  11  37
ATOM     37  C   UNL     1      10.966  11.013  19.414  1.00  0.00     0.303 C 
BRANCH  37  38
ATOM     38  O   UNL     1       9.787  10.422  19.907  1.00  0.00    -0.265 OA
BRANCH  38  39
ATOM     39  P   UNL     1       8.598  10.472  18.684  1.00  0.00     0.471 P 
ATOM     40  O   UNL     1       7.222  10.532  19.313  1.00  0.00    -0.228 OA
BRANCH  39  41
ATOM     41  O   UNL     1       8.715   9.113  17.675  1.00  0.00    -0.303 OA
ATOM     42  H   UNL     1       7.820   9.019  17.261  1.00  0.00     0.223 HD
ENDBRANCH  39  41
BRANCH  39  43
ATOM     43  O   UNL     1       8.839  11.865  17.753  1.00  0.00    -0.303 OA
ATOM     44  H   UNL     1       9.789  12.105  17.903  1.00  0.00     0.223 HD
ENDBRANCH  39  43
ENDBRANCH  38  39
ENDBRANCH  37  38
ENDBRANCH  11  37
TORSDOF 12
ENDMDL
