MODEL 1
REMARK VINA RESULT:    -9.044      0.000      0.000
REMARK INTER + INTRA:         -15.240
REMARK INTER:                 -14.330
REMARK INTRA:                  -0.909
REMARK UNBOUND:                -0.909
REMARK SMILES CC[C@@H]1C(=O)N(C)c2cnc(Nc3ccc(C(=O)N[C@H]4CC[C@H](N5CCN(CC6CC6)CC5)CC4)cc3OC)nc2N1C(C)C
REMARK SMILES IDX 17 1 18 2 19 3 16 5 13 6 14 7 37 8 15 9 36 10 12 11 11 13
REMARK SMILES IDX 3 14 42 15 4 16 41 17 6 18 5 19 40 20 8 21 7 22 9 23 10 24
REMARK SMILES IDX 2 25 1 26 43 27 44 28 45 29 38 30 39 31 20 32 35 33 21 34
REMARK SMILES IDX 34 35 22 36 23 37 24 38 25 39 33 40 26 41 32 42 27 43 28 44
REMARK SMILES IDX 29 45 30 46 31 47
REMARK H PARENT 19 4 12 12
REMARK Flexibility Score: inf
ROOT
ATOM      1  C   UNL     1      22.089  24.324  39.950  1.00  0.00     0.251 C 
ATOM      2  O   UNL     1      22.258  24.268  41.199  1.00  0.00    -0.269 OA
ATOM      3  N   UNL     1      20.885  24.889  39.406  1.00  0.00    -0.349 N 
ATOM      4  H   UNL     1      20.778  24.899  38.364  1.00  0.00     0.164 HD
ENDROOT
BRANCH   1   5
ATOM      5  C   UNL     1      23.156  23.838  39.049  1.00  0.00     0.043 A 
ATOM      6  C   UNL     1      25.156  22.831  37.337  1.00  0.00     0.084 A 
ATOM      7  C   UNL     1      23.890  23.182  36.834  1.00  0.00     0.031 A 
ATOM      8  C   UNL     1      25.425  22.997  38.710  1.00  0.00     0.143 A 
ATOM      9  C   UNL     1      22.907  23.700  37.680  1.00  0.00     0.016 A 
ATOM     10  C   UNL     1      24.417  23.494  39.558  1.00  0.00     0.062 A 
BRANCH   6  11
ATOM     11  N   UNL     1      26.145  22.222  36.490  1.00  0.00    -0.321 N 
ATOM     12  H   UNL     1      26.906  21.661  36.938  1.00  0.00     0.170 HD
BRANCH  11  13
ATOM     13  C   UNL     1      26.197  22.360  35.063  1.00  0.00     0.229 A 
ATOM     14  C   UNL     1      27.660  20.455  30.886  1.00  0.00     0.173 C 
ATOM     15  N   UNL     1      26.945  20.220  32.157  1.00  0.00    -0.340 N 
ATOM     16  C   UNL     1      26.976  21.570  30.137  1.00  0.00     0.249 C 
ATOM     17  C   UNL     1      26.606  21.375  32.948  1.00  0.00     0.159 A 
ATOM     18  N   UNL     1      26.405  22.678  30.866  1.00  0.00    -0.309 N 
ATOM     19  O   UNL     1      26.961  21.549  28.876  1.00  0.00    -0.272 OA
ATOM     20  N   UNL     1      26.522  21.283  34.302  1.00  0.00    -0.193 NA
ATOM     21  C   UNL     1      26.354  22.601  32.310  1.00  0.00     0.105 A 
ATOM     22  C   UNL     1      25.914  23.868  30.160  1.00  0.00     0.153 C 
ATOM     23  C   UNL     1      26.047  23.707  33.119  1.00  0.00     0.145 A 
ATOM     24  N   UNL     1      25.977  23.564  34.469  1.00  0.00    -0.219 NA
BRANCH  14  25
ATOM     25  C   UNL     1      29.129  20.853  31.135  1.00  0.00     0.032 C 
ATOM     26  C   UNL     1      30.058  20.462  29.990  1.00  0.00     0.006 C 
ENDBRANCH  14  25
BRANCH  15  27
ATOM     27  C   UNL     1      26.248  18.944  32.432  1.00  0.00     0.078 C 
ATOM     28  C   UNL     1      26.183  18.079  31.167  1.00  0.00     0.031 C 
ATOM     29  C   UNL     1      26.883  18.178  33.598  1.00  0.00     0.031 C 
ENDBRANCH  15  27
ENDBRANCH  11  13
ENDBRANCH   6  11
BRANCH   8  30
ATOM     30  O   UNL     1      26.700  22.662  39.195  1.00  0.00    -0.495 OA
ATOM     31  C   UNL     1      26.977  21.539  40.028  1.00  0.00     0.278 C 
ENDBRANCH   8  30
ENDBRANCH   1   5
BRANCH   3  32
ATOM     32  C   UNL     1      19.817  25.463  40.233  1.00  0.00     0.082 C 
ATOM     33  C   UNL     1      19.349  26.808  39.642  1.00  0.00     0.026 C 
ATOM     34  C   UNL     1      18.637  24.471  40.321  1.00  0.00     0.026 C 
ATOM     35  C   UNL     1      18.168  27.392  40.429  1.00  0.00     0.021 C 
ATOM     36  C   UNL     1      17.449  25.062  41.091  1.00  0.00     0.021 C 
ATOM     37  C   UNL     1      16.990  26.388  40.448  1.00  0.00     0.057 C 
BRANCH  37  38
ATOM     38  N   UNL     1      15.765  26.898  41.112  1.00  0.00    -0.298 NA
ATOM     39  C   UNL     1      14.536  26.576  40.352  1.00  0.00     0.100 C 
ATOM     40  C   UNL     1      15.796  28.319  41.499  1.00  0.00     0.100 C 
ATOM     41  C   UNL     1      13.305  27.345  40.888  1.00  0.00     0.100 C 
ATOM     42  C   UNL     1      14.652  28.608  42.496  1.00  0.00     0.100 C 
ATOM     43  N   UNL     1      13.470  27.726  42.304  1.00  0.00    -0.301 NA
BRANCH  43  44
ATOM     44  C   UNL     1      13.485  26.542  43.195  1.00  0.00     0.088 C 
BRANCH  44  45
ATOM     45  C   UNL     1      12.044  26.165  43.586  1.00  0.00     0.003 C 
ATOM     46  C   UNL     1      11.731  26.279  45.072  1.00  0.00     0.005 C 
ATOM     47  C   UNL     1      11.899  24.908  44.425  1.00  0.00     0.005 C 
ENDBRANCH  44  45
ENDBRANCH  43  44
ENDBRANCH  37  38
ENDBRANCH   3  32
TORSDOF 10
ENDMDL
MODEL 2
REMARK VINA RESULT:    -8.729      5.611     17.292
REMARK INTER + INTRA:         -14.741
REMARK INTER:                 -13.387
REMARK INTRA:                  -1.354
REMARK UNBOUND:                -0.909
REMARK SMILES CC[C@@H]1C(=O)N(C)c2cnc(Nc3ccc(C(=O)N[C@H]4CC[C@H](N5CCN(CC6CC6)CC5)CC4)cc3OC)nc2N1C(C)C
REMARK SMILES IDX 17 1 18 2 19 3 16 5 13 6 14 7 37 8 15 9 36 10 12 11 11 13
REMARK SMILES IDX 3 14 42 15 4 16 41 17 6 18 5 19 40 20 8 21 7 22 9 23 10 24
REMARK SMILES IDX 2 25 1 26 43 27 44 28 45 29 38 30 39 31 20 32 35 33 21 34
REMARK SMILES IDX 34 35 22 36 23 37 24 38 25 39 33 40 26 41 32 42 27 43 28 44
REMARK SMILES IDX 29 45 30 46 31 47
REMARK H PARENT 19 4 12 12
REMARK Flexibility Score: inf
ROOT
ATOM      1  C   UNL     1      15.124  27.275  41.367  1.00  0.00     0.251 C 
ATOM      2  O   UNL     1      14.654  26.372  40.623  1.00  0.00    -0.269 OA
ATOM      3  N   UNL     1      16.533  27.561  41.357  1.00  0.00    -0.349 N 
ATOM      4  H   UNL     1      16.884  28.306  42.004  1.00  0.00     0.164 HD
ENDROOT
BRANCH   1   5
ATOM      5  C   UNL     1      14.211  28.063  42.221  1.00  0.00     0.043 A 
ATOM      6  C   UNL     1      12.530  29.565  43.913  1.00  0.00     0.084 A 
ATOM      7  C   UNL     1      13.541  30.194  43.162  1.00  0.00     0.031 A 
ATOM      8  C   UNL     1      12.354  28.172  43.804  1.00  0.00     0.143 A 
ATOM      9  C   UNL     1      14.359  29.451  42.310  1.00  0.00     0.016 A 
ATOM     10  C   UNL     1      13.203  27.429  42.962  1.00  0.00     0.062 A 
BRANCH   6  11
ATOM     11  N   UNL     1      11.737  30.309  44.854  1.00  0.00    -0.321 N 
ATOM     12  H   UNL     1      10.706  30.378  44.689  1.00  0.00     0.170 HD
BRANCH  11  13
ATOM     13  C   UNL     1      12.260  31.010  45.990  1.00  0.00     0.229 A 
ATOM     14  C   UNL     1      14.805  34.785  47.570  1.00  0.00     0.173 C 
ATOM     15  N   UNL     1      13.699  34.327  46.704  1.00  0.00    -0.340 N 
ATOM     16  C   UNL     1      14.510  34.390  48.993  1.00  0.00     0.249 C 
ATOM     17  C   UNL     1      13.234  32.976  46.883  1.00  0.00     0.159 A 
ATOM     18  N   UNL     1      13.842  33.137  49.266  1.00  0.00    -0.309 N 
ATOM     19  O   UNL     1      14.901  35.132  49.935  1.00  0.00    -0.272 OA
ATOM     20  N   UNL     1      12.709  32.283  45.838  1.00  0.00    -0.193 NA
ATOM     21  C   UNL     1      13.321  32.378  48.151  1.00  0.00     0.105 A 
ATOM     22  C   UNL     1      13.722  32.635  50.640  1.00  0.00     0.153 C 
ATOM     23  C   UNL     1      12.876  31.051  48.279  1.00  0.00     0.145 A 
ATOM     24  N   UNL     1      12.360  30.400  47.203  1.00  0.00    -0.219 NA
BRANCH  14  25
ATOM     25  C   UNL     1      16.146  34.151  47.147  1.00  0.00     0.032 C 
ATOM     26  C   UNL     1      17.284  35.162  47.052  1.00  0.00     0.006 C 
ENDBRANCH  14  25
BRANCH  15  27
ATOM     27  C   UNL     1      12.831  35.285  45.981  1.00  0.00     0.078 C 
ATOM     28  C   UNL     1      11.998  36.112  46.967  1.00  0.00     0.031 C 
ATOM     29  C   UNL     1      13.630  36.187  45.034  1.00  0.00     0.031 C 
ENDBRANCH  15  27
ENDBRANCH  11  13
ENDBRANCH   6  11
BRANCH   8  30
ATOM     30  O   UNL     1      11.327  27.560  44.544  1.00  0.00    -0.495 OA
ATOM     31  C   UNL     1      11.525  26.848  45.762  1.00  0.00     0.278 C 
ENDBRANCH   8  30
ENDBRANCH   1   5
BRANCH   3  32
ATOM     32  C   UNL     1      17.490  26.876  40.480  1.00  0.00     0.082 C 
ATOM     33  C   UNL     1      18.850  27.602  40.504  1.00  0.00     0.026 C 
ATOM     34  C   UNL     1      17.652  25.408  40.932  1.00  0.00     0.026 C 
ATOM     35  C   UNL     1      19.903  26.859  39.670  1.00  0.00     0.021 C 
ATOM     36  C   UNL     1      18.719  24.672  40.111  1.00  0.00     0.021 C 
ATOM     37  C   UNL     1      20.071  25.411  40.190  1.00  0.00     0.057 C 
BRANCH  37  38
ATOM     38  N   UNL     1      21.134  24.636  39.502  1.00  0.00    -0.298 NA
ATOM     39  C   UNL     1      22.094  25.508  38.787  1.00  0.00     0.100 C 
ATOM     40  C   UNL     1      20.663  23.539  38.639  1.00  0.00     0.100 C 
ATOM     41  C   UNL     1      23.020  24.700  37.847  1.00  0.00     0.100 C 
ATOM     42  C   UNL     1      21.845  22.602  38.304  1.00  0.00     0.100 C 
ATOM     43  N   UNL     1      23.159  23.298  38.285  1.00  0.00    -0.301 NA
BRANCH  43  44
ATOM     44  C   UNL     1      23.886  23.192  39.571  1.00  0.00     0.088 C 
BRANCH  44  45
ATOM     45  C   UNL     1      25.370  23.541  39.362  1.00  0.00     0.003 C 
ATOM     46  C   UNL     1      26.049  22.804  38.215  1.00  0.00     0.005 C 
ATOM     47  C   UNL     1      26.357  22.425  39.660  1.00  0.00     0.005 C 
ENDBRANCH  44  45
ENDBRANCH  43  44
ENDBRANCH  37  38
ENDBRANCH   3  32
TORSDOF 10
ENDMDL
MODEL 3
REMARK VINA RESULT:    -8.674      5.223     16.967
REMARK INTER + INTRA:         -14.654
REMARK INTER:                 -13.614
REMARK INTRA:                  -1.041
REMARK UNBOUND:                -0.909
REMARK SMILES CC[C@@H]1C(=O)N(C)c2cnc(Nc3ccc(C(=O)N[C@H]4CC[C@H](N5CCN(CC6CC6)CC5)CC4)cc3OC)nc2N1C(C)C
REMARK SMILES IDX 17 1 18 2 19 3 16 5 13 6 14 7 37 8 15 9 36 10 12 11 11 13
REMARK SMILES IDX 3 14 42 15 4 16 41 17 6 18 5 19 40 20 8 21 7 22 9 23 10 24
REMARK SMILES IDX 2 25 1 26 43 27 44 28 45 29 38 30 39 31 20 32 35 33 21 34
REMARK SMILES IDX 34 35 22 36 23 37 24 38 25 39 33 40 26 41 32 42 27 43 28 44
REMARK SMILES IDX 29 45 30 46 31 47
REMARK H PARENT 19 4 12 12
REMARK Flexibility Score: inf
ROOT
ATOM      1  C   UNL     1      16.075  26.774  40.773  1.00  0.00     0.251 C 
ATOM      2  O   UNL     1      15.732  25.842  39.995  1.00  0.00    -0.269 OA
ATOM      3  N   UNL     1      17.458  27.147  40.893  1.00  0.00    -0.349 N 
ATOM      4  H   UNL     1      17.700  27.913  41.563  1.00  0.00     0.164 HD
ENDROOT
BRANCH   1   5
ATOM      5  C   UNL     1      15.039  27.505  41.533  1.00  0.00     0.043 A 
ATOM      6  C   UNL     1      13.107  28.881  43.056  1.00  0.00     0.084 A 
ATOM      7  C   UNL     1      14.301  29.516  42.666  1.00  0.00     0.031 A 
ATOM      8  C   UNL     1      12.876  27.546  42.669  1.00  0.00     0.143 A 
ATOM      9  C   UNL     1      15.247  28.840  41.895  1.00  0.00     0.016 A 
ATOM     10  C   UNL     1      13.850  26.865  41.915  1.00  0.00     0.062 A 
BRANCH   6  11
ATOM     11  N   UNL     1      12.166  29.542  43.919  1.00  0.00    -0.321 N 
ATOM     12  H   UNL     1      11.167  29.232  43.894  1.00  0.00     0.170 HD
BRANCH  11  13
ATOM     13  C   UNL     1      12.482  30.638  44.789  1.00  0.00     0.229 A 
ATOM     14  C   UNL     1      13.200  35.386  45.184  1.00  0.00     0.173 C 
ATOM     15  N   UNL     1      12.309  34.318  44.688  1.00  0.00    -0.340 N 
ATOM     16  C   UNL     1      13.363  35.239  46.674  1.00  0.00     0.249 C 
ATOM     17  C   UNL     1      12.563  32.977  45.150  1.00  0.00     0.159 A 
ATOM     18  N   UNL     1      13.409  33.920  47.263  1.00  0.00    -0.309 N 
ATOM     19  O   UNL     1      13.513  36.270  47.385  1.00  0.00    -0.272 OA
ATOM     20  N   UNL     1      12.256  31.909  44.367  1.00  0.00    -0.193 NA
ATOM     21  C   UNL     1      13.125  32.779  46.421  1.00  0.00     0.105 A 
ATOM     22  C   UNL     1      13.765  33.742  48.676  1.00  0.00     0.153 C 
ATOM     23  C   UNL     1      13.376  31.457  46.825  1.00  0.00     0.145 A 
ATOM     24  N   UNL     1      13.053  30.423  46.005  1.00  0.00    -0.219 NA
BRANCH  14  25
ATOM     25  C   UNL     1      14.592  35.305  44.523  1.00  0.00     0.032 C 
ATOM     26  C   UNL     1      15.379  36.607  44.620  1.00  0.00     0.006 C 
ENDBRANCH  14  25
BRANCH  15  27
ATOM     27  C   UNL     1      10.990  34.623  44.089  1.00  0.00     0.078 C 
ATOM     28  C   UNL     1      10.372  35.866  44.742  1.00  0.00     0.031 C 
ATOM     29  C   UNL     1      11.068  34.775  42.566  1.00  0.00     0.031 C 
ENDBRANCH  15  27
ENDBRANCH  11  13
ENDBRANCH   6  11
BRANCH   8  30
ATOM     30  O   UNL     1      11.671  26.931  43.049  1.00  0.00    -0.495 OA
ATOM     31  C   UNL     1      11.218  25.673  42.556  1.00  0.00     0.278 C 
ENDBRANCH   8  30
ENDBRANCH   1   5
BRANCH   3  32
ATOM     32  C   UNL     1      18.533  26.522  40.112  1.00  0.00     0.082 C 
ATOM     33  C   UNL     1      19.874  27.232  40.388  1.00  0.00     0.026 C 
ATOM     34  C   UNL     1      18.631  25.023  40.470  1.00  0.00     0.026 C 
ATOM     35  C   UNL     1      21.038  26.546  39.660  1.00  0.00     0.021 C 
ATOM     36  C   UNL     1      19.806  24.342  39.757  1.00  0.00     0.021 C 
ATOM     37  C   UNL     1      21.131  25.061  40.086  1.00  0.00     0.057 C 
BRANCH  37  38
ATOM     38  N   UNL     1      22.284  24.331  39.502  1.00  0.00    -0.298 NA
ATOM     39  C   UNL     1      21.888  23.470  38.365  1.00  0.00     0.100 C 
ATOM     40  C   UNL     1      23.123  23.594  40.463  1.00  0.00     0.100 C 
ATOM     41  C   UNL     1      23.023  22.504  37.947  1.00  0.00     0.100 C 
ATOM     42  C   UNL     1      24.464  23.215  39.795  1.00  0.00     0.100 C 
ATOM     43  N   UNL     1      24.352  23.023  38.324  1.00  0.00    -0.301 NA
BRANCH  43  44
ATOM     44  C   UNL     1      24.707  24.239  37.556  1.00  0.00     0.088 C 
BRANCH  44  45
ATOM     45  C   UNL     1      25.893  23.939  36.622  1.00  0.00     0.003 C 
ATOM     46  C   UNL     1      25.535  23.175  35.354  1.00  0.00     0.005 C 
ATOM     47  C   UNL     1      26.272  22.474  36.490  1.00  0.00     0.005 C 
ENDBRANCH  44  45
ENDBRANCH  43  44
ENDBRANCH  37  38
ENDBRANCH   3  32
TORSDOF 10
ENDMDL
MODEL 4
REMARK VINA RESULT:    -8.560      5.408     17.122
REMARK INTER + INTRA:         -14.473
REMARK INTER:                 -13.295
REMARK INTRA:                  -1.178
REMARK UNBOUND:                -0.909
REMARK SMILES CC[C@@H]1C(=O)N(C)c2cnc(Nc3ccc(C(=O)N[C@H]4CC[C@H](N5CCN(CC6CC6)CC5)CC4)cc3OC)nc2N1C(C)C
REMARK SMILES IDX 17 1 18 2 19 3 16 5 13 6 14 7 37 8 15 9 36 10 12 11 11 13
REMARK SMILES IDX 3 14 42 15 4 16 41 17 6 18 5 19 40 20 8 21 7 22 9 23 10 24
REMARK SMILES IDX 2 25 1 26 43 27 44 28 45 29 38 30 39 31 20 32 35 33 21 34
REMARK SMILES IDX 34 35 22 36 23 37 24 38 25 39 33 40 26 41 32 42 27 43 28 44
REMARK SMILES IDX 29 45 30 46 31 47
REMARK H PARENT 19 4 12 12
REMARK Flexibility Score: inf
ROOT
ATOM      1  C   UNL     1      16.066  26.771  40.759  1.00  0.00     0.251 C 
ATOM      2  O   UNL     1      15.726  25.794  40.037  1.00  0.00    -0.269 OA
ATOM      3  N   UNL     1      17.444  27.174  40.832  1.00  0.00    -0.349 N 
ATOM      4  H   UNL     1      17.684  27.978  41.458  1.00  0.00     0.164 HD
ENDROOT
BRANCH   1   5
ATOM      5  C   UNL     1      15.031  27.522  41.501  1.00  0.00     0.043 A 
ATOM      6  C   UNL     1      13.097  28.932  42.990  1.00  0.00     0.084 A 
ATOM      7  C   UNL     1      14.329  29.529  42.663  1.00  0.00     0.031 A 
ATOM      8  C   UNL     1      12.829  27.619  42.555  1.00  0.00     0.143 A 
ATOM      9  C   UNL     1      15.277  28.837  41.909  1.00  0.00     0.016 A 
ATOM     10  C   UNL     1      13.804  26.920  41.818  1.00  0.00     0.062 A 
BRANCH   6  11
ATOM     11  N   UNL     1      12.150  29.607  43.835  1.00  0.00    -0.321 N 
ATOM     12  H   UNL     1      11.717  29.071  44.622  1.00  0.00     0.170 HD
BRANCH  11  13
ATOM     13  C   UNL     1      11.713  30.961  43.656  1.00  0.00     0.229 A 
ATOM     14  C   UNL     1      11.631  35.435  45.444  1.00  0.00     0.173 C 
ATOM     15  N   UNL     1      12.467  34.268  45.097  1.00  0.00    -0.340 N 
ATOM     16  C   UNL     1      10.924  35.918  44.205  1.00  0.00     0.249 C 
ATOM     17  C   UNL     1      11.864  33.238  44.291  1.00  0.00     0.159 A 
ATOM     18  N   UNL     1      10.469  34.964  43.220  1.00  0.00    -0.309 N 
ATOM     19  O   UNL     1      10.687  37.150  44.069  1.00  0.00    -0.272 OA
ATOM     20  N   UNL     1      12.265  31.944  44.412  1.00  0.00    -0.193 NA
ATOM     21  C   UNL     1      10.860  33.579  43.371  1.00  0.00     0.105 A 
ATOM     22  C   UNL     1       9.608  35.385  42.108  1.00  0.00     0.153 C 
ATOM     23  C   UNL     1      10.283  32.542  42.619  1.00  0.00     0.145 A 
ATOM     24  N   UNL     1      10.718  31.264  42.778  1.00  0.00    -0.219 NA
BRANCH  14  25
ATOM     25  C   UNL     1      10.573  35.069  46.507  1.00  0.00     0.032 C 
ATOM     26  C   UNL     1      11.145  34.985  47.918  1.00  0.00     0.006 C 
ENDBRANCH  14  25
BRANCH  15  27
ATOM     27  C   UNL     1      13.943  34.312  45.202  1.00  0.00     0.078 C 
ATOM     28  C   UNL     1      14.469  35.713  44.865  1.00  0.00     0.031 C 
ATOM     29  C   UNL     1      14.439  33.847  46.577  1.00  0.00     0.031 C 
ENDBRANCH  15  27
ENDBRANCH  11  13
ENDBRANCH   6  11
BRANCH   8  30
ATOM     30  O   UNL     1      11.587  27.043  42.871  1.00  0.00    -0.495 OA
ATOM     31  C   UNL     1      11.098  25.825  42.315  1.00  0.00     0.278 C 
ENDBRANCH   8  30
ENDBRANCH   1   5
BRANCH   3  32
ATOM     32  C   UNL     1      18.516  26.528  40.064  1.00  0.00     0.082 C 
ATOM     33  C   UNL     1      19.855  27.254  40.304  1.00  0.00     0.026 C 
ATOM     34  C   UNL     1      18.624  25.043  40.471  1.00  0.00     0.026 C 
ATOM     35  C   UNL     1      21.016  26.549  39.590  1.00  0.00     0.021 C 
ATOM     36  C   UNL     1      19.797  24.344  39.772  1.00  0.00     0.021 C 
ATOM     37  C   UNL     1      21.121  25.080  40.065  1.00  0.00     0.057 C 
BRANCH  37  38
ATOM     38  N   UNL     1      22.273  24.336  39.496  1.00  0.00    -0.298 NA
ATOM     39  C   UNL     1      21.879  23.467  38.364  1.00  0.00     0.100 C 
ATOM     40  C   UNL     1      23.100  23.603  40.470  1.00  0.00     0.100 C 
ATOM     41  C   UNL     1      23.010  22.490  37.963  1.00  0.00     0.100 C 
ATOM     42  C   UNL     1      24.443  23.208  39.814  1.00  0.00     0.100 C 
ATOM     43  N   UNL     1      24.340  23.003  38.345  1.00  0.00    -0.301 NA
BRANCH  43  44
ATOM     44  C   UNL     1      24.708  24.209  37.568  1.00  0.00     0.088 C 
BRANCH  44  45
ATOM     45  C   UNL     1      25.917  23.900  36.666  1.00  0.00     0.003 C 
ATOM     46  C   UNL     1      25.581  23.187  35.363  1.00  0.00     0.005 C 
ATOM     47  C   UNL     1      26.255  22.429  36.501  1.00  0.00     0.005 C 
ENDBRANCH  44  45
ENDBRANCH  43  44
ENDBRANCH  37  38
ENDBRANCH   3  32
TORSDOF 10
ENDMDL
MODEL 5
REMARK VINA RESULT:    -8.466      4.400     16.687
REMARK INTER + INTRA:         -14.325
REMARK INTER:                 -12.868
REMARK INTRA:                  -1.457
REMARK UNBOUND:                -0.909
REMARK SMILES CC[C@@H]1C(=O)N(C)c2cnc(Nc3ccc(C(=O)N[C@H]4CC[C@H](N5CCN(CC6CC6)CC5)CC4)cc3OC)nc2N1C(C)C
REMARK SMILES IDX 17 1 18 2 19 3 16 5 13 6 14 7 37 8 15 9 36 10 12 11 11 13
REMARK SMILES IDX 3 14 42 15 4 16 41 17 6 18 5 19 40 20 8 21 7 22 9 23 10 24
REMARK SMILES IDX 2 25 1 26 43 27 44 28 45 29 38 30 39 31 20 32 35 33 21 34
REMARK SMILES IDX 34 35 22 36 23 37 24 38 25 39 33 40 26 41 32 42 27 43 28 44
REMARK SMILES IDX 29 45 30 46 31 47
REMARK H PARENT 19 4 12 12
REMARK Flexibility Score: inf
ROOT
ATOM      1  C   UNL     1      17.600  25.603  40.833  1.00  0.00     0.251 C 
ATOM      2  O   UNL     1      17.482  24.402  41.199  1.00  0.00    -0.269 OA
ATOM      3  N   UNL     1      18.782  26.035  40.138  1.00  0.00    -0.349 N 
ATOM      4  H   UNL     1      18.847  27.045  39.868  1.00  0.00     0.164 HD
ENDROOT
BRANCH   1   5
ATOM      5  C   UNL     1      16.499  26.555  41.091  1.00  0.00     0.043 A 
ATOM      6  C   UNL     1      14.409  28.355  41.668  1.00  0.00     0.084 A 
ATOM      7  C   UNL     1      15.752  28.773  41.721  1.00  0.00     0.031 A 
ATOM      8  C   UNL     1      14.112  27.026  41.311  1.00  0.00     0.143 A 
ATOM      9  C   UNL     1      16.784  27.885  41.415  1.00  0.00     0.016 A 
ATOM     10  C   UNL     1      15.163  26.132  41.032  1.00  0.00     0.062 A 
BRANCH   6  11
ATOM     11  N   UNL     1      13.344  29.239  42.061  1.00  0.00    -0.321 N 
ATOM     12  H   UNL     1      12.760  29.675  41.311  1.00  0.00     0.170 HD
BRANCH  11  13
ATOM     13  C   UNL     1      13.046  29.610  43.414  1.00  0.00     0.229 A 
ATOM     14  C   UNL     1      13.155  33.081  46.754  1.00  0.00     0.173 C 
ATOM     15  N   UNL     1      12.768  32.717  45.376  1.00  0.00    -0.340 N 
ATOM     16  C   UNL     1      12.439  32.174  47.721  1.00  0.00     0.249 C 
ATOM     17  C   UNL     1      12.781  31.318  45.032  1.00  0.00     0.159 A 
ATOM     18  N   UNL     1      12.208  30.791  47.371  1.00  0.00    -0.309 N 
ATOM     19  O   UNL     1      12.099  32.620  48.851  1.00  0.00    -0.272 OA
ATOM     20  N   UNL     1      13.036  30.924  43.757  1.00  0.00    -0.193 NA
ATOM     21  C   UNL     1      12.520  30.360  46.026  1.00  0.00     0.105 A 
ATOM     22  C   UNL     1      11.696  29.841  48.365  1.00  0.00     0.153 C 
ATOM     23  C   UNL     1      12.562  29.006  45.654  1.00  0.00     0.145 A 
ATOM     24  N   UNL     1      12.824  28.663  44.365  1.00  0.00    -0.219 NA
BRANCH  14  25
ATOM     25  C   UNL     1      14.676  32.929  46.967  1.00  0.00     0.032 C 
ATOM     26  C   UNL     1      15.394  34.264  47.131  1.00  0.00     0.006 C 
ENDBRANCH  14  25
BRANCH  15  27
ATOM     27  C   UNL     1      12.019  33.653  44.507  1.00  0.00     0.078 C 
ATOM     28  C   UNL     1      10.508  33.444  44.662  1.00  0.00     0.031 C 
ATOM     29  C   UNL     1      12.408  35.114  44.761  1.00  0.00     0.031 C 
ENDBRANCH  15  27
ENDBRANCH  11  13
ENDBRANCH   6  11
BRANCH   8  30
ATOM     30  O   UNL     1      12.765  26.628  41.243  1.00  0.00    -0.495 OA
ATOM     31  C   UNL     1      12.330  25.288  41.029  1.00  0.00     0.278 C 
ENDBRANCH   8  30
ENDBRANCH   1   5
BRANCH   3  32
ATOM     32  C   UNL     1      19.882  25.133  39.776  1.00  0.00     0.082 C 
ATOM     33  C   UNL     1      19.935  24.943  38.246  1.00  0.00     0.026 C 
ATOM     34  C   UNL     1      21.217  25.706  40.297  1.00  0.00     0.026 C 
ATOM     35  C   UNL     1      21.131  24.079  37.825  1.00  0.00     0.021 C 
ATOM     36  C   UNL     1      22.414  24.853  39.859  1.00  0.00     0.021 C 
ATOM     37  C   UNL     1      22.451  24.717  38.323  1.00  0.00     0.057 C 
BRANCH  37  38
ATOM     38  N   UNL     1      23.676  23.999  37.888  1.00  0.00    -0.298 NA
ATOM     39  C   UNL     1      23.369  22.806  37.067  1.00  0.00     0.100 C 
ATOM     40  C   UNL     1      24.638  23.679  38.956  1.00  0.00     0.100 C 
ATOM     41  C   UNL     1      24.614  21.911  36.858  1.00  0.00     0.100 C 
ATOM     42  C   UNL     1      25.997  23.294  38.330  1.00  0.00     0.100 C 
ATOM     43  N   UNL     1      25.869  22.677  36.983  1.00  0.00    -0.301 NA
BRANCH  43  44
ATOM     44  C   UNL     1      26.027  23.656  35.883  1.00  0.00     0.088 C 
BRANCH  44  45
ATOM     45  C   UNL     1      25.611  23.013  34.548  1.00  0.00     0.003 C 
ATOM     46  C   UNL     1      26.724  22.273  33.817  1.00  0.00     0.005 C 
ATOM     47  C   UNL     1      26.233  23.623  33.303  1.00  0.00     0.005 C 
ENDBRANCH  44  45
ENDBRANCH  43  44
ENDBRANCH  37  38
ENDBRANCH   3  32
TORSDOF 10
ENDMDL
MODEL 6
REMARK VINA RESULT:    -8.375      4.499     16.198
REMARK INTER + INTRA:         -14.181
REMARK INTER:                 -12.848
REMARK INTRA:                  -1.333
REMARK UNBOUND:                -0.909
REMARK SMILES CC[C@@H]1C(=O)N(C)c2cnc(Nc3ccc(C(=O)N[C@H]4CC[C@H](N5CCN(CC6CC6)CC5)CC4)cc3OC)nc2N1C(C)C
REMARK SMILES IDX 17 1 18 2 19 3 16 5 13 6 14 7 37 8 15 9 36 10 12 11 11 13
REMARK SMILES IDX 3 14 42 15 4 16 41 17 6 18 5 19 40 20 8 21 7 22 9 23 10 24
REMARK SMILES IDX 2 25 1 26 43 27 44 28 45 29 38 30 39 31 20 32 35 33 21 34
REMARK SMILES IDX 34 35 22 36 23 37 24 38 25 39 33 40 26 41 32 42 27 43 28 44
REMARK SMILES IDX 29 45 30 46 31 47
REMARK H PARENT 19 4 12 12
REMARK Flexibility Score: inf
ROOT
ATOM      1  C   UNL     1      18.002  27.020  40.397  1.00  0.00     0.251 C 
ATOM      2  O   UNL     1      18.639  28.103  40.286  1.00  0.00    -0.269 OA
ATOM      3  N   UNL     1      18.636  25.770  40.074  1.00  0.00    -0.349 N 
ATOM      4  H   UNL     1      18.066  24.897  40.163  1.00  0.00     0.164 HD
ENDROOT
BRANCH   1   5
ATOM      5  C   UNL     1      16.611  27.041  40.898  1.00  0.00     0.043 A 
ATOM      6  C   UNL     1      13.933  27.096  41.772  1.00  0.00     0.084 A 
ATOM      7  C   UNL     1      14.483  25.927  41.215  1.00  0.00     0.031 A 
ATOM      8  C   UNL     1      14.737  28.245  41.901  1.00  0.00     0.143 A 
ATOM      9  C   UNL     1      15.815  25.895  40.801  1.00  0.00     0.016 A 
ATOM     10  C   UNL     1      16.072  28.209  41.455  1.00  0.00     0.062 A 
BRANCH   6  11
ATOM     11  N   UNL     1      12.540  27.163  42.123  1.00  0.00    -0.321 N 
ATOM     12  H   UNL     1      12.227  26.689  43.003  1.00  0.00     0.170 HD
BRANCH  11  13
ATOM     13  C   UNL     1      11.525  27.796  41.332  1.00  0.00     0.229 A 
ATOM     14  C   UNL     1       8.110  31.189  41.134  1.00  0.00     0.173 C 
ATOM     15  N   UNL     1       9.516  30.883  41.465  1.00  0.00    -0.340 N 
ATOM     16  C   UNL     1       7.863  30.858  39.685  1.00  0.00     0.249 C 
ATOM     17  C   UNL     1      10.038  29.614  41.027  1.00  0.00     0.159 A 
ATOM     18  N   UNL     1       8.520  29.717  39.088  1.00  0.00    -0.309 N 
ATOM     19  O   UNL     1       7.041  31.548  39.023  1.00  0.00    -0.272 OA
ATOM     20  N   UNL     1      11.017  28.990  41.734  1.00  0.00    -0.193 NA
ATOM     21  C   UNL     1       9.532  29.025  39.856  1.00  0.00     0.105 A 
ATOM     22  C   UNL     1       8.148  29.254  37.746  1.00  0.00     0.153 C 
ATOM     23  C   UNL     1      10.053  27.777  39.475  1.00  0.00     0.145 A 
ATOM     24  N   UNL     1      11.030  27.194  40.217  1.00  0.00    -0.219 NA
BRANCH  14  25
ATOM     25  C   UNL     1       7.137  30.365  42.003  1.00  0.00     0.032 C 
ATOM     26  C   UNL     1       7.280  30.648  43.494  1.00  0.00     0.006 C 
ENDBRANCH  14  25
BRANCH  15  27
ATOM     27  C   UNL     1      10.471  31.945  41.855  1.00  0.00     0.078 C 
ATOM     28  C   UNL     1      10.119  33.269  41.167  1.00  0.00     0.031 C 
ATOM     29  C   UNL     1      10.558  32.114  43.376  1.00  0.00     0.031 C 
ENDBRANCH  15  27
ENDBRANCH  11  13
ENDBRANCH   6  11
BRANCH   8  30
ATOM     30  O   UNL     1      14.181  29.399  42.477  1.00  0.00    -0.495 OA
ATOM     31  C   UNL     1      13.831  29.526  43.853  1.00  0.00     0.278 C 
ENDBRANCH   8  30
ENDBRANCH   1   5
BRANCH   3  32
ATOM     32  C   UNL     1      20.036  25.662  39.647  1.00  0.00     0.082 C 
ATOM     33  C   UNL     1      20.844  24.840  40.672  1.00  0.00     0.026 C 
ATOM     34  C   UNL     1      20.105  25.005  38.251  1.00  0.00     0.026 C 
ATOM     35  C   UNL     1      22.292  24.627  40.211  1.00  0.00     0.021 C 
ATOM     36  C   UNL     1      21.553  24.774  37.799  1.00  0.00     0.021 C 
ATOM     37  C   UNL     1      22.315  23.920  38.834  1.00  0.00     0.057 C 
BRANCH  37  38
ATOM     38  N   UNL     1      23.676  23.589  38.341  1.00  0.00    -0.298 NA
ATOM     39  C   UNL     1      24.430  22.745  39.295  1.00  0.00     0.100 C 
ATOM     40  C   UNL     1      24.483  24.734  37.887  1.00  0.00     0.100 C 
ATOM     41  C   UNL     1      25.928  22.641  38.917  1.00  0.00     0.100 C 
ATOM     42  C   UNL     1      25.688  24.224  37.065  1.00  0.00     0.100 C 
ATOM     43  N   UNL     1      26.148  22.871  37.476  1.00  0.00    -0.301 NA
BRANCH  43  44
ATOM     44  C   UNL     1      25.564  21.788  36.651  1.00  0.00     0.088 C 
BRANCH  44  45
ATOM     45  C   UNL     1      25.881  22.035  35.166  1.00  0.00     0.003 C 
ATOM     46  C   UNL     1      26.056  20.774  34.328  1.00  0.00     0.005 C 
ATOM     47  C   UNL     1      27.269  21.616  34.711  1.00  0.00     0.005 C 
ENDBRANCH  44  45
ENDBRANCH  43  44
ENDBRANCH  37  38
ENDBRANCH   3  32
TORSDOF 10
ENDMDL
MODEL 7
REMARK VINA RESULT:    -8.364      4.060     15.521
REMARK INTER + INTRA:         -14.163
REMARK INTER:                 -12.897
REMARK INTRA:                  -1.266
REMARK UNBOUND:                -0.909
REMARK SMILES CC[C@@H]1C(=O)N(C)c2cnc(Nc3ccc(C(=O)N[C@H]4CC[C@H](N5CCN(CC6CC6)CC5)CC4)cc3OC)nc2N1C(C)C
REMARK SMILES IDX 17 1 18 2 19 3 16 5 13 6 14 7 37 8 15 9 36 10 12 11 11 13
REMARK SMILES IDX 3 14 42 15 4 16 41 17 6 18 5 19 40 20 8 21 7 22 9 23 10 24
REMARK SMILES IDX 2 25 1 26 43 27 44 28 45 29 38 30 39 31 20 32 35 33 21 34
REMARK SMILES IDX 34 35 22 36 23 37 24 38 25 39 33 40 26 41 32 42 27 43 28 44
REMARK SMILES IDX 29 45 30 46 31 47
REMARK H PARENT 19 4 12 12
REMARK Flexibility Score: inf
ROOT
ATOM      1  C   UNL     1      18.775  27.096  40.205  1.00  0.00     0.251 C 
ATOM      2  O   UNL     1      19.410  28.143  39.902  1.00  0.00    -0.269 OA
ATOM      3  N   UNL     1      19.412  25.811  40.110  1.00  0.00    -0.349 N 
ATOM      4  H   UNL     1      18.844  24.966  40.354  1.00  0.00     0.164 HD
ENDROOT
BRANCH   1   5
ATOM      5  C   UNL     1      17.385  27.203  40.694  1.00  0.00     0.043 A 
ATOM      6  C   UNL     1      14.759  27.376  41.704  1.00  0.00     0.084 A 
ATOM      7  C   UNL     1      15.700  28.387  41.973  1.00  0.00     0.031 A 
ATOM      8  C   UNL     1      15.136  26.274  40.912  1.00  0.00     0.143 A 
ATOM      9  C   UNL     1      16.994  28.310  41.456  1.00  0.00     0.016 A 
ATOM     10  C   UNL     1      16.452  26.193  40.418  1.00  0.00     0.062 A 
BRANCH   6  11
ATOM     11  N   UNL     1      13.451  27.406  42.300  1.00  0.00    -0.321 N 
ATOM     12  H   UNL     1      13.254  26.759  43.099  1.00  0.00     0.170 HD
BRANCH  11  13
ATOM     13  C   UNL     1      12.367  28.232  41.854  1.00  0.00     0.229 A 
ATOM     14  C   UNL     1       8.459  28.579  39.056  1.00  0.00     0.173 C 
ATOM     15  N   UNL     1       9.169  27.783  40.078  1.00  0.00    -0.340 N 
ATOM     16  C   UNL     1       8.185  29.954  39.607  1.00  0.00     0.249 C 
ATOM     17  C   UNL     1      10.278  28.408  40.751  1.00  0.00     0.159 A 
ATOM     18  N   UNL     1       9.151  30.583  40.478  1.00  0.00    -0.309 N 
ATOM     19  O   UNL     1       7.138  30.564  39.256  1.00  0.00    -0.272 OA
ATOM     20  N   UNL     1      11.316  27.660  41.211  1.00  0.00    -0.193 NA
ATOM     21  C   UNL     1      10.279  29.801  40.935  1.00  0.00     0.105 A 
ATOM     22  C   UNL     1       9.006  31.991  40.867  1.00  0.00     0.153 C 
ATOM     23  C   UNL     1      11.389  30.373  41.578  1.00  0.00     0.145 A 
ATOM     24  N   UNL     1      12.402  29.582  42.018  1.00  0.00    -0.219 NA
BRANCH  14  25
ATOM     25  C   UNL     1       9.301  28.719  37.771  1.00  0.00     0.032 C 
ATOM     26  C   UNL     1      10.426  27.694  37.677  1.00  0.00     0.006 C 
ENDBRANCH  14  25
BRANCH  15  27
ATOM     27  C   UNL     1       8.559  26.579  40.686  1.00  0.00     0.078 C 
ATOM     28  C   UNL     1       7.028  26.678  40.665  1.00  0.00     0.031 C 
ATOM     29  C   UNL     1       9.042  25.286  40.019  1.00  0.00     0.031 C 
ENDBRANCH  15  27
ENDBRANCH  11  13
ENDBRANCH   6  11
BRANCH   8  30
ATOM     30  O   UNL     1      14.180  25.282  40.634  1.00  0.00    -0.495 OA
ATOM     31  C   UNL     1      13.605  25.052  39.351  1.00  0.00     0.278 C 
ENDBRANCH   8  30
ENDBRANCH   1   5
BRANCH   3  32
ATOM     32  C   UNL     1      20.813  25.631  39.709  1.00  0.00     0.082 C 
ATOM     33  C   UNL     1      21.441  24.453  40.481  1.00  0.00     0.026 C 
ATOM     34  C   UNL     1      20.890  25.383  38.187  1.00  0.00     0.026 C 
ATOM     35  C   UNL     1      22.878  24.176  40.018  1.00  0.00     0.021 C 
ATOM     36  C   UNL     1      22.323  25.087  37.728  1.00  0.00     0.021 C 
ATOM     37  C   UNL     1      22.902  23.882  38.499  1.00  0.00     0.057 C 
BRANCH  37  38
ATOM     38  N   UNL     1      24.240  23.515  37.971  1.00  0.00    -0.298 NA
ATOM     39  C   UNL     1      24.899  22.468  38.785  1.00  0.00     0.100 C 
ATOM     40  C   UNL     1      25.153  24.642  37.710  1.00  0.00     0.100 C 
ATOM     41  C   UNL     1      26.390  22.293  38.407  1.00  0.00     0.100 C 
ATOM     42  C   UNL     1      26.326  24.163  36.827  1.00  0.00     0.100 C 
ATOM     43  N   UNL     1      26.660  22.727  37.022  1.00  0.00    -0.301 NA
BRANCH  43  44
ATOM     44  C   UNL     1      26.003  21.843  36.031  1.00  0.00     0.088 C 
BRANCH  44  45
ATOM     45  C   UNL     1      26.912  21.672  34.801  1.00  0.00     0.003 C 
ATOM     46  C   UNL     1      26.237  21.934  33.461  1.00  0.00     0.005 C 
ATOM     47  C   UNL     1      26.568  20.508  33.887  1.00  0.00     0.005 C 
ENDBRANCH  44  45
ENDBRANCH  43  44
ENDBRANCH  37  38
ENDBRANCH   3  32
TORSDOF 10
ENDMDL
MODEL 8
REMARK VINA RESULT:    -8.353      6.153     17.676
REMARK INTER + INTRA:         -14.145
REMARK INTER:                 -12.989
REMARK INTRA:                  -1.157
REMARK UNBOUND:                -0.909
REMARK SMILES CC[C@@H]1C(=O)N(C)c2cnc(Nc3ccc(C(=O)N[C@H]4CC[C@H](N5CCN(CC6CC6)CC5)CC4)cc3OC)nc2N1C(C)C
REMARK SMILES IDX 17 1 18 2 19 3 16 5 13 6 14 7 37 8 15 9 36 10 12 11 11 13
REMARK SMILES IDX 3 14 42 15 4 16 41 17 6 18 5 19 40 20 8 21 7 22 9 23 10 24
REMARK SMILES IDX 2 25 1 26 43 27 44 28 45 29 38 30 39 31 20 32 35 33 21 34
REMARK SMILES IDX 34 35 22 36 23 37 24 38 25 39 33 40 26 41 32 42 27 43 28 44
REMARK SMILES IDX 29 45 30 46 31 47
REMARK H PARENT 19 4 12 12
REMARK Flexibility Score: inf
ROOT
ATOM      1  C   UNL     1      14.729  28.132  41.711  1.00  0.00     0.251 C 
ATOM      2  O   UNL     1      14.280  27.143  41.069  1.00  0.00    -0.269 OA
ATOM      3  N   UNL     1      16.114  28.499  41.601  1.00  0.00    -0.349 N 
ATOM      4  H   UNL     1      16.448  29.316  42.165  1.00  0.00     0.164 HD
ENDROOT
BRANCH   1   5
ATOM      5  C   UNL     1      13.810  28.933  42.548  1.00  0.00     0.043 A 
ATOM      6  C   UNL     1      12.020  30.386  44.168  1.00  0.00     0.084 A 
ATOM      7  C   UNL     1      13.159  29.775  44.725  1.00  0.00     0.031 A 
ATOM      8  C   UNL     1      11.784  30.276  42.784  1.00  0.00     0.143 A 
ATOM      9  C   UNL     1      14.055  29.073  43.918  1.00  0.00     0.016 A 
ATOM     10  C   UNL     1      12.680  29.542  41.984  1.00  0.00     0.062 A 
BRANCH   6  11
ATOM     11  N   UNL     1      11.050  31.041  45.004  1.00  0.00    -0.321 N 
ATOM     12  H   UNL     1      10.047  30.755  44.918  1.00  0.00     0.170 HD
BRANCH  11  13
ATOM     13  C   UNL     1      11.344  32.099  45.926  1.00  0.00     0.229 A 
ATOM     14  C   UNL     1      14.527  35.424  47.353  1.00  0.00     0.173 C 
ATOM     15  N   UNL     1      13.788  34.843  46.213  1.00  0.00    -0.340 N 
ATOM     16  C   UNL     1      13.539  35.935  48.370  1.00  0.00     0.249 C 
ATOM     17  C   UNL     1      12.700  33.949  46.517  1.00  0.00     0.159 A 
ATOM     18  N   UNL     1      12.304  35.218  48.592  1.00  0.00    -0.309 N 
ATOM     19  O   UNL     1      13.828  36.952  49.056  1.00  0.00    -0.272 OA
ATOM     20  N   UNL     1      12.371  32.947  45.659  1.00  0.00    -0.193 NA
ATOM     21  C   UNL     1      11.973  34.123  47.706  1.00  0.00     0.105 A 
ATOM     22  C   UNL     1      11.420  35.575  49.708  1.00  0.00     0.153 C 
ATOM     23  C   UNL     1      10.933  33.218  47.974  1.00  0.00     0.145 A 
ATOM     24  N   UNL     1      10.645  32.231  47.086  1.00  0.00    -0.219 NA
BRANCH  14  25
ATOM     25  C   UNL     1      15.433  34.373  48.027  1.00  0.00     0.032 C 
ATOM     26  C   UNL     1      16.882  34.443  47.558  1.00  0.00     0.006 C 
ENDBRANCH  14  25
BRANCH  15  27
ATOM     27  C   UNL     1      13.863  35.432  44.857  1.00  0.00     0.078 C 
ATOM     28  C   UNL     1      12.654  36.338  44.593  1.00  0.00     0.031 C 
ATOM     29  C   UNL     1      15.181  36.181  44.625  1.00  0.00     0.031 C 
ENDBRANCH  15  27
ENDBRANCH  11  13
ENDBRANCH   6  11
BRANCH   8  30
ATOM     30  O   UNL     1      10.653  30.908  42.239  1.00  0.00    -0.495 OA
ATOM     31  C   UNL     1      10.331  30.928  40.851  1.00  0.00     0.278 C 
ENDBRANCH   8  30
ENDBRANCH   1   5
BRANCH   3  32
ATOM     32  C   UNL     1      17.068  27.802  40.730  1.00  0.00     0.082 C 
ATOM     33  C   UNL     1      18.476  28.409  40.887  1.00  0.00     0.026 C 
ATOM     34  C   UNL     1      17.085  26.297  41.077  1.00  0.00     0.026 C 
ATOM     35  C   UNL     1      19.518  27.643  40.061  1.00  0.00     0.021 C 
ATOM     36  C   UNL     1      18.140  25.536  40.265  1.00  0.00     0.021 C 
ATOM     37  C   UNL     1      19.538  26.152  40.477  1.00  0.00     0.057 C 
BRANCH  37  38
ATOM     38  N   UNL     1      20.579  25.343  39.794  1.00  0.00    -0.298 NA
ATOM     39  C   UNL     1      21.572  26.183  39.087  1.00  0.00     0.100 C 
ATOM     40  C   UNL     1      20.076  24.265  38.924  1.00  0.00     0.100 C 
ATOM     41  C   UNL     1      22.476  25.346  38.151  1.00  0.00     0.100 C 
ATOM     42  C   UNL     1      21.227  23.288  38.595  1.00  0.00     0.100 C 
ATOM     43  N   UNL     1      22.564  23.938  38.585  1.00  0.00    -0.301 NA
BRANCH  43  44
ATOM     44  C   UNL     1      23.279  23.805  39.876  1.00  0.00     0.088 C 
BRANCH  44  45
ATOM     45  C   UNL     1      24.394  22.752  39.749  1.00  0.00     0.003 C 
ATOM     46  C   UNL     1      25.759  23.196  40.256  1.00  0.00     0.005 C 
ATOM     47  C   UNL     1      25.498  23.079  38.758  1.00  0.00     0.005 C 
ENDBRANCH  44  45
ENDBRANCH  43  44
ENDBRANCH  37  38
ENDBRANCH   3  32
TORSDOF 10
ENDMDL
MODEL 9
REMARK VINA RESULT:    -8.341      5.902     17.506
REMARK INTER + INTRA:         -14.127
REMARK INTER:                 -12.904
REMARK INTRA:                  -1.223
REMARK UNBOUND:                -0.909
REMARK SMILES CC[C@@H]1C(=O)N(C)c2cnc(Nc3ccc(C(=O)N[C@H]4CC[C@H](N5CCN(CC6CC6)CC5)CC4)cc3OC)nc2N1C(C)C
REMARK SMILES IDX 17 1 18 2 19 3 16 5 13 6 14 7 37 8 15 9 36 10 12 11 11 13
REMARK SMILES IDX 3 14 42 15 4 16 41 17 6 18 5 19 40 20 8 21 7 22 9 23 10 24
REMARK SMILES IDX 2 25 1 26 43 27 44 28 45 29 38 30 39 31 20 32 35 33 21 34
REMARK SMILES IDX 34 35 22 36 23 37 24 38 25 39 33 40 26 41 32 42 27 43 28 44
REMARK SMILES IDX 29 45 30 46 31 47
REMARK H PARENT 19 4 12 12
REMARK Flexibility Score: inf
ROOT
ATOM      1  C   UNL     1      15.132  27.307  41.314  1.00  0.00     0.251 C 
ATOM      2  O   UNL     1      14.675  26.380  40.591  1.00  0.00    -0.269 OA
ATOM      3  N   UNL     1      16.536  27.613  41.300  1.00  0.00    -0.349 N 
ATOM      4  H   UNL     1      16.876  28.378  41.929  1.00  0.00     0.164 HD
ENDROOT
BRANCH   1   5
ATOM      5  C   UNL     1      14.206  28.102  42.149  1.00  0.00     0.043 A 
ATOM      6  C   UNL     1      12.499  29.615  43.804  1.00  0.00     0.084 A 
ATOM      7  C   UNL     1      13.536  30.236  43.083  1.00  0.00     0.031 A 
ATOM      8  C   UNL     1      12.310  28.224  43.685  1.00  0.00     0.143 A 
ATOM      9  C   UNL     1      14.368  29.488  42.248  1.00  0.00     0.016 A 
ATOM     10  C   UNL     1      13.173  27.476  42.861  1.00  0.00     0.062 A 
BRANCH   6  11
ATOM     11  N   UNL     1      11.692  30.364  44.729  1.00  0.00    -0.321 N 
ATOM     12  H   UNL     1      11.289  29.863  45.555  1.00  0.00     0.170 HD
BRANCH  11  13
ATOM     13  C   UNL     1      11.353  31.750  44.583  1.00  0.00     0.229 A 
ATOM     14  C   UNL     1      12.133  36.263  46.082  1.00  0.00     0.173 C 
ATOM     15  N   UNL     1      12.746  35.004  45.610  1.00  0.00    -0.340 N 
ATOM     16  C   UNL     1      11.193  36.778  45.023  1.00  0.00     0.249 C 
ATOM     17  C   UNL     1      11.869  34.017  45.033  1.00  0.00     0.159 A 
ATOM     18  N   UNL     1      10.423  35.845  44.232  1.00  0.00    -0.309 N 
ATOM     19  O   UNL     1      11.047  38.022  44.878  1.00  0.00    -0.272 OA
ATOM     20  N   UNL     1      12.164  32.694  45.128  1.00  0.00    -0.193 NA
ATOM     21  C   UNL     1      10.707  34.433  44.364  1.00  0.00     0.105 A 
ATOM     22  C   UNL     1       9.359  36.318  43.339  1.00  0.00     0.153 C 
ATOM     23  C   UNL     1       9.868  33.437  43.833  1.00  0.00     0.145 A 
ATOM     24  N   UNL     1      10.207  32.127  43.955  1.00  0.00    -0.219 NA
BRANCH  14  25
ATOM     25  C   UNL     1      11.339  36.045  47.386  1.00  0.00     0.032 C 
ATOM     26  C   UNL     1      12.185  35.459  48.512  1.00  0.00     0.006 C 
ENDBRANCH  14  25
BRANCH  15  27
ATOM     27  C   UNL     1      14.200  34.896  45.354  1.00  0.00     0.078 C 
ATOM     28  C   UNL     1      14.769  36.240  44.884  1.00  0.00     0.031 C 
ATOM     29  C   UNL     1      14.963  34.365  46.573  1.00  0.00     0.031 C 
ENDBRANCH  15  27
ENDBRANCH  11  13
ENDBRANCH   6  11
BRANCH   8  30
ATOM     30  O   UNL     1      11.258  27.621  44.395  1.00  0.00    -0.495 OA
ATOM     31  C   UNL     1      11.432  26.658  45.431  1.00  0.00     0.278 C 
ENDBRANCH   8  30
ENDBRANCH   1   5
BRANCH   3  32
ATOM     32  C   UNL     1      17.504  26.921  40.439  1.00  0.00     0.082 C 
ATOM     33  C   UNL     1      18.871  27.633  40.496  1.00  0.00     0.026 C 
ATOM     34  C   UNL     1      17.641  25.450  40.888  1.00  0.00     0.026 C 
ATOM     35  C   UNL     1      19.934  26.882  39.681  1.00  0.00     0.021 C 
ATOM     36  C   UNL     1      18.716  24.706  40.087  1.00  0.00     0.021 C 
ATOM     37  C   UNL     1      20.074  25.430  40.197  1.00  0.00     0.057 C 
BRANCH  37  38
ATOM     38  N   UNL     1      21.144  24.646  39.529  1.00  0.00    -0.298 NA
ATOM     39  C   UNL     1      22.107  25.509  38.807  1.00  0.00     0.100 C 
ATOM     40  C   UNL     1      20.681  23.536  38.679  1.00  0.00     0.100 C 
ATOM     41  C   UNL     1      23.041  24.689  37.886  1.00  0.00     0.100 C 
ATOM     42  C   UNL     1      21.866  22.595  38.367  1.00  0.00     0.100 C 
ATOM     43  N   UNL     1      23.179  23.293  38.346  1.00  0.00    -0.301 NA
BRANCH  43  44
ATOM     44  C   UNL     1      23.897  23.209  39.638  1.00  0.00     0.088 C 
BRANCH  44  45
ATOM     45  C   UNL     1      25.381  23.562  39.435  1.00  0.00     0.003 C 
ATOM     46  C   UNL     1      26.059  22.848  38.273  1.00  0.00     0.005 C 
ATOM     47  C   UNL     1      26.368  22.441  39.710  1.00  0.00     0.005 C 
ENDBRANCH  44  45
ENDBRANCH  43  44
ENDBRANCH  37  38
ENDBRANCH   3  32
TORSDOF 10
ENDMDL
MODEL 10
REMARK VINA RESULT:    -8.293     10.784     13.733
REMARK INTER + INTRA:         -14.050
REMARK INTER:                 -12.319
REMARK INTRA:                  -1.731
REMARK UNBOUND:                -0.909
REMARK SMILES CC[C@@H]1C(=O)N(C)c2cnc(Nc3ccc(C(=O)N[C@H]4CC[C@H](N5CCN(CC6CC6)CC5)CC4)cc3OC)nc2N1C(C)C
REMARK SMILES IDX 17 1 18 2 19 3 16 5 13 6 14 7 37 8 15 9 36 10 12 11 11 13
REMARK SMILES IDX 3 14 42 15 4 16 41 17 6 18 5 19 40 20 8 21 7 22 9 23 10 24
REMARK SMILES IDX 2 25 1 26 43 27 44 28 45 29 38 30 39 31 20 32 35 33 21 34
REMARK SMILES IDX 34 35 22 36 23 37 24 38 25 39 33 40 26 41 32 42 27 43 28 44
REMARK SMILES IDX 29 45 30 46 31 47
REMARK H PARENT 19 4 12 12
REMARK Flexibility Score: inf
ROOT
ATOM      1  C   UNL     1      13.523  24.146  39.174  1.00  0.00     0.251 C 
ATOM      2  O   UNL     1      13.966  25.012  38.372  1.00  0.00    -0.269 OA
ATOM      3  N   UNL     1      12.945  24.547  40.428  1.00  0.00    -0.349 N 
ATOM      4  H   UNL     1      12.606  23.794  41.072  1.00  0.00     0.164 HD
ENDROOT
BRANCH   1   5
ATOM      5  C   UNL     1      13.569  22.716  38.800  1.00  0.00     0.043 A 
ATOM      6  C   UNL     1      13.573  19.998  38.057  1.00  0.00     0.084 A 
ATOM      7  C   UNL     1      13.828  21.003  37.105  1.00  0.00     0.031 A 
ATOM      8  C   UNL     1      13.325  20.360  39.395  1.00  0.00     0.143 A 
ATOM      9  C   UNL     1      13.845  22.347  37.479  1.00  0.00     0.016 A 
ATOM     10  C   UNL     1      13.318  21.721  39.755  1.00  0.00     0.062 A 
BRANCH   6  11
ATOM     11  N   UNL     1      13.472  18.618  37.664  1.00  0.00    -0.321 N 
ATOM     12  H   UNL     1      14.355  18.093  37.463  1.00  0.00     0.170 HD
BRANCH  11  13
ATOM     13  C   UNL     1      12.240  17.907  37.482  1.00  0.00     0.229 A 
ATOM     14  C   UNL     1       7.696  18.073  35.886  1.00  0.00     0.173 C 
ATOM     15  N   UNL     1       9.115  18.343  35.577  1.00  0.00    -0.340 N 
ATOM     16  C   UNL     1       7.532  16.608  36.200  1.00  0.00     0.249 C 
ATOM     17  C   UNL     1      10.103  17.789  36.467  1.00  0.00     0.159 A 
ATOM     18  N   UNL     1       8.578  15.904  36.906  1.00  0.00    -0.309 N 
ATOM     19  O   UNL     1       6.456  16.027  35.891  1.00  0.00    -0.272 OA
ATOM     20  N   UNL     1      11.294  18.418  36.651  1.00  0.00    -0.193 NA
ATOM     21  C   UNL     1       9.831  16.587  37.141  1.00  0.00     0.105 A 
ATOM     22  C   UNL     1       8.362  14.538  37.398  1.00  0.00     0.153 C 
ATOM     23  C   UNL     1      10.813  16.092  38.016  1.00  0.00     0.145 A 
ATOM     24  N   UNL     1      11.987  16.759  38.167  1.00  0.00    -0.219 NA
BRANCH  14  25
ATOM     25  C   UNL     1       7.222  18.896  37.102  1.00  0.00     0.032 C 
ATOM     26  C   UNL     1       7.161  20.394  36.825  1.00  0.00     0.006 C 
ENDBRANCH  14  25
BRANCH  15  27
ATOM     27  C   UNL     1       9.545  18.794  34.234  1.00  0.00     0.078 C 
ATOM     28  C   UNL     1       8.606  18.246  33.152  1.00  0.00     0.031 C 
ATOM     29  C   UNL     1       9.663  20.320  34.148  1.00  0.00     0.031 C 
ENDBRANCH  15  27
ENDBRANCH  11  13
ENDBRANCH   6  11
BRANCH   8  30
ATOM     30  O   UNL     1      13.092  19.344  40.338  1.00  0.00    -0.495 OA
ATOM     31  C   UNL     1      11.870  19.169  41.050  1.00  0.00     0.278 C 
ENDBRANCH   8  30
ENDBRANCH   1   5
BRANCH   3  32
ATOM     32  C   UNL     1      12.793  25.949  40.835  1.00  0.00     0.082 C 
ATOM     33  C   UNL     1      11.405  26.478  40.418  1.00  0.00     0.026 C 
ATOM     34  C   UNL     1      12.983  26.071  42.363  1.00  0.00     0.026 C 
ATOM     35  C   UNL     1      11.175  27.913  40.911  1.00  0.00     0.021 C 
ATOM     36  C   UNL     1      12.733  27.501  42.857  1.00  0.00     0.021 C 
ATOM     37  C   UNL     1      11.324  27.979  42.450  1.00  0.00     0.057 C 
BRANCH  37  38
ATOM     38  N   UNL     1      11.032  29.312  43.034  1.00  0.00    -0.298 NA
ATOM     39  C   UNL     1      12.251  29.988  43.532  1.00  0.00     0.100 C 
ATOM     40  C   UNL     1       9.955  29.344  44.039  1.00  0.00     0.100 C 
ATOM     41  C   UNL     1      11.914  31.234  44.387  1.00  0.00     0.100 C 
ATOM     42  C   UNL     1       9.507  30.805  44.270  1.00  0.00     0.100 C 
ATOM     43  N   UNL     1      10.593  31.795  44.044  1.00  0.00    -0.301 NA
BRANCH  43  44
ATOM     44  C   UNL     1      10.577  32.366  42.678  1.00  0.00     0.088 C 
BRANCH  44  45
ATOM     45  C   UNL     1      10.117  33.834  42.731  1.00  0.00     0.003 C 
ATOM     46  C   UNL     1      10.695  34.730  41.643  1.00  0.00     0.005 C 
ATOM     47  C   UNL     1      11.193  34.848  43.080  1.00  0.00     0.005 C 
ENDBRANCH  44  45
ENDBRANCH  43  44
ENDBRANCH  37  38
ENDBRANCH   3  32
TORSDOF 10
ENDMDL
MODEL 11
REMARK VINA RESULT:    -8.191      4.144     16.326
REMARK INTER + INTRA:         -13.889
REMARK INTER:                 -12.695
REMARK INTRA:                  -1.194
REMARK UNBOUND:                -0.909
REMARK SMILES CC[C@@H]1C(=O)N(C)c2cnc(Nc3ccc(C(=O)N[C@H]4CC[C@H](N5CCN(CC6CC6)CC5)CC4)cc3OC)nc2N1C(C)C
REMARK SMILES IDX 17 1 18 2 19 3 16 5 13 6 14 7 37 8 15 9 36 10 12 11 11 13
REMARK SMILES IDX 3 14 42 15 4 16 41 17 6 18 5 19 40 20 8 21 7 22 9 23 10 24
REMARK SMILES IDX 2 25 1 26 43 27 44 28 45 29 38 30 39 31 20 32 35 33 21 34
REMARK SMILES IDX 34 35 22 36 23 37 24 38 25 39 33 40 26 41 32 42 27 43 28 44
REMARK SMILES IDX 29 45 30 46 31 47
REMARK H PARENT 19 4 12 12
REMARK Flexibility Score: inf
ROOT
ATOM      1  C   UNL     1      18.639  26.543  40.549  1.00  0.00     0.251 C 
ATOM      2  O   UNL     1      19.483  27.448  40.794  1.00  0.00    -0.269 OA
ATOM      3  N   UNL     1      19.061  25.292  39.981  1.00  0.00    -0.349 N 
ATOM      4  H   UNL     1      18.326  24.576  39.777  1.00  0.00     0.164 HD
ENDROOT
BRANCH   1   5
ATOM      5  C   UNL     1      17.217  26.765  40.886  1.00  0.00     0.043 A 
ATOM      6  C   UNL     1      14.521  27.158  41.609  1.00  0.00     0.084 A 
ATOM      7  C   UNL     1      15.495  28.129  41.909  1.00  0.00     0.031 A 
ATOM      8  C   UNL     1      14.902  25.984  40.930  1.00  0.00     0.143 A 
ATOM      9  C   UNL     1      16.825  27.942  41.532  1.00  0.00     0.016 A 
ATOM     10  C   UNL     1      16.252  25.793  40.580  1.00  0.00     0.062 A 
BRANCH   6  11
ATOM     11  N   UNL     1      13.165  27.306  42.065  1.00  0.00    -0.321 N 
ATOM     12  H   UNL     1      12.686  26.471  42.474  1.00  0.00     0.170 HD
BRANCH  11  13
ATOM     13  C   UNL     1      12.394  28.511  41.963  1.00  0.00     0.229 A 
ATOM     14  C   UNL     1      10.494  32.284  44.281  1.00  0.00     0.173 C 
ATOM     15  N   UNL     1      11.708  31.477  44.040  1.00  0.00    -0.340 N 
ATOM     16  C   UNL     1      10.010  32.847  42.970  1.00  0.00     0.249 C 
ATOM     17  C   UNL     1      11.674  30.543  42.944  1.00  0.00     0.159 A 
ATOM     18  N   UNL     1      10.135  32.063  41.763  1.00  0.00    -0.309 N 
ATOM     19  O   UNL     1       9.450  33.976  42.951  1.00  0.00    -0.272 OA
ATOM     20  N   UNL     1      12.408  29.400  42.990  1.00  0.00    -0.193 NA
ATOM     21  C   UNL     1      10.880  30.824  41.820  1.00  0.00     0.105 A 
ATOM     22  C   UNL     1       9.496  32.498  40.515  1.00  0.00     0.153 C 
ATOM     23  C   UNL     1      10.859  29.877  40.782  1.00  0.00     0.145 A 
ATOM     24  N   UNL     1      11.610  28.749  40.876  1.00  0.00    -0.219 NA
BRANCH  14  25
ATOM     25  C   UNL     1       9.368  31.430  44.899  1.00  0.00     0.032 C 
ATOM     26  C   UNL     1       8.552  32.181  45.946  1.00  0.00     0.006 C 
ENDBRANCH  14  25
BRANCH  15  27
ATOM     27  C   UNL     1      13.022  31.864  44.600  1.00  0.00     0.078 C 
ATOM     28  C   UNL     1      13.195  33.388  44.572  1.00  0.00     0.031 C 
ATOM     29  C   UNL     1      13.236  31.305  46.011  1.00  0.00     0.031 C 
ENDBRANCH  15  27
ENDBRANCH  11  13
ENDBRANCH   6  11
BRANCH   8  30
ATOM     30  O   UNL     1      13.916  25.033  40.620  1.00  0.00    -0.495 OA
ATOM     31  C   UNL     1      13.680  24.512  39.314  1.00  0.00     0.278 C 
ENDBRANCH   8  30
ENDBRANCH   1   5
BRANCH   3  32
ATOM     32  C   UNL     1      20.465  24.969  39.693  1.00  0.00     0.082 C 
ATOM     33  C   UNL     1      20.594  23.494  39.262  1.00  0.00     0.026 C 
ATOM     34  C   UNL     1      20.997  25.905  38.586  1.00  0.00     0.026 C 
ATOM     35  C   UNL     1      22.035  23.146  38.863  1.00  0.00     0.021 C 
ATOM     36  C   UNL     1      22.430  25.544  38.174  1.00  0.00     0.021 C 
ATOM     37  C   UNL     1      22.510  24.073  37.718  1.00  0.00     0.057 C 
BRANCH  37  38
ATOM     38  N   UNL     1      23.864  23.756  37.200  1.00  0.00    -0.298 NA
ATOM     39  C   UNL     1      24.100  22.298  37.093  1.00  0.00     0.100 C 
ATOM     40  C   UNL     1      24.981  24.429  37.886  1.00  0.00     0.100 C 
ATOM     41  C   UNL     1      25.589  21.970  36.830  1.00  0.00     0.100 C 
ATOM     42  C   UNL     1      26.259  24.317  37.025  1.00  0.00     0.100 C 
ATOM     43  N   UNL     1      26.293  23.093  36.181  1.00  0.00    -0.301 NA
BRANCH  43  44
ATOM     44  C   UNL     1      25.799  23.329  34.805  1.00  0.00     0.088 C 
BRANCH  44  45
ATOM     45  C   UNL     1      25.962  22.049  33.965  1.00  0.00     0.003 C 
ATOM     46  C   UNL     1      27.402  21.661  33.657  1.00  0.00     0.005 C 
ATOM     47  C   UNL     1      26.514  22.247  32.564  1.00  0.00     0.005 C 
ENDBRANCH  44  45
ENDBRANCH  43  44
ENDBRANCH  37  38
ENDBRANCH   3  32
TORSDOF 10
ENDMDL
MODEL 12
REMARK VINA RESULT:    -7.960      5.787     17.374
REMARK INTER + INTRA:         -13.522
REMARK INTER:                 -12.730
REMARK INTRA:                  -0.792
REMARK UNBOUND:                -0.909
REMARK SMILES CC[C@@H]1C(=O)N(C)c2cnc(Nc3ccc(C(=O)N[C@H]4CC[C@H](N5CCN(CC6CC6)CC5)CC4)cc3OC)nc2N1C(C)C
REMARK SMILES IDX 17 1 18 2 19 3 16 5 13 6 14 7 37 8 15 9 36 10 12 11 11 13
REMARK SMILES IDX 3 14 42 15 4 16 41 17 6 18 5 19 40 20 8 21 7 22 9 23 10 24
REMARK SMILES IDX 2 25 1 26 43 27 44 28 45 29 38 30 39 31 20 32 35 33 21 34
REMARK SMILES IDX 34 35 22 36 23 37 24 38 25 39 33 40 26 41 32 42 27 43 28 44
REMARK SMILES IDX 29 45 30 46 31 47
REMARK H PARENT 19 4 12 12
REMARK Flexibility Score: inf
ROOT
ATOM      1  C   UNL     1      15.432  27.165  41.156  1.00  0.00     0.251 C 
ATOM      2  O   UNL     1      15.056  26.139  40.527  1.00  0.00    -0.269 OA
ATOM      3  N   UNL     1      16.811  27.570  41.125  1.00  0.00    -0.349 N 
ATOM      4  H   UNL     1      17.083  28.417  41.676  1.00  0.00     0.164 HD
ENDROOT
BRANCH   1   5
ATOM      5  C   UNL     1      14.436  27.970  41.896  1.00  0.00     0.043 A 
ATOM      6  C   UNL     1      12.581  29.486  43.380  1.00  0.00     0.084 A 
ATOM      7  C   UNL     1      13.820  30.036  43.003  1.00  0.00     0.031 A 
ATOM      8  C   UNL     1      12.266  28.167  42.999  1.00  0.00     0.143 A 
ATOM      9  C   UNL     1      14.729  29.291  42.251  1.00  0.00     0.016 A 
ATOM     10  C   UNL     1      13.202  27.416  42.264  1.00  0.00     0.062 A 
BRANCH   6  11
ATOM     11  N   UNL     1      11.674  30.216  44.224  1.00  0.00    -0.321 N 
ATOM     12  H   UNL     1      11.456  29.829  45.171  1.00  0.00     0.170 HD
BRANCH  11  13
ATOM     13  C   UNL     1      11.001  31.426  43.848  1.00  0.00     0.229 A 
ATOM     14  C   UNL     1       7.485  33.431  41.234  1.00  0.00     0.173 C 
ATOM     15  N   UNL     1       7.843  32.374  42.201  1.00  0.00    -0.340 N 
ATOM     16  C   UNL     1       7.802  34.775  41.836  1.00  0.00     0.249 C 
ATOM     17  C   UNL     1       9.129  32.472  42.843  1.00  0.00     0.159 A 
ATOM     18  N   UNL     1       8.964  34.926  42.682  1.00  0.00    -0.309 N 
ATOM     19  O   UNL     1       7.080  35.768  41.548  1.00  0.00    -0.272 OA
ATOM     20  N   UNL     1       9.791  31.352  43.236  1.00  0.00    -0.193 NA
ATOM     21  C   UNL     1       9.695  33.738  43.066  1.00  0.00     0.105 A 
ATOM     22  C   UNL     1       9.409  36.256  43.116  1.00  0.00     0.153 C 
ATOM     23  C   UNL     1      10.960  33.789  43.676  1.00  0.00     0.145 A 
ATOM     24  N   UNL     1      11.581  32.640  44.050  1.00  0.00    -0.219 NA
BRANCH  14  25
ATOM     25  C   UNL     1       8.276  33.278  39.918  1.00  0.00     0.032 C 
ATOM     26  C   UNL     1       7.448  33.602  38.680  1.00  0.00     0.006 C 
ENDBRANCH  14  25
BRANCH  15  27
ATOM     27  C   UNL     1       6.818  31.490  42.801  1.00  0.00     0.078 C 
ATOM     28  C   UNL     1       6.961  30.057  42.272  1.00  0.00     0.031 C 
ATOM     29  C   UNL     1       6.852  31.523  44.333  1.00  0.00     0.031 C 
ENDBRANCH  15  27
ENDBRANCH  11  13
ENDBRANCH   6  11
BRANCH   8  30
ATOM     30  O   UNL     1      11.017  27.637  43.364  1.00  0.00    -0.495 OA
ATOM     31  C   UNL     1       9.853  27.674  42.543  1.00  0.00     0.278 C 
ENDBRANCH   8  30
ENDBRANCH   1   5
BRANCH   3  32
ATOM     32  C   UNL     1      17.841  26.868  40.350  1.00  0.00     0.082 C 
ATOM     33  C   UNL     1      19.195  27.593  40.483  1.00  0.00     0.026 C 
ATOM     34  C   UNL     1      17.957  25.408  40.842  1.00  0.00     0.026 C 
ATOM     35  C   UNL     1      20.317  26.834  39.761  1.00  0.00     0.021 C 
ATOM     36  C   UNL     1      19.091  24.656  40.133  1.00  0.00     0.021 C 
ATOM     37  C   UNL     1      20.433  25.395  40.320  1.00  0.00     0.057 C 
BRANCH  37  38
ATOM     38  N   UNL     1      21.551  24.606  39.745  1.00  0.00    -0.298 NA
ATOM     39  C   UNL     1      21.095  23.659  38.703  1.00  0.00     0.100 C 
ATOM     40  C   UNL     1      22.429  23.941  40.724  1.00  0.00     0.100 C 
ATOM     41  C   UNL     1      22.202  22.649  38.314  1.00  0.00     0.100 C 
ATOM     42  C   UNL     1      23.734  23.493  40.027  1.00  0.00     0.100 C 
ATOM     43  N   UNL     1      23.552  23.182  38.585  1.00  0.00    -0.301 NA
BRANCH  43  44
ATOM     44  C   UNL     1      23.878  24.327  37.703  1.00  0.00     0.088 C 
BRANCH  44  45
ATOM     45  C   UNL     1      25.022  23.941  36.748  1.00  0.00     0.003 C 
ATOM     46  C   UNL     1      25.346  22.453  36.701  1.00  0.00     0.005 C 
ATOM     47  C   UNL     1      26.286  23.420  37.413  1.00  0.00     0.005 C 
ENDBRANCH  44  45
ENDBRANCH  43  44
ENDBRANCH  37  38
ENDBRANCH   3  32
TORSDOF 10
ENDMDL
MODEL 13
REMARK VINA RESULT:    -7.762     10.822     13.687
REMARK INTER + INTRA:         -13.209
REMARK INTER:                 -11.436
REMARK INTRA:                  -1.773
REMARK UNBOUND:                -0.909
REMARK SMILES CC[C@@H]1C(=O)N(C)c2cnc(Nc3ccc(C(=O)N[C@H]4CC[C@H](N5CCN(CC6CC6)CC5)CC4)cc3OC)nc2N1C(C)C
REMARK SMILES IDX 17 1 18 2 19 3 16 5 13 6 14 7 37 8 15 9 36 10 12 11 11 13
REMARK SMILES IDX 3 14 42 15 4 16 41 17 6 18 5 19 40 20 8 21 7 22 9 23 10 24
REMARK SMILES IDX 2 25 1 26 43 27 44 28 45 29 38 30 39 31 20 32 35 33 21 34
REMARK SMILES IDX 34 35 22 36 23 37 24 38 25 39 33 40 26 41 32 42 27 43 28 44
REMARK SMILES IDX 29 45 30 46 31 47
REMARK H PARENT 19 4 12 12
REMARK Flexibility Score: inf
ROOT
ATOM      1  C   UNL     1      12.548  25.534  39.999  1.00  0.00     0.251 C 
ATOM      2  O   UNL     1      12.545  26.246  38.957  1.00  0.00    -0.269 OA
ATOM      3  N   UNL     1      12.550  26.150  41.297  1.00  0.00    -0.349 N 
ATOM      4  H   UNL     1      12.571  25.523  42.135  1.00  0.00     0.164 HD
ENDROOT
BRANCH   1   5
ATOM      5  C   UNL     1      12.512  24.061  39.874  1.00  0.00     0.043 A 
ATOM      6  C   UNL     1      12.493  21.248  39.707  1.00  0.00     0.084 A 
ATOM      7  C   UNL     1      11.607  21.923  40.567  1.00  0.00     0.031 A 
ATOM      8  C   UNL     1      13.389  21.993  38.916  1.00  0.00     0.143 A 
ATOM      9  C   UNL     1      11.603  23.317  40.634  1.00  0.00     0.016 A 
ATOM     10  C   UNL     1      13.396  23.397  39.011  1.00  0.00     0.062 A 
BRANCH   6  11
ATOM     11  N   UNL     1      12.559  19.812  39.694  1.00  0.00    -0.321 N 
ATOM     12  H   UNL     1      13.310  19.344  40.253  1.00  0.00     0.170 HD
BRANCH  11  13
ATOM     13  C   UNL     1      11.695  18.960  38.930  1.00  0.00     0.229 A 
ATOM     14  C   UNL     1       8.533  18.640  35.308  1.00  0.00     0.173 C 
ATOM     15  N   UNL     1       9.864  19.117  35.735  1.00  0.00    -0.340 N 
ATOM     16  C   UNL     1       8.460  17.148  35.501  1.00  0.00     0.249 C 
ATOM     17  C   UNL     1      10.366  18.635  36.996  1.00  0.00     0.159 A 
ATOM     18  N   UNL     1       9.124  16.538  36.631  1.00  0.00    -0.309 N 
ATOM     19  O   UNL     1       7.772  16.454  34.704  1.00  0.00    -0.272 OA
ATOM     20  N   UNL     1      11.206  19.401  37.742  1.00  0.00    -0.193 NA
ATOM     21  C   UNL     1       9.985  17.362  37.451  1.00  0.00     0.105 A 
ATOM     22  C   UNL     1       8.906  15.123  36.955  1.00  0.00     0.153 C 
ATOM     23  C   UNL     1      10.481  16.938  38.695  1.00  0.00     0.145 A 
ATOM     24  N   UNL     1      11.317  17.741  39.403  1.00  0.00    -0.219 NA
BRANCH  14  25
ATOM     25  C   UNL     1       7.409  19.302  36.134  1.00  0.00     0.032 C 
ATOM     26  C   UNL     1       7.360  20.817  35.972  1.00  0.00     0.006 C 
ENDBRANCH  14  25
BRANCH  15  27
ATOM     27  C   UNL     1      10.818  19.719  34.776  1.00  0.00     0.078 C 
ATOM     28  C   UNL     1      10.567  19.190  33.359  1.00  0.00     0.031 C 
ATOM     29  C   UNL     1      10.785  21.251  34.813  1.00  0.00     0.031 C 
ENDBRANCH  15  27
ENDBRANCH  11  13
ENDBRANCH   6  11
BRANCH   8  30
ATOM     30  O   UNL     1      14.254  21.307  38.047  1.00  0.00    -0.495 OA
ATOM     31  C   UNL     1      14.117  21.277  36.628  1.00  0.00     0.278 C 
ENDBRANCH   8  30
ENDBRANCH   1   5
BRANCH   3  32
ATOM     32  C   UNL     1      12.506  27.604  41.501  1.00  0.00     0.082 C 
ATOM     33  C   UNL     1      11.127  28.023  42.050  1.00  0.00     0.026 C 
ATOM     34  C   UNL     1      13.628  28.026  42.475  1.00  0.00     0.026 C 
ATOM     35  C   UNL     1      11.077  29.525  42.364  1.00  0.00     0.021 C 
ATOM     36  C   UNL     1      13.565  29.523  42.804  1.00  0.00     0.021 C 
ATOM     37  C   UNL     1      12.183  29.894  43.382  1.00  0.00     0.057 C 
BRANCH  37  38
ATOM     38  N   UNL     1      12.160  31.313  43.818  1.00  0.00    -0.298 NA
ATOM     39  C   UNL     1      12.401  31.460  45.272  1.00  0.00     0.100 C 
ATOM     40  C   UNL     1      10.984  32.091  43.391  1.00  0.00     0.100 C 
ATOM     41  C   UNL     1      12.096  32.894  45.767  1.00  0.00     0.100 C 
ATOM     42  C   UNL     1      11.267  33.599  43.574  1.00  0.00     0.100 C 
ATOM     43  N   UNL     1      12.215  33.887  44.682  1.00  0.00    -0.301 NA
BRANCH  43  44
ATOM     44  C   UNL     1      13.615  34.030  44.220  1.00  0.00     0.088 C 
BRANCH  44  45
ATOM     45  C   UNL     1      14.402  34.916  45.203  1.00  0.00     0.003 C 
ATOM     46  C   UNL     1      13.961  36.373  45.250  1.00  0.00     0.005 C 
ATOM     47  C   UNL     1      15.271  35.989  44.571  1.00  0.00     0.005 C 
ENDBRANCH  44  45
ENDBRANCH  43  44
ENDBRANCH  37  38
ENDBRANCH   3  32
TORSDOF 10
ENDMDL
MODEL 14
REMARK VINA RESULT:    -7.675     10.674     16.594
REMARK INTER + INTRA:         -13.072
REMARK INTER:                 -11.691
REMARK INTRA:                  -1.381
REMARK UNBOUND:                -0.909
REMARK SMILES CC[C@@H]1C(=O)N(C)c2cnc(Nc3ccc(C(=O)N[C@H]4CC[C@H](N5CCN(CC6CC6)CC5)CC4)cc3OC)nc2N1C(C)C
REMARK SMILES IDX 17 1 18 2 19 3 16 5 13 6 14 7 37 8 15 9 36 10 12 11 11 13
REMARK SMILES IDX 3 14 42 15 4 16 41 17 6 18 5 19 40 20 8 21 7 22 9 23 10 24
REMARK SMILES IDX 2 25 1 26 43 27 44 28 45 29 38 30 39 31 20 32 35 33 21 34
REMARK SMILES IDX 34 35 22 36 23 37 24 38 25 39 33 40 26 41 32 42 27 43 28 44
REMARK SMILES IDX 29 45 30 46 31 47
REMARK H PARENT 19 4 12 12
REMARK Flexibility Score: inf
ROOT
ATOM      1  C   UNL     1      13.312  23.719  39.375  1.00  0.00     0.251 C 
ATOM      2  O   UNL     1      13.780  23.614  38.208  1.00  0.00    -0.269 OA
ATOM      3  N   UNL     1      12.674  22.595  40.004  1.00  0.00    -0.349 N 
ATOM      4  H   UNL     1      12.283  22.731  40.966  1.00  0.00     0.164 HD
ENDROOT
BRANCH   1   5
ATOM      5  C   UNL     1      13.457  24.997  40.105  1.00  0.00     0.043 A 
ATOM      6  C   UNL     1      13.732  27.474  41.420  1.00  0.00     0.084 A 
ATOM      7  C   UNL     1      12.463  27.001  41.036  1.00  0.00     0.031 A 
ATOM      8  C   UNL     1      14.872  26.691  41.150  1.00  0.00     0.143 A 
ATOM      9  C   UNL     1      12.327  25.765  40.403  1.00  0.00     0.016 A 
ATOM     10  C   UNL     1      14.725  25.458  40.487  1.00  0.00     0.062 A 
BRANCH   6  11
ATOM     11  N   UNL     1      13.890  28.781  41.997  1.00  0.00    -0.321 N 
ATOM     12  H   UNL     1      14.855  29.180  42.068  1.00  0.00     0.170 HD
BRANCH  11  13
ATOM     13  C   UNL     1      12.821  29.574  42.531  1.00  0.00     0.229 A 
ATOM     14  C   UNL     1       9.507  32.966  41.671  1.00  0.00     0.173 C 
ATOM     15  N   UNL     1      10.098  31.688  41.225  1.00  0.00    -0.340 N 
ATOM     16  C   UNL     1       8.971  32.797  43.069  1.00  0.00     0.249 C 
ATOM     17  C   UNL     1      10.976  31.008  42.143  1.00  0.00     0.159 A 
ATOM     18  N   UNL     1       9.670  31.951  44.008  1.00  0.00    -0.309 N 
ATOM     19  O   UNL     1       7.946  33.443  43.420  1.00  0.00    -0.272 OA
ATOM     20  N   UNL     1      11.988  30.228  41.680  1.00  0.00    -0.193 NA
ATOM     21  C   UNL     1      10.775  31.152  43.526  1.00  0.00     0.105 A 
ATOM     22  C   UNL     1       9.287  31.926  45.425  1.00  0.00     0.153 C 
ATOM     23  C   UNL     1      11.666  30.489  44.387  1.00  0.00     0.145 A 
ATOM     24  N   UNL     1      12.663  29.722  43.875  1.00  0.00    -0.219 NA
BRANCH  14  25
ATOM     25  C   UNL     1      10.557  34.096  41.676  1.00  0.00     0.032 C 
ATOM     26  C   UNL     1       9.940  35.487  41.772  1.00  0.00     0.006 C 
ENDBRANCH  14  25
BRANCH  15  27
ATOM     27  C   UNL     1       9.531  30.924  40.091  1.00  0.00     0.078 C 
ATOM     28  C   UNL     1       8.457  29.945  40.580  1.00  0.00     0.031 C 
ATOM     29  C   UNL     1       8.987  31.842  38.990  1.00  0.00     0.031 C 
ENDBRANCH  15  27
ENDBRANCH  11  13
ENDBRANCH   6  11
BRANCH   8  30
ATOM     30  O   UNL     1      16.130  27.167  41.557  1.00  0.00    -0.495 OA
ATOM     31  C   UNL     1      17.132  27.658  40.671  1.00  0.00     0.278 C 
ENDBRANCH   8  30
ENDBRANCH   1   5
BRANCH   3  32
ATOM     32  C   UNL     1      12.562  21.273  39.374  1.00  0.00     0.082 C 
ATOM     33  C   UNL     1      12.615  20.166  40.446  1.00  0.00     0.026 C 
ATOM     34  C   UNL     1      11.244  21.189  38.573  1.00  0.00     0.026 C 
ATOM     35  C   UNL     1      12.406  18.775  39.833  1.00  0.00     0.021 C 
ATOM     36  C   UNL     1      11.027  19.793  37.977  1.00  0.00     0.021 C 
ATOM     37  C   UNL     1      11.053  18.719  39.084  1.00  0.00     0.057 C 
BRANCH  37  38
ATOM     38  N   UNL     1      10.718  17.383  38.529  1.00  0.00    -0.298 NA
ATOM     39  C   UNL     1      11.886  16.474  38.505  1.00  0.00     0.100 C 
ATOM     40  C   UNL     1      10.020  17.391  37.232  1.00  0.00     0.100 C 
ATOM     41  C   UNL     1      11.610  15.199  37.673  1.00  0.00     0.100 C 
ATOM     42  C   UNL     1       9.406  15.998  36.967  1.00  0.00     0.100 C 
ATOM     43  N   UNL     1      10.168  14.891  37.602  1.00  0.00    -0.301 NA
BRANCH  43  44
ATOM     44  C   UNL     1       9.624  14.501  38.924  1.00  0.00     0.088 C 
BRANCH  44  45
ATOM     45  C   UNL     1       8.100  14.715  38.945  1.00  0.00     0.003 C 
ATOM     46  C   UNL     1       7.455  14.614  40.321  1.00  0.00     0.005 C 
ATOM     47  C   UNL     1       7.269  13.494  39.302  1.00  0.00     0.005 C 
ENDBRANCH  44  45
ENDBRANCH  43  44
ENDBRANCH  37  38
ENDBRANCH   3  32
TORSDOF 10
ENDMDL
MODEL 15
REMARK VINA RESULT:    -7.637     10.955     14.110
REMARK INTER + INTRA:         -13.012
REMARK INTER:                 -11.662
REMARK INTRA:                  -1.349
REMARK UNBOUND:                -0.909
REMARK SMILES CC[C@@H]1C(=O)N(C)c2cnc(Nc3ccc(C(=O)N[C@H]4CC[C@H](N5CCN(CC6CC6)CC5)CC4)cc3OC)nc2N1C(C)C
REMARK SMILES IDX 17 1 18 2 19 3 16 5 13 6 14 7 37 8 15 9 36 10 12 11 11 13
REMARK SMILES IDX 3 14 42 15 4 16 41 17 6 18 5 19 40 20 8 21 7 22 9 23 10 24
REMARK SMILES IDX 2 25 1 26 43 27 44 28 45 29 38 30 39 31 20 32 35 33 21 34
REMARK SMILES IDX 34 35 22 36 23 37 24 38 25 39 33 40 26 41 32 42 27 43 28 44
REMARK SMILES IDX 29 45 30 46 31 47
REMARK H PARENT 19 4 12 12
REMARK Flexibility Score: inf
ROOT
ATOM      1  C   UNL     1      13.473  23.983  39.244  1.00  0.00     0.251 C 
ATOM      2  O   UNL     1      13.937  24.761  38.367  1.00  0.00    -0.269 OA
ATOM      3  N   UNL     1      12.963  24.508  40.482  1.00  0.00    -0.349 N 
ATOM      4  H   UNL     1      12.604  23.826  41.190  1.00  0.00     0.164 HD
ENDROOT
BRANCH   1   5
ATOM      5  C   UNL     1      13.422  22.530  38.975  1.00  0.00     0.043 A 
ATOM      6  C   UNL     1      13.411  19.756  38.480  1.00  0.00     0.084 A 
ATOM      7  C   UNL     1      13.309  20.252  39.793  1.00  0.00     0.031 A 
ATOM      8  C   UNL     1      13.509  20.661  37.405  1.00  0.00     0.143 A 
ATOM      9  C   UNL     1      13.294  21.626  40.035  1.00  0.00     0.016 A 
ATOM     10  C   UNL     1      13.521  22.045  37.663  1.00  0.00     0.062 A 
BRANCH   6  11
ATOM     11  N   UNL     1      13.510  18.343  38.230  1.00  0.00    -0.321 N 
ATOM     12  H   UNL     1      14.365  17.984  37.745  1.00  0.00     0.170 HD
BRANCH  11  13
ATOM     13  C   UNL     1      12.497  17.382  38.556  1.00  0.00     0.229 A 
ATOM     14  C   UNL     1      10.084  15.105  42.051  1.00  0.00     0.173 C 
ATOM     15  N   UNL     1      10.537  16.407  41.521  1.00  0.00    -0.340 N 
ATOM     16  C   UNL     1       9.225  14.425  41.016  1.00  0.00     0.249 C 
ATOM     17  C   UNL     1      11.057  16.431  40.178  1.00  0.00     0.159 A 
ATOM     18  N   UNL     1       9.541  14.571  39.614  1.00  0.00    -0.309 N 
ATOM     19  O   UNL     1       8.271  13.691  41.391  1.00  0.00    -0.272 OA
ATOM     20  N   UNL     1      12.001  17.341  39.820  1.00  0.00    -0.193 NA
ATOM     21  C   UNL     1      10.576  15.508  39.234  1.00  0.00     0.105 A 
ATOM     22  C   UNL     1       8.849  13.765  38.601  1.00  0.00     0.153 C 
ATOM     23  C   UNL     1      11.124  15.551  37.941  1.00  0.00     0.145 A 
ATOM     24  N   UNL     1      12.067  16.479  37.633  1.00  0.00    -0.219 NA
BRANCH  14  25
ATOM     25  C   UNL     1      11.281  14.188  42.380  1.00  0.00     0.032 C 
ATOM     26  C   UNL     1      11.713  14.268  43.840  1.00  0.00     0.006 C 
ENDBRANCH  14  25
BRANCH  15  27
ATOM     27  C   UNL     1      10.121  17.685  42.142  1.00  0.00     0.078 C 
ATOM     28  C   UNL     1       8.969  18.320  41.353  1.00  0.00     0.031 C 
ATOM     29  C   UNL     1       9.756  17.517  43.621  1.00  0.00     0.031 C 
ENDBRANCH  15  27
ENDBRANCH  11  13
ENDBRANCH   6  11
BRANCH   8  30
ATOM     30  O   UNL     1      13.590  20.152  36.098  1.00  0.00    -0.495 OA
ATOM     31  C   UNL     1      12.517  20.161  35.160  1.00  0.00     0.278 C 
ENDBRANCH   8  30
ENDBRANCH   1   5
BRANCH   3  32
ATOM     32  C   UNL     1      12.907  25.943  40.788  1.00  0.00     0.082 C 
ATOM     33  C   UNL     1      11.560  26.534  40.324  1.00  0.00     0.026 C 
ATOM     34  C   UNL     1      13.099  26.158  42.305  1.00  0.00     0.026 C 
ATOM     35  C   UNL     1      11.428  28.013  40.713  1.00  0.00     0.021 C 
ATOM     36  C   UNL     1      12.947  27.634  42.696  1.00  0.00     0.021 C 
ATOM     37  C   UNL     1      11.575  28.177  42.245  1.00  0.00     0.057 C 
BRANCH  37  38
ATOM     38  N   UNL     1      11.374  29.565  42.731  1.00  0.00    -0.298 NA
ATOM     39  C   UNL     1      10.841  29.607  44.112  1.00  0.00     0.100 C 
ATOM     40  C   UNL     1      10.606  30.447  41.836  1.00  0.00     0.100 C 
ATOM     41  C   UNL     1      10.368  31.026  44.507  1.00  0.00     0.100 C 
ATOM     42  C   UNL     1      10.799  31.918  42.268  1.00  0.00     0.100 C 
ATOM     43  N   UNL     1      11.055  32.072  43.725  1.00  0.00    -0.301 NA
BRANCH  43  44
ATOM     44  C   UNL     1      12.498  32.145  44.052  1.00  0.00     0.088 C 
BRANCH  44  45
ATOM     45  C   UNL     1      12.774  33.385  44.921  1.00  0.00     0.003 C 
ATOM     46  C   UNL     1      12.306  34.706  44.324  1.00  0.00     0.005 C 
ATOM     47  C   UNL     1      13.792  34.365  44.363  1.00  0.00     0.005 C 
ENDBRANCH  44  45
ENDBRANCH  43  44
ENDBRANCH  37  38
ENDBRANCH   3  32
TORSDOF 10
ENDMDL
