MODEL 1
REMARK VINA RESULT:    -5.786      0.000      0.000
REMARK INTER + INTRA:          -8.606
REMARK INTER:                  -7.984
REMARK INTRA:                  -0.621
REMARK UNBOUND:                -0.621
REMARK SMILES CCSc1cc(OC)c(CC(C)N)cc1OC
REMARK SMILES IDX 4 1 5 2 6 3 9 4 14 5 15 6 3 7 2 8 1 9 16 10 17 11 7 12 8 13
REMARK SMILES IDX 10 14 11 15 12 16 13 17
REMARK H PARENT 13 18 13 19
REMARK Flexibility Score: inf
ROOT
ATOM      1  C   UNL     1      13.615   9.148  20.333  1.00  0.00     0.053 A 
ATOM      2  C   UNL     1      13.098   8.213  19.430  1.00  0.00     0.065 A 
ATOM      3  C   UNL     1      13.138   8.456  18.045  1.00  0.00     0.123 A 
ATOM      4  C   UNL     1      13.720   9.648  17.571  1.00  0.00    -0.001 A 
ATOM      5  C   UNL     1      14.248  10.576  18.483  1.00  0.00     0.055 A 
ATOM      6  C   UNL     1      14.204  10.332  19.867  1.00  0.00     0.132 A 
ENDROOT
BRANCH   1   7
ATOM      7  S   UNL     1      13.539   8.800  22.098  1.00  0.00    -0.123 SA
BRANCH   7   8
ATOM      8  C   UNL     1      14.323   7.152  21.983  1.00  0.00     0.072 C 
ATOM      9  C   UNL     1      13.615   6.135  22.870  1.00  0.00     0.016 C 
ENDBRANCH   7   8
ENDBRANCH   1   7
BRANCH   6  10
ATOM     10  O   UNL     1      14.732  11.238  20.802  1.00  0.00    -0.496 OA
ATOM     11  C   UNL     1      15.021  12.604  20.528  1.00  0.00     0.278 C 
ENDBRANCH   6  10
BRANCH   3  12
ATOM     12  O   UNL     1      12.611   7.540  17.119  1.00  0.00    -0.496 OA
ATOM     13  C   UNL     1      11.384   6.837  17.284  1.00  0.00     0.278 C 
ENDBRANCH   3  12
BRANCH   4  14
ATOM     14  C   UNL     1      13.752   9.955  16.090  1.00  0.00     0.058 C 
BRANCH  14  15
ATOM     15  C   UNL     1      12.378  10.415  15.561  1.00  0.00     0.052 C 
ATOM     16  C   UNL     1      12.486  11.754  14.817  1.00  0.00     0.024 C 
BRANCH  15  17
ATOM     17  N   UNL     1      11.834   9.399  14.658  1.00  0.00    -0.328 NA
ATOM     18  H   UNL     1      12.593   8.713  14.438  1.00  0.00     0.119 HD
ATOM     19  H   UNL     1      11.103   8.855  15.171  1.00  0.00     0.119 HD
ENDBRANCH  15  17
ENDBRANCH  14  15
ENDBRANCH   4  14
TORSDOF 7
ENDMDL
MODEL 2
REMARK VINA RESULT:    -5.685      2.979      6.295
REMARK INTER + INTRA:          -8.466
REMARK INTER:                  -7.984
REMARK INTRA:                  -0.482
REMARK UNBOUND:                -0.621
REMARK SMILES CCSc1cc(OC)c(CC(C)N)cc1OC
REMARK SMILES IDX 4 1 5 2 6 3 9 4 14 5 15 6 3 7 2 8 1 9 16 10 17 11 7 12 8 13
REMARK SMILES IDX 10 14 11 15 12 16 13 17
REMARK H PARENT 13 18 13 19
REMARK Flexibility Score: inf
ROOT
ATOM      1  C   UNL     1      13.010   9.719  18.984  1.00  0.00     0.053 A 
ATOM      2  C   UNL     1      13.287  10.237  20.254  1.00  0.00     0.065 A 
ATOM      3  C   UNL     1      13.733   9.396  21.289  1.00  0.00     0.123 A 
ATOM      4  C   UNL     1      13.917   8.023  21.031  1.00  0.00    -0.001 A 
ATOM      5  C   UNL     1      13.649   7.512  19.751  1.00  0.00     0.055 A 
ATOM      6  C   UNL     1      13.199   8.355  18.719  1.00  0.00     0.132 A 
ENDROOT
BRANCH   1   7
ATOM      7  S   UNL     1      12.435  10.829  17.689  1.00  0.00    -0.123 SA
BRANCH   7   8
ATOM      8  C   UNL     1      14.023  10.876  16.785  1.00  0.00     0.072 C 
ATOM      9  C   UNL     1      15.141  11.442  17.653  1.00  0.00     0.016 C 
ENDBRANCH   7   8
ENDBRANCH   1   7
BRANCH   6  10
ATOM     10  O   UNL     1      12.932   7.874  17.426  1.00  0.00    -0.496 OA
ATOM     11  C   UNL     1      11.721   7.235  17.037  1.00  0.00     0.278 C 
ENDBRANCH   6  10
BRANCH   3  12
ATOM     12  O   UNL     1      14.002   9.888  22.577  1.00  0.00    -0.496 OA
ATOM     13  C   UNL     1      13.566  11.151  23.069  1.00  0.00     0.278 C 
ENDBRANCH   3  12
BRANCH   4  14
ATOM     14  C   UNL     1      14.367   7.085  22.130  1.00  0.00     0.058 C 
BRANCH  14  15
ATOM     15  C   UNL     1      13.176   6.463  22.889  1.00  0.00     0.052 C 
ATOM     16  C   UNL     1      13.563   5.125  23.535  1.00  0.00     0.024 C 
BRANCH  15  17
ATOM     17  N   UNL     1      12.718   7.390  23.926  1.00  0.00    -0.328 NA
ATOM     18  H   UNL     1      12.233   8.192  23.461  1.00  0.00     0.119 HD
ATOM     19  H   UNL     1      11.985   6.912  24.499  1.00  0.00     0.119 HD
ENDBRANCH  15  17
ENDBRANCH  14  15
ENDBRANCH   4  14
TORSDOF 7
ENDMDL
MODEL 3
REMARK VINA RESULT:    -5.573      3.262      6.281
REMARK INTER + INTRA:          -8.312
REMARK INTER:                  -7.754
REMARK INTRA:                  -0.558
REMARK UNBOUND:                -0.621
REMARK SMILES CCSc1cc(OC)c(CC(C)N)cc1OC
REMARK SMILES IDX 4 1 5 2 6 3 9 4 14 5 15 6 3 7 2 8 1 9 16 10 17 11 7 12 8 13
REMARK SMILES IDX 10 14 11 15 12 16 13 17
REMARK H PARENT 13 18 13 19
REMARK Flexibility Score: inf
ROOT
ATOM      1  C   UNL     1      10.347   9.630  18.876  1.00  0.00     0.053 A 
ATOM      2  C   UNL     1      10.791  10.378  19.971  1.00  0.00     0.065 A 
ATOM      3  C   UNL     1      11.999  10.056  20.616  1.00  0.00     0.123 A 
ATOM      4  C   UNL     1      12.771   8.979  20.137  1.00  0.00    -0.001 A 
ATOM      5  C   UNL     1      12.325   8.241  19.029  1.00  0.00     0.055 A 
ATOM      6  C   UNL     1      11.115   8.563  18.388  1.00  0.00     0.132 A 
ENDROOT
BRANCH   1   7
ATOM      7  S   UNL     1       8.792  10.071  18.083  1.00  0.00    -0.123 SA
BRANCH   7   8
ATOM      8  C   UNL     1       9.360  11.703  17.486  1.00  0.00     0.072 C 
ATOM      9  C   UNL     1      10.502  11.563  16.486  1.00  0.00     0.016 C 
ENDBRANCH   7   8
ENDBRANCH   1   7
BRANCH   6  10
ATOM     10  O   UNL     1      10.649   7.848  17.273  1.00  0.00    -0.496 OA
ATOM     11  C   UNL     1      11.335   6.758  16.668  1.00  0.00     0.278 C 
ENDBRANCH   6  10
BRANCH   3  12
ATOM     12  O   UNL     1      12.459  10.782  21.728  1.00  0.00    -0.496 OA
ATOM     13  C   UNL     1      13.375  11.869  21.664  1.00  0.00     0.278 C 
ENDBRANCH   3  12
BRANCH   4  14
ATOM     14  C   UNL     1      14.060   8.588  20.825  1.00  0.00     0.058 C 
BRANCH  14  15
ATOM     15  C   UNL     1      13.863   7.415  21.808  1.00  0.00     0.052 C 
ATOM     16  C   UNL     1      15.197   6.730  22.135  1.00  0.00     0.024 C 
BRANCH  15  17
ATOM     17  N   UNL     1      13.253   7.908  23.044  1.00  0.00    -0.328 NA
ATOM     18  H   UNL     1      13.540   8.905  23.180  1.00  0.00     0.119 HD
ATOM     19  H   UNL     1      12.215   7.929  22.918  1.00  0.00     0.119 HD
ENDBRANCH  15  17
ENDBRANCH  14  15
ENDBRANCH   4  14
TORSDOF 7
ENDMDL
MODEL 4
REMARK VINA RESULT:    -5.570      1.982      3.217
REMARK INTER + INTRA:          -8.307
REMARK INTER:                  -7.749
REMARK INTRA:                  -0.559
REMARK UNBOUND:                -0.621
REMARK SMILES CCSc1cc(OC)c(CC(C)N)cc1OC
REMARK SMILES IDX 4 1 5 2 6 3 9 4 14 5 15 6 3 7 2 8 1 9 16 10 17 11 7 12 8 13
REMARK SMILES IDX 10 14 11 15 12 16 13 17
REMARK H PARENT 13 18 13 19
REMARK Flexibility Score: inf
ROOT
ATOM      1  C   UNL     1      13.120  10.203  20.274  1.00  0.00     0.053 A 
ATOM      2  C   UNL     1      14.279  10.725  19.691  1.00  0.00     0.065 A 
ATOM      3  C   UNL     1      14.343  10.955  18.305  1.00  0.00     0.123 A 
ATOM      4  C   UNL     1      13.219  10.669  17.506  1.00  0.00    -0.001 A 
ATOM      5  C   UNL     1      12.055  10.156  18.099  1.00  0.00     0.055 A 
ATOM      6  C   UNL     1      11.994   9.924  19.485  1.00  0.00     0.132 A 
ENDROOT
BRANCH   1   7
ATOM      7  S   UNL     1      13.081   9.918  22.051  1.00  0.00    -0.123 SA
BRANCH   7   8
ATOM      8  C   UNL     1      14.392   8.644  22.050  1.00  0.00     0.072 C 
ATOM      9  C   UNL     1      13.945   7.386  21.315  1.00  0.00     0.016 C 
ENDBRANCH   7   8
ENDBRANCH   1   7
BRANCH   6  10
ATOM     10  O   UNL     1      10.840   9.421  20.108  1.00  0.00    -0.496 OA
ATOM     11  C   UNL     1       9.572  10.066  20.099  1.00  0.00     0.278 C 
ENDBRANCH   6  10
BRANCH   3  12
ATOM     12  O   UNL     1      15.502  11.463  17.694  1.00  0.00    -0.496 OA
ATOM     13  C   UNL     1      16.336  12.472  18.252  1.00  0.00     0.278 C 
ENDBRANCH   3  12
BRANCH   4  14
ATOM     14  C   UNL     1      13.265  10.876  16.008  1.00  0.00     0.058 C 
BRANCH  14  15
ATOM     15  C   UNL     1      11.974  10.393  15.314  1.00  0.00     0.052 C 
ATOM     16  C   UNL     1      11.392  11.480  14.399  1.00  0.00     0.024 C 
BRANCH  15  17
ATOM     17  N   UNL     1      12.261   9.194  14.524  1.00  0.00    -0.328 NA
ATOM     18  H   UNL     1      13.241   9.262  14.163  1.00  0.00     0.119 HD
ATOM     19  H   UNL     1      12.253   8.365  15.162  1.00  0.00     0.119 HD
ENDBRANCH  15  17
ENDBRANCH  14  15
ENDBRANCH   4  14
TORSDOF 7
ENDMDL
MODEL 5
REMARK VINA RESULT:    -5.521      3.941      6.049
REMARK INTER + INTRA:          -8.241
REMARK INTER:                  -7.907
REMARK INTRA:                  -0.334
REMARK UNBOUND:                -0.621
REMARK SMILES CCSc1cc(OC)c(CC(C)N)cc1OC
REMARK SMILES IDX 4 1 5 2 6 3 9 4 14 5 15 6 3 7 2 8 1 9 16 10 17 11 7 12 8 13
REMARK SMILES IDX 10 14 11 15 12 16 13 17
REMARK H PARENT 13 18 13 19
REMARK Flexibility Score: inf
ROOT
ATOM      1  C   UNL     1      10.200  12.531  15.895  1.00  0.00     0.053 A 
ATOM      2  C   UNL     1      10.087  11.393  16.700  1.00  0.00     0.065 A 
ATOM      3  C   UNL     1      10.874  10.255  16.446  1.00  0.00     0.123 A 
ATOM      4  C   UNL     1      11.793  10.276  15.379  1.00  0.00    -0.001 A 
ATOM      5  C   UNL     1      11.911  11.426  14.583  1.00  0.00     0.055 A 
ATOM      6  C   UNL     1      11.121  12.562  14.837  1.00  0.00     0.132 A 
ENDROOT
BRANCH   1   7
ATOM      7  S   UNL     1       9.171  13.964  16.251  1.00  0.00    -0.123 SA
BRANCH   7   8
ATOM      8  C   UNL     1       8.745  13.453  17.953  1.00  0.00     0.072 C 
ATOM      9  C   UNL     1       8.074  14.584  18.723  1.00  0.00     0.016 C 
ENDBRANCH   7   8
ENDBRANCH   1   7
BRANCH   6  10
ATOM     10  O   UNL     1      11.223  13.730  14.064  1.00  0.00    -0.496 OA
ATOM     11  C   UNL     1      10.748  13.858  12.729  1.00  0.00     0.278 C 
ENDBRANCH   6  10
BRANCH   3  12
ATOM     12  O   UNL     1      10.766   9.093  17.230  1.00  0.00    -0.496 OA
ATOM     13  C   UNL     1      10.525   9.082  18.633  1.00  0.00     0.278 C 
ENDBRANCH   3  12
BRANCH   4  14
ATOM     14  C   UNL     1      12.633   9.059  15.060  1.00  0.00     0.058 C 
BRANCH  14  15
ATOM     15  C   UNL     1      13.836   8.914  16.016  1.00  0.00     0.052 C 
ATOM     16  C   UNL     1      14.109  10.222  16.773  1.00  0.00     0.024 C 
BRANCH  15  17
ATOM     17  N   UNL     1      13.574   7.841  16.976  1.00  0.00    -0.328 NA
ATOM     18  H   UNL     1      14.369   7.162  16.938  1.00  0.00     0.119 HD
ATOM     19  H   UNL     1      13.594   8.244  17.940  1.00  0.00     0.119 HD
ENDBRANCH  15  17
ENDBRANCH  14  15
ENDBRANCH   4  14
TORSDOF 7
ENDMDL
MODEL 6
REMARK VINA RESULT:    -5.509      2.917      6.330
REMARK INTER + INTRA:          -8.224
REMARK INTER:                  -7.792
REMARK INTRA:                  -0.431
REMARK UNBOUND:                -0.621
REMARK SMILES CCSc1cc(OC)c(CC(C)N)cc1OC
REMARK SMILES IDX 4 1 5 2 6 3 9 4 14 5 15 6 3 7 2 8 1 9 16 10 17 11 7 12 8 13
REMARK SMILES IDX 10 14 11 15 12 16 13 17
REMARK H PARENT 13 18 13 19
REMARK Flexibility Score: inf
ROOT
ATOM      1  C   UNL     1      12.664   9.380  17.047  1.00  0.00     0.053 A 
ATOM      2  C   UNL     1      13.732  10.193  17.438  1.00  0.00     0.065 A 
ATOM      3  C   UNL     1      14.258  10.108  18.740  1.00  0.00     0.123 A 
ATOM      4  C   UNL     1      13.707   9.181  19.647  1.00  0.00    -0.001 A 
ATOM      5  C   UNL     1      12.643   8.359  19.243  1.00  0.00     0.055 A 
ATOM      6  C   UNL     1      12.117   8.448  17.942  1.00  0.00     0.132 A 
ENDROOT
BRANCH   1   7
ATOM      7  S   UNL     1      12.017   9.524  15.373  1.00  0.00    -0.123 SA
BRANCH   7   8
ATOM      8  C   UNL     1      12.447  11.290  15.174  1.00  0.00     0.072 C 
ATOM      9  C   UNL     1      11.523  11.978  14.175  1.00  0.00     0.016 C 
ENDBRANCH   7   8
ENDBRANCH   1   7
BRANCH   6  10
ATOM     10  O   UNL     1      11.059   7.633  17.507  1.00  0.00    -0.496 OA
ATOM     11  C   UNL     1      11.203   6.283  17.082  1.00  0.00     0.278 C 
ENDBRANCH   6  10
BRANCH   3  12
ATOM     12  O   UNL     1      15.320  10.926  19.163  1.00  0.00    -0.496 OA
ATOM     13  C   UNL     1      15.808  12.054  18.445  1.00  0.00     0.278 C 
ENDBRANCH   3  12
BRANCH   4  14
ATOM     14  C   UNL     1      14.228   9.085  21.064  1.00  0.00     0.058 C 
BRANCH  14  15
ATOM     15  C   UNL     1      13.869   7.739  21.727  1.00  0.00     0.052 C 
ATOM     16  C   UNL     1      15.112   6.857  21.911  1.00  0.00     0.024 C 
BRANCH  15  17
ATOM     17  N   UNL     1      13.249   7.984  23.030  1.00  0.00    -0.328 NA
ATOM     18  H   UNL     1      12.236   7.728  22.968  1.00  0.00     0.119 HD
ATOM     19  H   UNL     1      13.664   7.324  23.726  1.00  0.00     0.119 HD
ENDBRANCH  15  17
ENDBRANCH  14  15
ENDBRANCH   4  14
TORSDOF 7
ENDMDL
MODEL 7
REMARK VINA RESULT:    -5.475      3.466      6.534
REMARK INTER + INTRA:          -8.176
REMARK INTER:                  -7.629
REMARK INTRA:                  -0.547
REMARK UNBOUND:                -0.621
REMARK SMILES CCSc1cc(OC)c(CC(C)N)cc1OC
REMARK SMILES IDX 4 1 5 2 6 3 9 4 14 5 15 6 3 7 2 8 1 9 16 10 17 11 7 12 8 13
REMARK SMILES IDX 10 14 11 15 12 16 13 17
REMARK H PARENT 13 18 13 19
REMARK Flexibility Score: inf
ROOT
ATOM      1  C   UNL     1      12.575  12.905  15.728  1.00  0.00     0.053 A 
ATOM      2  C   UNL     1      13.584  12.540  16.625  1.00  0.00     0.065 A 
ATOM      3  C   UNL     1      13.936  11.189  16.798  1.00  0.00     0.123 A 
ATOM      4  C   UNL     1      13.271  10.202  16.045  1.00  0.00    -0.001 A 
ATOM      5  C   UNL     1      12.267  10.576  15.137  1.00  0.00     0.055 A 
ATOM      6  C   UNL     1      11.916  11.928  14.968  1.00  0.00     0.132 A 
ENDROOT
BRANCH   1   7
ATOM      7  S   UNL     1      12.153  14.645  15.541  1.00  0.00    -0.123 SA
BRANCH   7   8
ATOM      8  C   UNL     1      13.799  15.157  14.932  1.00  0.00     0.072 C 
ATOM      9  C   UNL     1      13.877  15.085  13.411  1.00  0.00     0.016 C 
ENDBRANCH   7   8
ENDBRANCH   1   7
BRANCH   6  10
ATOM     10  O   UNL     1      10.923  12.333  14.061  1.00  0.00    -0.496 OA
ATOM     11  C   UNL     1      11.161  12.663  12.698  1.00  0.00     0.278 C 
ENDBRANCH   6  10
BRANCH   3  12
ATOM     12  O   UNL     1      14.934  10.796  17.705  1.00  0.00    -0.496 OA
ATOM     13  C   UNL     1      14.789  10.800  19.121  1.00  0.00     0.278 C 
ENDBRANCH   3  12
BRANCH   4  14
ATOM     14  C   UNL     1      13.603   8.738  16.229  1.00  0.00     0.058 C 
BRANCH  14  15
ATOM     15  C   UNL     1      12.768   8.087  17.352  1.00  0.00     0.052 C 
ATOM     16  C   UNL     1      11.659   7.194  16.777  1.00  0.00     0.024 C 
BRANCH  15  17
ATOM     17  N   UNL     1      13.641   7.287  18.212  1.00  0.00    -0.328 NA
ATOM     18  H   UNL     1      13.686   6.316  17.826  1.00  0.00     0.119 HD
ATOM     19  H   UNL     1      14.614   7.664  18.141  1.00  0.00     0.119 HD
ENDBRANCH  15  17
ENDBRANCH  14  15
ENDBRANCH   4  14
TORSDOF 7
ENDMDL
MODEL 8
REMARK VINA RESULT:    -5.458      3.463      5.436
REMARK INTER + INTRA:          -8.153
REMARK INTER:                  -7.563
REMARK INTRA:                  -0.590
REMARK UNBOUND:                -0.621
REMARK SMILES CCSc1cc(OC)c(CC(C)N)cc1OC
REMARK SMILES IDX 4 1 5 2 6 3 9 4 14 5 15 6 3 7 2 8 1 9 16 10 17 11 7 12 8 13
REMARK SMILES IDX 10 14 11 15 12 16 13 17
REMARK H PARENT 13 18 13 19
REMARK Flexibility Score: inf
ROOT
ATOM      1  C   UNL     1      14.136  13.270  17.186  1.00  0.00     0.053 A 
ATOM      2  C   UNL     1      13.188  12.806  16.268  1.00  0.00     0.065 A 
ATOM      3  C   UNL     1      13.088  11.434  15.973  1.00  0.00     0.123 A 
ATOM      4  C   UNL     1      13.944  10.525  16.625  1.00  0.00    -0.001 A 
ATOM      5  C   UNL     1      14.885  10.996  17.554  1.00  0.00     0.055 A 
ATOM      6  C   UNL     1      14.985  12.368  17.845  1.00  0.00     0.132 A 
ENDROOT
BRANCH   1   7
ATOM      7  S   UNL     1      14.235  15.034  17.531  1.00  0.00    -0.123 SA
BRANCH   7   8
ATOM      8  C   UNL     1      15.132  15.460  15.996  1.00  0.00     0.072 C 
ATOM      9  C   UNL     1      16.641  15.442  16.209  1.00  0.00     0.016 C 
ENDBRANCH   7   8
ENDBRANCH   1   7
BRANCH   6  10
ATOM     10  O   UNL     1      15.910  12.868  18.776  1.00  0.00    -0.496 OA
ATOM     11  C   UNL     1      17.321  12.714  18.674  1.00  0.00     0.278 C 
ENDBRANCH   6  10
BRANCH   3  12
ATOM     12  O   UNL     1      12.155  10.945  15.043  1.00  0.00    -0.496 OA
ATOM     13  C   UNL     1      11.083  11.705  14.495  1.00  0.00     0.278 C 
ENDBRANCH   3  12
BRANCH   4  14
ATOM     14  C   UNL     1      13.883   9.047  16.308  1.00  0.00     0.058 C 
BRANCH  14  15
ATOM     15  C   UNL     1      12.940   8.285  17.263  1.00  0.00     0.052 C 
ATOM     16  C   UNL     1      11.812   7.584  16.493  1.00  0.00     0.024 C 
BRANCH  15  17
ATOM     17  N   UNL     1      13.706   7.291  18.018  1.00  0.00    -0.328 NA
ATOM     18  H   UNL     1      14.716   7.390  17.766  1.00  0.00     0.119 HD
ATOM     19  H   UNL     1      13.645   7.527  19.035  1.00  0.00     0.119 HD
ENDBRANCH  15  17
ENDBRANCH  14  15
ENDBRANCH   4  14
TORSDOF 7
ENDMDL
MODEL 9
REMARK VINA RESULT:    -5.338      4.110      5.494
REMARK INTER + INTRA:          -7.987
REMARK INTER:                  -7.511
REMARK INTRA:                  -0.476
REMARK UNBOUND:                -0.621
REMARK SMILES CCSc1cc(OC)c(CC(C)N)cc1OC
REMARK SMILES IDX 4 1 5 2 6 3 9 4 14 5 15 6 3 7 2 8 1 9 16 10 17 11 7 12 8 13
REMARK SMILES IDX 10 14 11 15 12 16 13 17
REMARK H PARENT 13 18 13 19
REMARK Flexibility Score: inf
ROOT
ATOM      1  C   UNL     1      10.845  10.280  16.830  1.00  0.00     0.053 A 
ATOM      2  C   UNL     1      10.123  11.473  16.724  1.00  0.00     0.065 A 
ATOM      3  C   UNL     1      10.249  12.288  15.584  1.00  0.00     0.123 A 
ATOM      4  C   UNL     1      11.100  11.883  14.537  1.00  0.00    -0.001 A 
ATOM      5  C   UNL     1      11.812  10.678  14.645  1.00  0.00     0.055 A 
ATOM      6  C   UNL     1      11.687   9.866  15.787  1.00  0.00     0.132 A 
ENDROOT
BRANCH   1   7
ATOM      7  S   UNL     1      10.658   9.269  18.307  1.00  0.00    -0.123 SA
BRANCH   7   8
ATOM      8  C   UNL     1       8.951   9.811  18.673  1.00  0.00     0.072 C 
ATOM      9  C   UNL     1       8.683   9.831  20.174  1.00  0.00     0.016 C 
ENDBRANCH   7   8
ENDBRANCH   1   7
BRANCH   6  10
ATOM     10  O   UNL     1      12.379   8.651  15.919  1.00  0.00    -0.496 OA
ATOM     11  C   UNL     1      13.785   8.540  16.108  1.00  0.00     0.278 C 
ENDBRANCH   6  10
BRANCH   3  12
ATOM     12  O   UNL     1       9.548  13.500  15.461  1.00  0.00    -0.496 OA
ATOM     13  C   UNL     1       8.356  13.821  16.170  1.00  0.00     0.278 C 
ENDBRANCH   3  12
BRANCH   4  14
ATOM     14  C   UNL     1      11.282  12.750  13.312  1.00  0.00     0.058 C 
BRANCH  14  15
ATOM     15  C   UNL     1      12.768  13.065  13.036  1.00  0.00     0.052 C 
ATOM     16  C   UNL     1      13.071  13.052  11.531  1.00  0.00     0.024 C 
BRANCH  15  17
ATOM     17  N   UNL     1      13.101  14.379  13.589  1.00  0.00    -0.328 NA
ATOM     18  H   UNL     1      13.293  14.268  14.611  1.00  0.00     0.119 HD
ATOM     19  H   UNL     1      14.003  14.699  13.166  1.00  0.00     0.119 HD
ENDBRANCH  15  17
ENDBRANCH  14  15
ENDBRANCH   4  14
TORSDOF 7
ENDMDL
MODEL 10
REMARK VINA RESULT:    -5.309      3.333      6.014
REMARK INTER + INTRA:          -7.948
REMARK INTER:                  -7.331
REMARK INTRA:                  -0.617
REMARK UNBOUND:                -0.621
REMARK SMILES CCSc1cc(OC)c(CC(C)N)cc1OC
REMARK SMILES IDX 4 1 5 2 6 3 9 4 14 5 15 6 3 7 2 8 1 9 16 10 17 11 7 12 8 13
REMARK SMILES IDX 10 14 11 15 12 16 13 17
REMARK H PARENT 13 18 13 19
REMARK Flexibility Score: inf
ROOT
ATOM      1  C   UNL     1      13.229  12.956  16.189  1.00  0.00     0.053 A 
ATOM      2  C   UNL     1      13.974  12.370  17.218  1.00  0.00     0.065 A 
ATOM      3  C   UNL     1      14.147  10.975  17.274  1.00  0.00     0.123 A 
ATOM      4  C   UNL     1      13.573  10.169  16.271  1.00  0.00    -0.001 A 
ATOM      5  C   UNL     1      12.836  10.764  15.235  1.00  0.00     0.055 A 
ATOM      6  C   UNL     1      12.663  12.159  15.182  1.00  0.00     0.132 A 
ENDROOT
BRANCH   1   7
ATOM      7  S   UNL     1      13.029  14.744  16.157  1.00  0.00    -0.123 SA
BRANCH   7   8
ATOM      8  C   UNL     1      11.573  14.774  17.262  1.00  0.00     0.072 C 
ATOM      9  C   UNL     1      10.274  14.874  16.470  1.00  0.00     0.016 C 
ENDBRANCH   7   8
ENDBRANCH   1   7
BRANCH   6  10
ATOM     10  O   UNL     1      11.940  12.784  14.153  1.00  0.00    -0.496 OA
ATOM     11  C   UNL     1      12.381  12.888  12.805  1.00  0.00     0.278 C 
ENDBRANCH   6  10
BRANCH   3  12
ATOM     12  O   UNL     1      14.877  10.362  18.306  1.00  0.00    -0.496 OA
ATOM     13  C   UNL     1      14.577  10.483  19.692  1.00  0.00     0.278 C 
ENDBRANCH   3  12
BRANCH   4  14
ATOM     14  C   UNL     1      13.713   8.664  16.318  1.00  0.00     0.058 C 
BRANCH  14  15
ATOM     15  C   UNL     1      12.812   8.028  17.398  1.00  0.00     0.052 C 
ATOM     16  C   UNL     1      11.709   7.166  16.768  1.00  0.00     0.024 C 
BRANCH  15  17
ATOM     17  N   UNL     1      13.626   7.202  18.291  1.00  0.00    -0.328 NA
ATOM     18  H   UNL     1      13.035   6.413  18.642  1.00  0.00     0.119 HD
ATOM     19  H   UNL     1      14.387   6.755  17.730  1.00  0.00     0.119 HD
ENDBRANCH  15  17
ENDBRANCH  14  15
ENDBRANCH   4  14
TORSDOF 7
ENDMDL
MODEL 11
REMARK VINA RESULT:    -5.309      3.630      6.229
REMARK INTER + INTRA:          -7.947
REMARK INTER:                  -7.397
REMARK INTRA:                  -0.550
REMARK UNBOUND:                -0.621
REMARK SMILES CCSc1cc(OC)c(CC(C)N)cc1OC
REMARK SMILES IDX 4 1 5 2 6 3 9 4 14 5 15 6 3 7 2 8 1 9 16 10 17 11 7 12 8 13
REMARK SMILES IDX 10 14 11 15 12 16 13 17
REMARK H PARENT 13 18 13 19
REMARK Flexibility Score: inf
ROOT
ATOM      1  C   UNL     1      12.546  12.337  15.078  1.00  0.00     0.053 A 
ATOM      2  C   UNL     1      12.528  10.943  14.977  1.00  0.00     0.065 A 
ATOM      3  C   UNL     1      13.216  10.147  15.911  1.00  0.00     0.123 A 
ATOM      4  C   UNL     1      13.914  10.770  16.965  1.00  0.00    -0.001 A 
ATOM      5  C   UNL     1      13.917  12.170  17.067  1.00  0.00     0.055 A 
ATOM      6  C   UNL     1      13.231  12.963  16.130  1.00  0.00     0.132 A 
ENDROOT
BRANCH   1   7
ATOM      7  S   UNL     1      11.657  13.318  13.858  1.00  0.00    -0.123 SA
BRANCH   7   8
ATOM      8  C   UNL     1      13.113  13.642  12.802  1.00  0.00     0.072 C 
ATOM      9  C   UNL     1      13.007  12.912  11.468  1.00  0.00     0.016 C 
ENDBRANCH   7   8
ENDBRANCH   1   7
BRANCH   6  10
ATOM     10  O   UNL     1      13.209  14.365  16.212  1.00  0.00    -0.496 OA
ATOM     11  C   UNL     1      14.342  15.174  16.506  1.00  0.00     0.278 C 
ENDBRANCH   6  10
BRANCH   3  12
ATOM     12  O   UNL     1      13.227   8.745  15.822  1.00  0.00    -0.496 OA
ATOM     13  C   UNL     1      12.170   7.897  16.261  1.00  0.00     0.278 C 
ENDBRANCH   3  12
BRANCH   4  14
ATOM     14  C   UNL     1      14.689   9.946  17.969  1.00  0.00     0.058 C 
BRANCH  14  15
ATOM     15  C   UNL     1      13.865   9.652  19.241  1.00  0.00     0.052 C 
ATOM     16  C   UNL     1      13.924   8.163  19.613  1.00  0.00     0.024 C 
BRANCH  15  17
ATOM     17  N   UNL     1      14.379  10.453  20.354  1.00  0.00    -0.328 NA
ATOM     18  H   UNL     1      13.736  10.334  21.171  1.00  0.00     0.119 HD
ATOM     19  H   UNL     1      15.296  10.053  20.657  1.00  0.00     0.119 HD
ENDBRANCH  15  17
ENDBRANCH  14  15
ENDBRANCH   4  14
TORSDOF 7
ENDMDL
MODEL 12
REMARK VINA RESULT:    -5.298      2.135      2.483
REMARK INTER + INTRA:          -7.933
REMARK INTER:                  -7.376
REMARK INTRA:                  -0.557
REMARK UNBOUND:                -0.621
REMARK SMILES CCSc1cc(OC)c(CC(C)N)cc1OC
REMARK SMILES IDX 4 1 5 2 6 3 9 4 14 5 15 6 3 7 2 8 1 9 16 10 17 11 7 12 8 13
REMARK SMILES IDX 10 14 11 15 12 16 13 17
REMARK H PARENT 13 18 13 19
REMARK Flexibility Score: inf
ROOT
ATOM      1  C   UNL     1      13.322   9.962  18.908  1.00  0.00     0.053 A 
ATOM      2  C   UNL     1      11.985   9.637  18.658  1.00  0.00     0.065 A 
ATOM      3  C   UNL     1      11.416   9.863  17.392  1.00  0.00     0.123 A 
ATOM      4  C   UNL     1      12.213  10.408  16.366  1.00  0.00    -0.001 A 
ATOM      5  C   UNL     1      13.558  10.720  16.620  1.00  0.00     0.055 A 
ATOM      6  C   UNL     1      14.123  10.496  17.888  1.00  0.00     0.132 A 
ENDROOT
BRANCH   1   7
ATOM      7  S   UNL     1      14.009   9.661  20.544  1.00  0.00    -0.123 SA
BRANCH   7   8
ATOM      8  C   UNL     1      13.960   7.837  20.419  1.00  0.00     0.072 C 
ATOM      9  C   UNL     1      14.719   7.180  21.566  1.00  0.00     0.016 C 
ENDBRANCH   7   8
ENDBRANCH   1   7
BRANCH   6  10
ATOM     10  O   UNL     1      15.468  10.790  18.169  1.00  0.00    -0.496 OA
ATOM     11  C   UNL     1      15.991  12.104  18.322  1.00  0.00     0.278 C 
ENDBRANCH   6  10
BRANCH   3  12
ATOM     12  O   UNL     1      10.071   9.560  17.121  1.00  0.00    -0.496 OA
ATOM     13  C   UNL     1       8.972   9.961  17.932  1.00  0.00     0.278 C 
ENDBRANCH   3  12
BRANCH   4  14
ATOM     14  C   UNL     1      11.625  10.692  15.001  1.00  0.00     0.058 C 
BRANCH  14  15
ATOM     15  C   UNL     1      11.309  12.190  14.804  1.00  0.00     0.052 C 
ATOM     16  C   UNL     1      10.985  12.504  13.336  1.00  0.00     0.024 C 
BRANCH  15  17
ATOM     17  N   UNL     1      10.171  12.566  15.645  1.00  0.00    -0.328 NA
ATOM     18  H   UNL     1      10.495  13.276  16.341  1.00  0.00     0.119 HD
ATOM     19  H   UNL     1       9.465  13.057  15.050  1.00  0.00     0.119 HD
ENDBRANCH  15  17
ENDBRANCH  14  15
ENDBRANCH   4  14
TORSDOF 7
ENDMDL
MODEL 13
REMARK VINA RESULT:    -5.295      2.350      3.398
REMARK INTER + INTRA:          -7.929
REMARK INTER:                  -7.448
REMARK INTRA:                  -0.481
REMARK UNBOUND:                -0.621
REMARK SMILES CCSc1cc(OC)c(CC(C)N)cc1OC
REMARK SMILES IDX 4 1 5 2 6 3 9 4 14 5 15 6 3 7 2 8 1 9 16 10 17 11 7 12 8 13
REMARK SMILES IDX 10 14 11 15 12 16 13 17
REMARK H PARENT 13 18 13 19
REMARK Flexibility Score: inf
ROOT
ATOM      1  C   UNL     1      14.976  11.867  19.913  1.00  0.00     0.053 A 
ATOM      2  C   UNL     1      14.419  10.616  20.196  1.00  0.00     0.065 A 
ATOM      3  C   UNL     1      14.149   9.701  19.162  1.00  0.00     0.123 A 
ATOM      4  C   UNL     1      14.460  10.051  17.833  1.00  0.00    -0.001 A 
ATOM      5  C   UNL     1      15.030  11.304  17.557  1.00  0.00     0.055 A 
ATOM      6  C   UNL     1      15.296  12.218  18.593  1.00  0.00     0.132 A 
ENDROOT
BRANCH   1   7
ATOM      7  S   UNL     1      15.301  13.010  21.264  1.00  0.00    -0.123 SA
BRANCH   7   8
ATOM      8  C   UNL     1      14.027  12.324  22.381  1.00  0.00     0.072 C 
ATOM      9  C   UNL     1      13.917  13.136  23.667  1.00  0.00     0.016 C 
ENDBRANCH   7   8
ENDBRANCH   1   7
BRANCH   6  10
ATOM     10  O   UNL     1      15.874  13.475  18.349  1.00  0.00    -0.496 OA
ATOM     11  C   UNL     1      17.149  13.674  17.748  1.00  0.00     0.278 C 
ENDBRANCH   6  10
BRANCH   3  12
ATOM     12  O   UNL     1      13.575   8.444  19.418  1.00  0.00    -0.496 OA
ATOM     13  C   UNL     1      14.135   7.459  20.279  1.00  0.00     0.278 C 
ENDBRANCH   3  12
BRANCH   4  14
ATOM     14  C   UNL     1      14.154   9.103  16.694  1.00  0.00     0.058 C 
BRANCH  14  15
ATOM     15  C   UNL     1      12.637   8.913  16.485  1.00  0.00     0.052 C 
ATOM     16  C   UNL     1      12.198   9.402  15.098  1.00  0.00     0.024 C 
BRANCH  15  17
ATOM     17  N   UNL     1      12.295   7.497  16.634  1.00  0.00    -0.328 NA
ATOM     18  H   UNL     1      11.279   7.426  16.874  1.00  0.00     0.119 HD
ATOM     19  H   UNL     1      12.398   7.031  15.703  1.00  0.00     0.119 HD
ENDBRANCH  15  17
ENDBRANCH  14  15
ENDBRANCH   4  14
TORSDOF 7
ENDMDL
MODEL 14
REMARK VINA RESULT:    -5.244      4.097      6.294
REMARK INTER + INTRA:          -7.857
REMARK INTER:                  -7.738
REMARK INTRA:                  -0.120
REMARK UNBOUND:                -0.621
REMARK SMILES CCSc1cc(OC)c(CC(C)N)cc1OC
REMARK SMILES IDX 4 1 5 2 6 3 9 4 14 5 15 6 3 7 2 8 1 9 16 10 17 11 7 12 8 13
REMARK SMILES IDX 10 14 11 15 12 16 13 17
REMARK H PARENT 13 18 13 19
REMARK Flexibility Score: inf
ROOT
ATOM      1  C   UNL     1       9.861  11.967  16.803  1.00  0.00     0.053 A 
ATOM      2  C   UNL     1      10.686  12.316  15.729  1.00  0.00     0.065 A 
ATOM      3  C   UNL     1      11.599  11.388  15.196  1.00  0.00     0.123 A 
ATOM      4  C   UNL     1      11.666  10.093  15.745  1.00  0.00    -0.001 A 
ATOM      5  C   UNL     1      10.827   9.746  16.816  1.00  0.00     0.055 A 
ATOM      6  C   UNL     1       9.917  10.676  17.349  1.00  0.00     0.132 A 
ENDROOT
BRANCH   1   7
ATOM      7  S   UNL     1       8.710  13.185  17.459  1.00  0.00    -0.123 SA
BRANCH   7   8
ATOM      8  C   UNL     1       8.625  14.183  15.929  1.00  0.00     0.072 C 
ATOM      9  C   UNL     1       7.217  14.717  15.691  1.00  0.00     0.016 C 
ENDBRANCH   7   8
ENDBRANCH   1   7
BRANCH   6  10
ATOM     10  O   UNL     1       9.058  10.354  18.413  1.00  0.00    -0.496 OA
ATOM     11  C   UNL     1       9.476   9.751  19.632  1.00  0.00     0.278 C 
ENDBRANCH   6  10
BRANCH   3  12
ATOM     12  O   UNL     1      12.450  11.720  14.127  1.00  0.00    -0.496 OA
ATOM     13  C   UNL     1      12.427  12.960  13.429  1.00  0.00     0.278 C 
ENDBRANCH   3  12
BRANCH   4  14
ATOM     14  C   UNL     1      12.658   9.081  15.216  1.00  0.00     0.058 C 
BRANCH  14  15
ATOM     15  C   UNL     1      13.867   8.901  16.159  1.00  0.00     0.052 C 
ATOM     16  C   UNL     1      14.198  10.206  16.897  1.00  0.00     0.024 C 
BRANCH  15  17
ATOM     17  N   UNL     1      13.575   7.850  17.135  1.00  0.00    -0.328 NA
ATOM     18  H   UNL     1      12.908   7.171  16.700  1.00  0.00     0.119 HD
ATOM     19  H   UNL     1      14.452   7.308  17.312  1.00  0.00     0.119 HD
ENDBRANCH  15  17
ENDBRANCH  14  15
ENDBRANCH   4  14
TORSDOF 7
ENDMDL
MODEL 15
REMARK VINA RESULT:    -5.232      3.873      5.658
REMARK INTER + INTRA:          -7.842
REMARK INTER:                  -7.475
REMARK INTRA:                  -0.367
REMARK UNBOUND:                -0.621
REMARK SMILES CCSc1cc(OC)c(CC(C)N)cc1OC
REMARK SMILES IDX 4 1 5 2 6 3 9 4 14 5 15 6 3 7 2 8 1 9 16 10 17 11 7 12 8 13
REMARK SMILES IDX 10 14 11 15 12 16 13 17
REMARK H PARENT 13 18 13 19
REMARK Flexibility Score: inf
ROOT
ATOM      1  C   UNL     1      12.177  10.128  16.987  1.00  0.00     0.053 A 
ATOM      2  C   UNL     1      11.420  11.278  16.736  1.00  0.00     0.065 A 
ATOM      3  C   UNL     1      10.061  11.333  17.094  1.00  0.00     0.123 A 
ATOM      4  C   UNL     1       9.468  10.222  17.725  1.00  0.00    -0.001 A 
ATOM      5  C   UNL     1      10.237   9.076  17.985  1.00  0.00     0.055 A 
ATOM      6  C   UNL     1      11.595   9.022  17.623  1.00  0.00     0.132 A 
ENDROOT
BRANCH   1   7
ATOM      7  S   UNL     1      13.912  10.096  16.507  1.00  0.00    -0.123 SA
BRANCH   7   8
ATOM      8  C   UNL     1      14.543  10.728  18.103  1.00  0.00     0.072 C 
ATOM      9  C   UNL     1      15.499  11.897  17.899  1.00  0.00     0.016 C 
ENDBRANCH   7   8
ENDBRANCH   1   7
BRANCH   6  10
ATOM     10  O   UNL     1      12.391   7.893  17.878  1.00  0.00    -0.496 OA
ATOM     11  C   UNL     1      12.949   7.569  19.146  1.00  0.00     0.278 C 
ENDBRANCH   6  10
BRANCH   3  12
ATOM     12  O   UNL     1       9.276  12.470  16.838  1.00  0.00    -0.496 OA
ATOM     13  C   UNL     1       9.714  13.813  17.013  1.00  0.00     0.278 C 
ENDBRANCH   3  12
BRANCH   4  14
ATOM     14  C   UNL     1       8.002  10.237  18.096  1.00  0.00     0.058 C 
BRANCH  14  15
ATOM     15  C   UNL     1       7.777  10.651  19.566  1.00  0.00     0.052 C 
ATOM     16  C   UNL     1       8.058   9.485  20.524  1.00  0.00     0.024 C 
BRANCH  15  17
ATOM     17  N   UNL     1       8.653  11.777  19.898  1.00  0.00    -0.328 NA
ATOM     18  H   UNL     1       8.698  11.864  20.939  1.00  0.00     0.119 HD
ATOM     19  H   UNL     1       9.625  11.544  19.592  1.00  0.00     0.119 HD
ENDBRANCH  15  17
ENDBRANCH  14  15
ENDBRANCH   4  14
TORSDOF 7
ENDMDL
