MODEL 1
REMARK VINA RESULT:    -3.022      0.000      0.000
REMARK INTER + INTRA:          -6.798
REMARK INTER:                  -7.439
REMARK INTRA:                   0.641
REMARK UNBOUND:                 0.641
REMARK SMILES CO[C@H]1C[C@H](O[C@H]2[C@H](C)[C@@H](O[C@@H]3O[C@H](C)C[C@H](N(C)C)[C@H]3OC(C)=O)[C@@H](C)C[C@@]3(CO3)C(=O)[C@H](C)[C@@H](OC(C)=O)[C@@H](C)[C@@H](C)OC(=O)[C@@H]2C)O[C@@H](C)[C@@H]1OC(C)=O
REMARK SMILES IDX 48 1 49 2 7 3 6 4 5 5 3 6 4 7 53 8 51 9 50 10 52 11 2 12
REMARK SMILES IDX 1 13 54 14 55 15 56 16 57 17 8 18 9 19 10 20 11 21 12 22
REMARK SMILES IDX 13 23 21 24 14 25 17 26 15 27 16 28 22 29 23 30 24 31 25 32
REMARK SMILES IDX 18 33 19 34 20 35 26 36 27 37 28 38 29 39 30 40 31 41 46 43
REMARK SMILES IDX 47 44 45 45 43 46 44 47 41 48 42 49 36 50 34 51 35 52 32 53
REMARK SMILES IDX 33 54 37 56 38 57 39 58 40 59
REMARK H PARENT
REMARK Flexibility Score: 70.00
ROOT
ATOM      1  C   UNL     1      12.761  77.097  -4.413  1.00  0.00     0.125 C 
ATOM      2  C   UNL     1      14.059  76.436  -4.905  1.00  0.00     0.023 C 
ENDROOT
BRANCH   1   3
ATOM      3  C   UNL     1      13.035  78.506  -3.757  1.00  0.00     0.140 C 
BRANCH   3   4
ATOM      4  O   UNL     1      13.868  79.230  -4.657  1.00  0.00    -0.348 OA
BRANCH   4   5
ATOM      5  C   UNL     1      14.948  79.928  -4.045  1.00  0.00     0.253 C 
ATOM      6  C   UNL     1      16.464  79.627  -6.037  1.00  0.00     0.166 C 
ATOM      7  C   UNL     1      16.304  79.400  -4.528  1.00  0.00     0.098 C 
ATOM      8  C   UNL     1      16.211  81.115  -6.353  1.00  0.00     0.234 C 
ATOM      9  C   UNL     1      14.871  81.571  -5.725  1.00  0.00     0.162 C 
ATOM     10  O   UNL     1      14.845  81.314  -4.326  1.00  0.00    -0.346 OA
ATOM     11  C   UNL     1      14.655  83.071  -5.940  1.00  0.00     0.043 C 
BRANCH   6  12
ATOM     12  O   UNL     1      17.783  79.282  -6.430  1.00  0.00    -0.377 OA
ATOM     13  C   UNL     1      18.707  79.612  -5.416  1.00  0.00     0.195 C 
ENDBRANCH   6  12
BRANCH   8  14
ATOM     14  O   UNL     1      16.153  81.301  -7.772  1.00  0.00    -0.457 OA
BRANCH  14  15
ATOM     15  C   UNL     1      17.260  81.641  -8.556  1.00  0.00     0.303 C 
ATOM     16  C   UNL     1      18.406  82.356  -7.929  1.00  0.00     0.139 C 
ATOM     17  O   UNL     1      17.323  81.302  -9.770  1.00  0.00    -0.253 OA
ENDBRANCH  14  15
ENDBRANCH   8  14
ENDBRANCH   4   5
ENDBRANCH   3   4
BRANCH   3  18
ATOM     18  C   UNL     1      11.754  79.365  -3.445  1.00  0.00     0.045 C 
ATOM     19  C   UNL     1      11.928  80.819  -3.932  1.00  0.00     0.013 C 
BRANCH  18  20
ATOM     20  C   UNL     1      11.359  79.299  -1.935  1.00  0.00     0.130 C 
BRANCH  20  21
ATOM     21  O   UNL     1      11.978  80.374  -1.235  1.00  0.00    -0.345 OA
BRANCH  21  22
ATOM     22  C   UNL     1      13.011  79.963  -0.357  1.00  0.00     0.293 C 
ATOM     23  O   UNL     1      14.133  79.570  -1.128  1.00  0.00    -0.346 OA
ATOM     24  C   UNL     1      12.475  78.771   0.456  1.00  0.00     0.249 C 
ATOM     25  C   UNL     1      15.218  79.208  -0.293  1.00  0.00     0.120 C 
ATOM     26  C   UNL     1      13.598  78.200   1.351  1.00  0.00     0.105 C 
ATOM     27  C   UNL     1      16.443  78.954  -1.172  1.00  0.00     0.039 C 
ATOM     28  C   UNL     1      14.866  77.939   0.506  1.00  0.00     0.055 C 
BRANCH  24  29
ATOM     29  O   UNL     1      11.393  79.234   1.265  1.00  0.00    -0.455 OA
BRANCH  29  30
ATOM     30  C   UNL     1      11.322  80.516   1.825  1.00  0.00     0.303 C 
ATOM     31  C   UNL     1      10.479  81.556   1.166  1.00  0.00     0.139 C 
ATOM     32  O   UNL     1      11.911  80.785   2.907  1.00  0.00    -0.253 OA
ENDBRANCH  29  30
ENDBRANCH  24  29
BRANCH  26  33
ATOM     33  N   UNL     1      13.121  77.018   2.120  1.00  0.00    -0.303 NA
ATOM     34  C   UNL     1      13.710  76.971   3.469  1.00  0.00     0.105 C 
ATOM     35  C   UNL     1      13.301  75.721   1.442  1.00  0.00     0.105 C 
ENDBRANCH  26  33
ENDBRANCH  21  22
ENDBRANCH  20  21
BRANCH  20  36
ATOM     36  C   UNL     1       9.794  79.346  -1.770  1.00  0.00     0.019 C 
ATOM     37  C   UNL     1       9.243  80.703  -2.238  1.00  0.00     0.010 C 
BRANCH  36  38
ATOM     38  C   UNL     1       9.037  78.197  -2.493  1.00  0.00     0.052 C 
BRANCH  38  39
ATOM     39  C   UNL     1       8.338  77.206  -1.532  1.00  0.00     0.150 CG0
ATOM     40  C   UNL     1       7.501  77.747  -0.420  1.00  0.00     0.205 C 
ATOM     41  O   UNL     1       8.847  77.391  -0.229  1.00  0.00    -0.361 OA
ATOM     42  G   UNL     1       8.358  75.718  -1.869  1.00  0.00     0.000 G0
ENDBRANCH  38  39
ENDBRANCH  36  38
ENDBRANCH  20  36
ENDBRANCH  18  20
ENDBRANCH   3  18
ENDBRANCH   1   3
BRANCH   1  43
ATOM     43  C   UNL     1      11.994  76.109  -3.567  1.00  0.00     0.311 C 
ATOM     44  O   UNL     1      11.710  76.388  -2.372  1.00  0.00    -0.252 OA
BRANCH  43  45
ATOM     45  O   UNL     1      11.597  74.882  -4.108  1.00  0.00    -0.462 OA
BRANCH  45  46
ATOM     46  C   UNL     1      11.581  73.684  -3.334  1.00  0.00     0.180 C 
ATOM     47  C   UNL     1      12.014  72.484  -4.189  1.00  0.00     0.053 C 
BRANCH  46  48
ATOM     48  C   UNL     1      10.194  73.537  -2.636  1.00  0.00     0.068 C 
ATOM     49  C   UNL     1      10.077  72.158  -1.962  1.00  0.00     0.015 C 
BRANCH  48  50
ATOM     50  C   UNL     1       8.934  73.818  -3.514  1.00  0.00     0.193 C 
BRANCH  50  51
ATOM     51  C   UNL     1       8.321  75.242  -3.339  1.00  0.00     0.097 C 
ATOM     52  C   UNL     1       6.860  75.225  -3.828  1.00  0.00     0.020 C 
BRANCH  51  53
ATOM     53  C   UNL     1       8.358  75.735  -1.892  1.00  0.00     0.173 CG0
ATOM     54  O   UNL     1       8.269  74.917  -0.991  1.00  0.00    -0.296 OA
ATOM     55  G   UNL     1       8.340  77.215  -1.519  1.00  0.00     0.000 G0
ENDBRANCH  51  53
ENDBRANCH  50  51
BRANCH  50  56
ATOM     56  O   UNL     1       9.240  73.591  -4.894  1.00  0.00    -0.461 OA
BRANCH  56  57
ATOM     57  C   UNL     1       8.747  72.518  -5.649  1.00  0.00     0.302 C 
ATOM     58  C   UNL     1       9.355  71.167  -5.464  1.00  0.00     0.139 C 
ATOM     59  O   UNL     1       7.846  72.688  -6.516  1.00  0.00    -0.253 OA
ENDBRANCH  56  57
ENDBRANCH  50  56
ENDBRANCH  48  50
ENDBRANCH  46  48
ENDBRANCH  45  46
ENDBRANCH  43  45
ENDBRANCH   1  43
TORSDOF 12
ENDMDL
MODEL 2
REMARK VINA RESULT:    -2.734      1.490      2.648
REMARK INTER + INTRA:          -6.090
REMARK INTER:                 -11.314
REMARK INTRA:                   5.224
REMARK UNBOUND:                 0.641
REMARK SMILES CO[C@H]1C[C@H](O[C@H]2[C@H](C)[C@@H](O[C@@H]3O[C@H](C)C[C@H](N(C)C)[C@H]3OC(C)=O)[C@@H](C)C[C@@]3(CO3)C(=O)[C@H](C)[C@@H](OC(C)=O)[C@@H](C)[C@@H](C)OC(=O)[C@@H]2C)O[C@@H](C)[C@@H]1OC(C)=O
REMARK SMILES IDX 48 1 49 2 7 3 6 4 5 5 3 6 4 7 53 8 51 9 50 10 52 11 2 12
REMARK SMILES IDX 1 13 54 14 55 15 56 16 57 17 8 18 9 19 10 20 11 21 12 22
REMARK SMILES IDX 13 23 21 24 14 25 17 26 15 27 16 28 22 29 23 30 24 31 25 32
REMARK SMILES IDX 18 33 19 34 20 35 26 36 27 37 28 38 29 39 30 40 31 41 46 43
REMARK SMILES IDX 47 44 45 45 43 46 44 47 41 48 42 49 36 50 34 51 35 52 32 53
REMARK SMILES IDX 33 54 37 56 38 57 39 58 40 59
REMARK H PARENT
REMARK Flexibility Score: 70.00
ROOT
ATOM      1  C   UNL     1      12.015  77.069  -3.775  1.00  0.00     0.125 C 
ATOM      2  C   UNL     1      13.023  76.168  -4.507  1.00  0.00     0.023 C 
ENDROOT
BRANCH   1   3
ATOM      3  C   UNL     1      12.705  78.361  -3.188  1.00  0.00     0.140 C 
BRANCH   3   4
ATOM      4  O   UNL     1      13.852  78.622  -3.990  1.00  0.00    -0.348 OA
BRANCH   4   5
ATOM      5  C   UNL     1      13.574  79.194  -5.265  1.00  0.00     0.253 C 
ATOM      6  C   UNL     1      15.550  80.756  -5.159  1.00  0.00     0.166 C 
ATOM      7  C   UNL     1      14.030  80.656  -5.337  1.00  0.00     0.098 C 
ATOM      8  C   UNL     1      16.240  79.823  -6.175  1.00  0.00     0.234 C 
ATOM      9  C   UNL     1      15.627  78.403  -6.094  1.00  0.00     0.162 C 
ATOM     10  O   UNL     1      14.217  78.440  -6.280  1.00  0.00    -0.346 OA
ATOM     11  C   UNL     1      16.227  77.492  -7.169  1.00  0.00     0.043 C 
BRANCH   6  12
ATOM     12  O   UNL     1      15.967  82.092  -5.391  1.00  0.00    -0.377 OA
ATOM     13  C   UNL     1      15.163  82.700  -6.377  1.00  0.00     0.195 C 
ENDBRANCH   6  12
BRANCH   8  14
ATOM     14  O   UNL     1      17.640  79.749  -5.886  1.00  0.00    -0.457 OA
BRANCH  14  15
ATOM     15  C   UNL     1      18.577  80.682  -6.338  1.00  0.00     0.303 C 
ATOM     16  C   UNL     1      18.446  81.241  -7.712  1.00  0.00     0.139 C 
ATOM     17  O   UNL     1      19.497  81.098  -5.581  1.00  0.00    -0.253 OA
ENDBRANCH  14  15
ENDBRANCH   8  14
ENDBRANCH   4   5
ENDBRANCH   3   4
BRANCH   3  18
ATOM     18  C   UNL     1      11.802  79.651  -3.154  1.00  0.00     0.045 C 
ATOM     19  C   UNL     1      12.571  80.880  -3.681  1.00  0.00     0.013 C 
BRANCH  18  20
ATOM     20  C   UNL     1      11.199  79.904  -1.736  1.00  0.00     0.130 C 
BRANCH  20  21
ATOM     21  O   UNL     1      12.022  80.824  -1.027  1.00  0.00    -0.345 OA
BRANCH  21  22
ATOM     22  C   UNL     1      13.064  80.207  -0.289  1.00  0.00     0.293 C 
ATOM     23  O   UNL     1      14.114  79.873  -1.181  1.00  0.00    -0.346 OA
ATOM     24  C   UNL     1      12.479  78.937   0.353  1.00  0.00     0.249 C 
ATOM     25  C   UNL     1      15.208  79.307  -0.481  1.00  0.00     0.120 C 
ATOM     26  C   UNL     1      13.599  78.154   1.076  1.00  0.00     0.105 C 
ATOM     27  C   UNL     1      16.365  79.120  -1.463  1.00  0.00     0.039 C 
ATOM     28  C   UNL     1      14.801  77.951   0.125  1.00  0.00     0.055 C 
BRANCH  24  29
ATOM     29  O   UNL     1      11.477  79.332   1.291  1.00  0.00    -0.455 OA
BRANCH  29  30
ATOM     30  C   UNL     1      11.532  80.505   2.054  1.00  0.00     0.303 C 
ATOM     31  C   UNL     1      10.967  81.768   1.497  1.00  0.00     0.139 C 
ATOM     32  O   UNL     1      11.998  80.495   3.226  1.00  0.00    -0.253 OA
ENDBRANCH  29  30
ENDBRANCH  24  29
BRANCH  26  33
ATOM     33  N   UNL     1      13.073  76.896   1.674  1.00  0.00    -0.303 NA
ATOM     34  C   UNL     1      14.087  76.219   2.499  1.00  0.00     0.105 C 
ATOM     35  C   UNL     1      12.486  75.947   0.710  1.00  0.00     0.105 C 
ENDBRANCH  26  33
ENDBRANCH  21  22
ENDBRANCH  20  21
BRANCH  20  36
ATOM     36  C   UNL     1       9.723  80.440  -1.851  1.00  0.00     0.019 C 
ATOM     37  C   UNL     1       9.641  81.575  -2.886  1.00  0.00     0.010 C 
BRANCH  36  38
ATOM     38  C   UNL     1       8.667  79.351  -2.185  1.00  0.00     0.052 C 
BRANCH  38  39
ATOM     39  C   UNL     1       7.899  78.823  -0.950  1.00  0.00     0.150 CG0
ATOM     40  C   UNL     1       7.015  79.760  -0.195  1.00  0.00     0.205 C 
ATOM     41  O   UNL     1       8.342  79.514   0.198  1.00  0.00    -0.361 OA
ATOM     42  G   UNL     1       7.908  77.324  -0.664  1.00  0.00     0.000 G0
ENDBRANCH  38  39
ENDBRANCH  36  38
ENDBRANCH  20  36
ENDBRANCH  18  20
ENDBRANCH   3  18
ENDBRANCH   1   3
BRANCH   1  43
ATOM     43  C   UNL     1      11.227  76.233  -2.795  1.00  0.00     0.311 C 
ATOM     44  O   UNL     1      11.081  76.624  -1.606  1.00  0.00    -0.252 OA
BRANCH  43  45
ATOM     45  O   UNL     1      10.656  75.023  -3.203  1.00  0.00    -0.462 OA
BRANCH  45  46
ATOM     46  C   UNL     1      10.341  73.985  -2.278  1.00  0.00     0.180 C 
ATOM     47  C   UNL     1      11.161  72.723  -2.582  1.00  0.00     0.053 C 
BRANCH  46  48
ATOM     48  C   UNL     1       8.795  73.780  -2.237  1.00  0.00     0.068 C 
ATOM     49  C   UNL     1       8.229  73.691  -3.667  1.00  0.00     0.015 C 
BRANCH  48  50
ATOM     50  C   UNL     1       7.974  74.806  -1.395  1.00  0.00     0.193 C 
BRANCH  50  51
ATOM     51  C   UNL     1       8.119  76.291  -1.853  1.00  0.00     0.097 C 
ATOM     52  C   UNL     1       7.079  76.581  -2.953  1.00  0.00     0.020 C 
BRANCH  51  53
ATOM     53  C   UNL     1       7.930  77.290  -0.711  1.00  0.00     0.173 CG0
ATOM     54  O   UNL     1       7.669  76.865   0.404  1.00  0.00    -0.296 OA
ATOM     55  G   UNL     1       7.893  78.801  -0.927  1.00  0.00     0.000 G0
ENDBRANCH  51  53
ENDBRANCH  50  51
BRANCH  50  56
ATOM     56  O   UNL     1       6.590  74.437  -1.386  1.00  0.00    -0.461 OA
BRANCH  56  57
ATOM     57  C   UNL     1       5.740  74.578  -0.282  1.00  0.00     0.302 C 
ATOM     58  C   UNL     1       4.537  75.453  -0.405  1.00  0.00     0.139 C 
ATOM     59  O   UNL     1       6.007  74.029   0.823  1.00  0.00    -0.253 OA
ENDBRANCH  56  57
ENDBRANCH  50  56
ENDBRANCH  48  50
ENDBRANCH  46  48
ENDBRANCH  45  46
ENDBRANCH  43  45
ENDBRANCH   1  43
TORSDOF 12
ENDMDL
MODEL 3
REMARK VINA RESULT:    -2.575      2.393      4.780
REMARK INTER + INTRA:          -5.697
REMARK INTER:                  -7.042
REMARK INTRA:                   1.345
REMARK UNBOUND:                 0.641
REMARK SMILES CO[C@H]1C[C@H](O[C@H]2[C@H](C)[C@@H](O[C@@H]3O[C@H](C)C[C@H](N(C)C)[C@H]3OC(C)=O)[C@@H](C)C[C@@]3(CO3)C(=O)[C@H](C)[C@@H](OC(C)=O)[C@@H](C)[C@@H](C)OC(=O)[C@@H]2C)O[C@@H](C)[C@@H]1OC(C)=O
REMARK SMILES IDX 48 1 49 2 7 3 6 4 5 5 3 6 4 7 53 8 51 9 50 10 52 11 2 12
REMARK SMILES IDX 1 13 54 14 55 15 56 16 57 17 8 18 9 19 10 20 11 21 12 22
REMARK SMILES IDX 13 23 21 24 14 25 17 26 15 27 16 28 22 29 23 30 24 31 25 32
REMARK SMILES IDX 18 33 19 34 20 35 26 36 27 37 28 38 29 39 30 40 31 41 46 43
REMARK SMILES IDX 47 44 45 45 43 46 44 47 41 48 42 49 36 50 34 51 35 52 32 53
REMARK SMILES IDX 33 54 37 56 38 57 39 58 40 59
REMARK H PARENT
REMARK Flexibility Score: 70.00
ROOT
ATOM      1  C   UNL     1      11.696  80.228  -1.111  1.00  0.00     0.125 C 
ATOM      2  C   UNL     1      12.480  81.547  -1.010  1.00  0.00     0.023 C 
ENDROOT
BRANCH   1   3
ATOM      3  C   UNL     1      12.536  79.103  -1.829  1.00  0.00     0.140 C 
BRANCH   3   4
ATOM      4  O   UNL     1      13.395  79.753  -2.760  1.00  0.00    -0.348 OA
BRANCH   4   5
ATOM      5  C   UNL     1      12.870  79.871  -4.079  1.00  0.00     0.253 C 
ATOM      6  C   UNL     1      14.989  80.890  -4.989  1.00  0.00     0.166 C 
ATOM      7  C   UNL     1      13.475  81.069  -4.821  1.00  0.00     0.098 C 
ATOM      8  C   UNL     1      15.265  79.525  -5.653  1.00  0.00     0.234 C 
ATOM      9  C   UNL     1      14.518  78.403  -4.891  1.00  0.00     0.162 C 
ATOM     10  O   UNL     1      13.125  78.679  -4.805  1.00  0.00    -0.346 OA
ATOM     11  C   UNL     1      14.696  77.057  -5.599  1.00  0.00     0.043 C 
BRANCH   6  12
ATOM     12  O   UNL     1      15.499  81.924  -5.816  1.00  0.00    -0.377 OA
ATOM     13  C   UNL     1      14.620  83.027  -5.832  1.00  0.00     0.195 C 
ENDBRANCH   6  12
BRANCH   8  14
ATOM     14  O   UNL     1      16.671  79.255  -5.629  1.00  0.00    -0.457 OA
BRANCH  14  15
ATOM     15  C   UNL     1      17.470  79.197  -6.775  1.00  0.00     0.303 C 
ATOM     16  C   UNL     1      18.351  80.351  -7.109  1.00  0.00     0.139 C 
ATOM     17  O   UNL     1      17.497  78.162  -7.496  1.00  0.00    -0.253 OA
ENDBRANCH  14  15
ENDBRANCH   8  14
ENDBRANCH   4   5
ENDBRANCH   3   4
BRANCH   3  18
ATOM     18  C   UNL     1      13.407  78.200  -0.877  1.00  0.00     0.045 C 
ATOM     19  C   UNL     1      14.889  78.211  -1.305  1.00  0.00     0.013 C 
BRANCH  18  20
ATOM     20  C   UNL     1      12.841  76.748  -0.770  1.00  0.00     0.130 C 
BRANCH  20  21
ATOM     21  O   UNL     1      12.683  76.401   0.602  1.00  0.00    -0.345 OA
BRANCH  21  22
ATOM     22  C   UNL     1      13.895  76.049   1.246  1.00  0.00     0.293 C 
ATOM     23  O   UNL     1      14.359  74.825   0.701  1.00  0.00    -0.346 OA
ATOM     24  C   UNL     1      13.587  75.887   2.745  1.00  0.00     0.249 C 
ATOM     25  C   UNL     1      15.604  74.460   1.270  1.00  0.00     0.120 C 
ATOM     26  C   UNL     1      14.847  75.386   3.487  1.00  0.00     0.105 C 
ATOM     27  C   UNL     1      16.132  73.230   0.532  1.00  0.00     0.039 C 
ATOM     28  C   UNL     1      15.427  74.147   2.768  1.00  0.00     0.055 C 
BRANCH  24  29
ATOM     29  O   UNL     1      13.191  77.160   3.258  1.00  0.00    -0.455 OA
BRANCH  29  30
ATOM     30  C   UNL     1      13.479  78.382   2.639  1.00  0.00     0.303 C 
ATOM     31  C   UNL     1      12.440  79.452   2.614  1.00  0.00     0.139 C 
ATOM     32  O   UNL     1      14.621  78.612   2.156  1.00  0.00    -0.253 OA
ENDBRANCH  29  30
ENDBRANCH  24  29
BRANCH  26  33
ATOM     33  N   UNL     1      14.570  75.180   4.935  1.00  0.00    -0.303 NA
ATOM     34  C   UNL     1      15.373  74.080   5.493  1.00  0.00     0.105 C 
ATOM     35  C   UNL     1      13.146  74.993   5.274  1.00  0.00     0.105 C 
ENDBRANCH  26  33
ENDBRANCH  21  22
ENDBRANCH  20  21
BRANCH  20  36
ATOM     36  C   UNL     1      11.476  76.628  -1.544  1.00  0.00     0.019 C 
ATOM     37  C   UNL     1      11.665  76.980  -3.029  1.00  0.00     0.010 C 
BRANCH  36  38
ATOM     38  C   UNL     1      10.786  75.242  -1.419  1.00  0.00     0.052 C 
BRANCH  38  39
ATOM     39  C   UNL     1       9.650  75.200  -0.370  1.00  0.00     0.150 CG0
ATOM     40  C   UNL     1       9.983  75.439   1.066  1.00  0.00     0.205 C 
ATOM     41  O   UNL     1       9.894  74.142   0.532  1.00  0.00    -0.361 OA
ATOM     42  G   UNL     1       8.205  75.120  -0.854  1.00  0.00     0.000 G0
ENDBRANCH  38  39
ENDBRANCH  36  38
ENDBRANCH  20  36
ENDBRANCH  18  20
ENDBRANCH   3  18
ENDBRANCH   1   3
BRANCH   1  43
ATOM     43  C   UNL     1      10.330  80.509  -1.689  1.00  0.00     0.311 C 
ATOM     44  O   UNL     1      10.206  81.304  -2.659  1.00  0.00    -0.252 OA
BRANCH  43  45
ATOM     45  O   UNL     1       9.198  79.888  -1.152  1.00  0.00    -0.462 OA
BRANCH  45  46
ATOM     46  C   UNL     1       8.181  79.324  -1.977  1.00  0.00     0.180 C 
ATOM     47  C   UNL     1       6.876  80.124  -1.847  1.00  0.00     0.053 C 
BRANCH  46  48
ATOM     48  C   UNL     1       8.059  77.798  -1.677  1.00  0.00     0.068 C 
ATOM     49  C   UNL     1       7.854  77.011  -2.984  1.00  0.00     0.015 C 
BRANCH  48  50
ATOM     50  C   UNL     1       6.993  77.375  -0.618  1.00  0.00     0.193 C 
BRANCH  50  51
ATOM     51  C   UNL     1       7.049  75.873  -0.200  1.00  0.00     0.097 C 
ATOM     52  C   UNL     1       5.716  75.196  -0.572  1.00  0.00     0.020 C 
BRANCH  51  53
ATOM     53  C   UNL     1       8.197  75.111  -0.863  1.00  0.00     0.173 CG0
ATOM     54  O   UNL     1       7.935  74.286  -1.724  1.00  0.00    -0.296 OA
ATOM     55  G   UNL     1       9.645  75.215  -0.390  1.00  0.00     0.000 G0
ENDBRANCH  51  53
ENDBRANCH  50  51
BRANCH  50  56
ATOM     56  O   UNL     1       7.102  78.204   0.544  1.00  0.00    -0.461 OA
BRANCH  56  57
ATOM     57  C   UNL     1       6.028  78.543   1.378  1.00  0.00     0.302 C 
ATOM     58  C   UNL     1       4.938  79.405   0.835  1.00  0.00     0.139 C 
ATOM     59  O   UNL     1       6.002  78.185   2.588  1.00  0.00    -0.253 OA
ENDBRANCH  56  57
ENDBRANCH  50  56
ENDBRANCH  48  50
ENDBRANCH  46  48
ENDBRANCH  45  46
ENDBRANCH  43  45
ENDBRANCH   1  43
TORSDOF 12
ENDMDL
MODEL 4
REMARK VINA RESULT:    -2.084      1.311      2.146
REMARK INTER + INTRA:          -4.490
REMARK INTER:                  -5.593
REMARK INTRA:                   1.103
REMARK UNBOUND:                 0.641
REMARK SMILES CO[C@H]1C[C@H](O[C@H]2[C@H](C)[C@@H](O[C@@H]3O[C@H](C)C[C@H](N(C)C)[C@H]3OC(C)=O)[C@@H](C)C[C@@]3(CO3)C(=O)[C@H](C)[C@@H](OC(C)=O)[C@@H](C)[C@@H](C)OC(=O)[C@@H]2C)O[C@@H](C)[C@@H]1OC(C)=O
REMARK SMILES IDX 48 1 49 2 7 3 6 4 5 5 3 6 4 7 53 8 51 9 50 10 52 11 2 12
REMARK SMILES IDX 1 13 54 14 55 15 56 16 57 17 8 18 9 19 10 20 11 21 12 22
REMARK SMILES IDX 13 23 21 24 14 25 17 26 15 27 16 28 22 29 23 30 24 31 25 32
REMARK SMILES IDX 18 33 19 34 20 35 26 36 27 37 28 38 29 39 30 40 31 41 46 43
REMARK SMILES IDX 47 44 45 45 43 46 44 47 41 48 42 49 36 50 34 51 35 52 32 53
REMARK SMILES IDX 33 54 37 56 38 57 39 58 40 59
REMARK H PARENT
REMARK Flexibility Score: 70.00
ROOT
ATOM      1  C   UNL     1      12.943  76.952  -4.468  1.00  0.00     0.125 C 
ATOM      2  C   UNL     1      14.218  76.215  -4.909  1.00  0.00     0.023 C 
ENDROOT
BRANCH   1   3
ATOM      3  C   UNL     1      13.276  78.229  -3.603  1.00  0.00     0.140 C 
BRANCH   3   4
ATOM      4  O   UNL     1      14.309  78.935  -4.282  1.00  0.00    -0.348 OA
BRANCH   4   5
ATOM      5  C   UNL     1      14.002  79.300  -5.624  1.00  0.00     0.253 C 
ATOM      6  C   UNL     1      15.491  81.334  -5.566  1.00  0.00     0.166 C 
ATOM      7  C   UNL     1      14.069  80.819  -5.824  1.00  0.00     0.098 C 
ATOM      8  C   UNL     1      16.483  80.534  -6.435  1.00  0.00     0.234 C 
ATOM      9  C   UNL     1      16.254  79.015  -6.241  1.00  0.00     0.162 C 
ATOM     10  O   UNL     1      14.903  78.660  -6.514  1.00  0.00    -0.346 OA
ATOM     11  C   UNL     1      17.158  78.207  -7.175  1.00  0.00     0.043 C 
BRANCH   6  12
ATOM     12  O   UNL     1      15.567  82.708  -5.913  1.00  0.00    -0.377 OA
ATOM     13  C   UNL     1      14.277  83.275  -5.984  1.00  0.00     0.195 C 
ENDBRANCH   6  12
BRANCH   8  14
ATOM     14  O   UNL     1      17.825  80.860  -6.056  1.00  0.00    -0.457 OA
BRANCH  14  15
ATOM     15  C   UNL     1      18.696  81.611  -6.851  1.00  0.00     0.303 C 
ATOM     16  C   UNL     1      18.259  82.038  -8.209  1.00  0.00     0.139 C 
ATOM     17  O   UNL     1      19.821  81.976  -6.414  1.00  0.00    -0.253 OA
ENDBRANCH  14  15
ENDBRANCH   8  14
ENDBRANCH   4   5
ENDBRANCH   3   4
BRANCH   3  18
ATOM     18  C   UNL     1      12.068  79.208  -3.354  1.00  0.00     0.045 C 
ATOM     19  C   UNL     1      12.435  80.653  -3.748  1.00  0.00     0.013 C 
BRANCH  18  20
ATOM     20  C   UNL     1      11.537  79.120  -1.888  1.00  0.00     0.130 C 
BRANCH  20  21
ATOM     21  O   UNL     1      12.063  80.203  -1.127  1.00  0.00    -0.345 OA
BRANCH  21  22
ATOM     22  C   UNL     1      13.147  79.840  -0.289  1.00  0.00     0.293 C 
ATOM     23  O   UNL     1      14.248  79.479  -1.104  1.00  0.00    -0.346 OA
ATOM     24  C   UNL     1      12.689  78.639   0.558  1.00  0.00     0.249 C 
ATOM     25  C   UNL     1      15.380  79.166  -0.312  1.00  0.00     0.120 C 
ATOM     26  C   UNL     1      13.868  78.120   1.410  1.00  0.00     0.105 C 
ATOM     27  C   UNL     1      16.575  78.946  -1.240  1.00  0.00     0.039 C 
ATOM     28  C   UNL     1      15.109  77.895   0.515  1.00  0.00     0.055 C 
BRANCH  24  29
ATOM     29  O   UNL     1      11.625  79.073   1.408  1.00  0.00    -0.455 OA
BRANCH  29  30
ATOM     30  C   UNL     1      11.458  80.392   1.848  1.00  0.00     0.303 C 
ATOM     31  C   UNL     1      10.506  81.287   1.129  1.00  0.00     0.139 C 
ATOM     32  O   UNL     1      12.055  80.814   2.876  1.00  0.00    -0.253 OA
ENDBRANCH  29  30
ENDBRANCH  24  29
BRANCH  26  33
ATOM     33  N   UNL     1      13.468  76.931   2.211  1.00  0.00    -0.303 NA
ATOM     34  C   UNL     1      13.506  77.209   3.656  1.00  0.00     0.105 C 
ATOM     35  C   UNL     1      14.219  75.697   1.911  1.00  0.00     0.105 C 
ENDBRANCH  26  33
ENDBRANCH  21  22
ENDBRANCH  20  21
BRANCH  20  36
ATOM     36  C   UNL     1       9.964  79.128  -1.867  1.00  0.00     0.019 C 
ATOM     37  C   UNL     1       9.421  80.352  -2.623  1.00  0.00     0.010 C 
BRANCH  36  38
ATOM     38  C   UNL     1       9.307  77.835  -2.427  1.00  0.00     0.052 C 
BRANCH  38  39
ATOM     39  C   UNL     1       8.555  77.003  -1.362  1.00  0.00     0.150 CG0
ATOM     40  C   UNL     1       7.353  77.593  -0.701  1.00  0.00     0.205 C 
ATOM     41  O   UNL     1       8.630  77.668  -0.120  1.00  0.00    -0.361 OA
ATOM     42  G   UNL     1       8.938  75.538  -1.168  1.00  0.00     0.000 G0
ENDBRANCH  38  39
ENDBRANCH  36  38
ENDBRANCH  20  36
ENDBRANCH  18  20
ENDBRANCH   3  18
ENDBRANCH   1   3
BRANCH   1  43
ATOM     43  C   UNL     1      11.989  75.959  -3.847  1.00  0.00     0.311 C 
ATOM     44  O   UNL     1      11.718  76.027  -2.619  1.00  0.00    -0.252 OA
BRANCH  43  45
ATOM     45  O   UNL     1      11.404  74.962  -4.634  1.00  0.00    -0.462 OA
BRANCH  45  46
ATOM     46  C   UNL     1      11.569  73.575  -4.344  1.00  0.00     0.180 C 
ATOM     47  C   UNL     1      12.154  72.837  -5.557  1.00  0.00     0.053 C 
BRANCH  46  48
ATOM     48  C   UNL     1      10.228  72.997  -3.796  1.00  0.00     0.068 C 
ATOM     49  C   UNL     1       9.072  73.321  -4.761  1.00  0.00     0.015 C 
BRANCH  48  50
ATOM     50  C   UNL     1       9.839  73.391  -2.337  1.00  0.00     0.193 C 
BRANCH  50  51
ATOM     51  C   UNL     1       8.676  74.426  -2.228  1.00  0.00     0.097 C 
ATOM     52  C   UNL     1       7.372  73.682  -1.880  1.00  0.00     0.020 C 
BRANCH  51  53
ATOM     53  C   UNL     1       8.933  75.504  -1.175  1.00  0.00     0.173 CG0
ATOM     54  O   UNL     1       9.325  75.165  -0.070  1.00  0.00    -0.296 OA
ATOM     55  G   UNL     1       8.570  76.972  -1.384  1.00  0.00     0.000 G0
ENDBRANCH  51  53
ENDBRANCH  50  51
BRANCH  50  56
ATOM     56  O   UNL     1       9.513  72.218  -1.584  1.00  0.00    -0.461 OA
BRANCH  56  57
ATOM     57  C   UNL     1      10.261  71.033  -1.599  1.00  0.00     0.302 C 
ATOM     58  C   UNL     1      11.722  71.100  -1.303  1.00  0.00     0.139 C 
ATOM     59  O   UNL     1       9.734  69.931  -1.915  1.00  0.00    -0.253 OA
ENDBRANCH  56  57
ENDBRANCH  50  56
ENDBRANCH  48  50
ENDBRANCH  46  48
ENDBRANCH  45  46
ENDBRANCH  43  45
ENDBRANCH   1  43
TORSDOF 12
ENDMDL
MODEL 5
REMARK VINA RESULT:    -1.632      2.396      7.694
REMARK INTER + INTRA:          -3.377
REMARK INTER:                  -4.648
REMARK INTRA:                   1.271
REMARK UNBOUND:                 0.641
REMARK SMILES CO[C@H]1C[C@H](O[C@H]2[C@H](C)[C@@H](O[C@@H]3O[C@H](C)C[C@H](N(C)C)[C@H]3OC(C)=O)[C@@H](C)C[C@@]3(CO3)C(=O)[C@H](C)[C@@H](OC(C)=O)[C@@H](C)[C@@H](C)OC(=O)[C@@H]2C)O[C@@H](C)[C@@H]1OC(C)=O
REMARK SMILES IDX 48 1 49 2 7 3 6 4 5 5 3 6 4 7 53 8 51 9 50 10 52 11 2 12
REMARK SMILES IDX 1 13 54 14 55 15 56 16 57 17 8 18 9 19 10 20 11 21 12 22
REMARK SMILES IDX 13 23 21 24 14 25 17 26 15 27 16 28 22 29 23 30 24 31 25 32
REMARK SMILES IDX 18 33 19 34 20 35 26 36 27 37 28 38 29 39 30 40 31 41 46 43
REMARK SMILES IDX 47 44 45 45 43 46 44 47 41 48 42 49 36 50 34 51 35 52 32 53
REMARK SMILES IDX 33 54 37 56 38 57 39 58 40 59
REMARK H PARENT
REMARK Flexibility Score: 70.00
ROOT
ATOM      1  C   UNL     1      10.585  74.938  -0.064  1.00  0.00     0.125 C 
ATOM      2  C   UNL     1      11.381  75.566   1.091  1.00  0.00     0.023 C 
ENDROOT
BRANCH   1   3
ATOM      3  C   UNL     1      11.276  75.196  -1.458  1.00  0.00     0.140 C 
BRANCH   3   4
ATOM      4  O   UNL     1      10.850  74.157  -2.333  1.00  0.00    -0.348 OA
BRANCH   4   5
ATOM      5  C   UNL     1      11.727  73.037  -2.405  1.00  0.00     0.253 C 
ATOM      6  C   UNL     1       9.930  71.500  -3.279  1.00  0.00     0.166 C 
ATOM      7  C   UNL     1      10.976  71.719  -2.179  1.00  0.00     0.098 C 
ATOM      8  C   UNL     1      10.615  71.614  -4.657  1.00  0.00     0.234 C 
ATOM      9  C   UNL     1      11.434  72.925  -4.735  1.00  0.00     0.162 C 
ATOM     10  O   UNL     1      12.372  73.011  -3.668  1.00  0.00    -0.346 OA
ATOM     11  C   UNL     1      12.205  73.004  -6.056  1.00  0.00     0.043 C 
BRANCH   6  12
ATOM     12  O   UNL     1       9.364  70.206  -3.143  1.00  0.00    -0.377 OA
ATOM     13  C   UNL     1       9.736  69.627  -1.912  1.00  0.00     0.195 C 
ENDBRANCH   6  12
BRANCH   8  14
ATOM     14  O   UNL     1       9.621  71.617  -5.688  1.00  0.00    -0.457 OA
BRANCH  14  15
ATOM     15  C   UNL     1       8.597  72.565  -5.776  1.00  0.00     0.303 C 
ATOM     16  C   UNL     1       8.422  73.554  -4.676  1.00  0.00     0.139 C 
ATOM     17  O   UNL     1       7.856  72.628  -6.795  1.00  0.00    -0.253 OA
ENDBRANCH  14  15
ENDBRANCH   8  14
ENDBRANCH   4   5
ENDBRANCH   3   4
BRANCH   3  18
ATOM     18  C   UNL     1      10.953  76.586  -2.123  1.00  0.00     0.045 C 
ATOM     19  C   UNL     1      10.388  76.403  -3.547  1.00  0.00     0.013 C 
BRANCH  18  20
ATOM     20  C   UNL     1      12.187  77.544  -2.104  1.00  0.00     0.130 C 
BRANCH  20  21
ATOM     21  O   UNL     1      12.774  77.588  -3.401  1.00  0.00    -0.345 OA
BRANCH  21  22
ATOM     22  C   UNL     1      13.995  78.305  -3.451  1.00  0.00     0.293 C 
ATOM     23  O   UNL     1      14.115  79.081  -2.271  1.00  0.00    -0.346 OA
ATOM     24  C   UNL     1      13.940  79.218  -4.690  1.00  0.00     0.249 C 
ATOM     25  C   UNL     1      15.351  79.771  -2.244  1.00  0.00     0.120 C 
ATOM     26  C   UNL     1      15.197  80.115  -4.735  1.00  0.00     0.105 C 
ATOM     27  C   UNL     1      15.495  80.454  -0.884  1.00  0.00     0.039 C 
ATOM     28  C   UNL     1      15.394  80.819  -3.372  1.00  0.00     0.055 C 
BRANCH  24  29
ATOM     29  O   UNL     1      13.890  78.388  -5.852  1.00  0.00    -0.455 OA
BRANCH  29  30
ATOM     30  C   UNL     1      14.763  77.321  -6.095  1.00  0.00     0.303 C 
ATOM     31  C   UNL     1      14.401  75.956  -5.615  1.00  0.00     0.139 C 
ATOM     32  O   UNL     1      15.820  77.486  -6.764  1.00  0.00    -0.253 OA
ENDBRANCH  29  30
ENDBRANCH  24  29
BRANCH  26  33
ATOM     33  N   UNL     1      15.155  81.039  -5.901  1.00  0.00    -0.303 NA
ATOM     34  C   UNL     1      16.465  81.141  -6.564  1.00  0.00     0.105 C 
ATOM     35  C   UNL     1      14.627  82.385  -5.607  1.00  0.00     0.105 C 
ENDBRANCH  26  33
ENDBRANCH  21  22
ENDBRANCH  20  21
BRANCH  20  36
ATOM     36  C   UNL     1      11.764  78.982  -1.626  1.00  0.00     0.019 C 
ATOM     37  C   UNL     1      10.875  79.661  -2.682  1.00  0.00     0.010 C 
BRANCH  36  38
ATOM     38  C   UNL     1      11.055  79.018  -0.245  1.00  0.00     0.052 C 
BRANCH  38  39
ATOM     39  C   UNL     1      10.281  80.330   0.028  1.00  0.00     0.150 CG0
ATOM     40  C   UNL     1      11.050  81.569   0.348  1.00  0.00     0.205 C 
ATOM     41  O   UNL     1      10.525  80.742   1.355  1.00  0.00    -0.361 OA
ATOM     42  G   UNL     1       8.778  80.366  -0.237  1.00  0.00     0.000 G0
ENDBRANCH  38  39
ENDBRANCH  36  38
ENDBRANCH  20  36
ENDBRANCH  18  20
ENDBRANCH   3  18
ENDBRANCH   1   3
BRANCH   1  43
ATOM     43  C   UNL     1       9.139  75.357   0.049  1.00  0.00     0.311 C 
ATOM     44  O   UNL     1       8.735  75.961   1.078  1.00  0.00    -0.252 OA
BRANCH  43  45
ATOM     45  O   UNL     1       8.243  75.078  -0.988  1.00  0.00    -0.462 OA
BRANCH  45  46
ATOM     46  C   UNL     1       6.943  75.659  -1.042  1.00  0.00     0.180 C 
ATOM     47  C   UNL     1       5.948  74.697  -1.708  1.00  0.00     0.053 C 
BRANCH  46  48
ATOM     48  C   UNL     1       7.036  77.075  -1.692  1.00  0.00     0.068 C 
ATOM     49  C   UNL     1       8.089  77.080  -2.815  1.00  0.00     0.015 C 
BRANCH  48  50
ATOM     50  C   UNL     1       7.272  78.276  -0.724  1.00  0.00     0.193 C 
BRANCH  50  51
ATOM     51  C   UNL     1       8.131  79.435  -1.319  1.00  0.00     0.097 C 
ATOM     52  C   UNL     1       7.240  80.307  -2.224  1.00  0.00     0.020 C 
BRANCH  51  53
ATOM     53  C   UNL     1       8.769  80.317  -0.246  1.00  0.00     0.173 CG0
ATOM     54  O   UNL     1       8.071  81.132   0.336  1.00  0.00    -0.296 OA
ATOM     55  G   UNL     1      10.272  80.342   0.023  1.00  0.00     0.000 G0
ENDBRANCH  51  53
ENDBRANCH  50  51
BRANCH  50  56
ATOM     56  O   UNL     1       6.016  78.792  -0.269  1.00  0.00    -0.461 OA
BRANCH  56  57
ATOM     57  C   UNL     1       5.614  78.829   1.073  1.00  0.00     0.302 C 
ATOM     58  C   UNL     1       5.903  77.653   1.945  1.00  0.00     0.139 C 
ATOM     59  O   UNL     1       4.965  79.809   1.534  1.00  0.00    -0.253 OA
ENDBRANCH  56  57
ENDBRANCH  50  56
ENDBRANCH  48  50
ENDBRANCH  46  48
ENDBRANCH  45  46
ENDBRANCH  43  45
ENDBRANCH   1  43
TORSDOF 12
ENDMDL
MODEL 6
REMARK VINA RESULT:    -1.534      1.670      3.179
REMARK INTER + INTRA:          -3.135
REMARK INTER:                  -8.055
REMARK INTRA:                   4.920
REMARK UNBOUND:                 0.641
REMARK SMILES CO[C@H]1C[C@H](O[C@H]2[C@H](C)[C@@H](O[C@@H]3O[C@H](C)C[C@H](N(C)C)[C@H]3OC(C)=O)[C@@H](C)C[C@@]3(CO3)C(=O)[C@H](C)[C@@H](OC(C)=O)[C@@H](C)[C@@H](C)OC(=O)[C@@H]2C)O[C@@H](C)[C@@H]1OC(C)=O
REMARK SMILES IDX 48 1 49 2 7 3 6 4 5 5 3 6 4 7 53 8 51 9 50 10 52 11 2 12
REMARK SMILES IDX 1 13 54 14 55 15 56 16 57 17 8 18 9 19 10 20 11 21 12 22
REMARK SMILES IDX 13 23 21 24 14 25 17 26 15 27 16 28 22 29 23 30 24 31 25 32
REMARK SMILES IDX 18 33 19 34 20 35 26 36 27 37 28 38 29 39 30 40 31 41 46 43
REMARK SMILES IDX 47 44 45 45 43 46 44 47 41 48 42 49 36 50 34 51 35 52 32 53
REMARK SMILES IDX 33 54 37 56 38 57 39 58 40 59
REMARK H PARENT
REMARK Flexibility Score: 70.00
ROOT
ATOM      1  C   UNL     1      13.516  77.005  -5.457  1.00  0.00     0.125 C 
ATOM      2  C   UNL     1      14.534  77.446  -6.521  1.00  0.00     0.023 C 
ENDROOT
BRANCH   1   3
ATOM      3  C   UNL     1      13.450  78.023  -4.254  1.00  0.00     0.140 C 
BRANCH   3   4
ATOM      4  O   UNL     1      13.865  79.289  -4.755  1.00  0.00    -0.348 OA
BRANCH   4   5
ATOM      5  C   UNL     1      14.953  79.883  -4.055  1.00  0.00     0.253 C 
ATOM      6  C   UNL     1      16.460  79.859  -6.077  1.00  0.00     0.166 C 
ATOM      7  C   UNL     1      16.304  79.420  -4.615  1.00  0.00     0.098 C 
ATOM      8  C   UNL     1      16.217  81.380  -6.176  1.00  0.00     0.234 C 
ATOM      9  C   UNL     1      14.884  81.751  -5.482  1.00  0.00     0.162 C 
ATOM     10  O   UNL     1      14.861  81.297  -4.133  1.00  0.00    -0.346 OA
ATOM     11  C   UNL     1      14.680  83.268  -5.479  1.00  0.00     0.043 C 
BRANCH   6  12
ATOM     12  O   UNL     1      17.774  79.565  -6.521  1.00  0.00    -0.377 OA
ATOM     13  C   UNL     1      17.773  78.435  -7.366  1.00  0.00     0.195 C 
ENDBRANCH   6  12
BRANCH   8  14
ATOM     14  O   UNL     1      16.156  81.767  -7.553  1.00  0.00    -0.457 OA
BRANCH  14  15
ATOM     15  C   UNL     1      17.271  81.822  -8.394  1.00  0.00     0.303 C 
ATOM     16  C   UNL     1      18.527  82.451  -7.900  1.00  0.00     0.139 C 
ATOM     17  O   UNL     1      17.244  81.300  -9.542  1.00  0.00    -0.253 OA
ENDBRANCH  14  15
ENDBRANCH   8  14
ENDBRANCH   4   5
ENDBRANCH   3   4
BRANCH   3  18
ATOM     18  C   UNL     1      12.036  78.180  -3.581  1.00  0.00     0.045 C 
ATOM     19  C   UNL     1      11.794  79.636  -3.131  1.00  0.00     0.013 C 
BRANCH  18  20
ATOM     20  C   UNL     1      11.829  77.166  -2.411  1.00  0.00     0.130 C 
BRANCH  20  21
ATOM     21  O   UNL     1      12.231  77.768  -1.184  1.00  0.00    -0.345 OA
BRANCH  21  22
ATOM     22  C   UNL     1      11.180  78.431  -0.502  1.00  0.00     0.293 C 
ATOM     23  O   UNL     1      10.122  78.664  -1.416  1.00  0.00    -0.346 OA
ATOM     24  C   UNL     1      11.743  79.765   0.020  1.00  0.00     0.249 C 
ATOM     25  C   UNL     1       9.020  79.272  -0.766  1.00  0.00     0.120 C 
ATOM     26  C   UNL     1      10.612  80.591   0.673  1.00  0.00     0.105 C 
ATOM     27  C   UNL     1       7.857  79.348  -1.756  1.00  0.00     0.039 C 
ATOM     28  C   UNL     1       9.404  80.684  -0.288  1.00  0.00     0.055 C 
BRANCH  24  29
ATOM     29  O   UNL     1      12.755  79.474   0.985  1.00  0.00    -0.455 OA
BRANCH  29  30
ATOM     30  C   UNL     1      14.095  79.220   0.668  1.00  0.00     0.303 C 
ATOM     31  C   UNL     1      14.817  80.144  -0.254  1.00  0.00     0.139 C 
ATOM     32  O   UNL     1      14.716  78.256   1.195  1.00  0.00    -0.253 OA
ENDBRANCH  29  30
ENDBRANCH  24  29
BRANCH  26  33
ATOM     33  N   UNL     1      11.116  81.906   1.152  1.00  0.00    -0.303 NA
ATOM     34  C   UNL     1      11.631  82.729   0.045  1.00  0.00     0.105 C 
ATOM     35  C   UNL     1      12.113  81.832   2.237  1.00  0.00     0.105 C 
ENDBRANCH  26  33
ENDBRANCH  21  22
ENDBRANCH  20  21
BRANCH  20  36
ATOM     36  C   UNL     1      10.328  76.698  -2.343  1.00  0.00     0.019 C 
ATOM     37  C   UNL     1       9.901  76.064  -3.678  1.00  0.00     0.010 C 
BRANCH  36  38
ATOM     38  C   UNL     1      10.011  75.722  -1.177  1.00  0.00     0.052 C 
BRANCH  38  39
ATOM     39  C   UNL     1       9.160  74.500  -1.596  1.00  0.00     0.150 CG0
ATOM     40  C   UNL     1       7.789  74.728  -2.143  1.00  0.00     0.205 C 
ATOM     41  O   UNL     1       8.007  74.440  -0.785  1.00  0.00    -0.361 OA
ATOM     42  G   UNL     1       9.818  73.123  -1.631  1.00  0.00     0.000 G0
ENDBRANCH  38  39
ENDBRANCH  36  38
ENDBRANCH  20  36
ENDBRANCH  18  20
ENDBRANCH   3  18
ENDBRANCH   1   3
BRANCH   1  43
ATOM     43  C   UNL     1      13.775  75.562  -5.094  1.00  0.00     0.311 C 
ATOM     44  O   UNL     1      14.938  75.088  -5.183  1.00  0.00    -0.252 OA
BRANCH  43  45
ATOM     45  O   UNL     1      12.724  74.748  -4.657  1.00  0.00    -0.462 OA
BRANCH  45  46
ATOM     46  C   UNL     1      12.785  73.326  -4.739  1.00  0.00     0.180 C 
ATOM     47  C   UNL     1      12.377  72.848  -6.141  1.00  0.00     0.053 C 
BRANCH  46  48
ATOM     48  C   UNL     1      11.973  72.705  -3.561  1.00  0.00     0.068 C 
ATOM     49  C   UNL     1      12.805  71.623  -2.849  1.00  0.00     0.015 C 
BRANCH  48  50
ATOM     50  C   UNL     1      10.552  72.156  -3.903  1.00  0.00     0.193 C 
BRANCH  50  51
ATOM     51  C   UNL     1       9.589  72.034  -2.681  1.00  0.00     0.097 C 
ATOM     52  C   UNL     1       9.757  70.641  -2.045  1.00  0.00     0.020 C 
BRANCH  51  53
ATOM     53  C   UNL     1       9.837  73.102  -1.615  1.00  0.00     0.173 CG0
ATOM     54  O   UNL     1      10.507  72.811  -0.637  1.00  0.00    -0.296 OA
ATOM     55  G   UNL     1       9.157  74.469  -1.636  1.00  0.00     0.000 G0
ENDBRANCH  51  53
ENDBRANCH  50  51
BRANCH  50  56
ATOM     56  O   UNL     1       9.945  72.966  -4.916  1.00  0.00    -0.461 OA
BRANCH  56  57
ATOM     57  C   UNL     1       9.001  72.502  -5.841  1.00  0.00     0.302 C 
ATOM     58  C   UNL     1       9.044  71.070  -6.258  1.00  0.00     0.139 C 
ATOM     59  O   UNL     1       8.162  73.284  -6.367  1.00  0.00    -0.253 OA
ENDBRANCH  56  57
ENDBRANCH  50  56
ENDBRANCH  48  50
ENDBRANCH  46  48
ENDBRANCH  45  46
ENDBRANCH  43  45
ENDBRANCH   1  43
TORSDOF 12
ENDMDL
MODEL 7
REMARK VINA RESULT:    -1.473      2.177      6.671
REMARK INTER + INTRA:          -2.985
REMARK INTER:                  -7.869
REMARK INTRA:                   4.884
REMARK UNBOUND:                 0.641
REMARK SMILES CO[C@H]1C[C@H](O[C@H]2[C@H](C)[C@@H](O[C@@H]3O[C@H](C)C[C@H](N(C)C)[C@H]3OC(C)=O)[C@@H](C)C[C@@]3(CO3)C(=O)[C@H](C)[C@@H](OC(C)=O)[C@@H](C)[C@@H](C)OC(=O)[C@@H]2C)O[C@@H](C)[C@@H]1OC(C)=O
REMARK SMILES IDX 48 1 49 2 7 3 6 4 5 5 3 6 4 7 53 8 51 9 50 10 52 11 2 12
REMARK SMILES IDX 1 13 54 14 55 15 56 16 57 17 8 18 9 19 10 20 11 21 12 22
REMARK SMILES IDX 13 23 21 24 14 25 17 26 15 27 16 28 22 29 23 30 24 31 25 32
REMARK SMILES IDX 18 33 19 34 20 35 26 36 27 37 28 38 29 39 30 40 31 41 46 43
REMARK SMILES IDX 47 44 45 45 43 46 44 47 41 48 42 49 36 50 34 51 35 52 32 53
REMARK SMILES IDX 33 54 37 56 38 57 39 58 40 59
REMARK H PARENT
REMARK Flexibility Score: 70.00
ROOT
ATOM      1  C   UNL     1      12.415  79.114  -0.030  1.00  0.00     0.125 C 
ATOM      2  C   UNL     1      13.901  79.316  -0.368  1.00  0.00     0.023 C 
ENDROOT
BRANCH   1   3
ATOM      3  C   UNL     1      11.736  78.061  -0.988  1.00  0.00     0.140 C 
BRANCH   3   4
ATOM      4  O   UNL     1      12.612  77.879  -2.096  1.00  0.00    -0.348 OA
BRANCH   4   5
ATOM      5  C   UNL     1      12.087  78.302  -3.350  1.00  0.00     0.253 C 
ATOM      6  C   UNL     1      13.836  80.094  -3.644  1.00  0.00     0.166 C 
ATOM      7  C   UNL     1      12.332  79.797  -3.588  1.00  0.00     0.098 C 
ATOM      8  C   UNL     1      14.495  79.168  -4.686  1.00  0.00     0.234 C 
ATOM      9  C   UNL     1      14.092  77.696  -4.420  1.00  0.00     0.162 C 
ATOM     10  O   UNL     1      12.677  77.547  -4.397  1.00  0.00    -0.346 OA
ATOM     11  C   UNL     1      14.651  76.776  -5.508  1.00  0.00     0.043 C 
BRANCH   6  12
ATOM     12  O   UNL     1      14.037  81.446  -4.025  1.00  0.00    -0.377 OA
ATOM     13  C   UNL     1      14.049  81.571  -5.429  1.00  0.00     0.195 C 
ENDBRANCH   6  12
BRANCH   8  14
ATOM     14  O   UNL     1      15.919  79.288  -4.603  1.00  0.00    -0.457 OA
BRANCH  14  15
ATOM     15  C   UNL     1      16.715  79.817  -5.624  1.00  0.00     0.303 C 
ATOM     16  C   UNL     1      17.279  81.187  -5.473  1.00  0.00     0.139 C 
ATOM     17  O   UNL     1      17.005  79.131  -6.642  1.00  0.00    -0.253 OA
ENDBRANCH  14  15
ENDBRANCH   8  14
ENDBRANCH   4   5
ENDBRANCH   3   4
BRANCH   3  18
ATOM     18  C   UNL     1      11.434  76.657  -0.341  1.00  0.00     0.045 C 
ATOM     19  C   UNL     1      12.740  75.919   0.017  1.00  0.00     0.013 C 
BRANCH  18  20
ATOM     20  C   UNL     1      10.500  75.788  -1.243  1.00  0.00     0.130 C 
BRANCH  20  21
ATOM     21  O   UNL     1      11.265  75.202  -2.292  1.00  0.00    -0.345 OA
BRANCH  21  22
ATOM     22  C   UNL     1      10.481  74.738  -3.378  1.00  0.00     0.293 C 
ATOM     23  O   UNL     1       9.125  75.065  -3.132  1.00  0.00    -0.346 OA
ATOM     24  C   UNL     1      10.661  73.211  -3.453  1.00  0.00     0.249 C 
ATOM     25  C   UNL     1       8.306  74.675  -4.220  1.00  0.00     0.120 C 
ATOM     26  C   UNL     1       9.737  72.628  -4.546  1.00  0.00     0.105 C 
ATOM     27  C   UNL     1       6.891  75.197  -3.973  1.00  0.00     0.039 C 
ATOM     28  C   UNL     1       8.292  73.140  -4.345  1.00  0.00     0.055 C 
BRANCH  24  29
ATOM     29  O   UNL     1      12.027  72.938  -3.770  1.00  0.00    -0.455 OA
BRANCH  29  30
ATOM     30  C   UNL     1      12.616  73.212  -5.011  1.00  0.00     0.303 C 
ATOM     31  C   UNL     1      12.600  72.167  -6.075  1.00  0.00     0.139 C 
ATOM     32  O   UNL     1      13.105  74.348  -5.260  1.00  0.00    -0.253 OA
ENDBRANCH  29  30
ENDBRANCH  24  29
BRANCH  26  33
ATOM     33  N   UNL     1       9.858  71.146  -4.614  1.00  0.00    -0.303 NA
ATOM     34  C   UNL     1       9.007  70.578  -5.674  1.00  0.00     0.105 C 
ATOM     35  C   UNL     1       9.619  70.443  -3.340  1.00  0.00     0.105 C 
ENDBRANCH  26  33
ENDBRANCH  21  22
ENDBRANCH  20  21
BRANCH  20  36
ATOM     36  C   UNL     1       9.778  74.682  -0.386  1.00  0.00     0.019 C 
ATOM     37  C   UNL     1       9.915  74.987   1.115  1.00  0.00     0.010 C 
BRANCH  36  38
ATOM     38  C   UNL     1       8.281  74.470  -0.742  1.00  0.00     0.052 C 
BRANCH  38  39
ATOM     39  C   UNL     1       7.359  75.625  -0.283  1.00  0.00     0.150 CG0
ATOM     40  C   UNL     1       6.124  75.300   0.491  1.00  0.00     0.205 C 
ATOM     41  O   UNL     1       6.099  75.483  -0.903  1.00  0.00    -0.361 OA
ATOM     42  G   UNL     1       7.841  77.063  -0.457  1.00  0.00     0.000 G0
ENDBRANCH  38  39
ENDBRANCH  36  38
ENDBRANCH  20  36
ENDBRANCH  18  20
ENDBRANCH   3  18
ENDBRANCH   1   3
BRANCH   1  43
ATOM     43  C   UNL     1      11.742  80.462   0.060  1.00  0.00     0.311 C 
ATOM     44  O   UNL     1      12.036  81.254   0.994  1.00  0.00    -0.252 OA
BRANCH  43  45
ATOM     45  O   UNL     1      10.789  80.837  -0.893  1.00  0.00    -0.462 OA
BRANCH  45  46
ATOM     46  C   UNL     1       9.408  80.976  -0.569  1.00  0.00     0.180 C 
ATOM     47  C   UNL     1       9.121  80.406   0.828  1.00  0.00     0.053 C 
BRANCH  46  48
ATOM     48  C   UNL     1       8.543  80.379  -1.722  1.00  0.00     0.068 C 
ATOM     49  C   UNL     1       8.069  81.496  -2.669  1.00  0.00     0.015 C 
BRANCH  48  50
ATOM     50  C   UNL     1       7.338  79.481  -1.300  1.00  0.00     0.193 C 
BRANCH  50  51
ATOM     51  C   UNL     1       7.497  77.969  -1.653  1.00  0.00     0.097 C 
ATOM     52  C   UNL     1       8.610  77.812  -2.706  1.00  0.00     0.020 C 
BRANCH  51  53
ATOM     53  C   UNL     1       7.833  77.104  -0.437  1.00  0.00     0.173 CG0
ATOM     54  O   UNL     1       8.610  77.541   0.397  1.00  0.00    -0.296 OA
ATOM     55  G   UNL     1       7.370  75.656  -0.295  1.00  0.00     0.000 G0
ENDBRANCH  51  53
ENDBRANCH  50  51
BRANCH  50  56
ATOM     56  O   UNL     1       7.087  79.625   0.103  1.00  0.00    -0.461 OA
BRANCH  56  57
ATOM     57  C   UNL     1       5.888  79.269   0.733  1.00  0.00     0.302 C 
ATOM     58  C   UNL     1       5.944  78.629   2.080  1.00  0.00     0.139 C 
ATOM     59  O   UNL     1       4.776  79.427   0.158  1.00  0.00    -0.253 OA
ENDBRANCH  56  57
ENDBRANCH  50  56
ENDBRANCH  48  50
ENDBRANCH  46  48
ENDBRANCH  45  46
ENDBRANCH  43  45
ENDBRANCH   1  43
TORSDOF 12
ENDMDL
MODEL 8
REMARK VINA RESULT:    -1.453      2.630      8.426
REMARK INTER + INTRA:          -2.935
REMARK INTER:                  -7.453
REMARK INTRA:                   4.517
REMARK UNBOUND:                 0.641
REMARK SMILES CO[C@H]1C[C@H](O[C@H]2[C@H](C)[C@@H](O[C@@H]3O[C@H](C)C[C@H](N(C)C)[C@H]3OC(C)=O)[C@@H](C)C[C@@]3(CO3)C(=O)[C@H](C)[C@@H](OC(C)=O)[C@@H](C)[C@@H](C)OC(=O)[C@@H]2C)O[C@@H](C)[C@@H]1OC(C)=O
REMARK SMILES IDX 48 1 49 2 7 3 6 4 5 5 3 6 4 7 53 8 51 9 50 10 52 11 2 12
REMARK SMILES IDX 1 13 54 14 55 15 56 16 57 17 8 18 9 19 10 20 11 21 12 22
REMARK SMILES IDX 13 23 21 24 14 25 17 26 15 27 16 28 22 29 23 30 24 31 25 32
REMARK SMILES IDX 18 33 19 34 20 35 26 36 27 37 28 38 29 39 30 40 31 41 46 43
REMARK SMILES IDX 47 44 45 45 43 46 44 47 41 48 42 49 36 50 34 51 35 52 32 53
REMARK SMILES IDX 33 54 37 56 38 57 39 58 40 59
REMARK H PARENT
REMARK Flexibility Score: 70.00
ROOT
ATOM      1  C   UNL     1       8.631  76.619  -0.967  1.00  0.00     0.125 C 
ATOM      2  C   UNL     1       8.090  76.148   0.393  1.00  0.00     0.023 C 
ENDROOT
BRANCH   1   3
ATOM      3  C   UNL     1      10.161  76.273  -1.138  1.00  0.00     0.140 C 
BRANCH   3   4
ATOM      4  O   UNL     1      10.237  74.912  -1.549  1.00  0.00    -0.348 OA
BRANCH   4   5
ATOM      5  C   UNL     1       9.008  74.196  -1.482  1.00  0.00     0.253 C 
ATOM      6  C   UNL     1       9.021  73.654  -3.945  1.00  0.00     0.166 C 
ATOM      7  C   UNL     1       8.227  74.294  -2.799  1.00  0.00     0.098 C 
ATOM      8  C   UNL     1       9.415  72.217  -3.545  1.00  0.00     0.234 C 
ATOM      9  C   UNL     1      10.094  72.221  -2.153  1.00  0.00     0.162 C 
ATOM     10  O   UNL     1       9.260  72.834  -1.176  1.00  0.00    -0.346 OA
ATOM     11  C   UNL     1      10.396  70.792  -1.694  1.00  0.00     0.043 C 
BRANCH   6  12
ATOM     12  O   UNL     1       8.215  73.611  -5.112  1.00  0.00    -0.377 OA
ATOM     13  C   UNL     1       7.124  74.498  -4.997  1.00  0.00     0.195 C 
ENDBRANCH   6  12
BRANCH   8  14
ATOM     14  O   UNL     1      10.326  71.683  -4.511  1.00  0.00    -0.457 OA
BRANCH  14  15
ATOM     15  C   UNL     1      11.615  72.181  -4.723  1.00  0.00     0.303 C 
ATOM     16  C   UNL     1      11.981  72.710  -6.066  1.00  0.00     0.139 C 
ATOM     17  O   UNL     1      12.451  72.240  -3.780  1.00  0.00    -0.253 OA
ENDBRANCH  14  15
ENDBRANCH   8  14
ENDBRANCH   4   5
ENDBRANCH   3   4
BRANCH   3  18
ATOM     18  C   UNL     1      10.941  77.163  -2.176  1.00  0.00     0.045 C 
ATOM     19  C   UNL     1      10.813  76.592  -3.604  1.00  0.00     0.013 C 
BRANCH  18  20
ATOM     20  C   UNL     1      12.433  77.372  -1.763  1.00  0.00     0.130 C 
BRANCH  20  21
ATOM     21  O   UNL     1      12.947  78.531  -2.409  1.00  0.00    -0.345 OA
BRANCH  21  22
ATOM     22  C   UNL     1      13.261  78.331  -3.777  1.00  0.00     0.293 C 
ATOM     23  O   UNL     1      13.584  76.965  -3.973  1.00  0.00    -0.346 OA
ATOM     24  C   UNL     1      14.473  79.222  -4.104  1.00  0.00     0.249 C 
ATOM     25  C   UNL     1      13.847  76.700  -5.339  1.00  0.00     0.120 C 
ATOM     26  C   UNL     1      14.939  78.960  -5.553  1.00  0.00     0.105 C 
ATOM     27  C   UNL     1      14.025  75.192  -5.514  1.00  0.00     0.039 C 
ATOM     28  C   UNL     1      15.121  77.442  -5.784  1.00  0.00     0.055 C 
BRANCH  24  29
ATOM     29  O   UNL     1      14.075  80.586  -3.957  1.00  0.00    -0.455 OA
BRANCH  29  30
ATOM     30  C   UNL     1      13.517  81.357  -4.984  1.00  0.00     0.303 C 
ATOM     31  C   UNL     1      14.343  82.413  -5.638  1.00  0.00     0.139 C 
ATOM     32  O   UNL     1      12.349  81.131  -5.404  1.00  0.00    -0.253 OA
ENDBRANCH  29  30
ENDBRANCH  24  29
BRANCH  26  33
ATOM     33  N   UNL     1      16.137  79.777  -5.887  1.00  0.00    -0.303 NA
ATOM     34  C   UNL     1      16.902  79.195  -7.003  1.00  0.00     0.105 C 
ATOM     35  C   UNL     1      17.033  80.060  -4.750  1.00  0.00     0.105 C 
ENDBRANCH  26  33
ENDBRANCH  21  22
ENDBRANCH  20  21
BRANCH  20  36
ATOM     36  C   UNL     1      12.561  77.494  -0.199  1.00  0.00     0.019 C 
ATOM     37  C   UNL     1      12.028  76.225   0.487  1.00  0.00     0.010 C 
BRANCH  36  38
ATOM     38  C   UNL     1      13.999  77.796   0.307  1.00  0.00     0.052 C 
BRANCH  38  39
ATOM     39  C   UNL     1      14.611  79.088  -0.285  1.00  0.00     0.150 CG0
ATOM     40  C   UNL     1      15.733  78.973  -1.264  1.00  0.00     0.205 C 
ATOM     41  O   UNL     1      15.964  79.178   0.107  1.00  0.00    -0.361 OA
ATOM     42  G   UNL     1      13.922  80.422  -0.008  1.00  0.00     0.000 G0
ENDBRANCH  38  39
ENDBRANCH  36  38
ENDBRANCH  20  36
ENDBRANCH  18  20
ENDBRANCH   3  18
ENDBRANCH   1   3
BRANCH   1  43
ATOM     43  C   UNL     1       8.250  78.065  -1.175  1.00  0.00     0.311 C 
ATOM     44  O   UNL     1       7.363  78.369  -2.016  1.00  0.00    -0.252 OA
BRANCH  43  45
ATOM     45  O   UNL     1       8.879  79.071  -0.435  1.00  0.00    -0.462 OA
BRANCH  45  46
ATOM     46  C   UNL     1       8.782  80.448  -0.794  1.00  0.00     0.180 C 
ATOM     47  C   UNL     1       7.660  80.660  -1.821  1.00  0.00     0.053 C 
BRANCH  46  48
ATOM     48  C   UNL     1      10.187  80.970  -1.226  1.00  0.00     0.068 C 
ATOM     49  C   UNL     1      10.539  80.455  -2.634  1.00  0.00     0.015 C 
BRANCH  48  50
ATOM     50  C   UNL     1      11.368  80.701  -0.241  1.00  0.00     0.193 C 
BRANCH  50  51
ATOM     51  C   UNL     1      12.782  81.031  -0.812  1.00  0.00     0.097 C 
ATOM     52  C   UNL     1      12.950  82.561  -0.884  1.00  0.00     0.020 C 
BRANCH  51  53
ATOM     53  C   UNL     1      13.917  80.443   0.026  1.00  0.00     0.173 CG0
ATOM     54  O   UNL     1      14.404  81.122   0.915  1.00  0.00    -0.296 OA
ATOM     55  G   UNL     1      14.581  79.106  -0.298  1.00  0.00     0.000 G0
ENDBRANCH  51  53
ENDBRANCH  50  51
BRANCH  50  56
ATOM     56  O   UNL     1      11.160  81.420   0.980  1.00  0.00    -0.461 OA
BRANCH  56  57
ATOM     57  C   UNL     1      11.026  80.821   2.239  1.00  0.00     0.302 C 
ATOM     58  C   UNL     1      12.237  80.250   2.899  1.00  0.00     0.139 C 
ATOM     59  O   UNL     1       9.897  80.704   2.790  1.00  0.00    -0.253 OA
ENDBRANCH  56  57
ENDBRANCH  50  56
ENDBRANCH  48  50
ENDBRANCH  46  48
ENDBRANCH  45  46
ENDBRANCH  43  45
ENDBRANCH   1  43
TORSDOF 12
ENDMDL
MODEL 9
REMARK VINA RESULT:    -1.408      1.443      2.647
REMARK INTER + INTRA:          -2.826
REMARK INTER:                  -7.425
REMARK INTRA:                   4.599
REMARK UNBOUND:                 0.641
REMARK SMILES CO[C@H]1C[C@H](O[C@H]2[C@H](C)[C@@H](O[C@@H]3O[C@H](C)C[C@H](N(C)C)[C@H]3OC(C)=O)[C@@H](C)C[C@@]3(CO3)C(=O)[C@H](C)[C@@H](OC(C)=O)[C@@H](C)[C@@H](C)OC(=O)[C@@H]2C)O[C@@H](C)[C@@H]1OC(C)=O
REMARK SMILES IDX 48 1 49 2 7 3 6 4 5 5 3 6 4 7 53 8 51 9 50 10 52 11 2 12
REMARK SMILES IDX 1 13 54 14 55 15 56 16 57 17 8 18 9 19 10 20 11 21 12 22
REMARK SMILES IDX 13 23 21 24 14 25 17 26 15 27 16 28 22 29 23 30 24 31 25 32
REMARK SMILES IDX 18 33 19 34 20 35 26 36 27 37 28 38 29 39 30 40 31 41 46 43
REMARK SMILES IDX 47 44 45 45 43 46 44 47 41 48 42 49 36 50 34 51 35 52 32 53
REMARK SMILES IDX 33 54 37 56 38 57 39 58 40 59
REMARK H PARENT
REMARK Flexibility Score: 70.00
ROOT
ATOM      1  C   UNL     1      12.789  76.844  -4.370  1.00  0.00     0.125 C 
ATOM      2  C   UNL     1      13.889  75.925  -4.924  1.00  0.00     0.023 C 
ENDROOT
BRANCH   1   3
ATOM      3  C   UNL     1      13.387  77.999  -3.477  1.00  0.00     0.140 C 
BRANCH   3   4
ATOM      4  O   UNL     1      14.302  78.724  -4.292  1.00  0.00    -0.348 OA
BRANCH   4   5
ATOM      5  C   UNL     1      13.877  78.927  -5.636  1.00  0.00     0.253 C 
ATOM      6  C   UNL     1      15.007  81.174  -5.809  1.00  0.00     0.166 C 
ATOM      7  C   UNL     1      13.681  80.416  -5.946  1.00  0.00     0.098 C 
ATOM      8  C   UNL     1      16.077  80.480  -6.677  1.00  0.00     0.234 C 
ATOM      9  C   UNL     1      16.114  78.964  -6.363  1.00  0.00     0.162 C 
ATOM     10  O   UNL     1      14.830  78.373  -6.530  1.00  0.00    -0.346 OA
ATOM     11  C   UNL     1      17.096  78.243  -7.290  1.00  0.00     0.043 C 
BRANCH   6  12
ATOM     12  O   UNL     1      14.836  82.510  -6.256  1.00  0.00    -0.377 OA
ATOM     13  C   UNL     1      14.250  83.302  -5.247  1.00  0.00     0.195 C 
ENDBRANCH   6  12
BRANCH   8  14
ATOM     14  O   UNL     1      17.362  81.049  -6.401  1.00  0.00    -0.457 OA
BRANCH  14  15
ATOM     15  C   UNL     1      18.031  81.914  -7.272  1.00  0.00     0.303 C 
ATOM     16  C   UNL     1      19.480  82.184  -7.061  1.00  0.00     0.139 C 
ATOM     17  O   UNL     1      17.439  82.423  -8.263  1.00  0.00    -0.253 OA
ENDBRANCH  14  15
ENDBRANCH   8  14
ENDBRANCH   4   5
ENDBRANCH   3   4
BRANCH   3  18
ATOM     18  C   UNL     1      12.332  79.004  -2.879  1.00  0.00     0.045 C 
ATOM     19  C   UNL     1      13.023  80.262  -2.314  1.00  0.00     0.013 C 
BRANCH  18  20
ATOM     20  C   UNL     1      11.408  78.320  -1.821  1.00  0.00     0.130 C 
BRANCH  20  21
ATOM     21  O   UNL     1      12.086  78.255  -0.570  1.00  0.00    -0.345 OA
BRANCH  21  22
ATOM     22  C   UNL     1      12.297  76.934  -0.102  1.00  0.00     0.293 C 
ATOM     23  O   UNL     1      11.057  76.405   0.336  1.00  0.00    -0.346 OA
ATOM     24  C   UNL     1      13.290  77.017   1.071  1.00  0.00     0.249 C 
ATOM     25  C   UNL     1      11.203  75.061   0.758  1.00  0.00     0.120 C 
ATOM     26  C   UNL     1      13.470  75.619   1.704  1.00  0.00     0.105 C 
ATOM     27  C   UNL     1       9.815  74.495   1.060  1.00  0.00     0.039 C 
ATOM     28  C   UNL     1      12.089  74.998   2.016  1.00  0.00     0.055 C 
BRANCH  24  29
ATOM     29  O   UNL     1      14.539  77.490   0.565  1.00  0.00    -0.455 OA
BRANCH  29  30
ATOM     30  C   UNL     1      14.834  78.839   0.333  1.00  0.00     0.303 C 
ATOM     31  C   UNL     1      14.134  79.888   1.129  1.00  0.00     0.139 C 
ATOM     32  O   UNL     1      15.725  79.175  -0.494  1.00  0.00    -0.253 OA
ENDBRANCH  29  30
ENDBRANCH  24  29
BRANCH  26  33
ATOM     33  N   UNL     1      14.394  75.673   2.869  1.00  0.00    -0.303 NA
ATOM     34  C   UNL     1      15.602  74.862   2.645  1.00  0.00     0.105 C 
ATOM     35  C   UNL     1      13.782  75.326   4.165  1.00  0.00     0.105 C 
ENDBRANCH  26  33
ENDBRANCH  21  22
ENDBRANCH  20  21
BRANCH  20  36
ATOM     36  C   UNL     1      10.049  79.101  -1.687  1.00  0.00     0.019 C 
ATOM     37  C   UNL     1      10.199  80.539  -2.211  1.00  0.00     0.010 C 
BRANCH  36  38
ATOM     38  C   UNL     1       8.841  78.414  -2.383  1.00  0.00     0.052 C 
BRANCH  38  39
ATOM     39  C   UNL     1       8.118  77.372  -1.498  1.00  0.00     0.150 CG0
ATOM     40  C   UNL     1       7.264  77.849  -0.370  1.00  0.00     0.205 C 
ATOM     41  O   UNL     1       8.604  77.472  -0.176  1.00  0.00    -0.361 OA
ATOM     42  G   UNL     1       8.135  75.906  -1.925  1.00  0.00     0.000 G0
ENDBRANCH  38  39
ENDBRANCH  36  38
ENDBRANCH  20  36
ENDBRANCH  18  20
ENDBRANCH   3  18
ENDBRANCH   1   3
BRANCH   1  43
ATOM     43  C   UNL     1      11.715  75.997  -3.728  1.00  0.00     0.311 C 
ATOM     44  O   UNL     1      10.949  76.497  -2.863  1.00  0.00    -0.252 OA
BRANCH  43  45
ATOM     45  O   UNL     1      11.568  74.655  -4.093  1.00  0.00    -0.462 OA
BRANCH  45  46
ATOM     46  C   UNL     1      11.461  73.614  -3.124  1.00  0.00     0.180 C 
ATOM     47  C   UNL     1      11.947  72.280  -3.708  1.00  0.00     0.053 C 
BRANCH  46  48
ATOM     48  C   UNL     1      10.014  73.598  -2.541  1.00  0.00     0.068 C 
ATOM     49  C   UNL     1       9.722  72.243  -1.870  1.00  0.00     0.015 C 
BRANCH  48  50
ATOM     50  C   UNL     1       8.859  73.975  -3.521  1.00  0.00     0.193 C 
BRANCH  50  51
ATOM     51  C   UNL     1       8.354  75.446  -3.398  1.00  0.00     0.097 C 
ATOM     52  C   UNL     1       7.035  75.592  -4.181  1.00  0.00     0.020 C 
BRANCH  51  53
ATOM     53  C   UNL     1       8.125  75.880  -1.949  1.00  0.00     0.173 CG0
ATOM     54  O   UNL     1       7.772  75.043  -1.134  1.00  0.00    -0.296 OA
ATOM     55  G   UNL     1       8.162  77.340  -1.505  1.00  0.00     0.000 G0
ENDBRANCH  51  53
ENDBRANCH  50  51
BRANCH  50  56
ATOM     56  O   UNL     1       9.258  73.714  -4.871  1.00  0.00    -0.461 OA
BRANCH  56  57
ATOM     57  C   UNL     1       8.770  72.658  -5.651  1.00  0.00     0.302 C 
ATOM     58  C   UNL     1       9.372  71.302  -5.486  1.00  0.00     0.139 C 
ATOM     59  O   UNL     1       7.880  72.848  -6.525  1.00  0.00    -0.253 OA
ENDBRANCH  56  57
ENDBRANCH  50  56
ENDBRANCH  48  50
ENDBRANCH  46  48
ENDBRANCH  45  46
ENDBRANCH  43  45
ENDBRANCH   1  43
TORSDOF 12
ENDMDL
MODEL 10
REMARK VINA RESULT:    -1.048      2.694      7.374
REMARK INTER + INTRA:          -1.939
REMARK INTER:                  -6.295
REMARK INTRA:                   4.356
REMARK UNBOUND:                 0.641
REMARK SMILES CO[C@H]1C[C@H](O[C@H]2[C@H](C)[C@@H](O[C@@H]3O[C@H](C)C[C@H](N(C)C)[C@H]3OC(C)=O)[C@@H](C)C[C@@]3(CO3)C(=O)[C@H](C)[C@@H](OC(C)=O)[C@@H](C)[C@@H](C)OC(=O)[C@@H]2C)O[C@@H](C)[C@@H]1OC(C)=O
REMARK SMILES IDX 48 1 49 2 7 3 6 4 5 5 3 6 4 7 53 8 51 9 50 10 52 11 2 12
REMARK SMILES IDX 1 13 54 14 55 15 56 16 57 17 8 18 9 19 10 20 11 21 12 22
REMARK SMILES IDX 13 23 21 24 14 25 17 26 15 27 16 28 22 29 23 30 24 31 25 32
REMARK SMILES IDX 18 33 19 34 20 35 26 36 27 37 28 38 29 39 30 40 31 41 46 43
REMARK SMILES IDX 47 44 45 45 43 46 44 47 41 48 42 49 36 50 34 51 35 52 32 53
REMARK SMILES IDX 33 54 37 56 38 57 39 58 40 59
REMARK H PARENT
REMARK Flexibility Score: 70.00
ROOT
ATOM      1  C   UNL     1      11.627  77.665  -1.638  1.00  0.00     0.125 C 
ATOM      2  C   UNL     1      11.719  77.113  -3.069  1.00  0.00     0.023 C 
ENDROOT
BRANCH   1   3
ATOM      3  C   UNL     1      13.004  78.264  -1.154  1.00  0.00     0.140 C 
BRANCH   3   4
ATOM      4  O   UNL     1      13.703  77.218  -0.486  1.00  0.00    -0.348 OA
BRANCH   4   5
ATOM      5  C   UNL     1      14.788  77.648   0.329  1.00  0.00     0.253 C 
ATOM      6  C   UNL     1      13.433  77.524   2.452  1.00  0.00     0.166 C 
ATOM      7  C   UNL     1      14.296  78.423   1.558  1.00  0.00     0.098 C 
ATOM      8  C   UNL     1      14.220  76.239   2.784  1.00  0.00     0.234 C 
ATOM      9  C   UNL     1      14.765  75.599   1.483  1.00  0.00     0.162 C 
ATOM     10  O   UNL     1      15.552  76.527   0.744  1.00  0.00    -0.346 OA
ATOM     11  C   UNL     1      15.636  74.382   1.802  1.00  0.00     0.043 C 
BRANCH   6  12
ATOM     12  O   UNL     1      13.127  78.209   3.656  1.00  0.00    -0.377 OA
ATOM     13  C   UNL     1      12.594  79.486   3.381  1.00  0.00     0.195 C 
ENDBRANCH   6  12
BRANCH   8  14
ATOM     14  O   UNL     1      13.357  75.305   3.442  1.00  0.00    -0.457 OA
BRANCH  14  15
ATOM     15  C   UNL     1      13.578  74.822   4.735  1.00  0.00     0.303 C 
ATOM     16  C   UNL     1      14.969  74.514   5.171  1.00  0.00     0.139 C 
ATOM     17  O   UNL     1      12.626  74.696   5.553  1.00  0.00    -0.253 OA
ENDBRANCH  14  15
ENDBRANCH   8  14
ENDBRANCH   4   5
ENDBRANCH   3   4
BRANCH   3  18
ATOM     18  C   UNL     1      13.924  78.845  -2.293  1.00  0.00     0.045 C 
ATOM     19  C   UNL     1      15.414  78.585  -1.989  1.00  0.00     0.013 C 
BRANCH  18  20
ATOM     20  C   UNL     1      13.638  80.357  -2.559  1.00  0.00     0.130 C 
BRANCH  20  21
ATOM     21  O   UNL     1      13.000  80.504  -3.824  1.00  0.00    -0.345 OA
BRANCH  21  22
ATOM     22  C   UNL     1      13.762  80.003  -4.910  1.00  0.00     0.293 C 
ATOM     23  O   UNL     1      13.696  78.587  -4.895  1.00  0.00    -0.346 OA
ATOM     24  C   UNL     1      15.213  80.475  -4.707  1.00  0.00     0.249 C 
ATOM     25  C   UNL     1      14.394  78.038  -5.998  1.00  0.00     0.120 C 
ATOM     26  C   UNL     1      16.120  79.861  -5.797  1.00  0.00     0.105 C 
ATOM     27  C   UNL     1      14.151  76.529  -6.023  1.00  0.00     0.039 C 
ATOM     28  C   UNL     1      15.899  78.332  -5.869  1.00  0.00     0.055 C 
BRANCH  24  29
ATOM     29  O   UNL     1      15.235  81.900  -4.799  1.00  0.00    -0.455 OA
BRANCH  29  30
ATOM     30  C   UNL     1      14.931  82.618  -5.962  1.00  0.00     0.303 C 
ATOM     31  C   UNL     1      15.824  82.496  -7.151  1.00  0.00     0.139 C 
ATOM     32  O   UNL     1      13.884  83.317  -6.039  1.00  0.00    -0.253 OA
ENDBRANCH  29  30
ENDBRANCH  24  29
BRANCH  26  33
ATOM     33  N   UNL     1      17.539  80.266  -5.604  1.00  0.00    -0.303 NA
ATOM     34  C   UNL     1      18.192  80.592  -6.883  1.00  0.00     0.105 C 
ATOM     35  C   UNL     1      18.362  79.307  -4.843  1.00  0.00     0.105 C 
ENDBRANCH  26  33
ENDBRANCH  21  22
ENDBRANCH  20  21
BRANCH  20  36
ATOM     36  C   UNL     1      12.753  80.964  -1.408  1.00  0.00     0.019 C 
ATOM     37  C   UNL     1      13.209  82.395  -1.075  1.00  0.00     0.010 C 
BRANCH  36  38
ATOM     38  C   UNL     1      11.226  80.957  -1.699  1.00  0.00     0.052 C 
BRANCH  38  39
ATOM     39  C   UNL     1      10.349  80.803  -0.434  1.00  0.00     0.150 CG0
ATOM     40  C   UNL     1      10.673  81.619   0.774  1.00  0.00     0.205 C 
ATOM     41  O   UNL     1      11.143  80.304   0.621  1.00  0.00    -0.361 OA
ATOM     42  G   UNL     1       9.066  79.980  -0.524  1.00  0.00     0.000 G0
ENDBRANCH  38  39
ENDBRANCH  36  38
ENDBRANCH  20  36
ENDBRANCH  18  20
ENDBRANCH   3  18
ENDBRANCH   1   3
BRANCH   1  43
ATOM     43  C   UNL     1      11.008  76.617  -0.744  1.00  0.00     0.311 C 
ATOM     44  O   UNL     1      11.662  76.146   0.224  1.00  0.00    -0.252 OA
BRANCH  43  45
ATOM     45  O   UNL     1       9.707  76.166  -0.987  1.00  0.00    -0.462 OA
BRANCH  45  46
ATOM     46  C   UNL     1       8.692  76.208   0.013  1.00  0.00     0.180 C 
ATOM     47  C   UNL     1       7.939  74.871   0.076  1.00  0.00     0.053 C 
BRANCH  46  48
ATOM     48  C   UNL     1       7.797  77.466  -0.211  1.00  0.00     0.068 C 
ATOM     49  C   UNL     1       6.366  77.202   0.294  1.00  0.00     0.015 C 
BRANCH  48  50
ATOM     50  C   UNL     1       7.760  78.050  -1.658  1.00  0.00     0.193 C 
BRANCH  50  51
ATOM     51  C   UNL     1       8.526  79.398  -1.837  1.00  0.00     0.097 C 
ATOM     52  C   UNL     1       7.585  80.428  -2.491  1.00  0.00     0.020 C 
BRANCH  51  53
ATOM     53  C   UNL     1       9.051  79.966  -0.519  1.00  0.00     0.173 CG0
ATOM     54  O   UNL     1       8.351  79.881   0.478  1.00  0.00    -0.296 OA
ATOM     55  G   UNL     1      10.340  80.778  -0.420  1.00  0.00     0.000 G0
ENDBRANCH  51  53
ENDBRANCH  50  51
BRANCH  50  56
ATOM     56  O   UNL     1       8.260  77.084  -2.589  1.00  0.00    -0.461 OA
BRANCH  56  57
ATOM     57  C   UNL     1       7.454  76.242  -3.366  1.00  0.00     0.302 C 
ATOM     58  C   UNL     1       7.283  74.819  -2.947  1.00  0.00     0.139 C 
ATOM     59  O   UNL     1       6.925  76.649  -4.437  1.00  0.00    -0.253 OA
ENDBRANCH  56  57
ENDBRANCH  50  56
ENDBRANCH  48  50
ENDBRANCH  46  48
ENDBRANCH  45  46
ENDBRANCH  43  45
ENDBRANCH   1  43
TORSDOF 12
ENDMDL
MODEL 11
REMARK VINA RESULT:    -0.959      2.230      6.599
REMARK INTER + INTRA:          -1.720
REMARK INTER:                  -6.654
REMARK INTRA:                   4.933
REMARK UNBOUND:                 0.641
REMARK SMILES CO[C@H]1C[C@H](O[C@H]2[C@H](C)[C@@H](O[C@@H]3O[C@H](C)C[C@H](N(C)C)[C@H]3OC(C)=O)[C@@H](C)C[C@@]3(CO3)C(=O)[C@H](C)[C@@H](OC(C)=O)[C@@H](C)[C@@H](C)OC(=O)[C@@H]2C)O[C@@H](C)[C@@H]1OC(C)=O
REMARK SMILES IDX 48 1 49 2 7 3 6 4 5 5 3 6 4 7 53 8 51 9 50 10 52 11 2 12
REMARK SMILES IDX 1 13 54 14 55 15 56 16 57 17 8 18 9 19 10 20 11 21 12 22
REMARK SMILES IDX 13 23 21 24 14 25 17 26 15 27 16 28 22 29 23 30 24 31 25 32
REMARK SMILES IDX 18 33 19 34 20 35 26 36 27 37 28 38 29 39 30 40 31 41 46 43
REMARK SMILES IDX 47 44 45 45 43 46 44 47 41 48 42 49 36 50 34 51 35 52 32 53
REMARK SMILES IDX 33 54 37 56 38 57 39 58 40 59
REMARK H PARENT
REMARK Flexibility Score: 70.00
ROOT
ATOM      1  C   UNL     1      12.442  78.960   0.331  1.00  0.00     0.125 C 
ATOM      2  C   UNL     1      13.968  78.945   0.142  1.00  0.00     0.023 C 
ENDROOT
BRANCH   1   3
ATOM      3  C   UNL     1      11.720  77.986  -0.677  1.00  0.00     0.140 C 
BRANCH   3   4
ATOM      4  O   UNL     1      12.559  77.872  -1.822  1.00  0.00    -0.348 OA
BRANCH   4   5
ATOM      5  C   UNL     1      11.962  78.288  -3.046  1.00  0.00     0.253 C 
ATOM      6  C   UNL     1      13.761  79.992  -3.515  1.00  0.00     0.166 C 
ATOM      7  C   UNL     1      12.254  79.764  -3.342  1.00  0.00     0.098 C 
ATOM      8  C   UNL     1      14.300  79.012  -4.577  1.00  0.00     0.234 C 
ATOM      9  C   UNL     1      13.854  77.567  -4.242  1.00  0.00     0.162 C 
ATOM     10  O   UNL     1      12.440  77.483  -4.112  1.00  0.00    -0.346 OA
ATOM     11  C   UNL     1      14.292  76.597  -5.342  1.00  0.00     0.043 C 
BRANCH   6  12
ATOM     12  O   UNL     1      13.991  81.324  -3.946  1.00  0.00    -0.377 OA
ATOM     13  C   UNL     1      13.504  81.514  -5.256  1.00  0.00     0.195 C 
ENDBRANCH   6  12
BRANCH   8  14
ATOM     14  O   UNL     1      15.731  79.069  -4.601  1.00  0.00    -0.457 OA
BRANCH  14  15
ATOM     15  C   UNL     1      16.467  79.666  -5.629  1.00  0.00     0.303 C 
ATOM     16  C   UNL     1      16.891  78.841  -6.795  1.00  0.00     0.139 C 
ATOM     17  O   UNL     1      16.728  80.899  -5.609  1.00  0.00    -0.253 OA
ENDBRANCH  14  15
ENDBRANCH   8  14
ENDBRANCH   4   5
ENDBRANCH   3   4
BRANCH   3  18
ATOM     18  C   UNL     1      11.419  76.543  -0.122  1.00  0.00     0.045 C 
ATOM     19  C   UNL     1      12.698  75.682  -0.091  1.00  0.00     0.013 C 
BRANCH  18  20
ATOM     20  C   UNL     1      10.264  75.844  -0.907  1.00  0.00     0.130 C 
BRANCH  20  21
ATOM     21  O   UNL     1      10.796  75.196  -2.058  1.00  0.00    -0.345 OA
BRANCH  21  22
ATOM     22  C   UNL     1      10.262  73.903  -2.284  1.00  0.00     0.293 C 
ATOM     23  O   UNL     1      11.186  72.941  -1.804  1.00  0.00    -0.346 OA
ATOM     24  C   UNL     1      10.064  73.747  -3.802  1.00  0.00     0.249 C 
ATOM     25  C   UNL     1      10.671  71.630  -1.951  1.00  0.00     0.120 C 
ATOM     26  C   UNL     1       9.594  72.311  -4.124  1.00  0.00     0.105 C 
ATOM     27  C   UNL     1      11.631  70.653  -1.272  1.00  0.00     0.039 C 
ATOM     28  C   UNL     1      10.530  71.284  -3.445  1.00  0.00     0.055 C 
BRANCH  24  29
ATOM     29  O   UNL     1       9.077  74.691  -4.222  1.00  0.00    -0.455 OA
BRANCH  29  30
ATOM     30  C   UNL     1       7.758  74.709  -3.752  1.00  0.00     0.303 C 
ATOM     31  C   UNL     1       6.762  75.609  -4.404  1.00  0.00     0.139 C 
ATOM     32  O   UNL     1       7.387  73.935  -2.828  1.00  0.00    -0.253 OA
ENDBRANCH  29  30
ENDBRANCH  24  29
BRANCH  26  33
ATOM     33  N   UNL     1       9.433  72.116  -5.591  1.00  0.00    -0.303 NA
ATOM     34  C   UNL     1       8.272  72.854  -6.115  1.00  0.00     0.105 C 
ATOM     35  C   UNL     1       9.380  70.709  -6.029  1.00  0.00     0.105 C 
ENDBRANCH  26  33
ENDBRANCH  21  22
ENDBRANCH  20  21
BRANCH  20  36
ATOM     36  C   UNL     1       9.507  74.819   0.018  1.00  0.00     0.019 C 
ATOM     37  C   UNL     1       9.657  75.215   1.496  1.00  0.00     0.010 C 
BRANCH  36  38
ATOM     38  C   UNL     1       8.003  74.634  -0.324  1.00  0.00     0.052 C 
BRANCH  38  39
ATOM     39  C   UNL     1       7.134  75.877  -0.020  1.00  0.00     0.150 CG0
ATOM     40  C   UNL     1       5.848  75.697   0.716  1.00  0.00     0.205 C 
ATOM     41  O   UNL     1       5.897  75.750  -0.687  1.00  0.00    -0.361 OA
ATOM     42  G   UNL     1       7.711  77.263  -0.298  1.00  0.00     0.000 G0
ENDBRANCH  38  39
ENDBRANCH  36  38
ENDBRANCH  20  36
ENDBRANCH  18  20
ENDBRANCH   3  18
ENDBRANCH   1   3
BRANCH   1  43
ATOM     43  C   UNL     1      11.960  80.391   0.333  1.00  0.00     0.311 C 
ATOM     44  O   UNL     1      12.358  81.190   1.221  1.00  0.00    -0.252 OA
BRANCH  43  45
ATOM     45  O   UNL     1      11.070  80.834  -0.651  1.00  0.00    -0.462 OA
BRANCH  45  46
ATOM     46  C   UNL     1       9.663  80.899  -0.425  1.00  0.00     0.180 C 
ATOM     47  C   UNL     1       9.313  80.337   0.961  1.00  0.00     0.053 C 
BRANCH  46  48
ATOM     48  C   UNL     1       8.915  80.234  -1.622  1.00  0.00     0.068 C 
ATOM     49  C   UNL     1       8.848  81.203  -2.817  1.00  0.00     0.015 C 
BRANCH  48  50
ATOM     50  C   UNL     1       7.501  79.645  -1.324  1.00  0.00     0.193 C 
BRANCH  50  51
ATOM     51  C   UNL     1       7.375  78.106  -1.549  1.00  0.00     0.097 C 
ATOM     52  C   UNL     1       8.317  77.686  -2.693  1.00  0.00     0.020 C 
BRANCH  51  53
ATOM     53  C   UNL     1       7.710  77.290  -0.301  1.00  0.00     0.173 CG0
ATOM     54  O   UNL     1       8.578  77.699   0.453  1.00  0.00    -0.296 OA
ATOM     55  G   UNL     1       7.125  75.905  -0.032  1.00  0.00     0.000 G0
ENDBRANCH  51  53
ENDBRANCH  50  51
BRANCH  50  56
ATOM     56  O   UNL     1       7.108  79.970   0.014  1.00  0.00    -0.461 OA
BRANCH  56  57
ATOM     57  C   UNL     1       5.932  79.516   0.627  1.00  0.00     0.302 C 
ATOM     58  C   UNL     1       6.010  78.945   2.003  1.00  0.00     0.139 C 
ATOM     59  O   UNL     1       4.829  79.529   0.013  1.00  0.00    -0.253 OA
ENDBRANCH  56  57
ENDBRANCH  50  56
ENDBRANCH  48  50
ENDBRANCH  46  48
ENDBRANCH  45  46
ENDBRANCH  43  45
ENDBRANCH   1  43
TORSDOF 12
ENDMDL
MODEL 12
REMARK VINA RESULT:    -0.734      2.870      8.809
REMARK INTER + INTRA:          -1.167
REMARK INTER:                  -3.250
REMARK INTRA:                   2.083
REMARK UNBOUND:                 0.641
REMARK SMILES CO[C@H]1C[C@H](O[C@H]2[C@H](C)[C@@H](O[C@@H]3O[C@H](C)C[C@H](N(C)C)[C@H]3OC(C)=O)[C@@H](C)C[C@@]3(CO3)C(=O)[C@H](C)[C@@H](OC(C)=O)[C@@H](C)[C@@H](C)OC(=O)[C@@H]2C)O[C@@H](C)[C@@H]1OC(C)=O
REMARK SMILES IDX 48 1 49 2 7 3 6 4 5 5 3 6 4 7 53 8 51 9 50 10 52 11 2 12
REMARK SMILES IDX 1 13 54 14 55 15 56 16 57 17 8 18 9 19 10 20 11 21 12 22
REMARK SMILES IDX 13 23 21 24 14 25 17 26 15 27 16 28 22 29 23 30 24 31 25 32
REMARK SMILES IDX 18 33 19 34 20 35 26 36 27 37 28 38 29 39 30 40 31 41 46 43
REMARK SMILES IDX 47 44 45 45 43 46 44 47 41 48 42 49 36 50 34 51 35 52 32 53
REMARK SMILES IDX 33 54 37 56 38 57 39 58 40 59
REMARK H PARENT
REMARK Flexibility Score: 70.00
ROOT
ATOM      1  C   UNL     1      13.626  79.836   0.317  1.00  0.00     0.125 C 
ATOM      2  C   UNL     1      15.023  79.666   0.937  1.00  0.00     0.023 C 
ENDROOT
BRANCH   1   3
ATOM      3  C   UNL     1      13.026  78.457  -0.159  1.00  0.00     0.140 C 
BRANCH   3   4
ATOM      4  O   UNL     1      12.957  77.614   0.986  1.00  0.00    -0.348 OA
BRANCH   4   5
ATOM      5  C   UNL     1      12.961  76.218   0.704  1.00  0.00     0.253 C 
ATOM      6  C   UNL     1      14.969  75.779   2.164  1.00  0.00     0.166 C 
ATOM      7  C   UNL     1      14.379  75.637   0.755  1.00  0.00     0.098 C 
ATOM      8  C   UNL     1      13.991  75.162   3.185  1.00  0.00     0.234 C 
ATOM      9  C   UNL     1      12.569  75.735   2.972  1.00  0.00     0.162 C 
ATOM     10  O   UNL     1      12.131  75.538   1.632  1.00  0.00    -0.346 OA
ATOM     11  C   UNL     1      11.565  75.055   3.907  1.00  0.00     0.043 C 
BRANCH   6  12
ATOM     12  O   UNL     1      16.209  75.093   2.229  1.00  0.00    -0.377 OA
ATOM     13  C   UNL     1      16.171  73.921   1.445  1.00  0.00     0.195 C 
ENDBRANCH   6  12
BRANCH   8  14
ATOM     14  O   UNL     1      14.428  75.469   4.514  1.00  0.00    -0.457 OA
BRANCH  14  15
ATOM     15  C   UNL     1      14.817  74.501   5.446  1.00  0.00     0.303 C 
ATOM     16  C   UNL     1      14.012  74.317   6.685  1.00  0.00     0.139 C 
ATOM     17  O   UNL     1      15.806  73.749   5.226  1.00  0.00    -0.253 OA
ENDBRANCH  14  15
ENDBRANCH   8  14
ENDBRANCH   4   5
ENDBRANCH   3   4
BRANCH   3  18
ATOM     18  C   UNL     1      11.600  78.535  -0.821  1.00  0.00     0.045 C 
ATOM     19  C   UNL     1      10.489  78.339   0.231  1.00  0.00     0.013 C 
BRANCH  18  20
ATOM     20  C   UNL     1      11.455  77.539  -2.016  1.00  0.00     0.130 C 
BRANCH  20  21
ATOM     21  O   UNL     1      10.085  77.182  -2.172  1.00  0.00    -0.345 OA
BRANCH  21  22
ATOM     22  C   UNL     1       9.792  75.854  -1.773  1.00  0.00     0.293 C 
ATOM     23  O   UNL     1      10.156  74.974  -2.823  1.00  0.00    -0.346 OA
ATOM     24  C   UNL     1       8.278  75.778  -1.510  1.00  0.00     0.249 C 
ATOM     25  C   UNL     1       9.939  73.625  -2.448  1.00  0.00     0.120 C 
ATOM     26  C   UNL     1       7.875  74.322  -1.184  1.00  0.00     0.105 C 
ATOM     27  C   UNL     1      10.500  72.722  -3.546  1.00  0.00     0.039 C 
ATOM     28  C   UNL     1       8.433  73.366  -2.263  1.00  0.00     0.055 C 
BRANCH  24  29
ATOM     29  O   UNL     1       7.975  76.629  -0.402  1.00  0.00    -0.455 OA
BRANCH  29  30
ATOM     30  C   UNL     1       7.240  77.817  -0.500  1.00  0.00     0.303 C 
ATOM     31  C   UNL     1       6.337  78.212   0.619  1.00  0.00     0.139 C 
ATOM     32  O   UNL     1       7.377  78.585  -1.491  1.00  0.00    -0.253 OA
ENDBRANCH  29  30
ENDBRANCH  24  29
BRANCH  26  33
ATOM     33  N   UNL     1       6.407  74.209  -0.964  1.00  0.00    -0.303 NA
ATOM     34  C   UNL     1       5.642  74.864  -2.038  1.00  0.00     0.105 C 
ATOM     35  C   UNL     1       5.938  74.678   0.353  1.00  0.00     0.105 C 
ENDBRANCH  26  33
ENDBRANCH  21  22
ENDBRANCH  20  21
BRANCH  20  36
ATOM     36  C   UNL     1      12.026  78.175  -3.338  1.00  0.00     0.019 C 
ATOM     37  C   UNL     1      11.779  79.693  -3.357  1.00  0.00     0.010 C 
BRANCH  36  38
ATOM     38  C   UNL     1      13.532  77.888  -3.590  1.00  0.00     0.052 C 
BRANCH  38  39
ATOM     39  C   UNL     1      13.877  77.610  -5.072  1.00  0.00     0.150 CG0
ATOM     40  C   UNL     1      13.655  76.240  -5.622  1.00  0.00     0.205 C 
ATOM     41  O   UNL     1      14.908  76.649  -5.134  1.00  0.00    -0.361 OA
ATOM     42  G   UNL     1      14.237  78.787  -5.976  1.00  0.00     0.000 G0
ENDBRANCH  38  39
ENDBRANCH  36  38
ENDBRANCH  20  36
ENDBRANCH  18  20
ENDBRANCH   3  18
ENDBRANCH   1   3
BRANCH   1  43
ATOM     43  C   UNL     1      13.678  80.932  -0.721  1.00  0.00     0.311 C 
ATOM     44  O   UNL     1      12.758  81.791  -0.778  1.00  0.00    -0.252 OA
BRANCH  43  45
ATOM     45  O   UNL     1      14.746  80.998  -1.621  1.00  0.00    -0.462 OA
BRANCH  45  46
ATOM     46  C   UNL     1      14.994  79.971  -2.578  1.00  0.00     0.180 C 
ATOM     47  C   UNL     1      15.752  78.802  -1.932  1.00  0.00     0.053 C 
BRANCH  46  48
ATOM     48  C   UNL     1      15.674  80.590  -3.838  1.00  0.00     0.068 C 
ATOM     49  C   UNL     1      14.672  81.468  -4.610  1.00  0.00     0.015 C 
BRANCH  48  50
ATOM     50  C   UNL     1      16.384  79.597  -4.811  1.00  0.00     0.193 C 
BRANCH  50  51
ATOM     51  C   UNL     1      15.641  79.367  -6.164  1.00  0.00     0.097 C 
ATOM     52  C   UNL     1      16.454  78.377  -7.021  1.00  0.00     0.020 C 
BRANCH  51  53
ATOM     53  C   UNL     1      14.224  78.823  -5.982  1.00  0.00     0.173 CG0
ATOM     54  O   UNL     1      13.290  79.447  -6.461  1.00  0.00    -0.296 OA
ATOM     55  G   UNL     1      13.902  77.624  -5.095  1.00  0.00     0.000 G0
ENDBRANCH  51  53
ENDBRANCH  50  51
BRANCH  50  56
ATOM     56  O   UNL     1      17.724  80.035  -5.064  1.00  0.00    -0.461 OA
BRANCH  56  57
ATOM     57  C   UNL     1      18.059  81.262  -5.650  1.00  0.00     0.302 C 
ATOM     58  C   UNL     1      19.024  82.157  -4.947  1.00  0.00     0.139 C 
ATOM     59  O   UNL     1      17.515  81.644  -6.723  1.00  0.00    -0.253 OA
ENDBRANCH  56  57
ENDBRANCH  50  56
ENDBRANCH  48  50
ENDBRANCH  46  48
ENDBRANCH  45  46
ENDBRANCH  43  45
ENDBRANCH   1  43
TORSDOF 12
ENDMDL
MODEL 13
REMARK VINA RESULT:    -0.703      2.449      7.770
REMARK INTER + INTRA:          -1.089
REMARK INTER:                  -4.969
REMARK INTRA:                   3.880
REMARK UNBOUND:                 0.641
REMARK SMILES CO[C@H]1C[C@H](O[C@H]2[C@H](C)[C@@H](O[C@@H]3O[C@H](C)C[C@H](N(C)C)[C@H]3OC(C)=O)[C@@H](C)C[C@@]3(CO3)C(=O)[C@H](C)[C@@H](OC(C)=O)[C@@H](C)[C@@H](C)OC(=O)[C@@H]2C)O[C@@H](C)[C@@H]1OC(C)=O
REMARK SMILES IDX 48 1 49 2 7 3 6 4 5 5 3 6 4 7 53 8 51 9 50 10 52 11 2 12
REMARK SMILES IDX 1 13 54 14 55 15 56 16 57 17 8 18 9 19 10 20 11 21 12 22
REMARK SMILES IDX 13 23 21 24 14 25 17 26 15 27 16 28 22 29 23 30 24 31 25 32
REMARK SMILES IDX 18 33 19 34 20 35 26 36 27 37 28 38 29 39 30 40 31 41 46 43
REMARK SMILES IDX 47 44 45 45 43 46 44 47 41 48 42 49 36 50 34 51 35 52 32 53
REMARK SMILES IDX 33 54 37 56 38 57 39 58 40 59
REMARK H PARENT
REMARK Flexibility Score: 70.00
ROOT
ATOM      1  C   UNL     1       8.081  76.082  -2.278  1.00  0.00     0.125 C 
ATOM      2  C   UNL     1       7.767  77.118  -3.369  1.00  0.00     0.023 C 
ENDROOT
BRANCH   1   3
ATOM      3  C   UNL     1       9.597  75.646  -2.306  1.00  0.00     0.140 C 
BRANCH   3   4
ATOM      4  O   UNL     1       9.636  74.304  -2.782  1.00  0.00    -0.348 OA
BRANCH   4   5
ATOM      5  C   UNL     1      10.647  73.490  -2.196  1.00  0.00     0.253 C 
ATOM      6  C   UNL     1       9.761  71.377  -3.247  1.00  0.00     0.166 C 
ATOM      7  C   UNL     1      10.141  72.067  -1.931  1.00  0.00     0.098 C 
ATOM      8  C   UNL     1      10.954  71.456  -4.221  1.00  0.00     0.234 C 
ATOM      9  C   UNL     1      11.456  72.917  -4.328  1.00  0.00     0.162 C 
ATOM     10  O   UNL     1      11.781  73.444  -3.047  1.00  0.00    -0.346 OA
ATOM     11  C   UNL     1      12.706  72.998  -5.209  1.00  0.00     0.043 C 
BRANCH   6  12
ATOM     12  O   UNL     1       9.452  70.015  -2.995  1.00  0.00    -0.377 OA
ATOM     13  C   UNL     1       9.768  69.671  -1.664  1.00  0.00     0.195 C 
ENDBRANCH   6  12
BRANCH   8  14
ATOM     14  O   UNL     1      10.547  71.003  -5.517  1.00  0.00    -0.457 OA
BRANCH  14  15
ATOM     15  C   UNL     1       9.270  71.209  -6.046  1.00  0.00     0.303 C 
ATOM     16  C   UNL     1       8.726  72.594  -6.119  1.00  0.00     0.139 C 
ATOM     17  O   UNL     1       8.597  70.249  -6.511  1.00  0.00    -0.253 OA
ENDBRANCH  14  15
ENDBRANCH   8  14
ENDBRANCH   4   5
ENDBRANCH   3   4
BRANCH   3  18
ATOM     18  C   UNL     1      10.537  76.533  -3.205  1.00  0.00     0.045 C 
ATOM     19  C   UNL     1      11.441  75.656  -4.097  1.00  0.00     0.013 C 
BRANCH  18  20
ATOM     20  C   UNL     1      11.365  77.551  -2.358  1.00  0.00     0.130 C 
BRANCH  20  21
ATOM     21  O   UNL     1      11.927  78.538  -3.217  1.00  0.00    -0.345 OA
BRANCH  21  22
ATOM     22  C   UNL     1      13.326  78.699  -3.063  1.00  0.00     0.293 C 
ATOM     23  O   UNL     1      13.588  79.159  -1.749  1.00  0.00    -0.346 OA
ATOM     24  C   UNL     1      13.784  79.742  -4.099  1.00  0.00     0.249 C 
ATOM     25  C   UNL     1      14.982  79.278  -1.524  1.00  0.00     0.120 C 
ATOM     26  C   UNL     1      15.285  80.050  -3.902  1.00  0.00     0.105 C 
ATOM     27  C   UNL     1      15.208  79.616  -0.051  1.00  0.00     0.039 C 
ATOM     28  C   UNL     1      15.567  80.386  -2.420  1.00  0.00     0.055 C 
BRANCH  24  29
ATOM     29  O   UNL     1      13.562  79.202  -5.403  1.00  0.00    -0.455 OA
BRANCH  29  30
ATOM     30  C   UNL     1      14.248  78.099  -5.924  1.00  0.00     0.303 C 
ATOM     31  C   UNL     1      14.107  76.770  -5.260  1.00  0.00     0.139 C 
ATOM     32  O   UNL     1      14.932  78.199  -6.979  1.00  0.00    -0.253 OA
ENDBRANCH  29  30
ENDBRANCH  24  29
BRANCH  26  33
ATOM     33  N   UNL     1      15.749  81.088  -4.863  1.00  0.00    -0.303 NA
ATOM     34  C   UNL     1      14.636  81.631  -5.659  1.00  0.00     0.105 C 
ATOM     35  C   UNL     1      16.849  80.665  -5.751  1.00  0.00     0.105 C 
ENDBRANCH  26  33
ENDBRANCH  21  22
ENDBRANCH  20  21
BRANCH  20  36
ATOM     36  C   UNL     1      10.461  78.215  -1.253  1.00  0.00     0.019 C 
ATOM     37  C   UNL     1      11.136  78.119   0.125  1.00  0.00     0.010 C 
BRANCH  36  38
ATOM     38  C   UNL     1      10.071  79.690  -1.542  1.00  0.00     0.052 C 
BRANCH  38  39
ATOM     39  C   UNL     1       8.559  79.980  -1.389  1.00  0.00     0.150 CG0
ATOM     40  C   UNL     1       7.791  80.459  -2.576  1.00  0.00     0.205 C 
ATOM     41  O   UNL     1       8.325  81.351  -1.630  1.00  0.00    -0.361 OA
ATOM     42  G   UNL     1       7.861  79.575  -0.093  1.00  0.00     0.000 G0
ENDBRANCH  38  39
ENDBRANCH  36  38
ENDBRANCH  20  36
ENDBRANCH  18  20
ENDBRANCH   3  18
ENDBRANCH   1   3
BRANCH   1  43
ATOM     43  C   UNL     1       7.067  74.965  -2.352  1.00  0.00     0.311 C 
ATOM     44  O   UNL     1       6.562  74.643  -3.460  1.00  0.00    -0.252 OA
BRANCH  43  45
ATOM     45  O   UNL     1       6.685  74.285  -1.191  1.00  0.00    -0.462 OA
BRANCH  45  46
ATOM     46  C   UNL     1       6.393  74.970   0.025  1.00  0.00     0.180 C 
ATOM     47  C   UNL     1       4.935  75.452   0.037  1.00  0.00     0.053 C 
BRANCH  46  48
ATOM     48  C   UNL     1       7.463  76.080   0.264  1.00  0.00     0.068 C 
ATOM     49  C   UNL     1       8.682  75.499   1.005  1.00  0.00     0.015 C 
BRANCH  48  50
ATOM     50  C   UNL     1       6.974  77.384   0.968  1.00  0.00     0.193 C 
BRANCH  50  51
ATOM     51  C   UNL     1       6.696  78.580   0.005  1.00  0.00     0.097 C 
ATOM     52  C   UNL     1       5.436  79.328   0.482  1.00  0.00     0.020 C 
BRANCH  51  53
ATOM     53  C   UNL     1       7.862  79.566  -0.076  1.00  0.00     0.173 CG0
ATOM     54  O   UNL     1       8.193  80.168   0.933  1.00  0.00    -0.296 OA
ATOM     55  G   UNL     1       8.530  79.955  -1.392  1.00  0.00     0.000 G0
ENDBRANCH  51  53
ENDBRANCH  50  51
BRANCH  50  56
ATOM     56  O   UNL     1       5.805  77.111   1.747  1.00  0.00    -0.461 OA
BRANCH  56  57
ATOM     57  C   UNL     1       5.546  77.664   3.009  1.00  0.00     0.302 C 
ATOM     58  C   UNL     1       4.214  77.429   3.639  1.00  0.00     0.139 C 
ATOM     59  O   UNL     1       6.393  78.400   3.585  1.00  0.00    -0.253 OA
ENDBRANCH  56  57
ENDBRANCH  50  56
ENDBRANCH  48  50
ENDBRANCH  46  48
ENDBRANCH  45  46
ENDBRANCH  43  45
ENDBRANCH   1  43
TORSDOF 12
ENDMDL
MODEL 14
REMARK VINA RESULT:    -0.606      2.129      6.193
REMARK INTER + INTRA:          -0.850
REMARK INTER:                  -6.057
REMARK INTRA:                   5.207
REMARK UNBOUND:                 0.641
REMARK SMILES CO[C@H]1C[C@H](O[C@H]2[C@H](C)[C@@H](O[C@@H]3O[C@H](C)C[C@H](N(C)C)[C@H]3OC(C)=O)[C@@H](C)C[C@@]3(CO3)C(=O)[C@H](C)[C@@H](OC(C)=O)[C@@H](C)[C@@H](C)OC(=O)[C@@H]2C)O[C@@H](C)[C@@H]1OC(C)=O
REMARK SMILES IDX 48 1 49 2 7 3 6 4 5 5 3 6 4 7 53 8 51 9 50 10 52 11 2 12
REMARK SMILES IDX 1 13 54 14 55 15 56 16 57 17 8 18 9 19 10 20 11 21 12 22
REMARK SMILES IDX 13 23 21 24 14 25 17 26 15 27 16 28 22 29 23 30 24 31 25 32
REMARK SMILES IDX 18 33 19 34 20 35 26 36 27 37 28 38 29 39 30 40 31 41 46 43
REMARK SMILES IDX 47 44 45 45 43 46 44 47 41 48 42 49 36 50 34 51 35 52 32 53
REMARK SMILES IDX 33 54 37 56 38 57 39 58 40 59
REMARK H PARENT
REMARK Flexibility Score: 70.00
ROOT
ATOM      1  C   UNL     1      13.521  79.366  -1.982  1.00  0.00     0.125 C 
ATOM      2  C   UNL     1      15.035  79.428  -1.723  1.00  0.00     0.023 C 
ENDROOT
BRANCH   1   3
ATOM      3  C   UNL     1      13.195  78.735  -3.390  1.00  0.00     0.140 C 
BRANCH   3   4
ATOM      4  O   UNL     1      14.310  79.002  -4.235  1.00  0.00    -0.348 OA
BRANCH   4   5
ATOM      5  C   UNL     1      13.986  79.214  -5.606  1.00  0.00     0.253 C 
ATOM      6  C   UNL     1      15.315  81.353  -5.741  1.00  0.00     0.166 C 
ATOM      7  C   UNL     1      13.938  80.708  -5.948  1.00  0.00     0.098 C 
ATOM      8  C   UNL     1      16.371  80.552  -6.531  1.00  0.00     0.234 C 
ATOM      9  C   UNL     1      16.257  79.045  -6.193  1.00  0.00     0.162 C 
ATOM     10  O   UNL     1      14.939  78.563  -6.431  1.00  0.00    -0.346 OA
ATOM     11  C   UNL     1      17.227  78.224  -7.047  1.00  0.00     0.043 C 
BRANCH   6  12
ATOM     12  O   UNL     1      15.287  82.689  -6.218  1.00  0.00    -0.377 OA
ATOM     13  C   UNL     1      14.279  83.429  -5.567  1.00  0.00     0.195 C 
ENDBRANCH   6  12
BRANCH   8  14
ATOM     14  O   UNL     1      17.681  81.014  -6.185  1.00  0.00    -0.457 OA
BRANCH  14  15
ATOM     15  C   UNL     1      18.549  81.636  -7.088  1.00  0.00     0.303 C 
ATOM     16  C   UNL     1      18.061  81.973  -8.454  1.00  0.00     0.139 C 
ATOM     17  O   UNL     1      19.717  81.965  -6.744  1.00  0.00    -0.253 OA
ENDBRANCH  14  15
ENDBRANCH   8  14
ENDBRANCH   4   5
ENDBRANCH   3   4
BRANCH   3  18
ATOM     18  C   UNL     1      12.918  77.185  -3.387  1.00  0.00     0.045 C 
ATOM     19  C   UNL     1      13.677  76.484  -4.533  1.00  0.00     0.013 C 
BRANCH  18  20
ATOM     20  C   UNL     1      11.390  76.865  -3.417  1.00  0.00     0.130 C 
BRANCH  20  21
ATOM     21  O   UNL     1      11.199  75.494  -3.752  1.00  0.00    -0.345 OA
BRANCH  21  22
ATOM     22  C   UNL     1      10.298  74.816  -2.892  1.00  0.00     0.293 C 
ATOM     23  O   UNL     1      10.570  75.202  -1.556  1.00  0.00    -0.346 OA
ATOM     24  C   UNL     1      10.538  73.307  -3.074  1.00  0.00     0.249 C 
ATOM     25  C   UNL     1       9.654  74.598  -0.660  1.00  0.00     0.120 C 
ATOM     26  C   UNL     1       9.667  72.514  -2.075  1.00  0.00     0.105 C 
ATOM     27  C   UNL     1       9.889  75.175   0.736  1.00  0.00     0.039 C 
ATOM     28  C   UNL     1       9.860  73.072  -0.646  1.00  0.00     0.055 C 
BRANCH  24  29
ATOM     29  O   UNL     1      10.185  72.959  -4.414  1.00  0.00    -0.455 OA
BRANCH  29  30
ATOM     30  C   UNL     1      11.070  72.389  -5.338  1.00  0.00     0.303 C 
ATOM     31  C   UNL     1      12.464  72.911  -5.434  1.00  0.00     0.139 C 
ATOM     32  O   UNL     1      10.724  71.403  -6.045  1.00  0.00    -0.253 OA
ENDBRANCH  29  30
ENDBRANCH  24  29
BRANCH  26  33
ATOM     33  N   UNL     1       9.907  71.050  -2.198  1.00  0.00    -0.303 NA
ATOM     34  C   UNL     1      11.330  70.715  -2.031  1.00  0.00     0.105 C 
ATOM     35  C   UNL     1       9.382  70.437  -3.433  1.00  0.00     0.105 C 
ENDBRANCH  26  33
ENDBRANCH  21  22
ENDBRANCH  20  21
BRANCH  20  36
ATOM     36  C   UNL     1      10.726  77.205  -2.031  1.00  0.00     0.019 C 
ATOM     37  C   UNL     1      11.785  77.710  -1.036  1.00  0.00     0.010 C 
BRANCH  36  38
ATOM     38  C   UNL     1       9.556  78.224  -2.112  1.00  0.00     0.052 C 
BRANCH  38  39
ATOM     39  C   UNL     1       8.187  77.639  -1.692  1.00  0.00     0.150 CG0
ATOM     40  C   UNL     1       7.506  76.669  -2.601  1.00  0.00     0.205 C 
ATOM     41  O   UNL     1       7.208  78.042  -2.625  1.00  0.00    -0.361 OA
ATOM     42  G   UNL     1       7.673  77.911  -0.280  1.00  0.00     0.000 G0
ENDBRANCH  38  39
ENDBRANCH  36  38
ENDBRANCH  20  36
ENDBRANCH  18  20
ENDBRANCH   3  18
ENDBRANCH   1   3
BRANCH   1  43
ATOM     43  C   UNL     1      12.917  80.721  -1.704  1.00  0.00     0.311 C 
ATOM     44  O   UNL     1      12.837  81.577  -2.625  1.00  0.00    -0.252 OA
BRANCH  43  45
ATOM     45  O   UNL     1      12.443  81.031  -0.425  1.00  0.00    -0.462 OA
BRANCH  45  46
ATOM     46  C   UNL     1      11.196  81.689  -0.219  1.00  0.00     0.180 C 
ATOM     47  C   UNL     1      11.409  83.051   0.459  1.00  0.00     0.053 C 
BRANCH  46  48
ATOM     48  C   UNL     1      10.217  80.724   0.520  1.00  0.00     0.068 C 
ATOM     49  C   UNL     1      11.001  79.589   1.204  1.00  0.00     0.015 C 
BRANCH  48  50
ATOM     50  C   UNL     1       9.042  80.137  -0.324  1.00  0.00     0.193 C 
BRANCH  50  51
ATOM     51  C   UNL     1       8.057  79.228   0.474  1.00  0.00     0.097 C 
ATOM     52  C   UNL     1       6.775  80.026   0.782  1.00  0.00     0.020 C 
BRANCH  51  53
ATOM     53  C   UNL     1       7.682  77.950  -0.276  1.00  0.00     0.173 CG0
ATOM     54  O   UNL     1       7.058  77.083   0.315  1.00  0.00    -0.296 OA
ATOM     55  G   UNL     1       8.187  77.634  -1.682  1.00  0.00     0.000 G0
ENDBRANCH  51  53
ENDBRANCH  50  51
BRANCH  50  56
ATOM     56  O   UNL     1       8.316  81.198  -0.956  1.00  0.00    -0.461 OA
BRANCH  56  57
ATOM     57  C   UNL     1       7.921  81.196  -2.300  1.00  0.00     0.302 C 
ATOM     58  C   UNL     1       8.916  81.578  -3.344  1.00  0.00     0.139 C 
ATOM     59  O   UNL     1       6.731  80.937  -2.631  1.00  0.00    -0.253 OA
ENDBRANCH  56  57
ENDBRANCH  50  56
ENDBRANCH  48  50
ENDBRANCH  46  48
ENDBRANCH  45  46
ENDBRANCH  43  45
ENDBRANCH   1  43
TORSDOF 12
ENDMDL
MODEL 15
REMARK VINA RESULT:    -0.556      2.295      4.370
REMARK INTER + INTRA:          -0.728
REMARK INTER:                  -4.642
REMARK INTRA:                   3.915
REMARK UNBOUND:                 0.641
REMARK SMILES CO[C@H]1C[C@H](O[C@H]2[C@H](C)[C@@H](O[C@@H]3O[C@H](C)C[C@H](N(C)C)[C@H]3OC(C)=O)[C@@H](C)C[C@@]3(CO3)C(=O)[C@H](C)[C@@H](OC(C)=O)[C@@H](C)[C@@H](C)OC(=O)[C@@H]2C)O[C@@H](C)[C@@H]1OC(C)=O
REMARK SMILES IDX 48 1 49 2 7 3 6 4 5 5 3 6 4 7 53 8 51 9 50 10 52 11 2 12
REMARK SMILES IDX 1 13 54 14 55 15 56 16 57 17 8 18 9 19 10 20 11 21 12 22
REMARK SMILES IDX 13 23 21 24 14 25 17 26 15 27 16 28 22 29 23 30 24 31 25 32
REMARK SMILES IDX 18 33 19 34 20 35 26 36 27 37 28 38 29 39 30 40 31 41 46 43
REMARK SMILES IDX 47 44 45 45 43 46 44 47 41 48 42 49 36 50 34 51 35 52 32 53
REMARK SMILES IDX 33 54 37 56 38 57 39 58 40 59
REMARK H PARENT
REMARK Flexibility Score: 70.00
ROOT
ATOM      1  C   UNL     1      11.588  75.968  -0.573  1.00  0.00     0.125 C 
ATOM      2  C   UNL     1      12.201  76.229   0.813  1.00  0.00     0.023 C 
ENDROOT
BRANCH   1   3
ATOM      3  C   UNL     1      10.729  77.193  -1.072  1.00  0.00     0.140 C 
BRANCH   3   4
ATOM      4  O   UNL     1      11.550  77.944  -1.960  1.00  0.00    -0.348 OA
BRANCH   4   5
ATOM      5  C   UNL     1      12.928  77.586  -1.950  1.00  0.00     0.253 C 
ATOM      6  C   UNL     1      13.379  78.674  -4.180  1.00  0.00     0.166 C 
ATOM      7  C   UNL     1      13.465  77.373  -3.370  1.00  0.00     0.098 C 
ATOM      8  C   UNL     1      14.081  79.803  -3.396  1.00  0.00     0.234 C 
ATOM      9  C   UNL     1      13.543  79.855  -1.945  1.00  0.00     0.162 C 
ATOM     10  O   UNL     1      13.682  78.595  -1.299  1.00  0.00    -0.346 OA
ATOM     11  C   UNL     1      14.303  80.900  -1.124  1.00  0.00     0.043 C 
BRANCH   6  12
ATOM     12  O   UNL     1      14.028  78.497  -5.429  1.00  0.00    -0.377 OA
ATOM     13  C   UNL     1      14.248  77.128  -5.687  1.00  0.00     0.195 C 
ENDBRANCH   6  12
BRANCH   8  14
ATOM     14  O   UNL     1      13.830  81.058  -4.037  1.00  0.00    -0.457 OA
BRANCH  14  15
ATOM     15  C   UNL     1      14.635  81.586  -5.052  1.00  0.00     0.303 C 
ATOM     16  C   UNL     1      16.051  81.139  -5.167  1.00  0.00     0.139 C 
ATOM     17  O   UNL     1      14.163  82.390  -5.902  1.00  0.00    -0.253 OA
ENDBRANCH  14  15
ENDBRANCH   8  14
ENDBRANCH   4   5
ENDBRANCH   3   4
BRANCH   3  18
ATOM     18  C   UNL     1       9.389  76.820  -1.810  1.00  0.00     0.045 C 
ATOM     19  C   UNL     1       9.304  77.508  -3.188  1.00  0.00     0.013 C 
BRANCH  18  20
ATOM     20  C   UNL     1       8.134  77.122  -0.929  1.00  0.00     0.130 C 
BRANCH  20  21
ATOM     21  O   UNL     1       7.333  78.112  -1.567  1.00  0.00    -0.345 OA
BRANCH  21  22
ATOM     22  C   UNL     1       7.823  79.432  -1.406  1.00  0.00     0.293 C 
ATOM     23  O   UNL     1       8.568  79.783  -2.560  1.00  0.00    -0.346 OA
ATOM     24  C   UNL     1       8.726  79.438  -0.160  1.00  0.00     0.249 C 
ATOM     25  C   UNL     1       9.029  81.119  -2.475  1.00  0.00     0.120 C 
ATOM     26  C   UNL     1       9.387  80.825   0.001  1.00  0.00     0.105 C 
ATOM     27  C   UNL     1       9.680  81.492  -3.807  1.00  0.00     0.039 C 
ATOM     28  C   UNL     1      10.049  81.253  -1.329  1.00  0.00     0.055 C 
BRANCH  24  29
ATOM     29  O   UNL     1       7.915  79.147   0.979  1.00  0.00    -0.455 OA
BRANCH  29  30
ATOM     30  C   UNL     1       6.529  79.342   1.029  1.00  0.00     0.303 C 
ATOM     31  C   UNL     1       5.688  78.409   1.833  1.00  0.00     0.139 C 
ATOM     32  O   UNL     1       5.992  80.327   0.453  1.00  0.00    -0.253 OA
ENDBRANCH  29  30
ENDBRANCH  24  29
BRANCH  26  33
ATOM     33  N   UNL     1      10.300  80.851   1.176  1.00  0.00    -0.303 NA
ATOM     34  C   UNL     1      10.842  82.198   1.417  1.00  0.00     0.105 C 
ATOM     35  C   UNL     1      11.395  79.863   1.133  1.00  0.00     0.105 C 
ENDBRANCH  26  33
ENDBRANCH  21  22
ENDBRANCH  20  21
BRANCH  20  36
ATOM     36  C   UNL     1       7.308  75.806  -0.675  1.00  0.00     0.019 C 
ATOM     37  C   UNL     1       6.581  75.879   0.679  1.00  0.00     0.010 C 
BRANCH  36  38
ATOM     38  C   UNL     1       6.290  75.460  -1.796  1.00  0.00     0.052 C 
BRANCH  38  39
ATOM     39  C   UNL     1       6.948  75.108  -3.152  1.00  0.00     0.150 CG0
ATOM     40  C   UNL     1       6.750  76.029  -4.311  1.00  0.00     0.205 C 
ATOM     41  O   UNL     1       5.937  74.900  -4.114  1.00  0.00    -0.361 OA
ATOM     42  G   UNL     1       7.939  73.949  -3.209  1.00  0.00     0.000 G0
ENDBRANCH  38  39
ENDBRANCH  36  38
ENDBRANCH  20  36
ENDBRANCH  18  20
ENDBRANCH   3  18
ENDBRANCH   1   3
BRANCH   1  43
ATOM     43  C   UNL     1      10.891  74.628  -0.560  1.00  0.00     0.311 C 
ATOM     44  O   UNL     1      10.142  74.316   0.404  1.00  0.00    -0.252 OA
BRANCH  43  45
ATOM     45  O   UNL     1      11.073  73.731  -1.617  1.00  0.00    -0.462 OA
BRANCH  45  46
ATOM     46  C   UNL     1      10.785  72.340  -1.487  1.00  0.00     0.180 C 
ATOM     47  C   UNL     1      12.084  71.526  -1.399  1.00  0.00     0.053 C 
BRANCH  46  48
ATOM     48  C   UNL     1       9.804  71.907  -2.620  1.00  0.00     0.068 C 
ATOM     49  C   UNL     1       9.819  70.377  -2.785  1.00  0.00     0.015 C 
BRANCH  48  50
ATOM     50  C   UNL     1       9.984  72.602  -4.006  1.00  0.00     0.193 C 
BRANCH  50  51
ATOM     51  C   UNL     1       8.888  73.656  -4.354  1.00  0.00     0.097 C 
ATOM     52  C   UNL     1       8.072  73.154  -5.561  1.00  0.00     0.020 C 
BRANCH  51  53
ATOM     53  C   UNL     1       7.937  73.937  -3.190  1.00  0.00     0.173 CG0
ATOM     54  O   UNL     1       7.867  73.126  -2.280  1.00  0.00    -0.296 OA
ATOM     55  G   UNL     1       6.951  75.102  -3.186  1.00  0.00     0.000 G0
ENDBRANCH  51  53
ENDBRANCH  50  51
BRANCH  50  56
ATOM     56  O   UNL     1      11.279  73.209  -4.085  1.00  0.00    -0.461 OA
BRANCH  56  57
ATOM     57  C   UNL     1      12.187  73.003  -5.131  1.00  0.00     0.302 C 
ATOM     58  C   UNL     1      11.962  71.864  -6.068  1.00  0.00     0.139 C 
ATOM     59  O   UNL     1      13.216  73.724  -5.254  1.00  0.00    -0.253 OA
ENDBRANCH  56  57
ENDBRANCH  50  56
ENDBRANCH  48  50
ENDBRANCH  46  48
ENDBRANCH  45  46
ENDBRANCH  43  45
ENDBRANCH   1  43
TORSDOF 12
ENDMDL
