MODEL 1
REMARK VINA RESULT:    -9.310      0.000      0.000
REMARK INTER + INTRA:         -18.392
REMARK INTER:                 -16.929
REMARK INTRA:                  -1.463
REMARK UNBOUND:                -1.463
REMARK SMILES CCCCCCC(=O)Oc1ccc2c(c1)CC[C@@H]1[C@@H]2CC[C@]2(C)[C@@H](OC(=O)CCCCCC)CC[C@@H]12
REMARK SMILES IDX 24 1 34 2 35 3 36 4 18 5 17 6 16 7 14 8 15 9 10 10 11 11
REMARK SMILES IDX 12 12 13 13 19 14 20 15 21 16 22 17 23 18 25 19 26 20 27 21
REMARK SMILES IDX 28 22 29 23 30 24 31 25 32 26 33 27 9 28 7 29 8 30 6 31 5 32
REMARK SMILES IDX 4 33 3 34 2 35 1 36
REMARK H PARENT
REMARK Flexibility Score: inf
ROOT
ATOM      1  C   UNL     1      15.513  80.399  -4.577  1.00  0.00     0.182 C 
ATOM      2  C   UNL     1      14.702  81.359  -5.472  1.00  0.00     0.046 C 
ATOM      3  C   UNL     1      13.232  81.234  -5.046  1.00  0.00     0.008 C 
ATOM      4  C   UNL     1      13.293  80.408  -3.770  1.00  0.00     0.002 C 
ATOM      5  C   UNL     1      12.010  79.717  -3.268  1.00  0.00     0.001 C 
ATOM      6  C   UNL     1      10.871  80.745  -3.107  1.00  0.00     0.009 C 
ATOM      7  C   UNL     1       9.689  80.271  -2.230  1.00  0.00     0.036 C 
ATOM      8  C   UNL     1       9.807  78.868  -1.679  1.00  0.00    -0.041 A 
ATOM      9  C   UNL     1       8.637  78.201  -1.276  1.00  0.00     0.051 A 
ATOM     10  C   UNL     1       8.704  76.954  -0.633  1.00  0.00     0.131 A 
ATOM     11  C   UNL     1       9.954  76.378  -0.403  1.00  0.00     0.047 A 
ATOM     12  C   UNL     1      11.126  77.029  -0.793  1.00  0.00     0.008 A 
ATOM     13  C   UNL     1      11.070  78.274  -1.454  1.00  0.00    -0.041 A 
ATOM     14  C   UNL     1      12.316  79.023  -1.908  1.00  0.00     0.023 C 
ATOM     15  C   UNL     1      13.593  78.125  -1.980  1.00  0.00     0.009 C 
ATOM     16  C   UNL     1      14.816  78.823  -2.623  1.00  0.00     0.011 C 
ATOM     17  C   UNL     1      14.456  79.434  -3.993  1.00  0.00     0.008 C 
ATOM     18  C   UNL     1      14.147  78.304  -5.024  1.00  0.00     0.015 C 
ENDROOT
BRANCH   1  19
ATOM     19  O   UNL     1      16.519  79.739  -5.350  1.00  0.00    -0.462 OA
BRANCH  19  20
ATOM     20  C   UNL     1      17.878  80.076  -5.303  1.00  0.00     0.306 C 
ATOM     21  O   UNL     1      18.767  79.224  -5.574  1.00  0.00    -0.252 OA
BRANCH  20  22
ATOM     22  C   UNL     1      18.275  81.450  -4.869  1.00  0.00     0.123 C 
BRANCH  22  23
ATOM     23  C   UNL     1      19.749  81.705  -5.206  1.00  0.00     0.012 C 
BRANCH  23  24
ATOM     24  C   UNL     1      19.888  82.695  -6.368  1.00  0.00     0.001 C 
BRANCH  24  25
ATOM     25  C   UNL     1      19.499  82.033  -7.702  1.00  0.00    -0.000 C 
BRANCH  25  26
ATOM     26  C   UNL     1      18.104  82.457  -8.190  1.00  0.00    -0.003 C 
ATOM     27  C   UNL     1      17.222  81.261  -8.548  1.00  0.00     0.004 C 
ENDBRANCH  25  26
ENDBRANCH  24  25
ENDBRANCH  23  24
ENDBRANCH  22  23
ENDBRANCH  20  22
ENDBRANCH  19  20
ENDBRANCH   1  19
BRANCH  10  28
ATOM     28  O   UNL     1       7.563  76.234  -0.237  1.00  0.00    -0.427 OA
BRANCH  28  29
ATOM     29  C   UNL     1       7.074  75.062  -0.830  1.00  0.00     0.311 C 
ATOM     30  O   UNL     1       6.367  74.245  -0.183  1.00  0.00    -0.252 OA
BRANCH  29  31
ATOM     31  C   UNL     1       7.480  74.738  -2.234  1.00  0.00     0.123 C 
BRANCH  31  32
ATOM     32  C   UNL     1       8.432  73.533  -2.262  1.00  0.00     0.012 C 
BRANCH  32  33
ATOM     33  C   UNL     1       9.414  73.567  -3.446  1.00  0.00     0.001 C 
BRANCH  33  34
ATOM     34  C   UNL     1      10.425  72.406  -3.485  1.00  0.00    -0.000 C 
BRANCH  34  35
ATOM     35  C   UNL     1       9.835  71.116  -4.077  1.00  0.00    -0.003 C 
ATOM     36  C   UNL     1       9.468  71.305  -5.546  1.00  0.00     0.004 C 
ENDBRANCH  34  35
ENDBRANCH  33  34
ENDBRANCH  32  33
ENDBRANCH  31  32
ENDBRANCH  29  31
ENDBRANCH  28  29
ENDBRANCH  10  28
TORSDOF 14
ENDMDL
MODEL 2
REMARK VINA RESULT:    -9.161      1.496      9.612
REMARK INTER + INTRA:         -18.122
REMARK INTER:                 -15.638
REMARK INTRA:                  -2.484
REMARK UNBOUND:                -1.463
REMARK SMILES CCCCCCC(=O)Oc1ccc2c(c1)CC[C@@H]1[C@@H]2CC[C@]2(C)[C@@H](OC(=O)CCCCCC)CC[C@@H]12
REMARK SMILES IDX 24 1 34 2 35 3 36 4 18 5 17 6 16 7 14 8 15 9 10 10 11 11
REMARK SMILES IDX 12 12 13 13 19 14 20 15 21 16 22 17 23 18 25 19 26 20 27 21
REMARK SMILES IDX 28 22 29 23 30 24 31 25 32 26 33 27 9 28 7 29 8 30 6 31 5 32
REMARK SMILES IDX 4 33 3 34 2 35 1 36
REMARK H PARENT
REMARK Flexibility Score: inf
ROOT
ATOM      1  C   UNL     1       9.491  77.219  -0.684  1.00  0.00     0.182 C 
ATOM      2  C   UNL     1      10.382  76.160  -0.002  1.00  0.00     0.046 C 
ATOM      3  C   UNL     1      11.836  76.496  -0.364  1.00  0.00     0.008 C 
ATOM      4  C   UNL     1      11.739  77.866  -1.020  1.00  0.00     0.002 C 
ATOM      5  C   UNL     1      12.912  78.361  -1.889  1.00  0.00     0.001 C 
ATOM      6  C   UNL     1      14.231  78.316  -1.091  1.00  0.00     0.009 C 
ATOM      7  C   UNL     1      15.380  79.161  -1.689  1.00  0.00     0.036 C 
ATOM      8  C   UNL     1      15.053  79.887  -2.974  1.00  0.00    -0.041 A 
ATOM      9  C   UNL     1      16.112  80.289  -3.808  1.00  0.00     0.051 A 
ATOM     10  C   UNL     1      15.873  81.084  -4.942  1.00  0.00     0.131 A 
ATOM     11  C   UNL     1      14.564  81.468  -5.236  1.00  0.00     0.047 A 
ATOM     12  C   UNL     1      13.503  81.081  -4.415  1.00  0.00     0.008 A 
ATOM     13  C   UNL     1      13.729  80.269  -3.283  1.00  0.00    -0.041 A 
ATOM     14  C   UNL     1      12.606  79.813  -2.360  1.00  0.00     0.023 C 
ATOM     15  C   UNL     1      11.184  79.940  -2.994  1.00  0.00     0.009 C 
ATOM     16  C   UNL     1      10.058  79.301  -2.145  1.00  0.00     0.011 C 
ATOM     17  C   UNL     1      10.400  77.845  -1.767  1.00  0.00     0.008 C 
ATOM     18  C   UNL     1      10.400  76.942  -3.041  1.00  0.00     0.015 C 
ENDROOT
BRANCH   1  19
ATOM     19  O   UNL     1       8.315  76.605  -1.215  1.00  0.00    -0.462 OA
BRANCH  19  20
ATOM     20  C   UNL     1       8.004  75.249  -1.044  1.00  0.00     0.306 C 
ATOM     21  O   UNL     1       7.606  74.811   0.069  1.00  0.00    -0.252 OA
BRANCH  20  22
ATOM     22  C   UNL     1       8.204  74.305  -2.185  1.00  0.00     0.123 C 
BRANCH  22  23
ATOM     23  C   UNL     1       9.347  73.331  -1.871  1.00  0.00     0.012 C 
BRANCH  23  24
ATOM     24  C   UNL     1      10.248  73.123  -3.092  1.00  0.00     0.001 C 
BRANCH  24  25
ATOM     25  C   UNL     1      10.521  71.627  -3.325  1.00  0.00    -0.000 C 
BRANCH  25  26
ATOM     26  C   UNL     1       9.690  71.045  -4.479  1.00  0.00    -0.003 C 
ATOM     27  C   UNL     1       9.296  72.104  -5.508  1.00  0.00     0.004 C 
ENDBRANCH  25  26
ENDBRANCH  24  25
ENDBRANCH  23  24
ENDBRANCH  22  23
ENDBRANCH  20  22
ENDBRANCH  19  20
ENDBRANCH   1  19
BRANCH  10  28
ATOM     28  O   UNL     1      16.892  81.486  -5.823  1.00  0.00    -0.427 OA
BRANCH  28  29
ATOM     29  C   UNL     1      16.778  81.632  -7.213  1.00  0.00     0.311 C 
ATOM     30  O   UNL     1      16.010  82.491  -7.721  1.00  0.00    -0.252 OA
BRANCH  29  31
ATOM     31  C   UNL     1      17.518  80.683  -8.103  1.00  0.00     0.123 C 
BRANCH  31  32
ATOM     32  C   UNL     1      17.802  79.362  -7.374  1.00  0.00     0.012 C 
BRANCH  32  33
ATOM     33  C   UNL     1      16.732  78.287  -7.635  1.00  0.00     0.001 C 
BRANCH  33  34
ATOM     34  C   UNL     1      16.024  77.756  -6.375  1.00  0.00    -0.000 C 
BRANCH  34  35
ATOM     35  C   UNL     1      14.519  78.068  -6.354  1.00  0.00    -0.003 C 
ATOM     36  C   UNL     1      13.820  77.320  -5.223  1.00  0.00     0.004 C 
ENDBRANCH  34  35
ENDBRANCH  33  34
ENDBRANCH  32  33
ENDBRANCH  31  32
ENDBRANCH  29  31
ENDBRANCH  28  29
ENDBRANCH  10  28
TORSDOF 14
ENDMDL
MODEL 3
REMARK VINA RESULT:    -9.027      1.009     10.312
REMARK INTER + INTRA:         -17.878
REMARK INTER:                 -16.679
REMARK INTRA:                  -1.199
REMARK UNBOUND:                -1.463
REMARK SMILES CCCCCCC(=O)Oc1ccc2c(c1)CC[C@@H]1[C@@H]2CC[C@]2(C)[C@@H](OC(=O)CCCCCC)CC[C@@H]12
REMARK SMILES IDX 24 1 34 2 35 3 36 4 18 5 17 6 16 7 14 8 15 9 10 10 11 11
REMARK SMILES IDX 12 12 13 13 19 14 20 15 21 16 22 17 23 18 25 19 26 20 27 21
REMARK SMILES IDX 28 22 29 23 30 24 31 25 32 26 33 27 9 28 7 29 8 30 6 31 5 32
REMARK SMILES IDX 4 33 3 34 2 35 1 36
REMARK H PARENT
REMARK Flexibility Score: inf
ROOT
ATOM      1  C   UNL     1       8.744  77.100  -0.548  1.00  0.00     0.182 C 
ATOM      2  C   UNL     1       9.588  75.963   0.065  1.00  0.00     0.046 C 
ATOM      3  C   UNL     1      11.049  76.228  -0.329  1.00  0.00     0.008 C 
ATOM      4  C   UNL     1      11.016  77.626  -0.929  1.00  0.00     0.002 C 
ATOM      5  C   UNL     1      12.191  78.085  -1.813  1.00  0.00     0.001 C 
ATOM      6  C   UNL     1      13.527  77.931  -1.058  1.00  0.00     0.009 C 
ATOM      7  C   UNL     1      14.707  78.731  -1.658  1.00  0.00     0.036 C 
ATOM      8  C   UNL     1      14.388  79.526  -2.904  1.00  0.00    -0.041 A 
ATOM      9  C   UNL     1      15.445  79.898  -3.754  1.00  0.00     0.051 A 
ATOM     10  C   UNL     1      15.223  80.750  -4.848  1.00  0.00     0.131 A 
ATOM     11  C   UNL     1      13.931  81.222  -5.087  1.00  0.00     0.047 A 
ATOM     12  C   UNL     1      12.872  80.865  -4.250  1.00  0.00     0.008 A 
ATOM     13  C   UNL     1      13.081  79.997  -3.157  1.00  0.00    -0.041 A 
ATOM     14  C   UNL     1      11.960  79.571  -2.218  1.00  0.00     0.023 C 
ATOM     15  C   UNL     1      10.530  79.806  -2.803  1.00  0.00     0.009 C 
ATOM     16  C   UNL     1       9.393  79.201  -1.945  1.00  0.00     0.011 C 
ATOM     17  C   UNL     1       9.658  77.714  -1.635  1.00  0.00     0.008 C 
ATOM     18  C   UNL     1       9.567  76.864  -2.941  1.00  0.00     0.015 C 
ENDROOT
BRANCH   1  19
ATOM     19  O   UNL     1       7.518  76.577  -1.067  1.00  0.00    -0.462 OA
BRANCH  19  20
ATOM     20  C   UNL     1       7.209  75.211  -1.096  1.00  0.00     0.306 C 
ATOM     21  O   UNL     1       6.842  74.607  -0.051  1.00  0.00    -0.252 OA
BRANCH  20  22
ATOM     22  C   UNL     1       7.372  74.452  -2.373  1.00  0.00     0.123 C 
BRANCH  22  23
ATOM     23  C   UNL     1       8.554  73.480  -2.262  1.00  0.00     0.012 C 
BRANCH  23  24
ATOM     24  C   UNL     1       9.240  73.285  -3.618  1.00  0.00     0.001 C 
BRANCH  24  25
ATOM     25  C   UNL     1       9.709  71.830  -3.792  1.00  0.00    -0.000 C 
BRANCH  25  26
ATOM     26  C   UNL     1      10.330  71.569  -5.173  1.00  0.00    -0.003 C 
ATOM     27  C   UNL     1      11.489  72.516  -5.482  1.00  0.00     0.004 C 
ENDBRANCH  25  26
ENDBRANCH  24  25
ENDBRANCH  23  24
ENDBRANCH  22  23
ENDBRANCH  20  22
ENDBRANCH  19  20
ENDBRANCH   1  19
BRANCH  10  28
ATOM     28  O   UNL     1      16.239  81.127  -5.744  1.00  0.00    -0.427 OA
BRANCH  28  29
ATOM     29  C   UNL     1      16.658  80.410  -6.873  1.00  0.00     0.311 C 
ATOM     30  O   UNL     1      16.858  79.167  -6.824  1.00  0.00    -0.252 OA
BRANCH  29  31
ATOM     31  C   UNL     1      16.958  81.157  -8.135  1.00  0.00     0.123 C 
BRANCH  31  32
ATOM     32  C   UNL     1      17.975  82.278  -7.875  1.00  0.00     0.012 C 
BRANCH  32  33
ATOM     33  C   UNL     1      19.322  81.759  -7.339  1.00  0.00     0.001 C 
BRANCH  33  34
ATOM     34  C   UNL     1      19.968  82.635  -6.251  1.00  0.00    -0.000 C 
BRANCH  34  35
ATOM     35  C   UNL     1      19.791  82.064  -4.835  1.00  0.00    -0.003 C 
ATOM     36  C   UNL     1      19.621  80.548  -4.874  1.00  0.00     0.004 C 
ENDBRANCH  34  35
ENDBRANCH  33  34
ENDBRANCH  32  33
ENDBRANCH  31  32
ENDBRANCH  29  31
ENDBRANCH  28  29
ENDBRANCH  10  28
TORSDOF 14
ENDMDL
MODEL 4
REMARK VINA RESULT:    -8.921      2.151     10.824
REMARK INTER + INTRA:         -17.685
REMARK INTER:                 -17.021
REMARK INTRA:                  -0.664
REMARK UNBOUND:                -1.463
REMARK SMILES CCCCCCC(=O)Oc1ccc2c(c1)CC[C@@H]1[C@@H]2CC[C@]2(C)[C@@H](OC(=O)CCCCCC)CC[C@@H]12
REMARK SMILES IDX 24 1 34 2 35 3 36 4 18 5 17 6 16 7 14 8 15 9 10 10 11 11
REMARK SMILES IDX 12 12 13 13 19 14 20 15 21 16 22 17 23 18 25 19 26 20 27 21
REMARK SMILES IDX 28 22 29 23 30 24 31 25 32 26 33 27 9 28 7 29 8 30 6 31 5 32
REMARK SMILES IDX 4 33 3 34 2 35 1 36
REMARK H PARENT
REMARK Flexibility Score: inf
ROOT
ATOM      1  C   UNL     1       9.933  78.776  -0.483  1.00  0.00     0.182 C 
ATOM      2  C   UNL     1       9.277  77.602  -1.238  1.00  0.00     0.046 C 
ATOM      3  C   UNL     1      10.158  77.308  -2.462  1.00  0.00     0.008 C 
ATOM      4  C   UNL     1      11.404  78.148  -2.222  1.00  0.00     0.002 C 
ATOM      5  C   UNL     1      12.338  78.452  -3.409  1.00  0.00     0.001 C 
ATOM      6  C   UNL     1      12.780  77.143  -4.097  1.00  0.00     0.009 C 
ATOM      7  C   UNL     1      14.020  77.277  -5.011  1.00  0.00     0.036 C 
ATOM      8  C   UNL     1      14.604  78.668  -5.117  1.00  0.00    -0.041 A 
ATOM      9  C   UNL     1      15.407  78.979  -6.229  1.00  0.00     0.051 A 
ATOM     10  C   UNL     1      16.083  80.207  -6.307  1.00  0.00     0.131 A 
ATOM     11  C   UNL     1      15.942  81.126  -5.265  1.00  0.00     0.047 A 
ATOM     12  C   UNL     1      15.152  80.830  -4.153  1.00  0.00     0.008 A 
ATOM     13  C   UNL     1      14.456  79.606  -4.070  1.00  0.00    -0.041 A 
ATOM     14  C   UNL     1      13.575  79.238  -2.883  1.00  0.00     0.023 C 
ATOM     15  C   UNL     1      13.164  80.463  -2.006  1.00  0.00     0.009 C 
ATOM     16  C   UNL     1      12.115  80.132  -0.916  1.00  0.00     0.011 C 
ATOM     17  C   UNL     1      10.892  79.410  -1.517  1.00  0.00     0.008 C 
ATOM     18  C   UNL     1      10.098  80.377  -2.450  1.00  0.00     0.015 C 
ENDROOT
BRANCH   1  19
ATOM     19  O   UNL     1       8.929  79.680  -0.013  1.00  0.00    -0.462 OA
BRANCH  19  20
ATOM     20  C   UNL     1       7.555  79.475  -0.195  1.00  0.00     0.306 C 
ATOM     21  O   UNL     1       7.005  79.715  -1.303  1.00  0.00    -0.252 OA
BRANCH  20  22
ATOM     22  C   UNL     1       6.725  79.020   0.962  1.00  0.00     0.123 C 
BRANCH  22  23
ATOM     23  C   UNL     1       5.990  77.722   0.606  1.00  0.00     0.012 C 
BRANCH  23  24
ATOM     24  C   UNL     1       6.974  76.563   0.416  1.00  0.00     0.001 C 
BRANCH  24  25
ATOM     25  C   UNL     1       6.225  75.238   0.187  1.00  0.00    -0.000 C 
BRANCH  25  26
ATOM     26  C   UNL     1       6.279  74.771  -1.276  1.00  0.00    -0.003 C 
ATOM     27  C   UNL     1       7.696  74.419  -1.726  1.00  0.00     0.004 C 
ENDBRANCH  25  26
ENDBRANCH  24  25
ENDBRANCH  23  24
ENDBRANCH  22  23
ENDBRANCH  20  22
ENDBRANCH  19  20
ENDBRANCH   1  19
BRANCH  10  28
ATOM     28  O   UNL     1      16.873  80.577  -7.410  1.00  0.00    -0.427 OA
BRANCH  28  29
ATOM     29  C   UNL     1      17.063  81.879  -7.896  1.00  0.00     0.311 C 
ATOM     30  O   UNL     1      16.150  82.744  -7.827  1.00  0.00    -0.252 OA
BRANCH  29  31
ATOM     31  C   UNL     1      18.346  82.212  -8.589  1.00  0.00     0.123 C 
BRANCH  31  32
ATOM     32  C   UNL     1      19.550  81.723  -7.771  1.00  0.00     0.012 C 
BRANCH  32  33
ATOM     33  C   UNL     1      20.308  82.864  -7.069  1.00  0.00     0.001 C 
BRANCH  33  34
ATOM     34  C   UNL     1      20.580  82.638  -5.571  1.00  0.00    -0.000 C 
BRANCH  34  35
ATOM     35  C   UNL     1      19.416  81.942  -4.847  1.00  0.00    -0.003 C 
ATOM     36  C   UNL     1      19.590  80.426  -4.861  1.00  0.00     0.004 C 
ENDBRANCH  34  35
ENDBRANCH  33  34
ENDBRANCH  32  33
ENDBRANCH  31  32
ENDBRANCH  29  31
ENDBRANCH  28  29
ENDBRANCH  10  28
TORSDOF 14
ENDMDL
MODEL 5
REMARK VINA RESULT:    -8.274      0.893     10.537
REMARK INTER + INTRA:         -16.508
REMARK INTER:                 -15.210
REMARK INTRA:                  -1.298
REMARK UNBOUND:                -1.463
REMARK SMILES CCCCCCC(=O)Oc1ccc2c(c1)CC[C@@H]1[C@@H]2CC[C@]2(C)[C@@H](OC(=O)CCCCCC)CC[C@@H]12
REMARK SMILES IDX 24 1 34 2 35 3 36 4 18 5 17 6 16 7 14 8 15 9 10 10 11 11
REMARK SMILES IDX 12 12 13 13 19 14 20 15 21 16 22 17 23 18 25 19 26 20 27 21
REMARK SMILES IDX 28 22 29 23 30 24 31 25 32 26 33 27 9 28 7 29 8 30 6 31 5 32
REMARK SMILES IDX 4 33 3 34 2 35 1 36
REMARK H PARENT
REMARK Flexibility Score: inf
ROOT
ATOM      1  C   UNL     1       8.583  77.057  -0.501  1.00  0.00     0.182 C 
ATOM      2  C   UNL     1       9.408  75.934   0.161  1.00  0.00     0.046 C 
ATOM      3  C   UNL     1      10.881  76.194  -0.188  1.00  0.00     0.008 C 
ATOM      4  C   UNL     1      10.866  77.581  -0.815  1.00  0.00     0.002 C 
ATOM      5  C   UNL     1      12.070  78.026  -1.668  1.00  0.00     0.001 C 
ATOM      6  C   UNL     1      13.380  77.888  -0.865  1.00  0.00     0.009 C 
ATOM      7  C   UNL     1      14.578  78.679  -1.440  1.00  0.00     0.036 C 
ATOM      8  C   UNL     1      14.301  79.450  -2.711  1.00  0.00    -0.041 A 
ATOM      9  C   UNL     1      15.385  79.808  -3.532  1.00  0.00     0.051 A 
ATOM     10  C   UNL     1      15.198  80.639  -4.649  1.00  0.00     0.131 A 
ATOM     11  C   UNL     1      13.915  81.104  -4.940  1.00  0.00     0.047 A 
ATOM     12  C   UNL     1      12.829  80.761  -4.132  1.00  0.00     0.008 A 
ATOM     13  C   UNL     1      13.002  79.914  -3.017  1.00  0.00    -0.041 A 
ATOM     14  C   UNL     1      11.850  79.503  -2.109  1.00  0.00     0.023 C 
ATOM     15  C   UNL     1      10.441  79.724  -2.746  1.00  0.00     0.009 C 
ATOM     16  C   UNL     1       9.276  79.133  -1.915  1.00  0.00     0.011 C 
ATOM     17  C   UNL     1       9.532  77.652  -1.568  1.00  0.00     0.008 C 
ATOM     18  C   UNL     1       9.487  76.778  -2.860  1.00  0.00     0.015 C 
ENDROOT
BRANCH   1  19
ATOM     19  O   UNL     1       7.376  76.522  -1.051  1.00  0.00    -0.462 OA
BRANCH  19  20
ATOM     20  C   UNL     1       6.655  75.474  -0.464  1.00  0.00     0.306 C 
ATOM     21  O   UNL     1       5.974  75.661   0.580  1.00  0.00    -0.252 OA
BRANCH  20  22
ATOM     22  C   UNL     1       6.746  74.105  -1.056  1.00  0.00     0.123 C 
BRANCH  22  23
ATOM     23  C   UNL     1       7.655  74.122  -2.291  1.00  0.00     0.012 C 
BRANCH  23  24
ATOM     24  C   UNL     1       8.761  73.068  -2.179  1.00  0.00     0.001 C 
BRANCH  24  25
ATOM     25  C   UNL     1       9.716  73.144  -3.383  1.00  0.00    -0.000 C 
BRANCH  25  26
ATOM     26  C   UNL     1      10.161  71.758  -3.876  1.00  0.00    -0.003 C 
ATOM     27  C   UNL     1       9.530  71.383  -5.216  1.00  0.00     0.004 C 
ENDBRANCH  25  26
ENDBRANCH  24  25
ENDBRANCH  23  24
ENDBRANCH  22  23
ENDBRANCH  20  22
ENDBRANCH  19  20
ENDBRANCH   1  19
BRANCH  10  28
ATOM     28  O   UNL     1      16.243  81.001  -5.517  1.00  0.00    -0.427 OA
BRANCH  28  29
ATOM     29  C   UNL     1      17.597  80.669  -5.370  1.00  0.00     0.311 C 
ATOM     30  O   UNL     1      18.031  79.530  -5.688  1.00  0.00    -0.252 OA
BRANCH  29  31
ATOM     31  C   UNL     1      18.522  81.661  -4.738  1.00  0.00     0.123 C 
BRANCH  31  32
ATOM     32  C   UNL     1      19.899  81.632  -5.417  1.00  0.00     0.012 C 
BRANCH  32  33
ATOM     33  C   UNL     1      20.008  82.604  -6.606  1.00  0.00     0.001 C 
BRANCH  33  34
ATOM     34  C   UNL     1      19.485  82.054  -7.945  1.00  0.00    -0.000 C 
BRANCH  34  35
ATOM     35  C   UNL     1      18.048  82.500  -8.258  1.00  0.00    -0.003 C 
ATOM     36  C   UNL     1      17.229  81.348  -8.833  1.00  0.00     0.004 C 
ENDBRANCH  34  35
ENDBRANCH  33  34
ENDBRANCH  32  33
ENDBRANCH  31  32
ENDBRANCH  29  31
ENDBRANCH  28  29
ENDBRANCH  10  28
TORSDOF 14
ENDMDL
MODEL 6
REMARK VINA RESULT:    -8.022      1.668     10.519
REMARK INTER + INTRA:         -16.051
REMARK INTER:                 -14.175
REMARK INTRA:                  -1.877
REMARK UNBOUND:                -1.463
REMARK SMILES CCCCCCC(=O)Oc1ccc2c(c1)CC[C@@H]1[C@@H]2CC[C@]2(C)[C@@H](OC(=O)CCCCCC)CC[C@@H]12
REMARK SMILES IDX 24 1 34 2 35 3 36 4 18 5 17 6 16 7 14 8 15 9 10 10 11 11
REMARK SMILES IDX 12 12 13 13 19 14 20 15 21 16 22 17 23 18 25 19 26 20 27 21
REMARK SMILES IDX 28 22 29 23 30 24 31 25 32 26 33 27 9 28 7 29 8 30 6 31 5 32
REMARK SMILES IDX 4 33 3 34 2 35 1 36
REMARK H PARENT
REMARK Flexibility Score: inf
ROOT
ATOM      1  C   UNL     1       8.132  74.941  -1.371  1.00  0.00     0.182 C 
ATOM      2  C   UNL     1       8.292  73.866  -2.465  1.00  0.00     0.046 C 
ATOM      3  C   UNL     1       9.451  74.315  -3.368  1.00  0.00     0.008 C 
ATOM      4  C   UNL     1      10.065  75.486  -2.615  1.00  0.00     0.002 C 
ATOM      5  C   UNL     1      10.979  76.465  -3.378  1.00  0.00     0.001 C 
ATOM      6  C   UNL     1      12.125  75.702  -4.075  1.00  0.00     0.009 C 
ATOM      7  C   UNL     1      13.320  76.583  -4.508  1.00  0.00     0.036 C 
ATOM      8  C   UNL     1      13.184  78.059  -4.209  1.00  0.00    -0.041 A 
ATOM      9  C   UNL     1      13.966  78.969  -4.942  1.00  0.00     0.051 A 
ATOM     10  C   UNL     1      13.980  80.335  -4.612  1.00  0.00     0.131 A 
ATOM     11  C   UNL     1      13.198  80.781  -3.545  1.00  0.00     0.047 A 
ATOM     12  C   UNL     1      12.420  79.889  -2.805  1.00  0.00     0.008 A 
ATOM     13  C   UNL     1      12.386  78.519  -3.138  1.00  0.00    -0.041 A 
ATOM     14  C   UNL     1      11.548  77.505  -2.368  1.00  0.00     0.023 C 
ATOM     15  C   UNL     1      10.426  78.154  -1.496  1.00  0.00     0.009 C 
ATOM     16  C   UNL     1       9.449  77.132  -0.866  1.00  0.00     0.011 C 
ATOM     17  C   UNL     1       8.878  76.174  -1.932  1.00  0.00     0.008 C 
ATOM     18  C   UNL     1       7.946  76.952  -2.914  1.00  0.00     0.015 C 
ENDROOT
BRANCH   1  19
ATOM     19  O   UNL     1       6.745  75.183  -1.119  1.00  0.00    -0.462 OA
BRANCH  19  20
ATOM     20  C   UNL     1       6.176  75.169   0.160  1.00  0.00     0.306 C 
ATOM     21  O   UNL     1       6.042  74.090   0.798  1.00  0.00    -0.252 OA
BRANCH  20  22
ATOM     22  C   UNL     1       5.670  76.447   0.748  1.00  0.00     0.123 C 
BRANCH  22  23
ATOM     23  C   UNL     1       6.773  77.512   0.726  1.00  0.00     0.012 C 
BRANCH  23  24
ATOM     24  C   UNL     1       6.218  78.874   0.297  1.00  0.00     0.001 C 
BRANCH  24  25
ATOM     25  C   UNL     1       7.341  79.782  -0.235  1.00  0.00    -0.000 C 
BRANCH  25  26
ATOM     26  C   UNL     1       7.192  80.095  -1.732  1.00  0.00    -0.003 C 
ATOM     27  C   UNL     1       8.450  80.726  -2.326  1.00  0.00     0.004 C 
ENDBRANCH  25  26
ENDBRANCH  24  25
ENDBRANCH  23  24
ENDBRANCH  22  23
ENDBRANCH  20  22
ENDBRANCH  19  20
ENDBRANCH   1  19
BRANCH  10  28
ATOM     28  O   UNL     1      14.721  81.289  -5.331  1.00  0.00    -0.427 OA
BRANCH  28  29
ATOM     29  C   UNL     1      16.087  81.217  -5.641  1.00  0.00     0.311 C 
ATOM     30  O   UNL     1      16.949  80.981  -4.754  1.00  0.00    -0.252 OA
BRANCH  29  31
ATOM     31  C   UNL     1      16.528  81.518  -7.039  1.00  0.00     0.123 C 
BRANCH  31  32
ATOM     32  C   UNL     1      17.468  80.422  -7.561  1.00  0.00     0.012 C 
BRANCH  32  33
ATOM     33  C   UNL     1      18.913  80.913  -7.766  1.00  0.00     0.001 C 
BRANCH  33  34
ATOM     34  C   UNL     1      19.112  82.432  -7.606  1.00  0.00    -0.000 C 
BRANCH  34  35
ATOM     35  C   UNL     1      20.260  82.790  -6.648  1.00  0.00    -0.003 C 
ATOM     36  C   UNL     1      19.992  82.251  -5.246  1.00  0.00     0.004 C 
ENDBRANCH  34  35
ENDBRANCH  33  34
ENDBRANCH  32  33
ENDBRANCH  31  32
ENDBRANCH  29  31
ENDBRANCH  28  29
ENDBRANCH  10  28
TORSDOF 14
ENDMDL
MODEL 7
REMARK VINA RESULT:    -7.977      1.870     10.654
REMARK INTER + INTRA:         -15.969
REMARK INTER:                 -14.340
REMARK INTRA:                  -1.629
REMARK UNBOUND:                -1.463
REMARK SMILES CCCCCCC(=O)Oc1ccc2c(c1)CC[C@@H]1[C@@H]2CC[C@]2(C)[C@@H](OC(=O)CCCCCC)CC[C@@H]12
REMARK SMILES IDX 24 1 34 2 35 3 36 4 18 5 17 6 16 7 14 8 15 9 10 10 11 11
REMARK SMILES IDX 12 12 13 13 19 14 20 15 21 16 22 17 23 18 25 19 26 20 27 21
REMARK SMILES IDX 28 22 29 23 30 24 31 25 32 26 33 27 9 28 7 29 8 30 6 31 5 32
REMARK SMILES IDX 4 33 3 34 2 35 1 36
REMARK H PARENT
REMARK Flexibility Score: inf
ROOT
ATOM      1  C   UNL     1       8.984  75.905  -0.249  1.00  0.00     0.182 C 
ATOM      2  C   UNL     1       9.946  75.075   0.626  1.00  0.00     0.046 C 
ATOM      3  C   UNL     1      11.361  75.617   0.374  1.00  0.00     0.008 C 
ATOM      4  C   UNL     1      11.126  76.887  -0.432  1.00  0.00     0.002 C 
ATOM      5  C   UNL     1      12.297  77.491  -1.229  1.00  0.00     0.001 C 
ATOM      6  C   UNL     1      13.508  77.740  -0.306  1.00  0.00     0.009 C 
ATOM      7  C   UNL     1      14.569  78.710  -0.875  1.00  0.00     0.036 C 
ATOM      8  C   UNL     1      14.282  79.253  -2.257  1.00  0.00    -0.041 A 
ATOM      9  C   UNL     1      15.352  79.750  -3.021  1.00  0.00     0.051 A 
ATOM     10  C   UNL     1      15.122  80.389  -4.251  1.00  0.00     0.131 A 
ATOM     11  C   UNL     1      13.811  80.520  -4.711  1.00  0.00     0.047 A 
ATOM     12  C   UNL     1      12.737  80.035  -3.962  1.00  0.00     0.008 A 
ATOM     13  C   UNL     1      12.957  79.378  -2.733  1.00  0.00    -0.041 A 
ATOM     14  C   UNL     1      11.823  78.824  -1.881  1.00  0.00     0.023 C 
ATOM     15  C   UNL     1      10.480  78.653  -2.661  1.00  0.00     0.009 C 
ATOM     16  C   UNL     1       9.379  77.913  -1.862  1.00  0.00     0.011 C 
ATOM     17  C   UNL     1       9.901  76.574  -1.300  1.00  0.00     0.008 C 
ATOM     18  C   UNL     1      10.188  75.574  -2.463  1.00  0.00     0.015 C 
ENDROOT
BRANCH   1  19
ATOM     19  O   UNL     1       7.988  75.056  -0.825  1.00  0.00    -0.462 OA
BRANCH  19  20
ATOM     20  C   UNL     1       6.643  75.064  -0.433  1.00  0.00     0.306 C 
ATOM     21  O   UNL     1       6.024  73.986  -0.220  1.00  0.00    -0.252 OA
BRANCH  20  22
ATOM     22  C   UNL     1       5.922  76.368  -0.323  1.00  0.00     0.123 C 
BRANCH  22  23
ATOM     23  C   UNL     1       5.796  76.780   1.150  1.00  0.00     0.012 C 
BRANCH  23  24
ATOM     24  C   UNL     1       6.010  78.287   1.323  1.00  0.00     0.001 C 
BRANCH  24  25
ATOM     25  C   UNL     1       6.523  78.923   0.018  1.00  0.00    -0.000 C 
BRANCH  25  26
ATOM     26  C   UNL     1       7.717  79.862   0.246  1.00  0.00    -0.003 C 
ATOM     27  C   UNL     1       7.949  80.810  -0.930  1.00  0.00     0.004 C 
ENDBRANCH  25  26
ENDBRANCH  24  25
ENDBRANCH  23  24
ENDBRANCH  22  23
ENDBRANCH  20  22
ENDBRANCH  19  20
ENDBRANCH   1  19
BRANCH  10  28
ATOM     28  O   UNL     1      16.159  80.876  -5.066  1.00  0.00    -0.427 OA
BRANCH  28  29
ATOM     29  C   UNL     1      16.337  80.609  -6.431  1.00  0.00     0.311 C 
ATOM     30  O   UNL     1      16.449  79.430  -6.859  1.00  0.00    -0.252 OA
BRANCH  29  31
ATOM     31  C   UNL     1      16.485  81.757  -7.379  1.00  0.00     0.123 C 
BRANCH  31  32
ATOM     32  C   UNL     1      17.599  81.480  -8.399  1.00  0.00     0.012 C 
BRANCH  32  33
ATOM     33  C   UNL     1      18.979  81.282  -7.748  1.00  0.00     0.001 C 
BRANCH  33  34
ATOM     34  C   UNL     1      19.773  82.578  -7.500  1.00  0.00    -0.000 C 
BRANCH  34  35
ATOM     35  C   UNL     1      20.421  82.629  -6.107  1.00  0.00    -0.003 C 
ATOM     36  C   UNL     1      19.507  82.008  -5.055  1.00  0.00     0.004 C 
ENDBRANCH  34  35
ENDBRANCH  33  34
ENDBRANCH  32  33
ENDBRANCH  31  32
ENDBRANCH  29  31
ENDBRANCH  28  29
ENDBRANCH  10  28
TORSDOF 14
ENDMDL
MODEL 8
REMARK VINA RESULT:    -7.768      1.697     10.462
REMARK INTER + INTRA:         -15.589
REMARK INTER:                 -14.156
REMARK INTRA:                  -1.432
REMARK UNBOUND:                -1.463
REMARK SMILES CCCCCCC(=O)Oc1ccc2c(c1)CC[C@@H]1[C@@H]2CC[C@]2(C)[C@@H](OC(=O)CCCCCC)CC[C@@H]12
REMARK SMILES IDX 24 1 34 2 35 3 36 4 18 5 17 6 16 7 14 8 15 9 10 10 11 11
REMARK SMILES IDX 12 12 13 13 19 14 20 15 21 16 22 17 23 18 25 19 26 20 27 21
REMARK SMILES IDX 28 22 29 23 30 24 31 25 32 26 33 27 9 28 7 29 8 30 6 31 5 32
REMARK SMILES IDX 4 33 3 34 2 35 1 36
REMARK H PARENT
REMARK Flexibility Score: inf
ROOT
ATOM      1  C   UNL     1      10.963  77.999  -1.861  1.00  0.00     0.182 C 
ATOM      2  C   UNL     1      10.734  79.414  -1.291  1.00  0.00     0.046 C 
ATOM      3  C   UNL     1      11.651  80.366  -2.073  1.00  0.00     0.008 C 
ATOM      4  C   UNL     1      12.173  79.509  -3.217  1.00  0.00     0.002 C 
ATOM      5  C   UNL     1      13.432  79.967  -3.978  1.00  0.00     0.001 C 
ATOM      6  C   UNL     1      13.246  81.402  -4.514  1.00  0.00     0.009 C 
ATOM      7  C   UNL     1      14.239  81.812  -5.626  1.00  0.00     0.036 C 
ATOM      8  C   UNL     1      15.258  80.763  -6.010  1.00  0.00    -0.041 A 
ATOM      9  C   UNL     1      16.441  81.175  -6.648  1.00  0.00     0.051 A 
ATOM     10  C   UNL     1      17.355  80.232  -7.147  1.00  0.00     0.131 A 
ATOM     11  C   UNL     1      17.077  78.873  -6.995  1.00  0.00     0.047 A 
ATOM     12  C   UNL     1      15.904  78.448  -6.368  1.00  0.00     0.008 A 
ATOM     13  C   UNL     1      14.987  79.386  -5.849  1.00  0.00    -0.041 A 
ATOM     14  C   UNL     1      13.697  78.976  -5.148  1.00  0.00     0.023 C 
ATOM     15  C   UNL     1      13.690  77.488  -4.673  1.00  0.00     0.009 C 
ATOM     16  C   UNL     1      12.471  77.116  -3.793  1.00  0.00     0.011 C 
ATOM     17  C   UNL     1      12.306  78.103  -2.620  1.00  0.00     0.008 C 
ATOM     18  C   UNL     1      13.491  77.952  -1.615  1.00  0.00     0.015 C 
ENDROOT
BRANCH   1  19
ATOM     19  O   UNL     1      10.982  77.039  -0.802  1.00  0.00    -0.462 OA
BRANCH  19  20
ATOM     20  C   UNL     1      10.278  75.828  -0.840  1.00  0.00     0.306 C 
ATOM     21  O   UNL     1      10.506  74.919   0.003  1.00  0.00    -0.252 OA
BRANCH  20  22
ATOM     22  C   UNL     1       9.285  75.596  -1.932  1.00  0.00     0.123 C 
BRANCH  22  23
ATOM     23  C   UNL     1       9.887  74.684  -3.009  1.00  0.00     0.012 C 
BRANCH  23  24
ATOM     24  C   UNL     1       9.241  73.295  -2.983  1.00  0.00     0.001 C 
BRANCH  24  25
ATOM     25  C   UNL     1      10.312  72.191  -2.988  1.00  0.00    -0.000 C 
BRANCH  25  26
ATOM     26  C   UNL     1      10.640  71.689  -4.403  1.00  0.00    -0.003 C 
ATOM     27  C   UNL     1       9.422  71.706  -5.326  1.00  0.00     0.004 C 
ENDBRANCH  25  26
ENDBRANCH  24  25
ENDBRANCH  23  24
ENDBRANCH  22  23
ENDBRANCH  20  22
ENDBRANCH  19  20
ENDBRANCH   1  19
BRANCH  10  28
ATOM     28  O   UNL     1      18.565  80.592  -7.766  1.00  0.00    -0.427 OA
BRANCH  28  29
ATOM     29  C   UNL     1      18.946  81.884  -8.157  1.00  0.00     0.311 C 
ATOM     30  O   UNL     1      18.131  82.666  -8.715  1.00  0.00    -0.252 OA
BRANCH  29  31
ATOM     31  C   UNL     1      20.373  82.301  -7.986  1.00  0.00     0.123 C 
BRANCH  31  32
ATOM     32  C   UNL     1      20.570  83.031  -6.651  1.00  0.00     0.012 C 
BRANCH  32  33
ATOM     33  C   UNL     1      19.729  82.437  -5.507  1.00  0.00     0.001 C 
BRANCH  33  34
ATOM     34  C   UNL     1      20.535  81.694  -4.426  1.00  0.00    -0.000 C 
BRANCH  34  35
ATOM     35  C   UNL     1      20.631  80.181  -4.681  1.00  0.00    -0.003 C 
ATOM     36  C   UNL     1      19.279  79.505  -4.476  1.00  0.00     0.004 C 
ENDBRANCH  34  35
ENDBRANCH  33  34
ENDBRANCH  32  33
ENDBRANCH  31  32
ENDBRANCH  29  31
ENDBRANCH  28  29
ENDBRANCH  10  28
TORSDOF 14
ENDMDL
MODEL 9
REMARK VINA RESULT:    -7.618      1.508     10.305
REMARK INTER + INTRA:         -15.317
REMARK INTER:                 -14.073
REMARK INTRA:                  -1.244
REMARK UNBOUND:                -1.463
REMARK SMILES CCCCCCC(=O)Oc1ccc2c(c1)CC[C@@H]1[C@@H]2CC[C@]2(C)[C@@H](OC(=O)CCCCCC)CC[C@@H]12
REMARK SMILES IDX 24 1 34 2 35 3 36 4 18 5 17 6 16 7 14 8 15 9 10 10 11 11
REMARK SMILES IDX 12 12 13 13 19 14 20 15 21 16 22 17 23 18 25 19 26 20 27 21
REMARK SMILES IDX 28 22 29 23 30 24 31 25 32 26 33 27 9 28 7 29 8 30 6 31 5 32
REMARK SMILES IDX 4 33 3 34 2 35 1 36
REMARK H PARENT
REMARK Flexibility Score: inf
ROOT
ATOM      1  C   UNL     1       6.400  77.481  -0.115  1.00  0.00     0.182 C 
ATOM      2  C   UNL     1       6.369  78.595   0.952  1.00  0.00     0.046 C 
ATOM      3  C   UNL     1       7.630  79.447   0.747  1.00  0.00     0.008 C 
ATOM      4  C   UNL     1       8.195  78.947  -0.574  1.00  0.00     0.002 C 
ATOM      5  C   UNL     1       9.665  79.255  -0.919  1.00  0.00     0.001 C 
ATOM      6  C   UNL     1       9.933  80.772  -0.839  1.00  0.00     0.009 C 
ATOM      7  C   UNL     1      11.220  81.242  -1.555  1.00  0.00     0.036 C 
ATOM      8  C   UNL     1      12.039  80.151  -2.206  1.00  0.00    -0.041 A 
ATOM      9  C   UNL     1      13.399  80.395  -2.470  1.00  0.00     0.051 A 
ATOM     10  C   UNL     1      14.169  79.470  -3.194  1.00  0.00     0.131 A 
ATOM     11  C   UNL     1      13.567  78.295  -3.648  1.00  0.00     0.047 A 
ATOM     12  C   UNL     1      12.217  78.041  -3.399  1.00  0.00     0.008 A 
ATOM     13  C   UNL     1      11.438  78.955  -2.658  1.00  0.00    -0.041 A 
ATOM     14  C   UNL     1       9.964  78.721  -2.351  1.00  0.00     0.023 C 
ATOM     15  C   UNL     1       9.515  77.236  -2.532  1.00  0.00     0.009 C 
ATOM     16  C   UNL     1       8.076  76.950  -2.038  1.00  0.00     0.011 C 
ATOM     17  C   UNL     1       7.871  77.449  -0.593  1.00  0.00     0.008 C 
ATOM     18  C   UNL     1       8.729  76.602   0.398  1.00  0.00     0.015 C 
ENDROOT
BRANCH   1  19
ATOM     19  O   UNL     1       5.961  76.244   0.452  1.00  0.00    -0.462 OA
BRANCH  19  20
ATOM     20  C   UNL     1       5.479  75.171  -0.309  1.00  0.00     0.306 C 
ATOM     21  O   UNL     1       4.288  75.152  -0.722  1.00  0.00    -0.252 OA
BRANCH  20  22
ATOM     22  C   UNL     1       6.378  74.009  -0.582  1.00  0.00     0.123 C 
BRANCH  22  23
ATOM     23  C   UNL     1       7.003  74.140  -1.976  1.00  0.00     0.012 C 
BRANCH  23  24
ATOM     24  C   UNL     1       8.451  73.638  -1.983  1.00  0.00     0.001 C 
BRANCH  24  25
ATOM     25  C   UNL     1       8.935  73.378  -3.421  1.00  0.00    -0.000 C 
BRANCH  25  26
ATOM     26  C   UNL     1       9.648  72.026  -3.572  1.00  0.00    -0.003 C 
ATOM     27  C   UNL     1       9.560  71.474  -4.994  1.00  0.00     0.004 C 
ENDBRANCH  25  26
ENDBRANCH  24  25
ENDBRANCH  23  24
ENDBRANCH  22  23
ENDBRANCH  20  22
ENDBRANCH  19  20
ENDBRANCH   1  19
BRANCH  10  28
ATOM     28  O   UNL     1      15.538  79.654  -3.458  1.00  0.00    -0.427 OA
BRANCH  28  29
ATOM     29  C   UNL     1      16.089  80.273  -4.588  1.00  0.00     0.311 C 
ATOM     30  O   UNL     1      16.887  81.242  -4.482  1.00  0.00    -0.252 OA
BRANCH  29  31
ATOM     31  C   UNL     1      15.647  79.826  -5.947  1.00  0.00     0.123 C 
BRANCH  31  32
ATOM     32  C   UNL     1      16.746  79.001  -6.633  1.00  0.00     0.012 C 
BRANCH  32  33
ATOM     33  C   UNL     1      17.632  79.839  -7.573  1.00  0.00     0.001 C 
BRANCH  33  34
ATOM     34  C   UNL     1      17.015  81.173  -8.029  1.00  0.00    -0.000 C 
BRANCH  34  35
ATOM     35  C   UNL     1      17.998  82.352  -7.938  1.00  0.00    -0.003 C 
ATOM     36  C   UNL     1      19.159  82.025  -7.004  1.00  0.00     0.004 C 
ENDBRANCH  34  35
ENDBRANCH  33  34
ENDBRANCH  32  33
ENDBRANCH  31  32
ENDBRANCH  29  31
ENDBRANCH  28  29
ENDBRANCH  10  28
TORSDOF 14
ENDMDL
MODEL 10
REMARK VINA RESULT:    -7.173      2.047      3.308
REMARK INTER + INTRA:         -14.507
REMARK INTER:                 -12.856
REMARK INTRA:                  -1.651
REMARK UNBOUND:                -1.463
REMARK SMILES CCCCCCC(=O)Oc1ccc2c(c1)CC[C@@H]1[C@@H]2CC[C@]2(C)[C@@H](OC(=O)CCCCCC)CC[C@@H]12
REMARK SMILES IDX 24 1 34 2 35 3 36 4 18 5 17 6 16 7 14 8 15 9 10 10 11 11
REMARK SMILES IDX 12 12 13 13 19 14 20 15 21 16 22 17 23 18 25 19 26 20 27 21
REMARK SMILES IDX 28 22 29 23 30 24 31 25 32 26 33 27 9 28 7 29 8 30 6 31 5 32
REMARK SMILES IDX 4 33 3 34 2 35 1 36
REMARK H PARENT
REMARK Flexibility Score: inf
ROOT
ATOM      1  C   UNL     1      15.068  79.335  -5.269  1.00  0.00     0.182 C 
ATOM      2  C   UNL     1      15.266  77.805  -5.273  1.00  0.00     0.046 C 
ATOM      3  C   UNL     1      14.094  77.200  -4.486  1.00  0.00     0.008 C 
ATOM      4  C   UNL     1      13.148  78.374  -4.284  1.00  0.00     0.002 C 
ATOM      5  C   UNL     1      12.064  78.279  -3.192  1.00  0.00     0.001 C 
ATOM      6  C   UNL     1      11.205  77.013  -3.393  1.00  0.00     0.009 C 
ATOM      7  C   UNL     1       9.854  77.020  -2.640  1.00  0.00     0.036 C 
ATOM      8  C   UNL     1       9.582  78.249  -1.802  1.00  0.00    -0.041 A 
ATOM      9  C   UNL     1       8.641  78.158  -0.760  1.00  0.00     0.051 A 
ATOM     10  C   UNL     1       8.252  79.300  -0.042  1.00  0.00     0.131 A 
ATOM     11  C   UNL     1       8.817  80.534  -0.371  1.00  0.00     0.047 A 
ATOM     12  C   UNL     1       9.749  80.640  -1.405  1.00  0.00     0.008 A 
ATOM     13  C   UNL     1      10.160  79.497  -2.123  1.00  0.00    -0.041 A 
ATOM     14  C   UNL     1      11.178  79.558  -3.254  1.00  0.00     0.023 C 
ATOM     15  C   UNL     1      12.032  80.866  -3.258  1.00  0.00     0.009 C 
ATOM     16  C   UNL     1      13.196  80.853  -4.279  1.00  0.00     0.011 C 
ATOM     17  C   UNL     1      14.067  79.590  -4.118  1.00  0.00     0.008 C 
ATOM     18  C   UNL     1      14.828  79.628  -2.756  1.00  0.00     0.015 C 
ENDROOT
BRANCH   1  19
ATOM     19  O   UNL     1      16.324  79.993  -5.085  1.00  0.00    -0.462 OA
BRANCH  19  20
ATOM     20  C   UNL     1      17.433  79.793  -5.916  1.00  0.00     0.306 C 
ATOM     21  O   UNL     1      18.527  79.376  -5.449  1.00  0.00    -0.252 OA
BRANCH  20  22
ATOM     22  C   UNL     1      17.329  80.134  -7.368  1.00  0.00     0.123 C 
BRANCH  22  23
ATOM     23  C   UNL     1      16.908  81.599  -7.537  1.00  0.00     0.012 C 
BRANCH  23  24
ATOM     24  C   UNL     1      18.021  82.422  -8.194  1.00  0.00     0.001 C 
BRANCH  24  25
ATOM     25  C   UNL     1      19.408  81.883  -7.800  1.00  0.00    -0.000 C 
BRANCH  25  26
ATOM     26  C   UNL     1      20.168  82.831  -6.859  1.00  0.00    -0.003 C 
ATOM     27  C   UNL     1      20.124  82.369  -5.403  1.00  0.00     0.004 C 
ENDBRANCH  25  26
ENDBRANCH  24  25
ENDBRANCH  23  24
ENDBRANCH  22  23
ENDBRANCH  20  22
ENDBRANCH  19  20
ENDBRANCH   1  19
BRANCH  10  28
ATOM     28  O   UNL     1       7.338  79.258   1.026  1.00  0.00    -0.427 OA
BRANCH  28  29
ATOM     29  C   UNL     1       6.070  78.662   1.010  1.00  0.00     0.311 C 
ATOM     30  O   UNL     1       5.059  79.280   0.582  1.00  0.00    -0.252 OA
BRANCH  29  31
ATOM     31  C   UNL     1       5.905  77.296   1.599  1.00  0.00     0.123 C 
BRANCH  31  32
ATOM     32  C   UNL     1       5.510  76.280   0.517  1.00  0.00     0.012 C 
BRANCH  32  33
ATOM     33  C   UNL     1       6.696  75.434   0.021  1.00  0.00     0.001 C 
BRANCH  33  34
ATOM     34  C   UNL     1       6.404  74.569  -1.218  1.00  0.00    -0.000 C 
BRANCH  34  35
ATOM     35  C   UNL     1       7.464  74.720  -2.321  1.00  0.00    -0.003 C 
ATOM     36  C   UNL     1       6.822  75.126  -3.644  1.00  0.00     0.004 C 
ENDBRANCH  34  35
ENDBRANCH  33  34
ENDBRANCH  32  33
ENDBRANCH  31  32
ENDBRANCH  29  31
ENDBRANCH  28  29
ENDBRANCH  10  28
TORSDOF 14
ENDMDL
MODEL 11
REMARK VINA RESULT:    -6.839      2.169      9.974
REMARK INTER + INTRA:         -13.900
REMARK INTER:                 -12.608
REMARK INTRA:                  -1.292
REMARK UNBOUND:                -1.463
REMARK SMILES CCCCCCC(=O)Oc1ccc2c(c1)CC[C@@H]1[C@@H]2CC[C@]2(C)[C@@H](OC(=O)CCCCCC)CC[C@@H]12
REMARK SMILES IDX 24 1 34 2 35 3 36 4 18 5 17 6 16 7 14 8 15 9 10 10 11 11
REMARK SMILES IDX 12 12 13 13 19 14 20 15 21 16 22 17 23 18 25 19 26 20 27 21
REMARK SMILES IDX 28 22 29 23 30 24 31 25 32 26 33 27 9 28 7 29 8 30 6 31 5 32
REMARK SMILES IDX 4 33 3 34 2 35 1 36
REMARK H PARENT
REMARK Flexibility Score: inf
ROOT
ATOM      1  C   UNL     1      10.324  77.444  -0.612  1.00  0.00     0.182 C 
ATOM      2  C   UNL     1      11.345  76.498   0.052  1.00  0.00     0.046 C 
ATOM      3  C   UNL     1      12.734  76.907  -0.460  1.00  0.00     0.008 C 
ATOM      4  C   UNL     1      12.481  78.218  -1.190  1.00  0.00     0.002 C 
ATOM      5  C   UNL     1      13.535  78.729  -2.191  1.00  0.00     0.001 C 
ATOM      6  C   UNL     1      14.918  78.830  -1.514  1.00  0.00     0.009 C 
ATOM      7  C   UNL     1      15.945  79.709  -2.265  1.00  0.00     0.036 C 
ATOM      8  C   UNL     1      15.457  80.320  -3.559  1.00  0.00    -0.041 A 
ATOM      9  C   UNL     1      16.407  80.733  -4.509  1.00  0.00     0.051 A 
ATOM     10  C   UNL     1      16.015  81.429  -5.664  1.00  0.00     0.131 A 
ATOM     11  C   UNL     1      14.660  81.702  -5.863  1.00  0.00     0.047 A 
ATOM     12  C   UNL     1      13.705  81.302  -4.927  1.00  0.00     0.008 A 
ATOM     13  C   UNL     1      14.086  80.588  -3.771  1.00  0.00    -0.041 A 
ATOM     14  C   UNL     1      13.083  80.121  -2.723  1.00  0.00     0.023 C 
ATOM     15  C   UNL     1      11.607  80.106  -3.233  1.00  0.00     0.009 C 
ATOM     16  C   UNL     1      10.608  79.453  -2.247  1.00  0.00     0.011 C 
ATOM     17  C   UNL     1      11.088  78.053  -1.811  1.00  0.00     0.008 C 
ATOM     18  C   UNL     1      11.046  77.066  -3.019  1.00  0.00     0.015 C 
ENDROOT
BRANCH   1  19
ATOM     19  O   UNL     1       9.155  76.715  -0.995  1.00  0.00    -0.462 OA
BRANCH  19  20
ATOM     20  C   UNL     1       8.061  77.294  -1.651  1.00  0.00     0.306 C 
ATOM     21  O   UNL     1       7.339  78.151  -1.074  1.00  0.00    -0.252 OA
BRANCH  20  22
ATOM     22  C   UNL     1       7.716  76.842  -3.033  1.00  0.00     0.123 C 
BRANCH  22  23
ATOM     23  C   UNL     1       7.109  75.435  -2.993  1.00  0.00     0.012 C 
BRANCH  23  24
ATOM     24  C   UNL     1       7.567  74.670  -1.746  1.00  0.00     0.001 C 
BRANCH  24  25
ATOM     25  C   UNL     1       6.367  74.304  -0.854  1.00  0.00    -0.000 C 
BRANCH  25  26
ATOM     26  C   UNL     1       6.139  75.318   0.278  1.00  0.00    -0.003 C 
ATOM     27  C   UNL     1       5.046  74.874   1.249  1.00  0.00     0.004 C 
ENDBRANCH  25  26
ENDBRANCH  24  25
ENDBRANCH  23  24
ENDBRANCH  22  23
ENDBRANCH  20  22
ENDBRANCH  19  20
ENDBRANCH   1  19
BRANCH  10  28
ATOM     28  O   UNL     1      16.922  81.838  -6.658  1.00  0.00    -0.427 OA
BRANCH  28  29
ATOM     29  C   UNL     1      17.371  81.068  -7.739  1.00  0.00     0.311 C 
ATOM     30  O   UNL     1      16.954  81.275  -8.910  1.00  0.00    -0.252 OA
BRANCH  29  31
ATOM     31  C   UNL     1      18.296  79.921  -7.477  1.00  0.00     0.123 C 
BRANCH  31  32
ATOM     32  C   UNL     1      17.582  78.582  -7.707  1.00  0.00     0.012 C 
BRANCH  32  33
ATOM     33  C   UNL     1      16.603  78.217  -6.576  1.00  0.00     0.001 C 
BRANCH  33  34
ATOM     34  C   UNL     1      15.149  77.985  -7.026  1.00  0.00    -0.000 C 
BRANCH  34  35
ATOM     35  C   UNL     1      14.142  78.055  -5.866  1.00  0.00    -0.003 C 
ATOM     36  C   UNL     1      14.039  76.712  -5.149  1.00  0.00     0.004 C 
ENDBRANCH  34  35
ENDBRANCH  33  34
ENDBRANCH  32  33
ENDBRANCH  31  32
ENDBRANCH  29  31
ENDBRANCH  28  29
ENDBRANCH  10  28
TORSDOF 14
ENDMDL
MODEL 12
REMARK VINA RESULT:    -6.586      1.710     10.040
REMARK INTER + INTRA:         -13.440
REMARK INTER:                 -13.437
REMARK INTRA:                  -0.003
REMARK UNBOUND:                -1.463
REMARK SMILES CCCCCCC(=O)Oc1ccc2c(c1)CC[C@@H]1[C@@H]2CC[C@]2(C)[C@@H](OC(=O)CCCCCC)CC[C@@H]12
REMARK SMILES IDX 24 1 34 2 35 3 36 4 18 5 17 6 16 7 14 8 15 9 10 10 11 11
REMARK SMILES IDX 12 12 13 13 19 14 20 15 21 16 22 17 23 18 25 19 26 20 27 21
REMARK SMILES IDX 28 22 29 23 30 24 31 25 32 26 33 27 9 28 7 29 8 30 6 31 5 32
REMARK SMILES IDX 4 33 3 34 2 35 1 36
REMARK H PARENT
REMARK Flexibility Score: inf
ROOT
ATOM      1  C   UNL     1       8.450  74.674  -1.565  1.00  0.00     0.182 C 
ATOM      2  C   UNL     1       7.908  75.506  -0.384  1.00  0.00     0.046 C 
ATOM      3  C   UNL     1       8.709  76.816  -0.354  1.00  0.00     0.008 C 
ATOM      4  C   UNL     1       9.494  76.791  -1.658  1.00  0.00     0.002 C 
ATOM      5  C   UNL     1      10.719  77.715  -1.808  1.00  0.00     0.001 C 
ATOM      6  C   UNL     1      10.328  79.180  -1.524  1.00  0.00     0.009 C 
ATOM      7  C   UNL     1      11.337  80.232  -2.041  1.00  0.00     0.036 C 
ATOM      8  C   UNL     1      12.566  79.675  -2.725  1.00  0.00    -0.041 A 
ATOM      9  C   UNL     1      13.712  80.485  -2.813  1.00  0.00     0.051 A 
ATOM     10  C   UNL     1      14.830  80.070  -3.555  1.00  0.00     0.131 A 
ATOM     11  C   UNL     1      14.793  78.834  -4.203  1.00  0.00     0.047 A 
ATOM     12  C   UNL     1      13.660  78.022  -4.129  1.00  0.00     0.008 A 
ATOM     13  C   UNL     1      12.537  78.420  -3.373  1.00  0.00    -0.041 A 
ATOM     14  C   UNL     1      11.280  77.568  -3.253  1.00  0.00     0.023 C 
ATOM     15  C   UNL     1      11.498  76.073  -3.651  1.00  0.00     0.009 C 
ATOM     16  C   UNL     1      10.285  75.160  -3.349  1.00  0.00     0.011 C 
ATOM     17  C   UNL     1       9.822  75.311  -1.886  1.00  0.00     0.008 C 
ATOM     18  C   UNL     1      10.905  74.746  -0.914  1.00  0.00     0.015 C 
ENDROOT
BRANCH   1  19
ATOM     19  O   UNL     1       8.537  73.295  -1.195  1.00  0.00    -0.462 OA
BRANCH  19  20
ATOM     20  C   UNL     1       9.189  72.326  -1.967  1.00  0.00     0.306 C 
ATOM     21  O   UNL     1       9.914  71.447  -1.426  1.00  0.00    -0.252 OA
BRANCH  20  22
ATOM     22  C   UNL     1       9.067  72.374  -3.455  1.00  0.00     0.123 C 
BRANCH  22  23
ATOM     23  C   UNL     1       9.500  71.035  -4.065  1.00  0.00     0.012 C 
BRANCH  23  24
ATOM     24  C   UNL     1       9.661  71.145  -5.585  1.00  0.00     0.001 C 
BRANCH  24  25
ATOM     25  C   UNL     1      10.698  72.221  -5.951  1.00  0.00    -0.000 C 
BRANCH  25  26
ATOM     26  C   UNL     1      11.888  72.253  -4.980  1.00  0.00    -0.003 C 
ATOM     27  C   UNL     1      12.886  73.360  -5.315  1.00  0.00     0.004 C 
ENDBRANCH  25  26
ENDBRANCH  24  25
ENDBRANCH  23  24
ENDBRANCH  22  23
ENDBRANCH  20  22
ENDBRANCH  19  20
ENDBRANCH   1  19
BRANCH  10  28
ATOM     28  O   UNL     1      16.010  80.828  -3.650  1.00  0.00    -0.427 OA
BRANCH  28  29
ATOM     29  C   UNL     1      16.744  81.079  -4.818  1.00  0.00     0.311 C 
ATOM     30  O   UNL     1      17.905  81.565  -4.772  1.00  0.00    -0.252 OA
BRANCH  29  31
ATOM     31  C   UNL     1      16.093  80.846  -6.145  1.00  0.00     0.123 C 
BRANCH  31  32
ATOM     32  C   UNL     1      16.523  81.918  -7.158  1.00  0.00     0.012 C 
BRANCH  32  33
ATOM     33  C   UNL     1      17.351  81.349  -8.324  1.00  0.00     0.001 C 
BRANCH  33  34
ATOM     34  C   UNL     1      18.858  81.208  -8.043  1.00  0.00    -0.000 C 
BRANCH  34  35
ATOM     35  C   UNL     1      19.559  82.560  -7.833  1.00  0.00    -0.003 C 
ATOM     36  C   UNL     1      20.272  82.604  -6.484  1.00  0.00     0.004 C 
ENDBRANCH  34  35
ENDBRANCH  33  34
ENDBRANCH  32  33
ENDBRANCH  31  32
ENDBRANCH  29  31
ENDBRANCH  28  29
ENDBRANCH  10  28
TORSDOF 14
ENDMDL
MODEL 13
REMARK VINA RESULT:    -6.505      2.135     10.516
REMARK INTER + INTRA:         -13.292
REMARK INTER:                 -11.279
REMARK INTRA:                  -2.013
REMARK UNBOUND:                -1.463
REMARK SMILES CCCCCCC(=O)Oc1ccc2c(c1)CC[C@@H]1[C@@H]2CC[C@]2(C)[C@@H](OC(=O)CCCCCC)CC[C@@H]12
REMARK SMILES IDX 24 1 34 2 35 3 36 4 18 5 17 6 16 7 14 8 15 9 10 10 11 11
REMARK SMILES IDX 12 12 13 13 19 14 20 15 21 16 22 17 23 18 25 19 26 20 27 21
REMARK SMILES IDX 28 22 29 23 30 24 31 25 32 26 33 27 9 28 7 29 8 30 6 31 5 32
REMARK SMILES IDX 4 33 3 34 2 35 1 36
REMARK H PARENT
REMARK Flexibility Score: inf
ROOT
ATOM      1  C   UNL     1       8.131  78.952  -0.761  1.00  0.00     0.182 C 
ATOM      2  C   UNL     1       7.473  80.201  -1.383  1.00  0.00     0.046 C 
ATOM      3  C   UNL     1       8.522  80.850  -2.299  1.00  0.00     0.008 C 
ATOM      4  C   UNL     1       9.638  79.818  -2.361  1.00  0.00     0.002 C 
ATOM      5  C   UNL     1      11.036  80.260  -2.835  1.00  0.00     0.001 C 
ATOM      6  C   UNL     1      10.948  80.939  -4.217  1.00  0.00     0.009 C 
ATOM      7  C   UNL     1      12.292  81.044  -4.975  1.00  0.00     0.036 C 
ATOM      8  C   UNL     1      13.496  80.491  -4.246  1.00  0.00    -0.041 A 
ATOM      9  C   UNL     1      14.775  80.934  -4.625  1.00  0.00     0.051 A 
ATOM     10  C   UNL     1      15.931  80.352  -4.077  1.00  0.00     0.131 A 
ATOM     11  C   UNL     1      15.793  79.327  -3.139  1.00  0.00     0.047 A 
ATOM     12  C   UNL     1      14.529  78.873  -2.756  1.00  0.00     0.008 A 
ATOM     13  C   UNL     1      13.362  79.461  -3.288  1.00  0.00    -0.041 A 
ATOM     14  C   UNL     1      11.961  79.009  -2.897  1.00  0.00     0.023 C 
ATOM     15  C   UNL     1      11.918  78.177  -1.575  1.00  0.00     0.009 C 
ATOM     16  C   UNL     1      10.486  77.880  -1.067  1.00  0.00     0.011 C 
ATOM     17  C   UNL     1       9.647  79.171  -0.971  1.00  0.00     0.008 C 
ATOM     18  C   UNL     1      10.207  80.097   0.154  1.00  0.00     0.015 C 
ENDROOT
BRANCH   1  19
ATOM     19  O   UNL     1       7.760  78.835   0.615  1.00  0.00    -0.462 OA
BRANCH  19  20
ATOM     20  C   UNL     1       6.495  78.411   1.044  1.00  0.00     0.306 C 
ATOM     21  O   UNL     1       5.947  78.927   2.054  1.00  0.00    -0.252 OA
BRANCH  20  22
ATOM     22  C   UNL     1       5.818  77.291   0.322  1.00  0.00     0.123 C 
BRANCH  22  23
ATOM     23  C   UNL     1       6.656  76.011   0.428  1.00  0.00     0.012 C 
BRANCH  23  24
ATOM     24  C   UNL     1       5.981  74.846  -0.303  1.00  0.00     0.001 C 
BRANCH  24  25
ATOM     25  C   UNL     1       6.691  74.548  -1.635  1.00  0.00    -0.000 C 
BRANCH  25  26
ATOM     26  C   UNL     1       7.838  75.528  -1.928  1.00  0.00    -0.003 C 
ATOM     27  C   UNL     1       7.655  76.264  -3.254  1.00  0.00     0.004 C 
ENDBRANCH  25  26
ENDBRANCH  24  25
ENDBRANCH  23  24
ENDBRANCH  22  23
ENDBRANCH  20  22
ENDBRANCH  19  20
ENDBRANCH   1  19
BRANCH  10  28
ATOM     28  O   UNL     1      17.230  80.779  -4.401  1.00  0.00    -0.427 OA
BRANCH  28  29
ATOM     29  C   UNL     1      18.151  80.096  -5.208  1.00  0.00     0.311 C 
ATOM     30  O   UNL     1      19.387  80.322  -5.129  1.00  0.00    -0.252 OA
BRANCH  29  31
ATOM     31  C   UNL     1      17.639  79.146  -6.245  1.00  0.00     0.123 C 
BRANCH  31  32
ATOM     32  C   UNL     1      17.683  79.785  -7.640  1.00  0.00     0.012 C 
BRANCH  32  33
ATOM     33  C   UNL     1      16.964  81.145  -7.704  1.00  0.00     0.001 C 
BRANCH  33  34
ATOM     34  C   UNL     1      17.893  82.367  -7.815  1.00  0.00    -0.000 C 
BRANCH  34  35
ATOM     35  C   UNL     1      19.341  81.991  -8.167  1.00  0.00    -0.003 C 
ATOM     36  C   UNL     1      20.334  82.881  -7.425  1.00  0.00     0.004 C 
ENDBRANCH  34  35
ENDBRANCH  33  34
ENDBRANCH  32  33
ENDBRANCH  31  32
ENDBRANCH  29  31
ENDBRANCH  28  29
ENDBRANCH  10  28
TORSDOF 14
ENDMDL
MODEL 14
REMARK VINA RESULT:    -6.364      3.034      4.982
REMARK INTER + INTRA:         -13.036
REMARK INTER:                 -12.263
REMARK INTRA:                  -0.773
REMARK UNBOUND:                -1.463
REMARK SMILES CCCCCCC(=O)Oc1ccc2c(c1)CC[C@@H]1[C@@H]2CC[C@]2(C)[C@@H](OC(=O)CCCCCC)CC[C@@H]12
REMARK SMILES IDX 24 1 34 2 35 3 36 4 18 5 17 6 16 7 14 8 15 9 10 10 11 11
REMARK SMILES IDX 12 12 13 13 19 14 20 15 21 16 22 17 23 18 25 19 26 20 27 21
REMARK SMILES IDX 28 22 29 23 30 24 31 25 32 26 33 27 9 28 7 29 8 30 6 31 5 32
REMARK SMILES IDX 4 33 3 34 2 35 1 36
REMARK H PARENT
REMARK Flexibility Score: inf
ROOT
ATOM      1  C   UNL     1      11.745  80.735   0.535  1.00  0.00     0.182 C 
ATOM      2  C   UNL     1      10.474  81.608   0.564  1.00  0.00     0.046 C 
ATOM      3  C   UNL     1       9.341  80.771  -0.048  1.00  0.00     0.008 C 
ATOM      4  C   UNL     1       9.943  79.378  -0.167  1.00  0.00     0.002 C 
ATOM      5  C   UNL     1       9.277  78.357  -1.110  1.00  0.00     0.001 C 
ATOM      6  C   UNL     1       7.783  78.193  -0.760  1.00  0.00     0.009 C 
ATOM      7  C   UNL     1       7.118  76.922  -1.335  1.00  0.00     0.036 C 
ATOM      8  C   UNL     1       8.016  76.039  -2.173  1.00  0.00    -0.041 A 
ATOM      9  C   UNL     1       7.422  75.146  -3.083  1.00  0.00     0.051 A 
ATOM     10  C   UNL     1       8.201  74.210  -3.784  1.00  0.00     0.131 A 
ATOM     11  C   UNL     1       9.580  74.180  -3.570  1.00  0.00     0.047 A 
ATOM     12  C   UNL     1      10.183  75.057  -2.666  1.00  0.00     0.008 A 
ATOM     13  C   UNL     1       9.413  76.012  -1.968  1.00  0.00    -0.041 A 
ATOM     14  C   UNL     1      10.022  76.996  -0.978  1.00  0.00     0.023 C 
ATOM     15  C   UNL     1      11.569  77.155  -1.125  1.00  0.00     0.009 C 
ATOM     16  C   UNL     1      12.169  78.290  -0.260  1.00  0.00     0.011 C 
ATOM     17  C   UNL     1      11.422  79.621  -0.487  1.00  0.00     0.008 C 
ATOM     18  C   UNL     1      11.679  80.144  -1.935  1.00  0.00     0.015 C 
ENDROOT
BRANCH   1  19
ATOM     19  O   UNL     1      12.878  81.528   0.172  1.00  0.00    -0.462 OA
BRANCH  19  20
ATOM     20  C   UNL     1      14.154  80.998  -0.059  1.00  0.00     0.306 C 
ATOM     21  O   UNL     1      14.885  80.628   0.899  1.00  0.00    -0.252 OA
BRANCH  20  22
ATOM     22  C   UNL     1      14.672  80.925  -1.459  1.00  0.00     0.123 C 
BRANCH  22  23
ATOM     23  C   UNL     1      15.197  79.515  -1.755  1.00  0.00     0.012 C 
BRANCH  23  24
ATOM     24  C   UNL     1      14.635  78.982  -3.077  1.00  0.00     0.001 C 
BRANCH  24  25
ATOM     25  C   UNL     1      15.103  79.846  -4.261  1.00  0.00    -0.000 C 
BRANCH  25  26
ATOM     26  C   UNL     1      14.022  80.825  -4.744  1.00  0.00    -0.003 C 
ATOM     27  C   UNL     1      14.584  81.908  -5.664  1.00  0.00     0.004 C 
ENDBRANCH  25  26
ENDBRANCH  24  25
ENDBRANCH  23  24
ENDBRANCH  22  23
ENDBRANCH  20  22
ENDBRANCH  19  20
ENDBRANCH   1  19
BRANCH  10  28
ATOM     28  O   UNL     1       7.661  73.317  -4.726  1.00  0.00    -0.427 OA
BRANCH  28  29
ATOM     29  C   UNL     1       8.234  72.959  -5.954  1.00  0.00     0.311 C 
ATOM     30  O   UNL     1       8.038  73.643  -6.994  1.00  0.00    -0.252 OA
BRANCH  29  31
ATOM     31  C   UNL     1       9.020  71.689  -6.043  1.00  0.00     0.123 C 
BRANCH  31  32
ATOM     32  C   UNL     1      10.501  71.942  -5.728  1.00  0.00     0.012 C 
BRANCH  32  33
ATOM     33  C   UNL     1      10.915  71.443  -4.331  1.00  0.00     0.001 C 
BRANCH  33  34
ATOM     34  C   UNL     1       9.825  70.668  -3.569  1.00  0.00    -0.000 C 
BRANCH  34  35
ATOM     35  C   UNL     1       9.925  70.834  -2.044  1.00  0.00    -0.003 C 
ATOM     36  C   UNL     1      11.354  71.157  -1.621  1.00  0.00     0.004 C 
ENDBRANCH  34  35
ENDBRANCH  33  34
ENDBRANCH  32  33
ENDBRANCH  31  32
ENDBRANCH  29  31
ENDBRANCH  28  29
ENDBRANCH  10  28
TORSDOF 14
ENDMDL
