MODEL 1
REMARK VINA RESULT:    -9.456      0.000      0.000
REMARK INTER + INTRA:         -12.987
REMARK INTER:                 -12.496
REMARK INTRA:                  -0.491
REMARK UNBOUND:                -0.491
REMARK SMILES CCCCC(=O)O[C@H]1CC[C@H]2[C@@H]3CCc4cc(O)ccc4[C@H]3CC[C@]12C
REMARK SMILES IDX 5 1 6 2 7 3 8 4 11 5 10 6 25 7 12 8 9 9 26 10 24 11 22 12
REMARK SMILES IDX 13 13 23 14 21 15 14 16 15 17 20 18 16 19 19 20 17 21 18 22
REMARK SMILES IDX 4 24 3 25 2 26 1 27
REMARK H PARENT 18 23
REMARK Flexibility Score: inf
ROOT
ATOM      1  C   UNL     1      10.032  76.105  -1.388  1.00  0.00     0.306 C 
ATOM      2  O   UNL     1       9.466  75.811  -0.302  1.00  0.00    -0.252 OA
ENDROOT
BRANCH   1   3
ATOM      3  O   UNL     1      10.944  77.161  -1.457  1.00  0.00    -0.462 OA
BRANCH   3   4
ATOM      4  C   UNL     1      11.046  78.051  -2.569  1.00  0.00     0.182 C 
ATOM      5  C   UNL     1      12.384  79.537  -3.829  1.00  0.00     0.002 C 
ATOM      6  C   UNL     1      11.627  80.438  -2.863  1.00  0.00     0.008 C 
ATOM      7  C   UNL     1      12.488  78.189  -3.101  1.00  0.00     0.008 C 
ATOM      8  C   UNL     1      13.740  80.001  -4.388  1.00  0.00     0.001 C 
ATOM      9  C   UNL     1      10.654  79.483  -2.149  1.00  0.00     0.046 C 
ATOM     10  C   UNL     1      13.489  78.186  -1.900  1.00  0.00     0.015 C 
ATOM     11  C   UNL     1      12.907  77.125  -4.138  1.00  0.00     0.011 C 
ATOM     12  C   UNL     1      14.225  78.954  -5.435  1.00  0.00     0.023 C 
ATOM     13  C   UNL     1      13.645  81.370  -5.073  1.00  0.00     0.009 C 
ATOM     14  C   UNL     1      14.233  77.509  -4.843  1.00  0.00     0.009 C 
ATOM     15  C   UNL     1      15.561  79.390  -6.041  1.00  0.00    -0.041 A 
ATOM     16  C   UNL     1      15.041  81.848  -5.480  1.00  0.00     0.036 C 
ATOM     17  C   UNL     1      15.892  80.771  -6.121  1.00  0.00    -0.041 A 
ATOM     18  C   UNL     1      16.420  78.457  -6.663  1.00  0.00     0.008 A 
ATOM     19  C   UNL     1      17.086  81.167  -6.743  1.00  0.00     0.050 A 
ATOM     20  C   UNL     1      17.598  78.871  -7.287  1.00  0.00     0.046 A 
ATOM     21  C   UNL     1      17.936  80.222  -7.326  1.00  0.00     0.115 A 
BRANCH  21  22
ATOM     22  O   UNL     1      19.116  80.618  -7.951  1.00  0.00    -0.508 OA
ATOM     23  H   UNL     1      19.192  81.513  -8.423  1.00  0.00     0.293 HD
ENDBRANCH  21  22
ENDBRANCH   3   4
ENDBRANCH   1   3
BRANCH   1  24
ATOM     24  C   UNL     1       9.753  75.296  -2.618  1.00  0.00     0.123 C 
BRANCH  24  25
ATOM     25  C   UNL     1       9.672  73.791  -2.319  1.00  0.00     0.011 C 
BRANCH  25  26
ATOM     26  C   UNL     1       9.360  72.907  -3.540  1.00  0.00    -0.003 C 
ATOM     27  C   UNL     1       9.980  71.512  -3.446  1.00  0.00     0.004 C 
ENDBRANCH  25  26
ENDBRANCH  24  25
ENDBRANCH   1  24
TORSDOF 6
ENDMDL
MODEL 2
REMARK VINA RESULT:    -9.310      0.841      1.153
REMARK INTER + INTRA:         -12.794
REMARK INTER:                 -12.251
REMARK INTRA:                  -0.543
REMARK UNBOUND:                -0.491
REMARK SMILES CCCCC(=O)O[C@H]1CC[C@H]2[C@@H]3CCc4cc(O)ccc4[C@H]3CC[C@]12C
REMARK SMILES IDX 5 1 6 2 7 3 8 4 11 5 10 6 25 7 12 8 9 9 26 10 24 11 22 12
REMARK SMILES IDX 13 13 23 14 21 15 14 16 15 17 20 18 16 19 19 20 17 21 18 22
REMARK SMILES IDX 4 24 3 25 2 26 1 27
REMARK H PARENT 18 23
REMARK Flexibility Score: inf
ROOT
ATOM      1  C   UNL     1      10.376  76.054  -1.360  1.00  0.00     0.306 C 
ATOM      2  O   UNL     1      10.183  75.445  -0.274  1.00  0.00    -0.252 OA
ENDROOT
BRANCH   1   3
ATOM      3  O   UNL     1      11.132  77.228  -1.399  1.00  0.00    -0.462 OA
BRANCH   3   4
ATOM      4  C   UNL     1      11.196  78.093  -2.534  1.00  0.00     0.182 C 
ATOM      5  C   UNL     1      12.478  79.581  -3.846  1.00  0.00     0.002 C 
ATOM      6  C   UNL     1      11.710  80.486  -2.893  1.00  0.00     0.008 C 
ATOM      7  C   UNL     1      12.627  78.255  -3.088  1.00  0.00     0.008 C 
ATOM      8  C   UNL     1      13.815  80.068  -4.435  1.00  0.00     0.001 C 
ATOM      9  C   UNL     1      10.771  79.524  -2.144  1.00  0.00     0.046 C 
ATOM     10  C   UNL     1      13.642  78.308  -1.900  1.00  0.00     0.015 C 
ATOM     11  C   UNL     1      13.061  77.178  -4.105  1.00  0.00     0.011 C 
ATOM     12  C   UNL     1      14.314  79.008  -5.462  1.00  0.00     0.023 C 
ATOM     13  C   UNL     1      13.675  81.416  -5.151  1.00  0.00     0.009 C 
ATOM     14  C   UNL     1      14.368  77.579  -4.836  1.00  0.00     0.009 C 
ATOM     15  C   UNL     1      15.631  79.465  -6.096  1.00  0.00    -0.041 A 
ATOM     16  C   UNL     1      15.053  81.921  -5.587  1.00  0.00     0.036 C 
ATOM     17  C   UNL     1      15.923  80.852  -6.213  1.00  0.00    -0.041 A 
ATOM     18  C   UNL     1      16.506  78.539  -6.706  1.00  0.00     0.008 A 
ATOM     19  C   UNL     1      17.099  81.263  -6.860  1.00  0.00     0.050 A 
ATOM     20  C   UNL     1      17.665  78.969  -7.356  1.00  0.00     0.046 A 
ATOM     21  C   UNL     1      17.966  80.327  -7.431  1.00  0.00     0.115 A 
BRANCH  21  22
ATOM     22  O   UNL     1      19.128  80.739  -8.080  1.00  0.00    -0.508 OA
ATOM     23  H   UNL     1      19.831  81.295  -7.607  1.00  0.00     0.293 HD
ENDBRANCH  21  22
ENDBRANCH   3   4
ENDBRANCH   1   3
BRANCH   1  24
ATOM     24  C   UNL     1       9.817  75.498  -2.635  1.00  0.00     0.123 C 
BRANCH  24  25
ATOM     25  C   UNL     1       8.788  74.385  -2.383  1.00  0.00     0.011 C 
BRANCH  25  26
ATOM     26  C   UNL     1       7.318  74.831  -2.483  1.00  0.00    -0.003 C 
ATOM     27  C   UNL     1       6.893  75.181  -3.910  1.00  0.00     0.004 C 
ENDBRANCH  25  26
ENDBRANCH  24  25
ENDBRANCH   1  24
TORSDOF 6
ENDMDL
MODEL 3
REMARK VINA RESULT:    -8.996      5.529      6.687
REMARK INTER + INTRA:         -12.380
REMARK INTER:                 -11.900
REMARK INTRA:                  -0.481
REMARK UNBOUND:                -0.491
REMARK SMILES CCCCC(=O)O[C@H]1CC[C@H]2[C@@H]3CCc4cc(O)ccc4[C@H]3CC[C@]12C
REMARK SMILES IDX 5 1 6 2 7 3 8 4 11 5 10 6 25 7 12 8 9 9 26 10 24 11 22 12
REMARK SMILES IDX 13 13 23 14 21 15 14 16 15 17 20 18 16 19 19 20 17 21 18 22
REMARK SMILES IDX 4 24 3 25 2 26 1 27
REMARK H PARENT 18 23
REMARK Flexibility Score: inf
ROOT
ATOM      1  C   UNL     1       9.849  72.109  -3.025  1.00  0.00     0.306 C 
ATOM      2  O   UNL     1      10.907  72.216  -2.349  1.00  0.00    -0.252 OA
ENDROOT
BRANCH   1   3
ATOM      3  O   UNL     1       8.771  72.972  -2.809  1.00  0.00    -0.462 OA
BRANCH   3   4
ATOM      4  C   UNL     1       8.734  74.324  -3.266  1.00  0.00     0.182 C 
ATOM      5  C   UNL     1       8.532  76.615  -2.724  1.00  0.00     0.002 C 
ATOM      6  C   UNL     1       7.118  76.191  -3.100  1.00  0.00     0.008 C 
ATOM      7  C   UNL     1       9.194  75.335  -2.194  1.00  0.00     0.008 C 
ATOM      8  C   UNL     1       8.734  77.809  -1.774  1.00  0.00     0.001 C 
ATOM      9  C   UNL     1       7.285  74.742  -3.590  1.00  0.00     0.046 C 
ATOM     10  C   UNL     1       8.674  74.879  -0.791  1.00  0.00     0.015 C 
ATOM     11  C   UNL     1      10.716  75.581  -2.137  1.00  0.00     0.011 C 
ATOM     12  C   UNL     1      10.261  78.097  -1.662  1.00  0.00     0.023 C 
ATOM     13  C   UNL     1       8.032  79.076  -2.279  1.00  0.00     0.009 C 
ATOM     14  C   UNL     1      11.061  76.816  -1.266  1.00  0.00     0.009 C 
ATOM     15  C   UNL     1      10.508  79.298  -0.747  1.00  0.00    -0.041 A 
ATOM     16  C   UNL     1       8.141  80.186  -1.231  1.00  0.00     0.036 C 
ATOM     17  C   UNL     1       9.520  80.313  -0.619  1.00  0.00    -0.041 A 
ATOM     18  C   UNL     1      11.764  79.502  -0.134  1.00  0.00     0.008 A 
ATOM     19  C   UNL     1       9.784  81.447   0.166  1.00  0.00     0.050 A 
ATOM     20  C   UNL     1      12.012  80.642   0.633  1.00  0.00     0.046 A 
ATOM     21  C   UNL     1      11.025  81.613   0.788  1.00  0.00     0.115 A 
BRANCH  21  22
ATOM     22  O   UNL     1      11.286  82.743   1.559  1.00  0.00    -0.508 OA
ATOM     23  H   UNL     1      11.064  83.675   1.226  1.00  0.00     0.293 HD
ENDBRANCH  21  22
ENDBRANCH   3   4
ENDBRANCH   1   3
BRANCH   1  24
ATOM     24  C   UNL     1       9.750  71.067  -4.097  1.00  0.00     0.123 C 
BRANCH  24  25
ATOM     25  C   UNL     1       9.829  71.673  -5.507  1.00  0.00     0.011 C 
BRANCH  25  26
ATOM     26  C   UNL     1      10.753  72.898  -5.631  1.00  0.00    -0.003 C 
ATOM     27  C   UNL     1      12.238  72.534  -5.621  1.00  0.00     0.004 C 
ENDBRANCH  25  26
ENDBRANCH  24  25
ENDBRANCH   1  24
TORSDOF 6
ENDMDL
MODEL 4
REMARK VINA RESULT:    -8.903      4.432      7.938
REMARK INTER + INTRA:         -12.257
REMARK INTER:                 -11.281
REMARK INTRA:                  -0.976
REMARK UNBOUND:                -0.491
REMARK SMILES CCCCC(=O)O[C@H]1CC[C@H]2[C@@H]3CCc4cc(O)ccc4[C@H]3CC[C@]12C
REMARK SMILES IDX 5 1 6 2 7 3 8 4 11 5 10 6 25 7 12 8 9 9 26 10 24 11 22 12
REMARK SMILES IDX 13 13 23 14 21 15 14 16 15 17 20 18 16 19 19 20 17 21 18 22
REMARK SMILES IDX 4 24 3 25 2 26 1 27
REMARK H PARENT 18 23
REMARK Flexibility Score: inf
ROOT
ATOM      1  C   UNL     1      11.238  81.254   0.824  1.00  0.00     0.306 C 
ATOM      2  O   UNL     1      10.914  82.437   1.113  1.00  0.00    -0.252 OA
ENDROOT
BRANCH   1   3
ATOM      3  O   UNL     1      10.834  80.673  -0.381  1.00  0.00    -0.462 OA
BRANCH   3   4
ATOM      4  C   UNL     1       9.755  79.744  -0.491  1.00  0.00     0.182 C 
ATOM      5  C   UNL     1       8.755  77.971  -1.690  1.00  0.00     0.002 C 
ATOM      6  C   UNL     1       8.056  79.220  -2.212  1.00  0.00     0.008 C 
ATOM      7  C   UNL     1      10.143  78.458  -1.250  1.00  0.00     0.008 C 
ATOM      8  C   UNL     1       8.834  76.722  -2.586  1.00  0.00     0.001 C 
ATOM      9  C   UNL     1       8.607  80.350  -1.324  1.00  0.00     0.046 C 
ATOM     10  C   UNL     1      11.099  78.820  -2.433  1.00  0.00     0.015 C 
ATOM     11  C   UNL     1      10.776  77.351  -0.381  1.00  0.00     0.011 C 
ATOM     12  C   UNL     1       9.484  75.568  -1.765  1.00  0.00     0.023 C 
ATOM     13  C   UNL     1       7.451  76.264  -3.065  1.00  0.00     0.009 C 
ATOM     14  C   UNL     1      10.848  76.002  -1.141  1.00  0.00     0.009 C 
ATOM     15  C   UNL     1       9.557  74.293  -2.609  1.00  0.00    -0.041 A 
ATOM     16  C   UNL     1       7.599  75.115  -4.064  1.00  0.00     0.036 C 
ATOM     17  C   UNL     1       8.606  74.066  -3.642  1.00  0.00    -0.041 A 
ATOM     18  C   UNL     1      10.463  73.258  -2.290  1.00  0.00     0.008 A 
ATOM     19  C   UNL     1       8.636  72.862  -4.364  1.00  0.00     0.050 A 
ATOM     20  C   UNL     1      10.471  72.063  -3.011  1.00  0.00     0.046 A 
ATOM     21  C   UNL     1       9.563  71.863  -4.049  1.00  0.00     0.115 A 
BRANCH  21  22
ATOM     22  O   UNL     1       9.585  70.666  -4.761  1.00  0.00    -0.508 OA
ATOM     23  H   UNL     1       8.775  70.057  -4.800  1.00  0.00     0.293 HD
ENDBRANCH  21  22
ENDBRANCH   3   4
ENDBRANCH   1   3
BRANCH   1  24
ATOM     24  C   UNL     1      12.096  80.465   1.766  1.00  0.00     0.123 C 
BRANCH  24  25
ATOM     25  C   UNL     1      13.159  79.634   1.029  1.00  0.00     0.011 C 
BRANCH  25  26
ATOM     26  C   UNL     1      14.252  80.461   0.330  1.00  0.00    -0.003 C 
ATOM     27  C   UNL     1      14.329  80.204  -1.176  1.00  0.00     0.004 C 
ENDBRANCH  25  26
ENDBRANCH  24  25
ENDBRANCH   1  24
TORSDOF 6
ENDMDL
MODEL 5
REMARK VINA RESULT:    -8.700      2.336      3.605
REMARK INTER + INTRA:         -11.989
REMARK INTER:                 -12.134
REMARK INTRA:                   0.145
REMARK UNBOUND:                -0.491
REMARK SMILES CCCCC(=O)O[C@H]1CC[C@H]2[C@@H]3CCc4cc(O)ccc4[C@H]3CC[C@]12C
REMARK SMILES IDX 5 1 6 2 7 3 8 4 11 5 10 6 25 7 12 8 9 9 26 10 24 11 22 12
REMARK SMILES IDX 13 13 23 14 21 15 14 16 15 17 20 18 16 19 19 20 17 21 18 22
REMARK SMILES IDX 4 24 3 25 2 26 1 27
REMARK H PARENT 18 23
REMARK Flexibility Score: inf
ROOT
ATOM      1  C   UNL     1       8.172  79.390  -0.753  1.00  0.00     0.306 C 
ATOM      2  O   UNL     1       7.746  79.814  -1.860  1.00  0.00    -0.252 OA
ENDROOT
BRANCH   1   3
ATOM      3  O   UNL     1       9.523  79.506  -0.413  1.00  0.00    -0.462 OA
BRANCH   3   4
ATOM      4  C   UNL     1      10.545  78.646  -0.919  1.00  0.00     0.182 C 
ATOM      5  C   UNL     1      12.057  78.145  -2.664  1.00  0.00     0.002 C 
ATOM      6  C   UNL     1      10.840  77.278  -2.960  1.00  0.00     0.008 C 
ATOM      7  C   UNL     1      11.496  79.356  -1.906  1.00  0.00     0.008 C 
ATOM      8  C   UNL     1      12.984  78.562  -3.820  1.00  0.00     0.001 C 
ATOM      9  C   UNL     1       9.923  77.500  -1.743  1.00  0.00     0.046 C 
ATOM     10  C   UNL     1      10.677  80.347  -2.797  1.00  0.00     0.015 C 
ATOM     11  C   UNL     1      12.684  80.094  -1.253  1.00  0.00     0.011 C 
ATOM     12  C   UNL     1      14.200  79.330  -3.222  1.00  0.00     0.023 C 
ATOM     13  C   UNL     1      13.506  77.354  -4.608  1.00  0.00     0.009 C 
ATOM     14  C   UNL     1      13.744  80.508  -2.305  1.00  0.00     0.009 C 
ATOM     15  C   UNL     1      15.167  79.740  -4.336  1.00  0.00    -0.041 A 
ATOM     16  C   UNL     1      14.299  77.830  -5.827  1.00  0.00     0.036 C 
ATOM     17  C   UNL     1      15.250  78.970  -5.529  1.00  0.00    -0.041 A 
ATOM     18  C   UNL     1      16.093  80.790  -4.149  1.00  0.00     0.008 A 
ATOM     19  C   UNL     1      16.190  79.311  -6.514  1.00  0.00     0.050 A 
ATOM     20  C   UNL     1      17.028  81.107  -5.136  1.00  0.00     0.046 A 
ATOM     21  C   UNL     1      17.077  80.374  -6.319  1.00  0.00     0.115 A 
BRANCH  21  22
ATOM     22  O   UNL     1      18.014  80.704  -7.295  1.00  0.00    -0.508 OA
ATOM     23  H   UNL     1      18.993  80.460  -7.195  1.00  0.00     0.293 HD
ENDBRANCH  21  22
ENDBRANCH   3   4
ENDBRANCH   1   3
BRANCH   1  24
ATOM     24  C   UNL     1       7.219  78.781   0.229  1.00  0.00     0.123 C 
BRANCH  24  25
ATOM     25  C   UNL     1       7.077  77.263   0.038  1.00  0.00     0.011 C 
BRANCH  25  26
ATOM     26  C   UNL     1       5.956  76.611   0.868  1.00  0.00    -0.003 C 
ATOM     27  C   UNL     1       5.584  75.210   0.381  1.00  0.00     0.004 C 
ENDBRANCH  25  26
ENDBRANCH  24  25
ENDBRANCH   1  24
TORSDOF 6
ENDMDL
MODEL 6
REMARK VINA RESULT:    -8.644      2.480      8.865
REMARK INTER + INTRA:         -11.914
REMARK INTER:                 -11.488
REMARK INTRA:                  -0.426
REMARK UNBOUND:                -0.491
REMARK SMILES CCCCC(=O)O[C@H]1CC[C@H]2[C@@H]3CCc4cc(O)ccc4[C@H]3CC[C@]12C
REMARK SMILES IDX 5 1 6 2 7 3 8 4 11 5 10 6 25 7 12 8 9 9 26 10 24 11 22 12
REMARK SMILES IDX 13 13 23 14 21 15 14 16 15 17 20 18 16 19 19 20 17 21 18 22
REMARK SMILES IDX 4 24 3 25 2 26 1 27
REMARK H PARENT 18 23
REMARK Flexibility Score: inf
ROOT
ATOM      1  C   UNL     1      15.080  81.154  -4.960  1.00  0.00     0.306 C 
ATOM      2  O   UNL     1      14.453  82.021  -5.626  1.00  0.00    -0.252 OA
ENDROOT
BRANCH   1   3
ATOM      3  O   UNL     1      14.434  80.404  -3.973  1.00  0.00    -0.462 OA
BRANCH   3   4
ATOM      4  C   UNL     1      13.344  79.519  -4.234  1.00  0.00     0.182 C 
ATOM      5  C   UNL     1      11.708  78.050  -3.371  1.00  0.00     0.002 C 
ATOM      6  C   UNL     1      12.862  77.138  -3.766  1.00  0.00     0.008 C 
ATOM      7  C   UNL     1      12.370  79.396  -3.043  1.00  0.00     0.008 C 
ATOM      8  C   UNL     1      10.734  77.598  -2.268  1.00  0.00     0.001 C 
ATOM      9  C   UNL     1      13.859  78.083  -4.460  1.00  0.00     0.046 C 
ATOM     10  C   UNL     1      13.180  79.401  -1.706  1.00  0.00     0.015 C 
ATOM     11  C   UNL     1      11.260  80.466  -2.991  1.00  0.00     0.011 C 
ATOM     12  C   UNL     1       9.593  78.654  -2.156  1.00  0.00     0.023 C 
ATOM     13  C   UNL     1      10.108  76.231  -2.572  1.00  0.00     0.009 C 
ATOM     14  C   UNL     1      10.160  80.096  -1.965  1.00  0.00     0.009 C 
ATOM     15  C   UNL     1       8.582  78.230  -1.088  1.00  0.00    -0.041 A 
ATOM     16  C   UNL     1       9.267  75.766  -1.382  1.00  0.00     0.036 C 
ATOM     17  C   UNL     1       8.391  76.852  -0.793  1.00  0.00    -0.041 A 
ATOM     18  C   UNL     1       7.721  79.173  -0.484  1.00  0.00     0.008 A 
ATOM     19  C   UNL     1       7.411  76.468   0.136  1.00  0.00     0.050 A 
ATOM     20  C   UNL     1       6.744  78.770   0.429  1.00  0.00     0.046 A 
ATOM     21  C   UNL     1       6.589  77.422   0.744  1.00  0.00     0.115 A 
BRANCH  21  22
ATOM     22  O   UNL     1       5.611  77.037   1.658  1.00  0.00    -0.508 OA
ATOM     23  H   UNL     1       5.645  77.335   2.627  1.00  0.00     0.293 HD
ENDBRANCH  21  22
ENDBRANCH   3   4
ENDBRANCH   1   3
BRANCH   1  24
ATOM     24  C   UNL     1      16.527  80.895  -5.249  1.00  0.00     0.123 C 
BRANCH  24  25
ATOM     25  C   UNL     1      16.875  81.120  -6.729  1.00  0.00     0.011 C 
BRANCH  25  26
ATOM     26  C   UNL     1      17.777  80.039  -7.351  1.00  0.00    -0.003 C 
ATOM     27  C   UNL     1      17.268  78.618  -7.106  1.00  0.00     0.004 C 
ENDBRANCH  25  26
ENDBRANCH  24  25
ENDBRANCH   1  24
TORSDOF 6
ENDMDL
MODEL 7
REMARK VINA RESULT:    -8.424      2.603      8.467
REMARK INTER + INTRA:         -11.624
REMARK INTER:                 -11.276
REMARK INTRA:                  -0.348
REMARK UNBOUND:                -0.491
REMARK SMILES CCCCC(=O)O[C@H]1CC[C@H]2[C@@H]3CCc4cc(O)ccc4[C@H]3CC[C@]12C
REMARK SMILES IDX 5 1 6 2 7 3 8 4 11 5 10 6 25 7 12 8 9 9 26 10 24 11 22 12
REMARK SMILES IDX 13 13 23 14 21 15 14 16 15 17 20 18 16 19 19 20 17 21 18 22
REMARK SMILES IDX 4 24 3 25 2 26 1 27
REMARK H PARENT 18 23
REMARK Flexibility Score: inf
ROOT
ATOM      1  C   UNL     1      17.215  78.962  -7.145  1.00  0.00     0.306 C 
ATOM      2  O   UNL     1      17.570  77.808  -7.508  1.00  0.00    -0.252 OA
ENDROOT
BRANCH   1   3
ATOM      3  O   UNL     1      15.988  79.166  -6.508  1.00  0.00    -0.462 OA
BRANCH   3   4
ATOM      4  C   UNL     1      15.829  79.214  -5.090  1.00  0.00     0.182 C 
ATOM      5  C   UNL     1      14.492  79.842  -3.246  1.00  0.00     0.002 C 
ATOM      6  C   UNL     1      15.460  81.004  -3.423  1.00  0.00     0.008 C 
ATOM      7  C   UNL     1      14.349  79.238  -4.650  1.00  0.00     0.008 C 
ATOM      8  C   UNL     1      13.127  80.093  -2.580  1.00  0.00     0.001 C 
ATOM      9  C   UNL     1      16.418  80.523  -4.527  1.00  0.00     0.046 C 
ATOM     10  C   UNL     1      13.525  80.119  -5.645  1.00  0.00     0.015 C 
ATOM     11  C   UNL     1      13.688  77.852  -4.501  1.00  0.00     0.011 C 
ATOM     12  C   UNL     1      12.400  78.724  -2.417  1.00  0.00     0.023 C 
ATOM     13  C   UNL     1      13.268  80.741  -1.197  1.00  0.00     0.009 C 
ATOM     14  C   UNL     1      12.325  77.947  -3.769  1.00  0.00     0.009 C 
ATOM     15  C   UNL     1      11.047  78.922  -1.731  1.00  0.00    -0.041 A 
ATOM     16  C   UNL     1      11.886  81.100  -0.646  1.00  0.00     0.036 C 
ATOM     17  C   UNL     1      10.851  80.011  -0.837  1.00  0.00    -0.041 A 
ATOM     18  C   UNL     1      10.021  77.958  -1.850  1.00  0.00     0.008 A 
ATOM     19  C   UNL     1       9.630  80.144  -0.157  1.00  0.00     0.050 A 
ATOM     20  C   UNL     1       8.818  78.101  -1.156  1.00  0.00     0.046 A 
ATOM     21  C   UNL     1       8.618  79.193  -0.313  1.00  0.00     0.115 A 
BRANCH  21  22
ATOM     22  O   UNL     1       7.411  79.322   0.370  1.00  0.00    -0.508 OA
ATOM     23  H   UNL     1       6.968  78.529   0.819  1.00  0.00     0.293 HD
ENDBRANCH  21  22
ENDBRANCH   3   4
ENDBRANCH   1   3
BRANCH   1  24
ATOM     24  C   UNL     1      18.128  80.128  -7.368  1.00  0.00     0.123 C 
BRANCH  24  25
ATOM     25  C   UNL     1      17.408  81.314  -8.028  1.00  0.00     0.011 C 
BRANCH  25  26
ATOM     26  C   UNL     1      18.236  82.610  -8.105  1.00  0.00    -0.003 C 
ATOM     27  C   UNL     1      19.669  82.437  -7.600  1.00  0.00     0.004 C 
ENDBRANCH  25  26
ENDBRANCH  24  25
ENDBRANCH   1  24
TORSDOF 6
ENDMDL
MODEL 8
REMARK VINA RESULT:    -8.412      2.661      9.160
REMARK INTER + INTRA:         -11.607
REMARK INTER:                 -11.264
REMARK INTRA:                  -0.344
REMARK UNBOUND:                -0.491
REMARK SMILES CCCCC(=O)O[C@H]1CC[C@H]2[C@@H]3CCc4cc(O)ccc4[C@H]3CC[C@]12C
REMARK SMILES IDX 5 1 6 2 7 3 8 4 11 5 10 6 25 7 12 8 9 9 26 10 24 11 22 12
REMARK SMILES IDX 13 13 23 14 21 15 14 16 15 17 20 18 16 19 19 20 17 21 18 22
REMARK SMILES IDX 4 24 3 25 2 26 1 27
REMARK H PARENT 18 23
REMARK Flexibility Score: inf
ROOT
ATOM      1  C   UNL     1      14.837  80.087  -3.400  1.00  0.00     0.306 C 
ATOM      2  O   UNL     1      15.832  79.624  -2.781  1.00  0.00    -0.252 OA
ENDROOT
BRANCH   1   3
ATOM      3  O   UNL     1      13.557  80.032  -2.841  1.00  0.00    -0.462 OA
BRANCH   3   4
ATOM      4  C   UNL     1      12.502  79.219  -3.355  1.00  0.00     0.182 C 
ATOM      5  C   UNL     1      10.916  77.513  -2.960  1.00  0.00     0.002 C 
ATOM      6  C   UNL     1      12.105  76.787  -3.574  1.00  0.00     0.008 C 
ATOM      7  C   UNL     1      11.527  78.736  -2.261  1.00  0.00     0.008 C 
ATOM      8  C   UNL     1       9.953  76.740  -2.041  1.00  0.00     0.001 C 
ATOM      9  C   UNL     1      13.071  77.920  -3.962  1.00  0.00     0.046 C 
ATOM     10  C   UNL     1      12.328  78.397  -0.962  1.00  0.00     0.015 C 
ATOM     11  C   UNL     1      10.378  79.712  -1.932  1.00  0.00     0.011 C 
ATOM     12  C   UNL     1       8.773  77.683  -1.659  1.00  0.00     0.023 C 
ATOM     13  C   UNL     1       9.380  75.491  -2.724  1.00  0.00     0.009 C 
ATOM     14  C   UNL     1       9.285  79.034  -1.066  1.00  0.00     0.009 C 
ATOM     15  C   UNL     1       7.772  76.945  -0.767  1.00  0.00    -0.041 A 
ATOM     16  C   UNL     1       8.549  74.685  -1.723  1.00  0.00     0.036 C 
ATOM     17  C   UNL     1       7.630  75.534  -0.870  1.00  0.00    -0.041 A 
ATOM     18  C   UNL     1       6.873  77.653   0.061  1.00  0.00     0.008 A 
ATOM     19  C   UNL     1       6.659  74.874  -0.099  1.00  0.00     0.050 A 
ATOM     20  C   UNL     1       5.906  76.980   0.810  1.00  0.00     0.046 A 
ATOM     21  C   UNL     1       5.799  75.593   0.736  1.00  0.00     0.115 A 
BRANCH  21  22
ATOM     22  O   UNL     1       4.831  74.936   1.492  1.00  0.00    -0.508 OA
ATOM     23  H   UNL     1       4.129  75.448   2.015  1.00  0.00     0.293 HD
ENDBRANCH  21  22
ENDBRANCH   3   4
ENDBRANCH   1   3
BRANCH   1  24
ATOM     24  C   UNL     1      15.026  80.736  -4.737  1.00  0.00     0.123 C 
BRANCH  24  25
ATOM     25  C   UNL     1      16.463  80.582  -5.260  1.00  0.00     0.011 C 
BRANCH  25  26
ATOM     26  C   UNL     1      16.570  80.229  -6.755  1.00  0.00    -0.003 C 
ATOM     27  C   UNL     1      17.542  79.082  -7.033  1.00  0.00     0.004 C 
ENDBRANCH  25  26
ENDBRANCH  24  25
ENDBRANCH   1  24
TORSDOF 6
ENDMDL
MODEL 9
REMARK VINA RESULT:    -7.969      4.028      5.515
REMARK INTER + INTRA:         -11.023
REMARK INTER:                 -10.200
REMARK INTRA:                  -0.823
REMARK UNBOUND:                -0.491
REMARK SMILES CCCCC(=O)O[C@H]1CC[C@H]2[C@@H]3CCc4cc(O)ccc4[C@H]3CC[C@]12C
REMARK SMILES IDX 5 1 6 2 7 3 8 4 11 5 10 6 25 7 12 8 9 9 26 10 24 11 22 12
REMARK SMILES IDX 13 13 23 14 21 15 14 16 15 17 20 18 16 19 19 20 17 21 18 22
REMARK SMILES IDX 4 24 3 25 2 26 1 27
REMARK H PARENT 18 23
REMARK Flexibility Score: inf
ROOT
ATOM      1  C   UNL     1       8.959  72.655  -4.452  1.00  0.00     0.306 C 
ATOM      2  O   UNL     1       8.598  72.993  -5.611  1.00  0.00    -0.252 OA
ENDROOT
BRANCH   1   3
ATOM      3  O   UNL     1       8.562  73.393  -3.334  1.00  0.00    -0.462 OA
BRANCH   3   4
ATOM      4  C   UNL     1       8.479  74.819  -3.314  1.00  0.00     0.182 C 
ATOM      5  C   UNL     1       9.090  76.845  -2.263  1.00  0.00     0.002 C 
ATOM      6  C   UNL     1       7.725  76.512  -1.675  1.00  0.00     0.008 C 
ATOM      7  C   UNL     1       9.695  75.483  -2.635  1.00  0.00     0.008 C 
ATOM      8  C   UNL     1      10.069  77.713  -1.453  1.00  0.00     0.001 C 
ATOM      9  C   UNL     1       7.271  75.275  -2.470  1.00  0.00     0.046 C 
ATOM     10  C   UNL     1      10.140  74.624  -1.407  1.00  0.00     0.015 C 
ATOM     11  C   UNL     1      10.901  75.742  -3.562  1.00  0.00     0.011 C 
ATOM     12  C   UNL     1      11.322  77.996  -2.335  1.00  0.00     0.023 C 
ATOM     13  C   UNL     1       9.448  79.054  -1.040  1.00  0.00     0.009 C 
ATOM     14  C   UNL     1      11.942  76.677  -2.894  1.00  0.00     0.009 C 
ATOM     15  C   UNL     1      12.313  78.883  -1.578  1.00  0.00    -0.041 A 
ATOM     16  C   UNL     1      10.407  79.811  -0.118  1.00  0.00     0.036 C 
ATOM     17  C   UNL     1      11.847  79.790  -0.587  1.00  0.00    -0.041 A 
ATOM     18  C   UNL     1      13.677  78.932  -1.945  1.00  0.00     0.008 A 
ATOM     19  C   UNL     1      12.754  80.651   0.052  1.00  0.00     0.050 A 
ATOM     20  C   UNL     1      14.561  79.803  -1.307  1.00  0.00     0.046 A 
ATOM     21  C   UNL     1      14.105  80.660  -0.308  1.00  0.00     0.115 A 
BRANCH  21  22
ATOM     22  O   UNL     1      15.000  81.522   0.321  1.00  0.00    -0.508 OA
ATOM     23  H   UNL     1      14.829  81.876   1.256  1.00  0.00     0.293 HD
ENDBRANCH  21  22
ENDBRANCH   3   4
ENDBRANCH   1   3
BRANCH   1  24
ATOM     24  C   UNL     1       9.797  71.428  -4.260  1.00  0.00     0.123 C 
BRANCH  24  25
ATOM     25  C   UNL     1      11.040  71.701  -3.398  1.00  0.00     0.011 C 
BRANCH  25  26
ATOM     26  C   UNL     1      12.166  72.466  -4.116  1.00  0.00    -0.003 C 
ATOM     27  C   UNL     1      12.025  72.453  -5.639  1.00  0.00     0.004 C 
ENDBRANCH  25  26
ENDBRANCH  24  25
ENDBRANCH   1  24
TORSDOF 6
ENDMDL
MODEL 10
REMARK VINA RESULT:    -7.839      2.308      4.011
REMARK INTER + INTRA:         -10.851
REMARK INTER:                 -10.526
REMARK INTRA:                  -0.325
REMARK UNBOUND:                -0.491
REMARK SMILES CCCCC(=O)O[C@H]1CC[C@H]2[C@@H]3CCc4cc(O)ccc4[C@H]3CC[C@]12C
REMARK SMILES IDX 5 1 6 2 7 3 8 4 11 5 10 6 25 7 12 8 9 9 26 10 24 11 22 12
REMARK SMILES IDX 13 13 23 14 21 15 14 16 15 17 20 18 16 19 19 20 17 21 18 22
REMARK SMILES IDX 4 24 3 25 2 26 1 27
REMARK H PARENT 18 23
REMARK Flexibility Score: inf
ROOT
ATOM      1  C   UNL     1      11.298  79.942   0.306  1.00  0.00     0.306 C 
ATOM      2  O   UNL     1      12.364  79.798   0.962  1.00  0.00    -0.252 OA
ENDROOT
BRANCH   1   3
ATOM      3  O   UNL     1      11.038  79.156  -0.820  1.00  0.00    -0.462 OA
BRANCH   3   4
ATOM      4  C   UNL     1      12.036  78.399  -1.506  1.00  0.00     0.182 C 
ATOM      5  C   UNL     1      13.402  78.157  -3.419  1.00  0.00     0.002 C 
ATOM      6  C   UNL     1      12.189  77.283  -3.709  1.00  0.00     0.008 C 
ATOM      7  C   UNL     1      12.876  79.252  -2.480  1.00  0.00     0.008 C 
ATOM      8  C   UNL     1      14.211  78.737  -4.592  1.00  0.00     0.001 C 
ATOM      9  C   UNL     1      11.377  77.330  -2.403  1.00  0.00     0.046 C 
ATOM     10  C   UNL     1      11.954  80.305  -3.178  1.00  0.00     0.015 C 
ATOM     11  C   UNL     1      14.095  79.956  -1.849  1.00  0.00     0.011 C 
ATOM     12  C   UNL     1      15.454  79.479  -4.014  1.00  0.00     0.023 C 
ATOM     13  C   UNL     1      14.697  77.647  -5.556  1.00  0.00     0.009 C 
ATOM     14  C   UNL     1      15.047  80.528  -2.931  1.00  0.00     0.009 C 
ATOM     15  C   UNL     1      16.307  80.049  -5.150  1.00  0.00    -0.041 A 
ATOM     16  C   UNL     1      15.366  78.288  -6.774  1.00  0.00     0.036 C 
ATOM     17  C   UNL     1      16.307  79.422  -6.427  1.00  0.00    -0.041 A 
ATOM     18  C   UNL     1      17.215  81.106  -4.921  1.00  0.00     0.008 A 
ATOM     19  C   UNL     1      17.146  79.909  -7.442  1.00  0.00     0.050 A 
ATOM     20  C   UNL     1      18.050  81.569  -5.939  1.00  0.00     0.046 A 
ATOM     21  C   UNL     1      18.016  80.976  -7.200  1.00  0.00     0.115 A 
BRANCH  21  22
ATOM     22  O   UNL     1      18.854  81.450  -8.206  1.00  0.00    -0.508 OA
ATOM     23  H   UNL     1      19.026  82.442  -8.329  1.00  0.00     0.293 HD
ENDBRANCH  21  22
ENDBRANCH   3   4
ENDBRANCH   1   3
BRANCH   1  24
ATOM     24  C   UNL     1      10.277  80.944   0.752  1.00  0.00     0.123 C 
BRANCH  24  25
ATOM     25  C   UNL     1       9.212  81.208  -0.323  1.00  0.00     0.011 C 
BRANCH  25  26
ATOM     26  C   UNL     1       8.126  80.122  -0.434  1.00  0.00    -0.003 C 
ATOM     27  C   UNL     1       7.550  79.991  -1.845  1.00  0.00     0.004 C 
ENDBRANCH  25  26
ENDBRANCH  24  25
ENDBRANCH   1  24
TORSDOF 6
ENDMDL
MODEL 11
REMARK VINA RESULT:    -7.792      2.369      4.228
REMARK INTER + INTRA:         -10.788
REMARK INTER:                 -10.165
REMARK INTRA:                  -0.623
REMARK UNBOUND:                -0.491
REMARK SMILES CCCCC(=O)O[C@H]1CC[C@H]2[C@@H]3CCc4cc(O)ccc4[C@H]3CC[C@]12C
REMARK SMILES IDX 5 1 6 2 7 3 8 4 11 5 10 6 25 7 12 8 9 9 26 10 24 11 22 12
REMARK SMILES IDX 13 13 23 14 21 15 14 16 15 17 20 18 16 19 19 20 17 21 18 22
REMARK SMILES IDX 4 24 3 25 2 26 1 27
REMARK H PARENT 18 23
REMARK Flexibility Score: inf
ROOT
ATOM      1  C   UNL     1      10.265  80.489   0.260  1.00  0.00     0.306 C 
ATOM      2  O   UNL     1       9.235  80.447   0.985  1.00  0.00    -0.252 OA
ENDROOT
BRANCH   1   3
ATOM      3  O   UNL     1      10.283  79.876  -0.996  1.00  0.00    -0.462 OA
BRANCH   3   4
ATOM      4  C   UNL     1      11.316  78.992  -1.432  1.00  0.00     0.182 C 
ATOM      5  C   UNL     1      12.842  78.380  -3.129  1.00  0.00     0.002 C 
ATOM      6  C   UNL     1      11.635  77.482  -3.366  1.00  0.00     0.008 C 
ATOM      7  C   UNL     1      12.266  79.638  -2.463  1.00  0.00     0.008 C 
ATOM      8  C   UNL     1      13.772  78.720  -4.307  1.00  0.00     0.001 C 
ATOM      9  C   UNL     1      10.710  77.783  -2.174  1.00  0.00     0.046 C 
ATOM     10  C   UNL     1      11.443  80.552  -3.428  1.00  0.00     0.015 C 
ATOM     11  C   UNL     1      13.443  80.432  -1.860  1.00  0.00     0.011 C 
ATOM     12  C   UNL     1      14.978  79.541  -3.760  1.00  0.00     0.023 C 
ATOM     13  C   UNL     1      14.310  77.463  -5.002  1.00  0.00     0.009 C 
ATOM     14  C   UNL     1      14.506  80.779  -2.934  1.00  0.00     0.009 C 
ATOM     15  C   UNL     1      15.947  79.879  -4.896  1.00  0.00    -0.041 A 
ATOM     16  C   UNL     1      15.106  77.857  -6.248  1.00  0.00     0.036 C 
ATOM     17  C   UNL     1      16.045  79.024  -6.029  1.00  0.00    -0.041 A 
ATOM     18  C   UNL     1      16.862  80.949  -4.781  1.00  0.00     0.008 A 
ATOM     19  C   UNL     1      16.987  79.302  -7.032  1.00  0.00     0.050 A 
ATOM     20  C   UNL     1      17.800  81.202  -5.783  1.00  0.00     0.046 A 
ATOM     21  C   UNL     1      17.863  80.384  -6.910  1.00  0.00     0.115 A 
BRANCH  21  22
ATOM     22  O   UNL     1      18.803  80.652  -7.902  1.00  0.00    -0.508 OA
ATOM     23  H   UNL     1      19.245  79.907  -8.429  1.00  0.00     0.293 HD
ENDBRANCH  21  22
ENDBRANCH   3   4
ENDBRANCH   1   3
BRANCH   1  24
ATOM     24  C   UNL     1      11.478  81.233   0.730  1.00  0.00     0.123 C 
BRANCH  24  25
ATOM     25  C   UNL     1      12.264  80.451   1.794  1.00  0.00     0.011 C 
BRANCH  25  26
ATOM     26  C   UNL     1      13.566  79.804   1.287  1.00  0.00    -0.003 C 
ATOM     27  C   UNL     1      13.498  78.277   1.235  1.00  0.00     0.004 C 
ENDBRANCH  25  26
ENDBRANCH  24  25
ENDBRANCH   1  24
TORSDOF 6
ENDMDL
MODEL 12
REMARK VINA RESULT:    -7.763      2.645      4.097
REMARK INTER + INTRA:         -10.751
REMARK INTER:                 -10.151
REMARK INTRA:                  -0.599
REMARK UNBOUND:                -0.491
REMARK SMILES CCCCC(=O)O[C@H]1CC[C@H]2[C@@H]3CCc4cc(O)ccc4[C@H]3CC[C@]12C
REMARK SMILES IDX 5 1 6 2 7 3 8 4 11 5 10 6 25 7 12 8 9 9 26 10 24 11 22 12
REMARK SMILES IDX 13 13 23 14 21 15 14 16 15 17 20 18 16 19 19 20 17 21 18 22
REMARK SMILES IDX 4 24 3 25 2 26 1 27
REMARK H PARENT 18 23
REMARK Flexibility Score: inf
ROOT
ATOM      1  C   UNL     1      11.769  79.375  -1.146  1.00  0.00     0.306 C 
ATOM      2  O   UNL     1      12.586  78.956  -0.282  1.00  0.00    -0.252 OA
ENDROOT
BRANCH   1   3
ATOM      3  O   UNL     1      11.894  79.006  -2.488  1.00  0.00    -0.462 OA
BRANCH   3   4
ATOM      4  C   UNL     1      13.061  78.393  -3.037  1.00  0.00     0.182 C 
ATOM      5  C   UNL     1      14.755  78.431  -4.683  1.00  0.00     0.002 C 
ATOM      6  C   UNL     1      13.696  77.496  -5.254  1.00  0.00     0.008 C 
ATOM      7  C   UNL     1      13.975  79.393  -3.776  1.00  0.00     0.008 C 
ATOM      8  C   UNL     1      15.699  79.175  -5.644  1.00  0.00     0.001 C 
ATOM      9  C   UNL     1      12.668  77.362  -4.116  1.00  0.00     0.046 C 
ATOM     10  C   UNL     1      13.096  80.431  -4.548  1.00  0.00     0.015 C 
ATOM     11  C   UNL     1      14.996  80.128  -2.883  1.00  0.00     0.011 C 
ATOM     12  C   UNL     1      16.749  79.954  -4.796  1.00  0.00     0.023 C 
ATOM     13  C   UNL     1      16.442  78.217  -6.583  1.00  0.00     0.009 C 
ATOM     14  C   UNL     1      16.065  80.866  -3.729  1.00  0.00     0.009 C 
ATOM     15  C   UNL     1      17.731  80.689  -5.712  1.00  0.00    -0.041 A 
ATOM     16  C   UNL     1      17.252  79.015  -7.608  1.00  0.00     0.036 C 
ATOM     17  C   UNL     1      18.010  80.182  -7.011  1.00  0.00    -0.041 A 
ATOM     18  C   UNL     1      18.484  81.787  -5.243  1.00  0.00     0.008 A 
ATOM     19  C   UNL     1      18.965  80.821  -7.818  1.00  0.00     0.050 A 
ATOM     20  C   UNL     1      19.438  82.402  -6.055  1.00  0.00     0.046 A 
ATOM     21  C   UNL     1      19.678  81.926  -7.342  1.00  0.00     0.115 A 
BRANCH  21  22
ATOM     22  O   UNL     1      20.631  82.552  -8.142  1.00  0.00    -0.508 OA
ATOM     23  H   UNL     1      21.622  82.495  -7.930  1.00  0.00     0.293 HD
ENDBRANCH  21  22
ENDBRANCH   3   4
ENDBRANCH   1   3
BRANCH   1  24
ATOM     24  C   UNL     1      10.630  80.254  -0.729  1.00  0.00     0.123 C 
BRANCH  24  25
ATOM     25  C   UNL     1       9.843  80.796  -1.933  1.00  0.00     0.011 C 
BRANCH  25  26
ATOM     26  C   UNL     1       8.408  80.253  -2.062  1.00  0.00    -0.003 C 
ATOM     27  C   UNL     1       8.328  78.731  -1.936  1.00  0.00     0.004 C 
ENDBRANCH  25  26
ENDBRANCH  24  25
ENDBRANCH   1  24
TORSDOF 6
ENDMDL
MODEL 13
REMARK VINA RESULT:    -7.399      2.300      3.423
REMARK INTER + INTRA:         -10.269
REMARK INTER:                  -9.980
REMARK INTRA:                  -0.289
REMARK UNBOUND:                -0.491
REMARK SMILES CCCCC(=O)O[C@H]1CC[C@H]2[C@@H]3CCc4cc(O)ccc4[C@H]3CC[C@]12C
REMARK SMILES IDX 5 1 6 2 7 3 8 4 11 5 10 6 25 7 12 8 9 9 26 10 24 11 22 12
REMARK SMILES IDX 13 13 23 14 21 15 14 16 15 17 20 18 16 19 19 20 17 21 18 22
REMARK SMILES IDX 4 24 3 25 2 26 1 27
REMARK H PARENT 18 23
REMARK Flexibility Score: inf
ROOT
ATOM      1  C   UNL     1      11.237  77.721  -0.769  1.00  0.00     0.306 C 
ATOM      2  O   UNL     1       9.985  77.762  -0.632  1.00  0.00    -0.252 OA
ENDROOT
BRANCH   1   3
ATOM      3  O   UNL     1      11.811  77.384  -1.998  1.00  0.00    -0.462 OA
BRANCH   3   4
ATOM      4  C   UNL     1      11.866  78.268  -3.118  1.00  0.00     0.182 C 
ATOM      5  C   UNL     1      13.115  79.832  -4.374  1.00  0.00     0.002 C 
ATOM      6  C   UNL     1      12.283  80.687  -3.427  1.00  0.00     0.008 C 
ATOM      7  C   UNL     1      13.303  78.501  -3.631  1.00  0.00     0.008 C 
ATOM      8  C   UNL     1      14.444  80.385  -4.919  1.00  0.00     0.001 C 
ATOM      9  C   UNL     1      11.369  79.673  -2.718  1.00  0.00     0.046 C 
ATOM     10  C   UNL     1      14.284  78.580  -2.416  1.00  0.00     0.015 C 
ATOM     11  C   UNL     1      13.810  77.461  -4.651  1.00  0.00     0.011 C 
ATOM     12  C   UNL     1      15.016  79.365  -5.948  1.00  0.00     0.023 C 
ATOM     13  C   UNL     1      14.263  81.738  -5.619  1.00  0.00     0.009 C 
ATOM     14  C   UNL     1      15.116  77.930  -5.342  1.00  0.00     0.009 C 
ATOM     15  C   UNL     1      16.327  79.888  -6.540  1.00  0.00    -0.041 A 
ATOM     16  C   UNL     1      15.628  82.309  -6.011  1.00  0.00     0.036 C 
ATOM     17  C   UNL     1      16.561  81.289  -6.629  1.00  0.00    -0.041 A 
ATOM     18  C   UNL     1      17.258  79.012  -7.141  1.00  0.00     0.008 A 
ATOM     19  C   UNL     1      17.734  81.762  -7.239  1.00  0.00     0.050 A 
ATOM     20  C   UNL     1      18.413  79.502  -7.753  1.00  0.00     0.046 A 
ATOM     21  C   UNL     1      18.656  80.873  -7.801  1.00  0.00     0.115 A 
BRANCH  21  22
ATOM     22  O   UNL     1      19.814  81.345  -8.413  1.00  0.00    -0.508 OA
ATOM     23  H   UNL     1      20.296  80.807  -9.124  1.00  0.00     0.293 HD
ENDBRANCH  21  22
ENDBRANCH   3   4
ENDBRANCH   1   3
BRANCH   1  24
ATOM     24  C   UNL     1      12.126  78.069   0.385  1.00  0.00     0.123 C 
BRANCH  24  25
ATOM     25  C   UNL     1      12.618  79.524   0.323  1.00  0.00     0.011 C 
BRANCH  25  26
ATOM     26  C   UNL     1      12.122  80.422   1.470  1.00  0.00    -0.003 C 
ATOM     27  C   UNL     1      10.837  81.178   1.128  1.00  0.00     0.004 C 
ENDBRANCH  25  26
ENDBRANCH  24  25
ENDBRANCH   1  24
TORSDOF 6
ENDMDL
MODEL 14
REMARK VINA RESULT:    -7.352      2.246      2.844
REMARK INTER + INTRA:         -10.207
REMARK INTER:                 -11.511
REMARK INTRA:                   1.304
REMARK UNBOUND:                -0.491
REMARK SMILES CCCCC(=O)O[C@H]1CC[C@H]2[C@@H]3CCc4cc(O)ccc4[C@H]3CC[C@]12C
REMARK SMILES IDX 5 1 6 2 7 3 8 4 11 5 10 6 25 7 12 8 9 9 26 10 24 11 22 12
REMARK SMILES IDX 13 13 23 14 21 15 14 16 15 17 20 18 16 19 19 20 17 21 18 22
REMARK SMILES IDX 4 24 3 25 2 26 1 27
REMARK H PARENT 18 23
REMARK Flexibility Score: inf
ROOT
ATOM      1  C   UNL     1      11.906  77.496  -0.429  1.00  0.00     0.306 C 
ATOM      2  O   UNL     1      11.892  78.689  -0.026  1.00  0.00    -0.252 OA
ENDROOT
BRANCH   1   3
ATOM      3  O   UNL     1      11.500  77.173  -1.726  1.00  0.00    -0.462 OA
BRANCH   3   4
ATOM      4  C   UNL     1      11.546  78.088  -2.822  1.00  0.00     0.182 C 
ATOM      5  C   UNL     1      12.798  79.656  -4.069  1.00  0.00     0.002 C 
ATOM      6  C   UNL     1      12.014  80.504  -3.076  1.00  0.00     0.008 C 
ATOM      7  C   UNL     1      12.973  78.301  -3.369  1.00  0.00     0.008 C 
ATOM      8  C   UNL     1      14.124  80.193  -4.636  1.00  0.00     0.001 C 
ATOM      9  C   UNL     1      11.095  79.492  -2.370  1.00  0.00     0.046 C 
ATOM     10  C   UNL     1      13.989  78.321  -2.181  1.00  0.00     0.015 C 
ATOM     11  C   UNL     1      13.426  77.278  -4.432  1.00  0.00     0.011 C 
ATOM     12  C   UNL     1      14.643  79.189  -5.709  1.00  0.00     0.023 C 
ATOM     13  C   UNL     1      13.958  81.569  -5.293  1.00  0.00     0.009 C 
ATOM     14  C   UNL     1      14.724  77.735  -5.146  1.00  0.00     0.009 C 
ATOM     15  C   UNL     1      15.949  79.697  -6.324  1.00  0.00    -0.041 A 
ATOM     16  C   UNL     1      15.326  82.117  -5.707  1.00  0.00     0.036 C 
ATOM     17  C   UNL     1      16.215  81.093  -6.380  1.00  0.00    -0.041 A 
ATOM     18  C   UNL     1      16.841  78.816  -6.974  1.00  0.00     0.008 A 
ATOM     19  C   UNL     1      17.382  81.555  -7.009  1.00  0.00     0.050 A 
ATOM     20  C   UNL     1      17.991  79.295  -7.605  1.00  0.00     0.046 A 
ATOM     21  C   UNL     1      18.266  80.661  -7.621  1.00  0.00     0.115 A 
BRANCH  21  22
ATOM     22  O   UNL     1      19.419  81.123  -8.253  1.00  0.00    -0.508 OA
ATOM     23  H   UNL     1      19.486  82.070  -8.608  1.00  0.00     0.293 HD
ENDBRANCH  21  22
ENDBRANCH   3   4
ENDBRANCH   1   3
BRANCH   1  24
ATOM     24  C   UNL     1      12.393  76.408   0.479  1.00  0.00     0.123 C 
BRANCH  24  25
ATOM     25  C   UNL     1      13.737  76.758   1.138  1.00  0.00     0.011 C 
BRANCH  25  26
ATOM     26  C   UNL     1      14.282  75.687   2.100  1.00  0.00    -0.003 C 
ATOM     27  C   UNL     1      15.385  74.828   1.481  1.00  0.00     0.004 C 
ENDBRANCH  25  26
ENDBRANCH  24  25
ENDBRANCH   1  24
TORSDOF 6
ENDMDL
MODEL 15
REMARK VINA RESULT:    -7.129      2.356      8.421
REMARK INTER + INTRA:          -9.912
REMARK INTER:                  -9.589
REMARK INTRA:                  -0.323
REMARK UNBOUND:                -0.491
REMARK SMILES CCCCC(=O)O[C@H]1CC[C@H]2[C@@H]3CCc4cc(O)ccc4[C@H]3CC[C@]12C
REMARK SMILES IDX 5 1 6 2 7 3 8 4 11 5 10 6 25 7 12 8 9 9 26 10 24 11 22 12
REMARK SMILES IDX 13 13 23 14 21 15 14 16 15 17 20 18 16 19 19 20 17 21 18 22
REMARK SMILES IDX 4 24 3 25 2 26 1 27
REMARK H PARENT 18 23
REMARK Flexibility Score: inf
ROOT
ATOM      1  C   UNL     1      16.143  80.363  -4.792  1.00  0.00     0.306 C 
ATOM      2  O   UNL     1      17.014  81.229  -4.509  1.00  0.00    -0.252 OA
ENDROOT
BRANCH   1   3
ATOM      3  O   UNL     1      15.512  79.626  -3.786  1.00  0.00    -0.462 OA
BRANCH   3   4
ATOM      4  C   UNL     1      14.343  80.068  -3.093  1.00  0.00     0.182 C 
ATOM      5  C   UNL     1      12.057  79.726  -2.606  1.00  0.00     0.002 C 
ATOM      6  C   UNL     1      12.052  80.725  -3.755  1.00  0.00     0.008 C 
ATOM      7  C   UNL     1      13.352  78.923  -2.794  1.00  0.00     0.008 C 
ATOM      8  C   UNL     1      10.835  78.815  -2.392  1.00  0.00     0.001 C 
ATOM      9  C   UNL     1      13.540  81.052  -3.968  1.00  0.00     0.046 C 
ATOM     10  C   UNL     1      13.320  77.932  -4.003  1.00  0.00     0.015 C 
ATOM     11  C   UNL     1      13.621  78.150  -1.486  1.00  0.00     0.011 C 
ATOM     12  C   UNL     1      11.056  77.992  -1.088  1.00  0.00     0.023 C 
ATOM     13  C   UNL     1       9.534  79.616  -2.252  1.00  0.00     0.009 C 
ATOM     14  C   UNL     1      12.425  77.241  -1.106  1.00  0.00     0.009 C 
ATOM     15  C   UNL     1       9.849  77.091  -0.819  1.00  0.00    -0.041 A 
ATOM     16  C   UNL     1       8.339  78.661  -2.189  1.00  0.00     0.036 C 
ATOM     17  C   UNL     1       8.559  77.467  -1.285  1.00  0.00    -0.041 A 
ATOM     18  C   UNL     1       9.958  75.955   0.014  1.00  0.00     0.008 A 
ATOM     19  C   UNL     1       7.446  76.671  -0.973  1.00  0.00     0.050 A 
ATOM     20  C   UNL     1       8.837  75.182   0.323  1.00  0.00     0.046 A 
ATOM     21  C   UNL     1       7.582  75.534  -0.170  1.00  0.00     0.115 A 
BRANCH  21  22
ATOM     22  O   UNL     1       6.475  74.751   0.145  1.00  0.00    -0.508 OA
ATOM     23  H   UNL     1       5.845  74.408  -0.572  1.00  0.00     0.293 HD
ENDBRANCH  21  22
ENDBRANCH   3   4
ENDBRANCH   1   3
BRANCH   1  24
ATOM     24  C   UNL     1      15.751  80.139  -6.220  1.00  0.00     0.123 C 
BRANCH  24  25
ATOM     25  C   UNL     1      16.734  80.793  -7.203  1.00  0.00     0.011 C 
BRANCH  25  26
ATOM     26  C   UNL     1      17.958  79.930  -7.560  1.00  0.00    -0.003 C 
ATOM     27  C   UNL     1      17.657  78.431  -7.563  1.00  0.00     0.004 C 
ENDBRANCH  25  26
ENDBRANCH  24  25
ENDBRANCH   1  24
TORSDOF 6
ENDMDL
