MODEL 1
REMARK VINA RESULT:   -11.386      0.000      0.000
REMARK INTER + INTRA:         -15.681
REMARK INTER:                 -15.047
REMARK INTRA:                  -0.634
REMARK UNBOUND:                -0.634
REMARK SMILES C[C@]12CC[C@@H]3c4ccc(O)cc4CC[C@H]3[C@@H]1CC[C@@H]2OC(=O)CCC1CCCC1
REMARK SMILES IDX 21 1 22 2 20 3 19 4 18 5 2 6 17 7 16 8 3 9 1 10 15 11 4 12
REMARK SMILES IDX 14 13 5 14 13 15 6 16 12 17 7 18 11 19 8 20 9 21 10 22 23 24
REMARK SMILES IDX 24 25 25 26 26 27 29 28 27 29 28 30
REMARK H PARENT 10 23
REMARK Flexibility Score: inf
ROOT
ATOM      1  C   UNL     1       9.846  76.100  -1.511  1.00  0.00     0.306 C 
ATOM      2  O   UNL     1       9.617  75.445  -0.459  1.00  0.00    -0.252 OA
ENDROOT
BRANCH   1   3
ATOM      3  O   UNL     1      10.887  77.040  -1.589  1.00  0.00    -0.462 OA
BRANCH   3   4
ATOM      4  C   UNL     1      11.098  78.069  -2.570  1.00  0.00     0.182 C 
ATOM      5  C   UNL     1      10.651  79.497  -2.173  1.00  0.00     0.046 C 
ATOM      6  C   UNL     1      12.546  78.216  -3.089  1.00  0.00     0.008 C 
ATOM      7  C   UNL     1      11.636  80.456  -2.866  1.00  0.00     0.008 C 
ATOM      8  C   UNL     1      12.422  79.561  -3.821  1.00  0.00     0.002 C 
ATOM      9  C   UNL     1      12.973  77.154  -4.127  1.00  0.00     0.011 C 
ATOM     10  C   UNL     1      13.561  78.237  -1.906  1.00  0.00     0.015 C 
ATOM     11  C   UNL     1      13.774  80.042  -4.382  1.00  0.00     0.001 C 
ATOM     12  C   UNL     1      14.289  77.553  -4.847  1.00  0.00     0.009 C 
ATOM     13  C   UNL     1      13.662  81.411  -5.064  1.00  0.00     0.009 C 
ATOM     14  C   UNL     1      14.266  79.001  -5.432  1.00  0.00     0.023 C 
ATOM     15  C   UNL     1      15.052  81.903  -5.476  1.00  0.00     0.036 C 
ATOM     16  C   UNL     1      15.592  79.452  -6.045  1.00  0.00    -0.041 A 
ATOM     17  C   UNL     1      15.904  80.838  -6.131  1.00  0.00    -0.041 A 
ATOM     18  C   UNL     1      16.457  78.531  -6.676  1.00  0.00     0.008 A 
ATOM     19  C   UNL     1      17.086  81.249  -6.768  1.00  0.00     0.050 A 
ATOM     20  C   UNL     1      17.623  78.959  -7.311  1.00  0.00     0.046 A 
ATOM     21  C   UNL     1      17.940  80.318  -7.358  1.00  0.00     0.115 A 
BRANCH  21  22
ATOM     22  O   UNL     1      19.106  80.754  -7.986  1.00  0.00    -0.508 OA
ATOM     23  H   UNL     1      20.017  80.630  -7.560  1.00  0.00     0.293 HD
ENDBRANCH  21  22
ENDBRANCH   3   4
ENDBRANCH   1   3
BRANCH   1  24
ATOM     24  C   UNL     1       8.988  75.874  -2.715  1.00  0.00     0.123 C 
BRANCH  24  25
ATOM     25  C   UNL     1       8.439  74.438  -2.773  1.00  0.00     0.015 C 
BRANCH  25  26
ATOM     26  C   UNL     1       9.467  73.407  -3.294  1.00  0.00    -0.011 C 
ATOM     27  C   UNL     1       9.038  72.810  -4.628  1.00  0.00     0.003 C 
ATOM     28  C   UNL     1       9.656  72.199  -2.371  1.00  0.00     0.003 C 
ATOM     29  C   UNL     1       9.751  71.472  -4.713  1.00  0.00     0.000 C 
ATOM     30  C   UNL     1       9.952  71.004  -3.275  1.00  0.00     0.000 C 
ENDBRANCH  25  26
ENDBRANCH  24  25
ENDBRANCH   1  24
TORSDOF 6
ENDMDL
MODEL 2
REMARK VINA RESULT:   -10.424      1.837      3.247
REMARK INTER + INTRA:         -14.410
REMARK INTER:                 -13.633
REMARK INTRA:                  -0.776
REMARK UNBOUND:                -0.634
REMARK SMILES C[C@]12CC[C@@H]3c4ccc(O)cc4CC[C@H]3[C@@H]1CC[C@@H]2OC(=O)CCC1CCCC1
REMARK SMILES IDX 21 1 22 2 20 3 19 4 18 5 2 6 17 7 16 8 3 9 1 10 15 11 4 12
REMARK SMILES IDX 14 13 5 14 13 15 6 16 12 17 7 18 11 19 8 20 9 21 10 22 23 24
REMARK SMILES IDX 24 25 25 26 26 27 29 28 27 29 28 30
REMARK H PARENT 10 23
REMARK Flexibility Score: inf
ROOT
ATOM      1  C   UNL     1      10.096  75.920  -1.617  1.00  0.00     0.306 C 
ATOM      2  O   UNL     1      10.431  74.824  -1.092  1.00  0.00    -0.252 OA
ENDROOT
BRANCH   1   3
ATOM      3  O   UNL     1      10.928  77.051  -1.570  1.00  0.00    -0.462 OA
BRANCH   3   4
ATOM      4  C   UNL     1      11.133  78.060  -2.573  1.00  0.00     0.182 C 
ATOM      5  C   UNL     1      10.681  79.494  -2.205  1.00  0.00     0.046 C 
ATOM      6  C   UNL     1      12.579  78.202  -3.098  1.00  0.00     0.008 C 
ATOM      7  C   UNL     1      11.661  80.443  -2.921  1.00  0.00     0.008 C 
ATOM      8  C   UNL     1      12.448  79.531  -3.858  1.00  0.00     0.002 C 
ATOM      9  C   UNL     1      13.009  77.120  -4.114  1.00  0.00     0.011 C 
ATOM     10  C   UNL     1      13.596  78.252  -1.918  1.00  0.00     0.015 C 
ATOM     11  C   UNL     1      13.797  80.005  -4.432  1.00  0.00     0.001 C 
ATOM     12  C   UNL     1      14.322  77.509  -4.845  1.00  0.00     0.009 C 
ATOM     13  C   UNL     1      13.678  81.359  -5.143  1.00  0.00     0.009 C 
ATOM     14  C   UNL     1      14.292  78.944  -5.460  1.00  0.00     0.023 C 
ATOM     15  C   UNL     1      15.065  81.848  -5.568  1.00  0.00     0.036 C 
ATOM     16  C   UNL     1      15.615  79.388  -6.086  1.00  0.00    -0.041 A 
ATOM     17  C   UNL     1      15.920  80.773  -6.202  1.00  0.00    -0.041 A 
ATOM     18  C   UNL     1      16.482  78.457  -6.699  1.00  0.00     0.008 A 
ATOM     19  C   UNL     1      17.099  81.175  -6.850  1.00  0.00     0.050 A 
ATOM     20  C   UNL     1      17.645  78.876  -7.345  1.00  0.00     0.046 A 
ATOM     21  C   UNL     1      17.956  80.236  -7.421  1.00  0.00     0.115 A 
BRANCH  21  22
ATOM     22  O   UNL     1      19.119  80.663  -8.061  1.00  0.00    -0.508 OA
ATOM     23  H   UNL     1      19.810  80.006  -8.401  1.00  0.00     0.293 HD
ENDBRANCH  21  22
ENDBRANCH   3   4
ENDBRANCH   1   3
BRANCH   1  24
ATOM     24  C   UNL     1       8.776  76.026  -2.312  1.00  0.00     0.123 C 
BRANCH  24  25
ATOM     25  C   UNL     1       7.597  75.771  -1.357  1.00  0.00     0.015 C 
BRANCH  25  26
ATOM     26  C   UNL     1       7.509  76.795  -0.203  1.00  0.00    -0.011 C 
ATOM     27  C   UNL     1       6.224  76.630   0.599  1.00  0.00     0.003 C 
ATOM     28  C   UNL     1       7.490  78.254  -0.668  1.00  0.00     0.003 C 
ATOM     29  C   UNL     1       5.984  77.981   1.250  1.00  0.00     0.000 C 
ATOM     30  C   UNL     1       6.618  79.017   0.326  1.00  0.00     0.000 C 
ENDBRANCH  25  26
ENDBRANCH  24  25
ENDBRANCH   1  24
TORSDOF 6
ENDMDL
MODEL 3
REMARK VINA RESULT:   -10.120      2.685      9.786
REMARK INTER + INTRA:         -14.008
REMARK INTER:                 -13.352
REMARK INTRA:                  -0.655
REMARK UNBOUND:                -0.634
REMARK SMILES C[C@]12CC[C@@H]3c4ccc(O)cc4CC[C@H]3[C@@H]1CC[C@@H]2OC(=O)CCC1CCCC1
REMARK SMILES IDX 21 1 22 2 20 3 19 4 18 5 2 6 17 7 16 8 3 9 1 10 15 11 4 12
REMARK SMILES IDX 14 13 5 14 13 15 6 16 12 17 7 18 11 19 8 20 9 21 10 22 23 24
REMARK SMILES IDX 24 25 25 26 26 27 29 28 27 29 28 30
REMARK H PARENT 10 23
REMARK Flexibility Score: inf
ROOT
ATOM      1  C   UNL     1      14.844  81.006  -4.798  1.00  0.00     0.306 C 
ATOM      2  O   UNL     1      14.484  81.900  -5.610  1.00  0.00    -0.252 OA
ENDROOT
BRANCH   1   3
ATOM      3  O   UNL     1      13.981  80.515  -3.804  1.00  0.00    -0.462 OA
BRANCH   3   4
ATOM      4  C   UNL     1      12.973  79.496  -3.912  1.00  0.00     0.182 C 
ATOM      5  C   UNL     1      13.479  78.059  -4.190  1.00  0.00     0.046 C 
ATOM      6  C   UNL     1      12.010  79.372  -2.709  1.00  0.00     0.008 C 
ATOM      7  C   UNL     1      12.493  77.118  -3.473  1.00  0.00     0.008 C 
ATOM      8  C   UNL     1      11.344  78.030  -3.050  1.00  0.00     0.002 C 
ATOM      9  C   UNL     1      10.902  80.447  -2.654  1.00  0.00     0.011 C 
ATOM     10  C   UNL     1      12.800  79.357  -1.365  1.00  0.00     0.015 C 
ATOM     11  C   UNL     1      10.370  77.572  -1.948  1.00  0.00     0.001 C 
ATOM     12  C   UNL     1       9.789  80.071  -1.639  1.00  0.00     0.009 C 
ATOM     13  C   UNL     1       9.746  76.206  -2.260  1.00  0.00     0.009 C 
ATOM     14  C   UNL     1       9.228  78.627  -1.835  1.00  0.00     0.023 C 
ATOM     15  C   UNL     1       8.899  75.736  -1.074  1.00  0.00     0.036 C 
ATOM     16  C   UNL     1       8.212  78.199  -0.775  1.00  0.00    -0.041 A 
ATOM     17  C   UNL     1       8.015  76.818  -0.493  1.00  0.00    -0.041 A 
ATOM     18  C   UNL     1       7.345  79.136  -0.173  1.00  0.00     0.008 A 
ATOM     19  C   UNL     1       7.024  76.428   0.423  1.00  0.00     0.050 A 
ATOM     20  C   UNL     1       6.361  78.728   0.729  1.00  0.00     0.046 A 
ATOM     21  C   UNL     1       6.199  77.374   1.029  1.00  0.00     0.115 A 
BRANCH  21  22
ATOM     22  O   UNL     1       5.222  76.958   1.932  1.00  0.00    -0.508 OA
ATOM     23  H   UNL     1       4.576  76.210   1.708  1.00  0.00     0.293 HD
ENDBRANCH  21  22
ENDBRANCH   3   4
ENDBRANCH   1   3
BRANCH   1  24
ATOM     24  C   UNL     1      16.229  80.448  -4.890  1.00  0.00     0.123 C 
BRANCH  24  25
ATOM     25  C   UNL     1      16.485  79.756  -6.240  1.00  0.00     0.015 C 
BRANCH  25  26
ATOM     26  C   UNL     1      17.677  80.354  -7.020  1.00  0.00    -0.011 C 
ATOM     27  C   UNL     1      18.599  81.157  -6.110  1.00  0.00     0.003 C 
ATOM     28  C   UNL     1      17.267  81.338  -8.121  1.00  0.00     0.003 C 
ATOM     29  C   UNL     1      19.317  82.130  -7.030  1.00  0.00     0.000 C 
ATOM     30  C   UNL     1      18.371  82.390  -8.198  1.00  0.00     0.000 C 
ENDBRANCH  25  26
ENDBRANCH  24  25
ENDBRANCH   1  24
TORSDOF 6
ENDMDL
MODEL 4
REMARK VINA RESULT:    -9.788      2.516      9.410
REMARK INTER + INTRA:         -13.569
REMARK INTER:                 -12.870
REMARK INTRA:                  -0.699
REMARK UNBOUND:                -0.634
REMARK SMILES C[C@]12CC[C@@H]3c4ccc(O)cc4CC[C@H]3[C@@H]1CC[C@@H]2OC(=O)CCC1CCCC1
REMARK SMILES IDX 21 1 22 2 20 3 19 4 18 5 2 6 17 7 16 8 3 9 1 10 15 11 4 12
REMARK SMILES IDX 14 13 5 14 13 15 6 16 12 17 7 18 11 19 8 20 9 21 10 22 23 24
REMARK SMILES IDX 24 25 25 26 26 27 29 28 27 29 28 30
REMARK H PARENT 10 23
REMARK Flexibility Score: inf
ROOT
ATOM      1  C   UNL     1      15.024  79.881  -2.822  1.00  0.00     0.306 C 
ATOM      2  O   UNL     1      15.553  79.247  -1.870  1.00  0.00    -0.252 OA
ENDROOT
BRANCH   1   3
ATOM      3  O   UNL     1      13.634  80.067  -2.910  1.00  0.00    -0.462 OA
BRANCH   3   4
ATOM      4  C   UNL     1      12.626  79.131  -3.328  1.00  0.00     0.182 C 
ATOM      5  C   UNL     1      13.134  77.841  -4.018  1.00  0.00     0.046 C 
ATOM      6  C   UNL     1      11.650  78.657  -2.228  1.00  0.00     0.008 C 
ATOM      7  C   UNL     1      12.138  76.733  -3.626  1.00  0.00     0.008 C 
ATOM      8  C   UNL     1      10.986  77.482  -2.961  1.00  0.00     0.002 C 
ATOM      9  C   UNL     1      10.543  79.671  -1.865  1.00  0.00     0.011 C 
ATOM     10  C   UNL     1      12.424  78.238  -0.942  1.00  0.00     0.015 C 
ATOM     11  C   UNL     1       9.999  76.719  -2.057  1.00  0.00     0.001 C 
ATOM     12  C   UNL     1       9.418  79.014  -1.020  1.00  0.00     0.009 C 
ATOM     13  C   UNL     1       9.377  75.513  -2.770  1.00  0.00     0.009 C 
ATOM     14  C   UNL     1       8.857  77.697  -1.645  1.00  0.00     0.023 C 
ATOM     15  C   UNL     1       8.517  74.713  -1.788  1.00  0.00     0.036 C 
ATOM     16  C   UNL     1       7.829  76.976  -0.773  1.00  0.00    -0.041 A 
ATOM     17  C   UNL     1       7.627  75.575  -0.919  1.00  0.00    -0.041 A 
ATOM     18  C   UNL     1       6.956  77.694   0.073  1.00  0.00     0.008 A 
ATOM     19  C   UNL     1       6.626  74.933  -0.172  1.00  0.00     0.050 A 
ATOM     20  C   UNL     1       5.962  77.040   0.801  1.00  0.00     0.046 A 
ATOM     21  C   UNL     1       5.795  75.659   0.681  1.00  0.00     0.115 A 
BRANCH  21  22
ATOM     22  O   UNL     1       4.807  74.996   1.408  1.00  0.00    -0.508 OA
ATOM     23  H   UNL     1       4.706  73.989   1.370  1.00  0.00     0.293 HD
ENDBRANCH  21  22
ENDBRANCH   3   4
ENDBRANCH   1   3
BRANCH   1  24
ATOM     24  C   UNL     1      15.897  80.454  -3.894  1.00  0.00     0.123 C 
BRANCH  24  25
ATOM     25  C   UNL     1      15.111  80.748  -5.184  1.00  0.00     0.015 C 
BRANCH  25  26
ATOM     26  C   UNL     1      15.843  80.290  -6.466  1.00  0.00    -0.011 C 
ATOM     27  C   UNL     1      16.455  78.904  -6.300  1.00  0.00     0.003 C 
ATOM     28  C   UNL     1      17.019  81.188  -6.863  1.00  0.00     0.003 C 
ATOM     29  C   UNL     1      17.582  78.843  -7.316  1.00  0.00     0.000 C 
ATOM     30  C   UNL     1      18.063  80.278  -7.507  1.00  0.00     0.000 C 
ENDBRANCH  25  26
ENDBRANCH  24  25
ENDBRANCH   1  24
TORSDOF 6
ENDMDL
MODEL 5
REMARK VINA RESULT:    -9.681      3.165      7.885
REMARK INTER + INTRA:         -13.428
REMARK INTER:                 -12.292
REMARK INTRA:                  -1.135
REMARK UNBOUND:                -0.634
REMARK SMILES C[C@]12CC[C@@H]3c4ccc(O)cc4CC[C@H]3[C@@H]1CC[C@@H]2OC(=O)CCC1CCCC1
REMARK SMILES IDX 21 1 22 2 20 3 19 4 18 5 2 6 17 7 16 8 3 9 1 10 15 11 4 12
REMARK SMILES IDX 14 13 5 14 13 15 6 16 12 17 7 18 11 19 8 20 9 21 10 22 23 24
REMARK SMILES IDX 24 25 25 26 26 27 29 28 27 29 28 30
REMARK H PARENT 10 23
REMARK Flexibility Score: inf
ROOT
ATOM      1  C   UNL     1      12.055  80.791   0.139  1.00  0.00     0.306 C 
ATOM      2  O   UNL     1      12.265  80.430   1.328  1.00  0.00    -0.252 OA
ENDROOT
BRANCH   1   3
ATOM      3  O   UNL     1      10.756  80.992  -0.357  1.00  0.00    -0.462 OA
BRANCH   3   4
ATOM      4  C   UNL     1       9.706  80.029  -0.548  1.00  0.00     0.182 C 
ATOM      5  C   UNL     1       8.410  80.552  -1.214  1.00  0.00     0.046 C 
ATOM      6  C   UNL     1      10.095  78.758  -1.336  1.00  0.00     0.008 C 
ATOM      7  C   UNL     1       7.853  79.374  -2.036  1.00  0.00     0.008 C 
ATOM      8  C   UNL     1       8.696  78.179  -1.598  1.00  0.00     0.002 C 
ATOM      9  C   UNL     1      10.892  77.712  -0.525  1.00  0.00     0.011 C 
ATOM     10  C   UNL     1      10.875  79.126  -2.634  1.00  0.00     0.015 C 
ATOM     11  C   UNL     1       8.748  76.916  -2.478  1.00  0.00     0.001 C 
ATOM     12  C   UNL     1      10.951  76.344  -1.256  1.00  0.00     0.009 C 
ATOM     13  C   UNL     1       7.349  76.369  -2.786  1.00  0.00     0.009 C 
ATOM     14  C   UNL     1       9.554  75.821  -1.715  1.00  0.00     0.023 C 
ATOM     15  C   UNL     1       7.451  75.204  -3.774  1.00  0.00     0.036 C 
ATOM     16  C   UNL     1       9.604  74.531  -2.535  1.00  0.00    -0.041 A 
ATOM     17  C   UNL     1       8.552  74.221  -3.442  1.00  0.00    -0.041 A 
ATOM     18  C   UNL     1      10.597  73.555  -2.301  1.00  0.00     0.008 A 
ATOM     19  C   UNL     1       8.564  72.998  -4.132  1.00  0.00     0.050 A 
ATOM     20  C   UNL     1      10.587  72.342  -2.991  1.00  0.00     0.046 A 
ATOM     21  C   UNL     1       9.572  72.061  -3.907  1.00  0.00     0.115 A 
BRANCH  21  22
ATOM     22  O   UNL     1       9.557  70.853  -4.604  1.00  0.00    -0.508 OA
ATOM     23  H   UNL     1       9.299  69.983  -4.153  1.00  0.00     0.293 HD
ENDBRANCH  21  22
ENDBRANCH   3   4
ENDBRANCH   1   3
BRANCH   1  24
ATOM     24  C   UNL     1      13.218  81.013  -0.775  1.00  0.00     0.123 C 
BRANCH  24  25
ATOM     25  C   UNL     1      14.062  79.739  -0.957  1.00  0.00     0.015 C 
BRANCH  25  26
ATOM     26  C   UNL     1      14.536  79.520  -2.411  1.00  0.00    -0.011 C 
ATOM     27  C   UNL     1      13.980  80.583  -3.351  1.00  0.00     0.003 C 
ATOM     28  C   UNL     1      14.078  78.190  -3.019  1.00  0.00     0.003 C 
ATOM     29  C   UNL     1      14.002  79.946  -4.730  1.00  0.00     0.000 C 
ATOM     30  C   UNL     1      13.858  78.444  -4.508  1.00  0.00     0.000 C 
ENDBRANCH  25  26
ENDBRANCH  24  25
ENDBRANCH   1  24
TORSDOF 6
ENDMDL
MODEL 6
REMARK VINA RESULT:    -9.617      1.213      1.704
REMARK INTER + INTRA:         -13.343
REMARK INTER:                 -12.860
REMARK INTRA:                  -0.483
REMARK UNBOUND:                -0.634
REMARK SMILES C[C@]12CC[C@@H]3c4ccc(O)cc4CC[C@H]3[C@@H]1CC[C@@H]2OC(=O)CCC1CCCC1
REMARK SMILES IDX 21 1 22 2 20 3 19 4 18 5 2 6 17 7 16 8 3 9 1 10 15 11 4 12
REMARK SMILES IDX 14 13 5 14 13 15 6 16 12 17 7 18 11 19 8 20 9 21 10 22 23 24
REMARK SMILES IDX 24 25 25 26 26 27 29 28 27 29 28 30
REMARK H PARENT 10 23
REMARK Flexibility Score: inf
ROOT
ATOM      1  C   UNL     1       9.956  76.451  -0.951  1.00  0.00     0.306 C 
ATOM      2  O   UNL     1       8.864  77.059  -0.790  1.00  0.00    -0.252 OA
ENDROOT
BRANCH   1   3
ATOM      3  O   UNL     1      11.119  77.114  -1.376  1.00  0.00    -0.462 OA
BRANCH   3   4
ATOM      4  C   UNL     1      11.266  78.096  -2.416  1.00  0.00     0.182 C 
ATOM      5  C   UNL     1      10.775  79.526  -2.081  1.00  0.00     0.046 C 
ATOM      6  C   UNL     1      12.693  78.268  -2.982  1.00  0.00     0.008 C 
ATOM      7  C   UNL     1      11.705  80.482  -2.851  1.00  0.00     0.008 C 
ATOM      8  C   UNL     1      12.500  79.567  -3.779  1.00  0.00     0.002 C 
ATOM      9  C   UNL     1      13.134  77.169  -3.974  1.00  0.00     0.011 C 
ATOM     10  C   UNL     1      13.737  78.389  -1.830  1.00  0.00     0.015 C 
ATOM     11  C   UNL     1      13.817  80.066  -4.402  1.00  0.00     0.001 C 
ATOM     12  C   UNL     1      14.415  77.577  -4.750  1.00  0.00     0.009 C 
ATOM     13  C   UNL     1      13.636  81.392  -5.151  1.00  0.00     0.009 C 
ATOM     14  C   UNL     1      14.321  78.989  -5.409  1.00  0.00     0.023 C 
ATOM     15  C   UNL     1      14.995  81.912  -5.627  1.00  0.00     0.036 C 
ATOM     16  C   UNL     1      15.613  79.455  -6.082  1.00  0.00    -0.041 A 
ATOM     17  C   UNL     1      15.870  80.845  -6.249  1.00  0.00    -0.041 A 
ATOM     18  C   UNL     1      16.495  78.534  -6.688  1.00  0.00     0.008 A 
ATOM     19  C   UNL     1      17.018  81.264  -6.939  1.00  0.00     0.050 A 
ATOM     20  C   UNL     1      17.627  78.970  -7.376  1.00  0.00     0.046 A 
ATOM     21  C   UNL     1      17.892  80.336  -7.503  1.00  0.00     0.115 A 
BRANCH  21  22
ATOM     22  O   UNL     1      19.023  80.780  -8.185  1.00  0.00    -0.508 OA
ATOM     23  H   UNL     1      19.924  80.330  -8.069  1.00  0.00     0.293 HD
ENDBRANCH  21  22
ENDBRANCH   3   4
ENDBRANCH   1   3
BRANCH   1  24
ATOM     24  C   UNL     1      10.022  74.981  -0.683  1.00  0.00     0.123 C 
BRANCH  24  25
ATOM     25  C   UNL     1       9.957  74.153  -1.978  1.00  0.00     0.015 C 
BRANCH  25  26
ATOM     26  C   UNL     1       8.520  73.964  -2.515  1.00  0.00    -0.011 C 
ATOM     27  C   UNL     1       8.185  74.981  -3.600  1.00  0.00     0.003 C 
ATOM     28  C   UNL     1       7.431  74.157  -1.455  1.00  0.00     0.003 C 
ATOM     29  C   UNL     1       6.670  75.083  -3.595  1.00  0.00     0.000 C 
ATOM     30  C   UNL     1       6.225  74.757  -2.174  1.00  0.00     0.000 C 
ENDBRANCH  25  26
ENDBRANCH  24  25
ENDBRANCH   1  24
TORSDOF 6
ENDMDL
MODEL 7
REMARK VINA RESULT:    -9.616      2.594      3.770
REMARK INTER + INTRA:         -13.341
REMARK INTER:                 -13.264
REMARK INTRA:                  -0.078
REMARK UNBOUND:                -0.634
REMARK SMILES C[C@]12CC[C@@H]3c4ccc(O)cc4CC[C@H]3[C@@H]1CC[C@@H]2OC(=O)CCC1CCCC1
REMARK SMILES IDX 21 1 22 2 20 3 19 4 18 5 2 6 17 7 16 8 3 9 1 10 15 11 4 12
REMARK SMILES IDX 14 13 5 14 13 15 6 16 12 17 7 18 11 19 8 20 9 21 10 22 23 24
REMARK SMILES IDX 24 25 25 26 26 27 29 28 27 29 28 30
REMARK H PARENT 10 23
REMARK Flexibility Score: inf
ROOT
ATOM      1  C   UNL     1       9.126  79.890  -0.388  1.00  0.00     0.306 C 
ATOM      2  O   UNL     1       8.835  81.093  -0.151  1.00  0.00    -0.252 OA
ENDROOT
BRANCH   1   3
ATOM      3  O   UNL     1      10.396  79.363  -0.101  1.00  0.00    -0.462 OA
BRANCH   3   4
ATOM      4  C   UNL     1      11.250  78.566  -0.939  1.00  0.00     0.182 C 
ATOM      5  C   UNL     1      10.563  77.421  -1.723  1.00  0.00     0.046 C 
ATOM      6  C   UNL     1      12.085  79.342  -1.981  1.00  0.00     0.008 C 
ATOM      7  C   UNL     1      11.341  77.291  -3.047  1.00  0.00     0.008 C 
ATOM      8  C   UNL     1      12.573  78.170  -2.845  1.00  0.00     0.002 C 
ATOM      9  C   UNL     1      13.330  80.057  -1.411  1.00  0.00     0.011 C 
ATOM     10  C   UNL     1      11.197  80.364  -2.754  1.00  0.00     0.015 C 
ATOM     11  C   UNL     1      13.379  78.648  -4.068  1.00  0.00     0.001 C 
ATOM     12  C   UNL     1      14.291  80.520  -2.538  1.00  0.00     0.009 C 
ATOM     13  C   UNL     1      13.820  77.482  -4.962  1.00  0.00     0.009 C 
ATOM     14  C   UNL     1      14.650  79.391  -3.556  1.00  0.00     0.023 C 
ATOM     15  C   UNL     1      14.491  78.021  -6.228  1.00  0.00     0.036 C 
ATOM     16  C   UNL     1      15.504  79.857  -4.736  1.00  0.00    -0.041 A 
ATOM     17  C   UNL     1      15.475  79.140  -5.965  1.00  0.00    -0.041 A 
ATOM     18  C   UNL     1      16.448  80.897  -4.589  1.00  0.00     0.008 A 
ATOM     19  C   UNL     1      16.321  79.525  -7.017  1.00  0.00     0.050 A 
ATOM     20  C   UNL     1      17.286  81.259  -5.644  1.00  0.00     0.046 A 
ATOM     21  C   UNL     1      17.225  80.575  -6.859  1.00  0.00     0.115 A 
BRANCH  21  22
ATOM     22  O   UNL     1      18.055  80.934  -7.920  1.00  0.00    -0.508 OA
ATOM     23  H   UNL     1      18.848  80.364  -8.190  1.00  0.00     0.293 HD
ENDBRANCH  21  22
ENDBRANCH   3   4
ENDBRANCH   1   3
BRANCH   1  24
ATOM     24  C   UNL     1       8.094  78.992  -0.993  1.00  0.00     0.123 C 
BRANCH  24  25
ATOM     25  C   UNL     1       7.070  78.506   0.047  1.00  0.00     0.015 C 
BRANCH  25  26
ATOM     26  C   UNL     1       7.080  76.973   0.249  1.00  0.00    -0.011 C 
ATOM     27  C   UNL     1       7.242  76.232  -1.073  1.00  0.00     0.003 C 
ATOM     28  C   UNL     1       5.784  76.418   0.848  1.00  0.00     0.003 C 
ATOM     29  C   UNL     1       6.653  74.854  -0.831  1.00  0.00     0.000 C 
ATOM     30  C   UNL     1       5.587  75.028   0.247  1.00  0.00     0.000 C 
ENDBRANCH  25  26
ENDBRANCH  24  25
ENDBRANCH   1  24
TORSDOF 6
ENDMDL
MODEL 8
REMARK VINA RESULT:    -9.067      3.303      9.298
REMARK INTER + INTRA:         -12.616
REMARK INTER:                 -12.355
REMARK INTRA:                  -0.262
REMARK UNBOUND:                -0.634
REMARK SMILES C[C@]12CC[C@@H]3c4ccc(O)cc4CC[C@H]3[C@@H]1CC[C@@H]2OC(=O)CCC1CCCC1
REMARK SMILES IDX 21 1 22 2 20 3 19 4 18 5 2 6 17 7 16 8 3 9 1 10 15 11 4 12
REMARK SMILES IDX 14 13 5 14 13 15 6 16 12 17 7 18 11 19 8 20 9 21 10 22 23 24
REMARK SMILES IDX 24 25 25 26 26 27 29 28 27 29 28 30
REMARK H PARENT 10 23
REMARK Flexibility Score: inf
ROOT
ATOM      1  C   UNL     1      14.799  79.779  -2.565  1.00  0.00     0.306 C 
ATOM      2  O   UNL     1      15.701  79.703  -3.442  1.00  0.00    -0.252 OA
ENDROOT
BRANCH   1   3
ATOM      3  O   UNL     1      13.452  79.993  -2.901  1.00  0.00    -0.462 OA
BRANCH   3   4
ATOM      4  C   UNL     1      12.466  79.034  -3.322  1.00  0.00     0.182 C 
ATOM      5  C   UNL     1      13.005  77.755  -4.009  1.00  0.00     0.046 C 
ATOM      6  C   UNL     1      11.498  78.539  -2.224  1.00  0.00     0.008 C 
ATOM      7  C   UNL     1      12.034  76.625  -3.619  1.00  0.00     0.008 C 
ATOM      8  C   UNL     1      10.863  77.349  -2.958  1.00  0.00     0.002 C 
ATOM      9  C   UNL     1      10.366  79.528  -1.866  1.00  0.00     0.011 C 
ATOM     10  C   UNL     1      12.277  78.139  -0.935  1.00  0.00     0.015 C 
ATOM     11  C   UNL     1       9.890  76.565  -2.057  1.00  0.00     0.001 C 
ATOM     12  C   UNL     1       9.255  78.846  -1.024  1.00  0.00     0.009 C 
ATOM     13  C   UNL     1       9.298  75.343  -2.771  1.00  0.00     0.009 C 
ATOM     14  C   UNL     1       8.725  77.517  -1.650  1.00  0.00     0.023 C 
ATOM     15  C   UNL     1       8.453  74.526  -1.791  1.00  0.00     0.036 C 
ATOM     16  C   UNL     1       7.711  76.773  -0.780  1.00  0.00    -0.041 A 
ATOM     17  C   UNL     1       7.541  75.368  -0.925  1.00  0.00    -0.041 A 
ATOM     18  C   UNL     1       6.820  77.472   0.063  1.00  0.00     0.008 A 
ATOM     19  C   UNL     1       6.552  74.704  -0.181  1.00  0.00     0.050 A 
ATOM     20  C   UNL     1       5.838  76.796   0.788  1.00  0.00     0.046 A 
ATOM     21  C   UNL     1       5.703  75.411   0.668  1.00  0.00     0.115 A 
BRANCH  21  22
ATOM     22  O   UNL     1       4.728  74.727   1.393  1.00  0.00    -0.508 OA
ATOM     23  H   UNL     1       4.218  73.948   0.994  1.00  0.00     0.293 HD
ENDBRANCH  21  22
ENDBRANCH   3   4
ENDBRANCH   1   3
BRANCH   1  24
ATOM     24  C   UNL     1      15.167  79.637  -1.122  1.00  0.00     0.123 C 
BRANCH  24  25
ATOM     25  C   UNL     1      14.624  80.797  -0.270  1.00  0.00     0.015 C 
BRANCH  25  26
ATOM     26  C   UNL     1      13.142  80.620   0.134  1.00  0.00    -0.011 C 
ATOM     27  C   UNL     1      12.333  81.885  -0.128  1.00  0.00     0.003 C 
ATOM     28  C   UNL     1      12.935  80.330   1.624  1.00  0.00     0.003 C 
ATOM     29  C   UNL     1      11.145  81.799   0.814  1.00  0.00     0.000 C 
ATOM     30  C   UNL     1      11.610  80.980   2.014  1.00  0.00     0.000 C 
ENDBRANCH  25  26
ENDBRANCH  24  25
ENDBRANCH   1  24
TORSDOF 6
ENDMDL
MODEL 9
REMARK VINA RESULT:    -8.905      1.556      2.667
REMARK INTER + INTRA:         -12.402
REMARK INTER:                 -11.763
REMARK INTRA:                  -0.639
REMARK UNBOUND:                -0.634
REMARK SMILES C[C@]12CC[C@@H]3c4ccc(O)cc4CC[C@H]3[C@@H]1CC[C@@H]2OC(=O)CCC1CCCC1
REMARK SMILES IDX 21 1 22 2 20 3 19 4 18 5 2 6 17 7 16 8 3 9 1 10 15 11 4 12
REMARK SMILES IDX 14 13 5 14 13 15 6 16 12 17 7 18 11 19 8 20 9 21 10 22 23 24
REMARK SMILES IDX 24 25 25 26 26 27 29 28 27 29 28 30
REMARK H PARENT 10 23
REMARK Flexibility Score: inf
ROOT
ATOM      1  C   UNL     1       8.724  75.887  -0.499  1.00  0.00     0.306 C 
ATOM      2  O   UNL     1       7.776  75.745   0.320  1.00  0.00    -0.252 OA
ENDROOT
BRANCH   1   3
ATOM      3  O   UNL     1       9.191  77.155  -0.880  1.00  0.00    -0.462 OA
BRANCH   3   4
ATOM      4  C   UNL     1      10.487  77.740  -0.662  1.00  0.00     0.182 C 
ATOM      5  C   UNL     1      11.492  76.890   0.154  1.00  0.00     0.046 C 
ATOM      6  C   UNL     1      11.248  78.180  -1.932  1.00  0.00     0.008 C 
ATOM      7  C   UNL     1      12.885  77.225  -0.413  1.00  0.00     0.008 C 
ATOM      8  C   UNL     1      12.639  78.424  -1.327  1.00  0.00     0.002 C 
ATOM      9  C   UNL     1      10.764  79.511  -2.548  1.00  0.00     0.011 C 
ATOM     10  C   UNL     1      11.222  77.057  -3.013  1.00  0.00     0.015 C 
ATOM     11  C   UNL     1      13.681  78.793  -2.400  1.00  0.00     0.001 C 
ATOM     12  C   UNL     1      11.772  80.058  -3.595  1.00  0.00     0.009 C 
ATOM     13  C   UNL     1      15.082  78.982  -1.805  1.00  0.00     0.009 C 
ATOM     14  C   UNL     1      13.240  80.129  -3.070  1.00  0.00     0.023 C 
ATOM     15  C   UNL     1      16.099  79.207  -2.926  1.00  0.00     0.036 C 
ATOM     16  C   UNL     1      14.264  80.558  -4.122  1.00  0.00    -0.041 A 
ATOM     17  C   UNL     1      15.629  80.179  -3.987  1.00  0.00    -0.041 A 
ATOM     18  C   UNL     1      13.918  81.459  -5.153  1.00  0.00     0.008 A 
ATOM     19  C   UNL     1      16.577  80.643  -4.912  1.00  0.00     0.050 A 
ATOM     20  C   UNL     1      14.876  81.915  -6.059  1.00  0.00     0.046 A 
ATOM     21  C   UNL     1      16.207  81.508  -5.941  1.00  0.00     0.115 A 
BRANCH  21  22
ATOM     22  O   UNL     1      17.170  81.956  -6.844  1.00  0.00    -0.508 OA
ATOM     23  H   UNL     1      18.145  81.698  -6.751  1.00  0.00     0.293 HD
ENDBRANCH  21  22
ENDBRANCH   3   4
ENDBRANCH   1   3
BRANCH   1  24
ATOM     24  C   UNL     1       9.373  74.673  -1.084  1.00  0.00     0.123 C 
BRANCH  24  25
ATOM     25  C   UNL     1       8.803  74.324  -2.470  1.00  0.00     0.015 C 
BRANCH  25  26
ATOM     26  C   UNL     1       9.654  73.289  -3.240  1.00  0.00    -0.011 C 
ATOM     27  C   UNL     1       9.039  72.950  -4.594  1.00  0.00     0.003 C 
ATOM     28  C   UNL     1       9.785  71.939  -2.527  1.00  0.00     0.003 C 
ATOM     29  C   UNL     1       9.583  71.577  -4.945  1.00  0.00     0.000 C 
ATOM     30  C   UNL     1       9.859  70.875  -3.619  1.00  0.00     0.000 C 
ENDBRANCH  25  26
ENDBRANCH  24  25
ENDBRANCH   1  24
TORSDOF 6
ENDMDL
MODEL 10
REMARK VINA RESULT:    -8.651      2.348      3.786
REMARK INTER + INTRA:         -12.066
REMARK INTER:                 -12.836
REMARK INTRA:                   0.770
REMARK UNBOUND:                -0.634
REMARK SMILES C[C@]12CC[C@@H]3c4ccc(O)cc4CC[C@H]3[C@@H]1CC[C@@H]2OC(=O)CCC1CCCC1
REMARK SMILES IDX 21 1 22 2 20 3 19 4 18 5 2 6 17 7 16 8 3 9 1 10 15 11 4 12
REMARK SMILES IDX 14 13 5 14 13 15 6 16 12 17 7 18 11 19 8 20 9 21 10 22 23 24
REMARK SMILES IDX 24 25 25 26 26 27 29 28 27 29 28 30
REMARK H PARENT 10 23
REMARK Flexibility Score: inf
ROOT
ATOM      1  C   UNL     1       7.030  74.635  -1.244  1.00  0.00     0.306 C 
ATOM      2  O   UNL     1       6.521  73.587  -0.763  1.00  0.00    -0.252 OA
ENDROOT
BRANCH   1   3
ATOM      3  O   UNL     1       6.931  75.876  -0.593  1.00  0.00    -0.462 OA
BRANCH   3   4
ATOM      4  C   UNL     1       7.474  77.146  -0.990  1.00  0.00     0.182 C 
ATOM      5  C   UNL     1       7.219  78.331  -0.026  1.00  0.00     0.046 C 
ATOM      6  C   UNL     1       8.991  77.167  -1.283  1.00  0.00     0.008 C 
ATOM      7  C   UNL     1       8.455  79.243  -0.143  1.00  0.00     0.008 C 
ATOM      8  C   UNL     1       9.222  78.685  -1.340  1.00  0.00     0.002 C 
ATOM      9  C   UNL     1       9.394  76.579  -2.654  1.00  0.00     0.011 C 
ATOM     10  C   UNL     1       9.786  76.454  -0.148  1.00  0.00     0.015 C 
ATOM     11  C   UNL     1      10.709  79.038  -1.527  1.00  0.00     0.001 C 
ATOM     12  C   UNL     1      10.859  76.936  -3.022  1.00  0.00     0.009 C 
ATOM     13  C   UNL     1      10.948  80.553  -1.527  1.00  0.00     0.009 C 
ATOM     14  C   UNL     1      11.181  78.458  -2.894  1.00  0.00     0.023 C 
ATOM     15  C   UNL     1      12.451  80.843  -1.574  1.00  0.00     0.036 C 
ATOM     16  C   UNL     1      12.648  78.813  -3.144  1.00  0.00    -0.041 A 
ATOM     17  C   UNL     1      13.203  79.994  -2.576  1.00  0.00    -0.041 A 
ATOM     18  C   UNL     1      13.433  78.077  -4.058  1.00  0.00     0.008 A 
ATOM     19  C   UNL     1      14.526  80.356  -2.874  1.00  0.00     0.050 A 
ATOM     20  C   UNL     1      14.743  78.457  -4.348  1.00  0.00     0.046 A 
ATOM     21  C   UNL     1      15.293  79.596  -3.756  1.00  0.00     0.115 A 
BRANCH  21  22
ATOM     22  O   UNL     1      16.604  79.981  -4.037  1.00  0.00    -0.508 OA
ATOM     23  H   UNL     1      17.019  79.826  -4.948  1.00  0.00     0.293 HD
ENDBRANCH  21  22
ENDBRANCH   3   4
ENDBRANCH   1   3
BRANCH   1  24
ATOM     24  C   UNL     1       7.764  74.561  -2.546  1.00  0.00     0.123 C 
BRANCH  24  25
ATOM     25  C   UNL     1       8.788  73.413  -2.568  1.00  0.00     0.015 C 
BRANCH  25  26
ATOM     26  C   UNL     1       9.430  73.190  -3.956  1.00  0.00    -0.011 C 
ATOM     27  C   UNL     1       9.209  71.767  -4.457  1.00  0.00     0.003 C 
ATOM     28  C   UNL     1      10.951  73.374  -3.973  1.00  0.00     0.003 C 
ATOM     29  C   UNL     1      10.330  71.517  -5.451  1.00  0.00     0.000 C 
ATOM     30  C   UNL     1      11.497  72.394  -5.008  1.00  0.00     0.000 C 
ENDBRANCH  25  26
ENDBRANCH  24  25
ENDBRANCH   1  24
TORSDOF 6
ENDMDL
MODEL 11
REMARK VINA RESULT:    -8.640      4.631      8.020
REMARK INTER + INTRA:         -12.052
REMARK INTER:                 -10.500
REMARK INTRA:                  -1.552
REMARK UNBOUND:                -0.634
REMARK SMILES C[C@]12CC[C@@H]3c4ccc(O)cc4CC[C@H]3[C@@H]1CC[C@@H]2OC(=O)CCC1CCCC1
REMARK SMILES IDX 21 1 22 2 20 3 19 4 18 5 2 6 17 7 16 8 3 9 1 10 15 11 4 12
REMARK SMILES IDX 14 13 5 14 13 15 6 16 12 17 7 18 11 19 8 20 9 21 10 22 23 24
REMARK SMILES IDX 24 25 25 26 26 27 29 28 27 29 28 30
REMARK H PARENT 10 23
REMARK Flexibility Score: inf
ROOT
ATOM      1  C   UNL     1      11.045  80.986   1.100  1.00  0.00     0.306 C 
ATOM      2  O   UNL     1      10.423  80.831   2.185  1.00  0.00    -0.252 OA
ENDROOT
BRANCH   1   3
ATOM      3  O   UNL     1      10.429  80.781  -0.145  1.00  0.00    -0.462 OA
BRANCH   3   4
ATOM      4  C   UNL     1       9.397  79.842  -0.494  1.00  0.00     0.182 C 
ATOM      5  C   UNL     1       8.221  80.399  -1.334  1.00  0.00     0.046 C 
ATOM      6  C   UNL     1       9.867  78.568  -1.230  1.00  0.00     0.008 C 
ATOM      7  C   UNL     1       7.763  79.239  -2.239  1.00  0.00     0.008 C 
ATOM      8  C   UNL     1       8.509  78.023  -1.696  1.00  0.00     0.002 C 
ATOM      9  C   UNL     1      10.518  77.499  -0.324  1.00  0.00     0.011 C 
ATOM     10  C   UNL     1      10.833  78.927  -2.400  1.00  0.00     0.015 C 
ATOM     11  C   UNL     1       8.659  76.765  -2.572  1.00  0.00     0.001 C 
ATOM     12  C   UNL     1      10.652  76.135  -1.053  1.00  0.00     0.009 C 
ATOM     13  C   UNL     1       7.308  76.251  -3.083  1.00  0.00     0.009 C 
ATOM     14  C   UNL     1       9.324  75.647  -1.713  1.00  0.00     0.023 C 
ATOM     15  C   UNL     1       7.526  75.091  -4.058  1.00  0.00     0.036 C 
ATOM     16  C   UNL     1       9.464  74.362  -2.530  1.00  0.00    -0.041 A 
ATOM     17  C   UNL     1       8.547  74.081  -3.582  1.00  0.00    -0.041 A 
ATOM     18  C   UNL     1      10.392  73.362  -2.166  1.00  0.00     0.008 A 
ATOM     19  C   UNL     1       8.632  72.863  -4.275  1.00  0.00     0.050 A 
ATOM     20  C   UNL     1      10.456  72.154  -2.862  1.00  0.00     0.046 A 
ATOM     21  C   UNL     1       9.577  71.903  -3.918  1.00  0.00     0.115 A 
BRANCH  21  22
ATOM     22  O   UNL     1       9.637  70.700  -4.621  1.00  0.00    -0.508 OA
ATOM     23  H   UNL     1       9.246  69.845  -4.245  1.00  0.00     0.293 HD
ENDBRANCH  21  22
ENDBRANCH   3   4
ENDBRANCH   1   3
BRANCH   1  24
ATOM     24  C   UNL     1      12.482  81.401   1.133  1.00  0.00     0.123 C 
BRANCH  24  25
ATOM     25  C   UNL     1      13.299  80.747   0.005  1.00  0.00     0.015 C 
BRANCH  25  26
ATOM     26  C   UNL     1      14.066  79.483   0.456  1.00  0.00    -0.011 C 
ATOM     27  C   UNL     1      13.988  78.375  -0.587  1.00  0.00     0.003 C 
ATOM     28  C   UNL     1      13.516  78.848   1.737  1.00  0.00     0.003 C 
ATOM     29  C   UNL     1      14.224  77.087   0.182  1.00  0.00     0.000 C 
ATOM     30  C   UNL     1      13.729  77.341   1.602  1.00  0.00     0.000 C 
ENDBRANCH  25  26
ENDBRANCH  24  25
ENDBRANCH   1  24
TORSDOF 6
ENDMDL
MODEL 12
REMARK VINA RESULT:    -8.627      3.372      9.609
REMARK INTER + INTRA:         -12.035
REMARK INTER:                 -11.755
REMARK INTRA:                  -0.280
REMARK UNBOUND:                -0.634
REMARK SMILES C[C@]12CC[C@@H]3c4ccc(O)cc4CC[C@H]3[C@@H]1CC[C@@H]2OC(=O)CCC1CCCC1
REMARK SMILES IDX 21 1 22 2 20 3 19 4 18 5 2 6 17 7 16 8 3 9 1 10 15 11 4 12
REMARK SMILES IDX 14 13 5 14 13 15 6 16 12 17 7 18 11 19 8 20 9 21 10 22 23 24
REMARK SMILES IDX 24 25 25 26 26 27 29 28 27 29 28 30
REMARK H PARENT 10 23
REMARK Flexibility Score: inf
ROOT
ATOM      1  C   UNL     1      15.748  79.914  -5.563  1.00  0.00     0.306 C 
ATOM      2  O   UNL     1      15.348  81.105  -5.654  1.00  0.00    -0.252 OA
ENDROOT
BRANCH   1   3
ATOM      3  O   UNL     1      15.120  78.982  -4.721  1.00  0.00    -0.462 OA
BRANCH   3   4
ATOM      4  C   UNL     1      14.646  79.162  -3.375  1.00  0.00     0.182 C 
ATOM      5  C   UNL     1      15.191  80.397  -2.617  1.00  0.00     0.046 C 
ATOM      6  C   UNL     1      13.112  79.212  -3.204  1.00  0.00     0.008 C 
ATOM      7  C   UNL     1      14.054  80.855  -1.685  1.00  0.00     0.008 C 
ATOM      8  C   UNL     1      13.030  79.725  -1.758  1.00  0.00     0.002 C 
ATOM      9  C   UNL     1      12.409  77.838  -3.256  1.00  0.00     0.011 C 
ATOM     10  C   UNL     1      12.468  80.174  -4.248  1.00  0.00     0.015 C 
ATOM     11  C   UNL     1      11.577  79.980  -1.315  1.00  0.00     0.001 C 
ATOM     12  C   UNL     1      10.945  77.923  -2.745  1.00  0.00     0.009 C 
ATOM     13  C   UNL     1      11.498  80.544   0.109  1.00  0.00     0.009 C 
ATOM     14  C   UNL     1      10.808  78.625  -1.357  1.00  0.00     0.023 C 
ATOM     15  C   UNL     1      10.050  80.909   0.445  1.00  0.00     0.036 C 
ATOM     16  C   UNL     1       9.365  78.818  -0.891  1.00  0.00    -0.041 A 
ATOM     17  C   UNL     1       9.045  79.856   0.029  1.00  0.00    -0.041 A 
ATOM     18  C   UNL     1       8.356  77.891  -1.230  1.00  0.00     0.008 A 
ATOM     19  C   UNL     1       7.734  79.978   0.515  1.00  0.00     0.050 A 
ATOM     20  C   UNL     1       7.060  78.024  -0.731  1.00  0.00     0.046 A 
ATOM     21  C   UNL     1       6.746  79.068   0.142  1.00  0.00     0.115 A 
BRANCH  21  22
ATOM     22  O   UNL     1       5.453  79.211   0.642  1.00  0.00    -0.508 OA
ATOM     23  H   UNL     1       4.886  78.408   0.887  1.00  0.00     0.293 HD
ENDBRANCH  21  22
ENDBRANCH   3   4
ENDBRANCH   1   3
BRANCH   1  24
ATOM     24  C   UNL     1      16.926  79.473  -6.374  1.00  0.00     0.123 C 
BRANCH  24  25
ATOM     25  C   UNL     1      17.392  80.562  -7.356  1.00  0.00     0.015 C 
BRANCH  25  26
ATOM     26  C   UNL     1      18.847  81.025  -7.114  1.00  0.00    -0.011 C 
ATOM     27  C   UNL     1      19.081  81.408  -5.657  1.00  0.00     0.003 C 
ATOM     28  C   UNL     1      19.242  82.272  -7.910  1.00  0.00     0.003 C 
ATOM     29  C   UNL     1      20.264  82.360  -5.681  1.00  0.00     0.000 C 
ATOM     30  C   UNL     1      20.230  83.048  -7.042  1.00  0.00     0.000 C 
ENDBRANCH  25  26
ENDBRANCH  24  25
ENDBRANCH   1  24
TORSDOF 6
ENDMDL
MODEL 13
REMARK VINA RESULT:    -8.549      2.123      3.527
REMARK INTER + INTRA:         -11.932
REMARK INTER:                 -11.309
REMARK INTRA:                  -0.623
REMARK UNBOUND:                -0.634
REMARK SMILES C[C@]12CC[C@@H]3c4ccc(O)cc4CC[C@H]3[C@@H]1CC[C@@H]2OC(=O)CCC1CCCC1
REMARK SMILES IDX 21 1 22 2 20 3 19 4 18 5 2 6 17 7 16 8 3 9 1 10 15 11 4 12
REMARK SMILES IDX 14 13 5 14 13 15 6 16 12 17 7 18 11 19 8 20 9 21 10 22 23 24
REMARK SMILES IDX 24 25 25 26 26 27 29 28 27 29 28 30
REMARK H PARENT 10 23
REMARK Flexibility Score: inf
ROOT
ATOM      1  C   UNL     1      11.238  78.003  -1.458  1.00  0.00     0.306 C 
ATOM      2  O   UNL     1      11.698  77.459  -0.418  1.00  0.00    -0.252 OA
ENDROOT
BRANCH   1   3
ATOM      3  O   UNL     1      12.063  78.697  -2.359  1.00  0.00    -0.462 OA
BRANCH   3   4
ATOM      4  C   UNL     1      13.155  78.196  -3.148  1.00  0.00     0.182 C 
ATOM      5  C   UNL     1      12.787  77.179  -4.257  1.00  0.00     0.046 C 
ATOM      6  C   UNL     1      14.032  79.264  -3.838  1.00  0.00     0.008 C 
ATOM      7  C   UNL     1      13.790  77.422  -5.401  1.00  0.00     0.008 C 
ATOM      8  C   UNL     1      14.828  78.365  -4.796  1.00  0.00     0.002 C 
ATOM      9  C   UNL     1      15.044  79.970  -2.907  1.00  0.00     0.011 C 
ATOM     10  C   UNL     1      13.150  80.326  -4.561  1.00  0.00     0.015 C 
ATOM     11  C   UNL     1      15.751  79.179  -5.722  1.00  0.00     0.001 C 
ATOM     12  C   UNL     1      16.105  80.766  -3.713  1.00  0.00     0.009 C 
ATOM     13  C   UNL     1      16.504  78.287  -6.717  1.00  0.00     0.009 C 
ATOM     14  C   UNL     1      16.794  79.927  -4.837  1.00  0.00     0.023 C 
ATOM     15  C   UNL     1      17.295  79.155  -7.699  1.00  0.00     0.036 C 
ATOM     16  C   UNL     1      17.759  80.725  -5.714  1.00  0.00    -0.041 A 
ATOM     17  C   UNL     1      18.046  80.291  -7.038  1.00  0.00    -0.041 A 
ATOM     18  C   UNL     1      18.502  81.805  -5.188  1.00  0.00     0.008 A 
ATOM     19  C   UNL     1      18.994  80.982  -7.809  1.00  0.00     0.050 A 
ATOM     20  C   UNL     1      19.446  82.474  -5.967  1.00  0.00     0.046 A 
ATOM     21  C   UNL     1      19.693  82.065  -7.279  1.00  0.00     0.115 A 
BRANCH  21  22
ATOM     22  O   UNL     1      20.631  82.731  -8.067  1.00  0.00    -0.508 OA
ATOM     23  H   UNL     1      21.608  82.460  -8.073  1.00  0.00     0.293 HD
ENDBRANCH  21  22
ENDBRANCH   3   4
ENDBRANCH   1   3
BRANCH   1  24
ATOM     24  C   UNL     1       9.774  77.910  -1.746  1.00  0.00     0.123 C 
BRANCH  24  25
ATOM     25  C   UNL     1       9.402  76.581  -2.428  1.00  0.00     0.015 C 
BRANCH  25  26
ATOM     26  C   UNL     1       8.558  75.647  -1.531  1.00  0.00    -0.011 C 
ATOM     27  C   UNL     1       7.393  75.032  -2.298  1.00  0.00     0.003 C 
ATOM     28  C   UNL     1       7.905  76.354  -0.339  1.00  0.00     0.003 C 
ATOM     29  C   UNL     1       6.368  74.667  -1.239  1.00  0.00     0.000 C 
ATOM     30  C   UNL     1       6.574  75.648  -0.089  1.00  0.00     0.000 C 
ENDBRANCH  25  26
ENDBRANCH  24  25
ENDBRANCH   1  24
TORSDOF 6
ENDMDL
MODEL 14
REMARK VINA RESULT:    -8.425      3.034      4.763
REMARK INTER + INTRA:         -11.767
REMARK INTER:                 -11.736
REMARK INTRA:                  -0.032
REMARK UNBOUND:                -0.634
REMARK SMILES C[C@]12CC[C@@H]3c4ccc(O)cc4CC[C@H]3[C@@H]1CC[C@@H]2OC(=O)CCC1CCCC1
REMARK SMILES IDX 21 1 22 2 20 3 19 4 18 5 2 6 17 7 16 8 3 9 1 10 15 11 4 12
REMARK SMILES IDX 14 13 5 14 13 15 6 16 12 17 7 18 11 19 8 20 9 21 10 22 23 24
REMARK SMILES IDX 24 25 25 26 26 27 29 28 27 29 28 30
REMARK H PARENT 10 23
REMARK Flexibility Score: inf
ROOT
ATOM      1  C   UNL     1      12.077  80.149   0.766  1.00  0.00     0.306 C 
ATOM      2  O   UNL     1      13.064  80.072   1.545  1.00  0.00    -0.252 OA
ENDROOT
BRANCH   1   3
ATOM      3  O   UNL     1      11.649  79.052  -0.001  1.00  0.00    -0.462 OA
BRANCH   3   4
ATOM      4  C   UNL     1      12.341  78.373  -1.063  1.00  0.00     0.182 C 
ATOM      5  C   UNL     1      11.484  77.437  -1.950  1.00  0.00     0.046 C 
ATOM      6  C   UNL     1      13.122  79.276  -2.043  1.00  0.00     0.008 C 
ATOM      7  C   UNL     1      12.104  77.507  -3.358  1.00  0.00     0.008 C 
ATOM      8  C   UNL     1      13.418  78.257  -3.153  1.00  0.00     0.002 C 
ATOM      9  C   UNL     1      14.475  79.796  -1.508  1.00  0.00     0.011 C 
ATOM     10  C   UNL     1      12.243  80.476  -2.512  1.00  0.00     0.015 C 
ATOM     11  C   UNL     1      14.126  78.902  -4.359  1.00  0.00     0.001 C 
ATOM     12  C   UNL     1      15.345  80.400  -2.643  1.00  0.00     0.009 C 
ATOM     13  C   UNL     1      14.373  77.897  -5.491  1.00  0.00     0.009 C 
ATOM     14  C   UNL     1      15.500  79.459  -3.879  1.00  0.00     0.023 C 
ATOM     15  C   UNL     1      14.947  78.619  -6.713  1.00  0.00     0.036 C 
ATOM     16  C   UNL     1      16.260  80.082  -5.051  1.00  0.00    -0.041 A 
ATOM     17  C   UNL     1      16.042  79.608  -6.375  1.00  0.00    -0.041 A 
ATOM     18  C   UNL     1      17.296  81.017  -4.837  1.00  0.00     0.008 A 
ATOM     19  C   UNL     1      16.800  80.128  -7.436  1.00  0.00     0.050 A 
ATOM     20  C   UNL     1      18.044  81.516  -5.903  1.00  0.00     0.046 A 
ATOM     21  C   UNL     1      17.798  81.074  -7.204  1.00  0.00     0.115 A 
BRANCH  21  22
ATOM     22  O   UNL     1      18.538  81.571  -8.276  1.00  0.00    -0.508 OA
ATOM     23  H   UNL     1      18.125  81.700  -9.192  1.00  0.00     0.293 HD
ENDBRANCH  21  22
ENDBRANCH   3   4
ENDBRANCH   1   3
BRANCH   1  24
ATOM     24  C   UNL     1      11.333  81.442   0.651  1.00  0.00     0.123 C 
BRANCH  24  25
ATOM     25  C   UNL     1       9.811  81.244   0.745  1.00  0.00     0.015 C 
BRANCH  25  26
ATOM     26  C   UNL     1       9.255  80.250  -0.300  1.00  0.00    -0.011 C 
ATOM     27  C   UNL     1       9.002  80.927  -1.642  1.00  0.00     0.003 C 
ATOM     28  C   UNL     1       7.905  79.636   0.084  1.00  0.00     0.003 C 
ATOM     29  C   UNL     1       7.957  80.066  -2.331  1.00  0.00     0.000 C 
ATOM     30  C   UNL     1       7.141  79.415  -1.219  1.00  0.00     0.000 C 
ENDBRANCH  25  26
ENDBRANCH  24  25
ENDBRANCH   1  24
TORSDOF 6
ENDMDL
