MODEL 1
REMARK VINA RESULT:    -8.906      0.000      0.000
REMARK INTER + INTRA:         -12.517
REMARK INTER:                 -11.770
REMARK INTRA:                  -0.747
REMARK UNBOUND:                -0.747
REMARK SMILES CC(C)(Oc1ccc(C(=O)c2ccc(Cl)cc2)cc1)C(=O)O
REMARK SMILES IDX 4 1 2 2 1 3 3 4 20 5 21 6 22 7 5 9 6 10 19 11 7 12 18 13
REMARK SMILES IDX 8 14 9 15 10 16 11 17 12 18 17 19 13 20 16 21 14 22 15 23
REMARK H PARENT 22 8
REMARK Flexibility Score: inf
ROOT
ATOM      1  O   UNL     1      16.154  80.984  -6.861  1.00  0.00    -0.476 OA
ENDROOT
BRANCH   1   2
ATOM      2  C   UNL     1      17.589  81.001  -6.837  1.00  0.00     0.199 C 
ATOM      3  C   UNL     1      18.092  81.107  -5.381  1.00  0.00     0.069 C 
ATOM      4  C   UNL     1      18.067  79.666  -7.423  1.00  0.00     0.069 C 
BRANCH   2   5
ATOM      5  C   UNL     1      18.130  82.110  -7.711  1.00  0.00     0.347 C 
ATOM      6  O   UNL     1      19.340  82.115  -8.069  1.00  0.00    -0.248 OA
BRANCH   5   7
ATOM      7  O   UNL     1      17.272  83.101  -8.181  1.00  0.00    -0.478 OA
ATOM      8  H   UNL     1      16.795  83.719  -7.537  1.00  0.00     0.296 HD
ENDBRANCH   5   7
ENDBRANCH   2   5
ENDBRANCH   1   2
BRANCH   1   9
ATOM      9  C   UNL     1      15.273  80.325  -5.980  1.00  0.00     0.121 A 
ATOM     10  C   UNL     1      15.048  78.934  -5.998  1.00  0.00     0.047 A 
ATOM     11  C   UNL     1      14.604  81.105  -5.030  1.00  0.00     0.047 A 
ATOM     12  C   UNL     1      14.171  78.348  -5.079  1.00  0.00     0.016 A 
ATOM     13  C   UNL     1      13.715  80.524  -4.122  1.00  0.00     0.016 A 
ATOM     14  C   UNL     1      13.488  79.139  -4.143  1.00  0.00     0.023 A 
BRANCH  14  15
ATOM     15  C   UNL     1      12.577  78.506  -3.164  1.00  0.00     0.193 C 
ATOM     16  O   UNL     1      11.947  77.466  -3.502  1.00  0.00    -0.289 OA
BRANCH  15  17
ATOM     17  C   UNL     1      12.383  79.058  -1.801  1.00  0.00     0.023 A 
ATOM     18  C   UNL     1      11.283  79.888  -1.525  1.00  0.00     0.014 A 
ATOM     19  C   UNL     1      13.318  78.805  -0.779  1.00  0.00     0.014 A 
ATOM     20  C   UNL     1      11.115  80.442  -0.253  1.00  0.00     0.021 A 
ATOM     21  C   UNL     1      13.148  79.363   0.492  1.00  0.00     0.021 A 
ATOM     22  C   UNL     1      12.047  80.183   0.754  1.00  0.00     0.041 A 
ATOM     23  Cl  UNL     1      11.841  80.887   2.347  1.00  0.00    -0.084 Cl
ENDBRANCH  15  17
ENDBRANCH  14  15
ENDBRANCH   1   9
TORSDOF 6
ENDMDL
MODEL 2
REMARK VINA RESULT:    -8.814      1.089      1.661
REMARK INTER + INTRA:         -12.395
REMARK INTER:                 -11.578
REMARK INTRA:                  -0.818
REMARK UNBOUND:                -0.747
REMARK SMILES CC(C)(Oc1ccc(C(=O)c2ccc(Cl)cc2)cc1)C(=O)O
REMARK SMILES IDX 4 1 2 2 1 3 3 4 20 5 21 6 22 7 5 9 6 10 19 11 7 12 18 13
REMARK SMILES IDX 8 14 9 15 10 16 11 17 12 18 17 19 13 20 16 21 14 22 15 23
REMARK H PARENT 22 8
REMARK Flexibility Score: inf
ROOT
ATOM      1  O   UNL     1      16.164  80.483  -6.776  1.00  0.00    -0.476 OA
ENDROOT
BRANCH   1   2
ATOM      2  C   UNL     1      17.575  80.234  -6.858  1.00  0.00     0.199 C 
ATOM      3  C   UNL     1      17.832  78.836  -7.459  1.00  0.00     0.069 C 
ATOM      4  C   UNL     1      18.167  81.289  -7.802  1.00  0.00     0.069 C 
BRANCH   2   5
ATOM      5  C   UNL     1      18.232  80.405  -5.506  1.00  0.00     0.347 C 
ATOM      6  O   UNL     1      18.404  81.554  -5.015  1.00  0.00    -0.248 OA
BRANCH   5   7
ATOM      7  O   UNL     1      18.590  79.282  -4.765  1.00  0.00    -0.478 OA
ATOM      8  H   UNL     1      19.248  79.357  -3.999  1.00  0.00     0.296 HD
ENDBRANCH   5   7
ENDBRANCH   2   5
ENDBRANCH   1   2
BRANCH   1   9
ATOM      9  C   UNL     1      15.227  79.914  -5.890  1.00  0.00     0.121 A 
ATOM     10  C   UNL     1      14.810  78.570  -5.953  1.00  0.00     0.047 A 
ATOM     11  C   UNL     1      14.700  80.738  -4.888  1.00  0.00     0.047 A 
ATOM     12  C   UNL     1      13.888  78.072  -5.027  1.00  0.00     0.016 A 
ATOM     13  C   UNL     1      13.766  80.247  -3.973  1.00  0.00     0.016 A 
ATOM     14  C   UNL     1      13.349  78.908  -4.038  1.00  0.00     0.023 A 
BRANCH  14  15
ATOM     15  C   UNL     1      12.388  78.366  -3.053  1.00  0.00     0.193 C 
ATOM     16  O   UNL     1      11.670  77.381  -3.380  1.00  0.00    -0.289 OA
BRANCH  15  17
ATOM     17  C   UNL     1      12.246  78.944  -1.694  1.00  0.00     0.023 A 
ATOM     18  C   UNL     1      11.221  79.867  -1.425  1.00  0.00     0.014 A 
ATOM     19  C   UNL     1      13.159  78.622  -0.671  1.00  0.00     0.014 A 
ATOM     20  C   UNL     1      11.104  80.445  -0.157  1.00  0.00     0.021 A 
ATOM     21  C   UNL     1      13.039  79.204   0.594  1.00  0.00     0.021 A 
ATOM     22  C   UNL     1      12.013  80.117   0.851  1.00  0.00     0.041 A 
ATOM     23  Cl  UNL     1      11.872  80.851   2.437  1.00  0.00    -0.084 Cl
ENDBRANCH  15  17
ENDBRANCH  14  15
ENDBRANCH   1   9
TORSDOF 6
ENDMDL
MODEL 3
REMARK VINA RESULT:    -8.791      2.772      3.452
REMARK INTER + INTRA:         -12.365
REMARK INTER:                 -11.659
REMARK INTRA:                  -0.706
REMARK UNBOUND:                -0.747
REMARK SMILES CC(C)(Oc1ccc(C(=O)c2ccc(Cl)cc2)cc1)C(=O)O
REMARK SMILES IDX 4 1 2 2 1 3 3 4 20 5 21 6 22 7 5 9 6 10 19 11 7 12 18 13
REMARK SMILES IDX 8 14 9 15 10 16 11 17 12 18 17 19 13 20 16 21 14 22 15 23
REMARK H PARENT 22 8
REMARK Flexibility Score: inf
ROOT
ATOM      1  O   UNL     1      15.450  79.744  -6.502  1.00  0.00    -0.476 OA
ENDROOT
BRANCH   1   2
ATOM      2  C   UNL     1      16.686  80.473  -6.562  1.00  0.00     0.199 C 
ATOM      3  C   UNL     1      17.107  80.918  -5.146  1.00  0.00     0.069 C 
ATOM      4  C   UNL     1      17.750  79.514  -7.111  1.00  0.00     0.069 C 
BRANCH   2   5
ATOM      5  C   UNL     1      16.578  81.640  -7.519  1.00  0.00     0.347 C 
ATOM      6  O   UNL     1      17.164  81.612  -8.636  1.00  0.00    -0.248 OA
BRANCH   5   7
ATOM      7  O   UNL     1      15.770  82.727  -7.196  1.00  0.00    -0.478 OA
ATOM      8  H   UNL     1      15.497  82.900  -6.237  1.00  0.00     0.296 HD
ENDBRANCH   5   7
ENDBRANCH   2   5
ENDBRANCH   1   2
BRANCH   1   9
ATOM      9  C   UNL     1      14.512  79.702  -5.450  1.00  0.00     0.121 A 
ATOM     10  C   UNL     1      13.516  80.678  -5.255  1.00  0.00     0.047 A 
ATOM     11  C   UNL     1      14.578  78.617  -4.568  1.00  0.00     0.047 A 
ATOM     12  C   UNL     1      12.609  80.560  -4.196  1.00  0.00     0.016 A 
ATOM     13  C   UNL     1      13.684  78.506  -3.501  1.00  0.00     0.016 A 
ATOM     14  C   UNL     1      12.693  79.481  -3.304  1.00  0.00     0.023 A 
BRANCH  14  15
ATOM     15  C   UNL     1      11.716  79.356  -2.200  1.00  0.00     0.193 C 
ATOM     16  O   UNL     1      11.870  80.066  -1.167  1.00  0.00    -0.289 OA
BRANCH  15  17
ATOM     17  C   UNL     1      10.564  78.423  -2.271  1.00  0.00     0.023 A 
ATOM     18  C   UNL     1      10.765  77.082  -2.637  1.00  0.00     0.014 A 
ATOM     19  C   UNL     1       9.253  78.874  -2.026  1.00  0.00     0.014 A 
ATOM     20  C   UNL     1       9.680  76.207  -2.743  1.00  0.00     0.021 A 
ATOM     21  C   UNL     1       8.171  77.996  -2.136  1.00  0.00     0.021 A 
ATOM     22  C   UNL     1       8.384  76.663  -2.496  1.00  0.00     0.041 A 
ATOM     23  Cl  UNL     1       7.022  75.568  -2.640  1.00  0.00    -0.084 Cl
ENDBRANCH  15  17
ENDBRANCH  14  15
ENDBRANCH   1   9
TORSDOF 6
ENDMDL
MODEL 4
REMARK VINA RESULT:    -8.680      0.625      1.593
REMARK INTER + INTRA:         -12.218
REMARK INTER:                 -11.524
REMARK INTRA:                  -0.693
REMARK UNBOUND:                -0.747
REMARK SMILES CC(C)(Oc1ccc(C(=O)c2ccc(Cl)cc2)cc1)C(=O)O
REMARK SMILES IDX 4 1 2 2 1 3 3 4 20 5 21 6 22 7 5 9 6 10 19 11 7 12 18 13
REMARK SMILES IDX 8 14 9 15 10 16 11 17 12 18 17 19 13 20 16 21 14 22 15 23
REMARK H PARENT 22 8
REMARK Flexibility Score: inf
ROOT
ATOM      1  O   UNL     1      16.488  81.034  -7.001  1.00  0.00    -0.476 OA
ENDROOT
BRANCH   1   2
ATOM      2  C   UNL     1      17.921  81.014  -6.910  1.00  0.00     0.199 C 
ATOM      3  C   UNL     1      18.359  81.077  -5.431  1.00  0.00     0.069 C 
ATOM      4  C   UNL     1      18.393  79.680  -7.504  1.00  0.00     0.069 C 
BRANCH   2   5
ATOM      5  C   UNL     1      18.529  82.127  -7.734  1.00  0.00     0.347 C 
ATOM      6  O   UNL     1      19.774  82.175  -7.932  1.00  0.00    -0.248 OA
BRANCH   5   7
ATOM      7  O   UNL     1      17.703  83.072  -8.336  1.00  0.00    -0.478 OA
ATOM      8  H   UNL     1      17.312  82.906  -9.255  1.00  0.00     0.296 HD
ENDBRANCH   5   7
ENDBRANCH   2   5
ENDBRANCH   1   2
BRANCH   1   9
ATOM      9  C   UNL     1      15.550  80.475  -6.111  1.00  0.00     0.121 A 
ATOM     10  C   UNL     1      14.769  81.238  -5.220  1.00  0.00     0.047 A 
ATOM     11  C   UNL     1      15.384  79.085  -6.133  1.00  0.00     0.047 A 
ATOM     12  C   UNL     1      13.845  80.612  -4.376  1.00  0.00     0.016 A 
ATOM     13  C   UNL     1      14.474  78.457  -5.280  1.00  0.00     0.016 A 
ATOM     14  C   UNL     1      13.699  79.217  -4.391  1.00  0.00     0.023 A 
BRANCH  14  15
ATOM     15  C   UNL     1      12.705  78.568  -3.508  1.00  0.00     0.193 C 
ATOM     16  O   UNL     1      12.306  77.405  -3.790  1.00  0.00    -0.289 OA
BRANCH  15  17
ATOM     17  C   UNL     1      12.165  79.245  -2.302  1.00  0.00     0.023 A 
ATOM     18  C   UNL     1      12.959  79.370  -1.149  1.00  0.00     0.014 A 
ATOM     19  C   UNL     1      10.841  79.723  -2.273  1.00  0.00     0.014 A 
ATOM     20  C   UNL     1      12.445  79.972   0.003  1.00  0.00     0.021 A 
ATOM     21  C   UNL     1      10.330  80.322  -1.118  1.00  0.00     0.021 A 
ATOM     22  C   UNL     1      11.130  80.445   0.021  1.00  0.00     0.041 A 
ATOM     23  Cl  UNL     1      10.482  81.190   1.469  1.00  0.00    -0.084 Cl
ENDBRANCH  15  17
ENDBRANCH  14  15
ENDBRANCH   1   9
TORSDOF 6
ENDMDL
MODEL 5
REMARK VINA RESULT:    -8.538      2.772      3.407
REMARK INTER + INTRA:         -12.031
REMARK INTER:                 -11.294
REMARK INTRA:                  -0.736
REMARK UNBOUND:                -0.747
REMARK SMILES CC(C)(Oc1ccc(C(=O)c2ccc(Cl)cc2)cc1)C(=O)O
REMARK SMILES IDX 4 1 2 2 1 3 3 4 20 5 21 6 22 7 5 9 6 10 19 11 7 12 18 13
REMARK SMILES IDX 8 14 9 15 10 16 11 17 12 18 17 19 13 20 16 21 14 22 15 23
REMARK H PARENT 22 8
REMARK Flexibility Score: inf
ROOT
ATOM      1  O   UNL     1      15.947  80.967  -6.029  1.00  0.00    -0.476 OA
ENDROOT
BRANCH   1   2
ATOM      2  C   UNL     1      17.080  80.228  -6.509  1.00  0.00     0.199 C 
ATOM      3  C   UNL     1      16.690  78.752  -6.741  1.00  0.00     0.069 C 
ATOM      4  C   UNL     1      17.485  80.844  -7.855  1.00  0.00     0.069 C 
BRANCH   2   5
ATOM      5  C   UNL     1      18.255  80.367  -5.566  1.00  0.00     0.347 C 
ATOM      6  O   UNL     1      18.848  81.472  -5.436  1.00  0.00    -0.248 OA
BRANCH   5   7
ATOM      7  O   UNL     1      18.644  79.284  -4.783  1.00  0.00    -0.478 OA
ATOM      8  H   UNL     1      19.271  79.412  -3.998  1.00  0.00     0.296 HD
ENDBRANCH   5   7
ENDBRANCH   2   5
ENDBRANCH   1   2
BRANCH   1   9
ATOM      9  C   UNL     1      15.046  80.614  -5.004  1.00  0.00     0.121 A 
ATOM     10  C   UNL     1      15.449  80.121  -3.747  1.00  0.00     0.047 A 
ATOM     11  C   UNL     1      13.680  80.780  -5.257  1.00  0.00     0.047 A 
ATOM     12  C   UNL     1      14.497  79.808  -2.772  1.00  0.00     0.016 A 
ATOM     13  C   UNL     1      12.726  80.452  -4.291  1.00  0.00     0.016 A 
ATOM     14  C   UNL     1      13.128  79.958  -3.040  1.00  0.00     0.023 A 
BRANCH  14  15
ATOM     15  C   UNL     1      12.130  79.641  -1.995  1.00  0.00     0.193 C 
ATOM     16  O   UNL     1      12.249  80.173  -0.856  1.00  0.00    -0.289 OA
BRANCH  15  17
ATOM     17  C   UNL     1      10.996  78.718  -2.246  1.00  0.00     0.023 A 
ATOM     18  C   UNL     1       9.678  79.137  -1.999  1.00  0.00     0.014 A 
ATOM     19  C   UNL     1      11.220  77.398  -2.683  1.00  0.00     0.014 A 
ATOM     20  C   UNL     1       8.607  78.261  -2.197  1.00  0.00     0.021 A 
ATOM     21  C   UNL     1      10.147  76.524  -2.878  1.00  0.00     0.021 A 
ATOM     22  C   UNL     1       8.840  76.955  -2.633  1.00  0.00     0.041 A 
ATOM     23  Cl  UNL     1       7.497  75.853  -2.871  1.00  0.00    -0.084 Cl
ENDBRANCH  15  17
ENDBRANCH  14  15
ENDBRANCH   1   9
TORSDOF 6
ENDMDL
MODEL 6
REMARK VINA RESULT:    -8.527      2.014      2.445
REMARK INTER + INTRA:         -12.015
REMARK INTER:                 -11.622
REMARK INTRA:                  -0.393
REMARK UNBOUND:                -0.747
REMARK SMILES CC(C)(Oc1ccc(C(=O)c2ccc(Cl)cc2)cc1)C(=O)O
REMARK SMILES IDX 4 1 2 2 1 3 3 4 20 5 21 6 22 7 5 9 6 10 19 11 7 12 18 13
REMARK SMILES IDX 8 14 9 15 10 16 11 17 12 18 17 19 13 20 16 21 14 22 15 23
REMARK H PARENT 22 8
REMARK Flexibility Score: inf
ROOT
ATOM      1  O   UNL     1      15.435  81.229  -5.949  1.00  0.00    -0.476 OA
ENDROOT
BRANCH   1   2
ATOM      2  C   UNL     1      16.699  80.954  -6.572  1.00  0.00     0.199 C 
ATOM      3  C   UNL     1      17.849  81.250  -5.586  1.00  0.00     0.069 C 
ATOM      4  C   UNL     1      16.720  79.458  -6.912  1.00  0.00     0.069 C 
BRANCH   2   5
ATOM      5  C   UNL     1      16.842  81.725  -7.865  1.00  0.00     0.347 C 
ATOM      6  O   UNL     1      17.244  81.152  -8.914  1.00  0.00    -0.248 OA
BRANCH   5   7
ATOM      7  O   UNL     1      16.465  83.064  -7.917  1.00  0.00    -0.478 OA
ATOM      8  H   UNL     1      15.995  83.500  -7.133  1.00  0.00     0.296 HD
ENDBRANCH   5   7
ENDBRANCH   2   5
ENDBRANCH   1   2
BRANCH   1   9
ATOM      9  C   UNL     1      14.855  80.592  -4.833  1.00  0.00     0.121 A 
ATOM     10  C   UNL     1      15.595  80.126  -3.729  1.00  0.00     0.047 A 
ATOM     11  C   UNL     1      13.464  80.433  -4.829  1.00  0.00     0.047 A 
ATOM     12  C   UNL     1      14.947  79.518  -2.649  1.00  0.00     0.016 A 
ATOM     13  C   UNL     1      12.816  79.811  -3.760  1.00  0.00     0.016 A 
ATOM     14  C   UNL     1      13.555  79.344  -2.661  1.00  0.00     0.023 A 
BRANCH  14  15
ATOM     15  C   UNL     1      12.878  78.716  -1.505  1.00  0.00     0.193 C 
ATOM     16  O   UNL     1      13.546  77.968  -0.740  1.00  0.00    -0.289 OA
BRANCH  15  17
ATOM     17  C   UNL     1      11.439  78.942  -1.220  1.00  0.00     0.023 A 
ATOM     18  C   UNL     1      10.475  78.041  -1.703  1.00  0.00     0.014 A 
ATOM     19  C   UNL     1      11.012  80.081  -0.510  1.00  0.00     0.014 A 
ATOM     20  C   UNL     1       9.115  78.267  -1.471  1.00  0.00     0.021 A 
ATOM     21  C   UNL     1       9.651  80.305  -0.283  1.00  0.00     0.021 A 
ATOM     22  C   UNL     1       8.703  79.399  -0.764  1.00  0.00     0.041 A 
ATOM     23  Cl  UNL     1       6.996  79.687  -0.483  1.00  0.00    -0.084 Cl
ENDBRANCH  15  17
ENDBRANCH  14  15
ENDBRANCH   1   9
TORSDOF 6
ENDMDL
MODEL 7
REMARK VINA RESULT:    -8.493      2.153      2.797
REMARK INTER + INTRA:         -11.971
REMARK INTER:                 -11.290
REMARK INTRA:                  -0.681
REMARK UNBOUND:                -0.747
REMARK SMILES CC(C)(Oc1ccc(C(=O)c2ccc(Cl)cc2)cc1)C(=O)O
REMARK SMILES IDX 4 1 2 2 1 3 3 4 20 5 21 6 22 7 5 9 6 10 19 11 7 12 18 13
REMARK SMILES IDX 8 14 9 15 10 16 11 17 12 18 17 19 13 20 16 21 14 22 15 23
REMARK H PARENT 22 8
REMARK Flexibility Score: inf
ROOT
ATOM      1  O   UNL     1      15.977  80.195  -6.770  1.00  0.00    -0.476 OA
ENDROOT
BRANCH   1   2
ATOM      2  C   UNL     1      17.392  80.017  -6.939  1.00  0.00     0.199 C 
ATOM      3  C   UNL     1      17.689  78.590  -7.445  1.00  0.00     0.069 C 
ATOM      4  C   UNL     1      17.849  81.020  -8.007  1.00  0.00     0.069 C 
BRANCH   2   5
ATOM      5  C   UNL     1      18.132  80.336  -5.659  1.00  0.00     0.347 C 
ATOM      6  O   UNL     1      18.375  81.531  -5.338  1.00  0.00    -0.248 OA
BRANCH   5   7
ATOM      7  O   UNL     1      18.491  79.307  -4.794  1.00  0.00    -0.478 OA
ATOM      8  H   UNL     1      19.436  78.942  -4.788  1.00  0.00     0.296 HD
ENDBRANCH   5   7
ENDBRANCH   2   5
ENDBRANCH   1   2
BRANCH   1   9
ATOM      9  C   UNL     1      15.159  79.736  -5.718  1.00  0.00     0.121 A 
ATOM     10  C   UNL     1      14.508  78.486  -5.724  1.00  0.00     0.047 A 
ATOM     11  C   UNL     1      15.006  80.571  -4.605  1.00  0.00     0.047 A 
ATOM     12  C   UNL     1      13.725  78.092  -4.635  1.00  0.00     0.016 A 
ATOM     13  C   UNL     1      14.211  80.187  -3.523  1.00  0.00     0.016 A 
ATOM     14  C   UNL     1      13.559  78.943  -3.532  1.00  0.00     0.023 A 
BRANCH  14  15
ATOM     15  C   UNL     1      12.744  78.507  -2.377  1.00  0.00     0.193 C 
ATOM     16  O   UNL     1      13.283  77.797  -1.483  1.00  0.00    -0.289 OA
BRANCH  15  17
ATOM     17  C   UNL     1      11.315  78.881  -2.239  1.00  0.00     0.023 A 
ATOM     18  C   UNL     1      10.954  80.222  -2.022  1.00  0.00     0.014 A 
ATOM     19  C   UNL     1      10.304  77.901  -2.271  1.00  0.00     0.014 A 
ATOM     20  C   UNL     1       9.613  80.576  -1.853  1.00  0.00     0.021 A 
ATOM     21  C   UNL     1       8.964  78.259  -2.099  1.00  0.00     0.021 A 
ATOM     22  C   UNL     1       8.618  79.596  -1.889  1.00  0.00     0.041 A 
ATOM     23  Cl  UNL     1       6.936  80.040  -1.666  1.00  0.00    -0.084 Cl
ENDBRANCH  15  17
ENDBRANCH  14  15
ENDBRANCH   1   9
TORSDOF 6
ENDMDL
MODEL 8
REMARK VINA RESULT:    -8.370      6.195      8.778
REMARK INTER + INTRA:         -11.809
REMARK INTER:                 -11.131
REMARK INTRA:                  -0.678
REMARK UNBOUND:                -0.747
REMARK SMILES CC(C)(Oc1ccc(C(=O)c2ccc(Cl)cc2)cc1)C(=O)O
REMARK SMILES IDX 4 1 2 2 1 3 3 4 20 5 21 6 22 7 5 9 6 10 19 11 7 12 18 13
REMARK SMILES IDX 8 14 9 15 10 16 11 17 12 18 17 19 13 20 16 21 14 22 15 23
REMARK H PARENT 22 8
REMARK Flexibility Score: inf
ROOT
ATOM      1  O   UNL     1       8.911  72.694  -2.930  1.00  0.00    -0.476 OA
ENDROOT
BRANCH   1   2
ATOM      2  C   UNL     1       9.993  71.965  -3.529  1.00  0.00     0.199 C 
ATOM      3  C   UNL     1       9.459  71.058  -4.657  1.00  0.00     0.069 C 
ATOM      4  C   UNL     1      10.950  72.997  -4.141  1.00  0.00     0.069 C 
BRANCH   2   5
ATOM      5  C   UNL     1      10.761  71.185  -2.484  1.00  0.00     0.347 C 
ATOM      6  O   UNL     1      11.937  71.517  -2.170  1.00  0.00    -0.248 OA
BRANCH   5   7
ATOM      7  O   UNL     1      10.144  70.133  -1.815  1.00  0.00    -0.478 OA
ATOM      8  H   UNL     1      10.638  69.265  -1.648  1.00  0.00     0.296 HD
ENDBRANCH   5   7
ENDBRANCH   2   5
ENDBRANCH   1   2
BRANCH   1   9
ATOM      9  C   UNL     1       8.842  74.071  -2.638  1.00  0.00     0.121 A 
ATOM     10  C   UNL     1       9.569  74.685  -1.598  1.00  0.00     0.047 A 
ATOM     11  C   UNL     1       8.014  74.863  -3.441  1.00  0.00     0.047 A 
ATOM     12  C   UNL     1       9.462  76.062  -1.378  1.00  0.00     0.016 A 
ATOM     13  C   UNL     1       7.893  76.236  -3.213  1.00  0.00     0.016 A 
ATOM     14  C   UNL     1       8.614  76.847  -2.175  1.00  0.00     0.023 A 
BRANCH  14  15
ATOM     15  C   UNL     1       8.523  78.305  -1.946  1.00  0.00     0.193 C 
ATOM     16  O   UNL     1       7.396  78.866  -2.030  1.00  0.00    -0.289 OA
BRANCH  15  17
ATOM     17  C   UNL     1       9.717  79.125  -1.619  1.00  0.00     0.023 A 
ATOM     18  C   UNL     1      10.891  78.995  -2.380  1.00  0.00     0.014 A 
ATOM     19  C   UNL     1       9.712  80.003  -0.518  1.00  0.00     0.014 A 
ATOM     20  C   UNL     1      12.031  79.736  -2.055  1.00  0.00     0.021 A 
ATOM     21  C   UNL     1      10.854  80.740  -0.195  1.00  0.00     0.021 A 
ATOM     22  C   UNL     1      12.015  80.605  -0.962  1.00  0.00     0.041 A 
ATOM     23  Cl  UNL     1      13.448  81.526  -0.548  1.00  0.00    -0.084 Cl
ENDBRANCH  15  17
ENDBRANCH  14  15
ENDBRANCH   1   9
TORSDOF 6
ENDMDL
MODEL 9
REMARK VINA RESULT:    -8.351      4.345      8.734
REMARK INTER + INTRA:         -11.784
REMARK INTER:                 -11.004
REMARK INTRA:                  -0.780
REMARK UNBOUND:                -0.747
REMARK SMILES CC(C)(Oc1ccc(C(=O)c2ccc(Cl)cc2)cc1)C(=O)O
REMARK SMILES IDX 4 1 2 2 1 3 3 4 20 5 21 6 22 7 5 9 6 10 19 11 7 12 18 13
REMARK SMILES IDX 8 14 9 15 10 16 11 17 12 18 17 19 13 20 16 21 14 22 15 23
REMARK H PARENT 22 8
REMARK Flexibility Score: inf
ROOT
ATOM      1  O   UNL     1       8.146  76.499  -2.353  1.00  0.00    -0.476 OA
ENDROOT
BRANCH   1   2
ATOM      2  C   UNL     1       7.952  75.329  -1.543  1.00  0.00     0.199 C 
ATOM      3  C   UNL     1       8.191  75.669  -0.057  1.00  0.00     0.069 C 
ATOM      4  C   UNL     1       6.490  74.898  -1.717  1.00  0.00     0.069 C 
BRANCH   2   5
ATOM      5  C   UNL     1       8.829  74.193  -2.019  1.00  0.00     0.347 C 
ATOM      6  O   UNL     1       8.749  73.771  -3.205  1.00  0.00    -0.248 OA
BRANCH   5   7
ATOM      7  O   UNL     1       9.781  73.649  -1.160  1.00  0.00    -0.478 OA
ATOM      8  H   UNL     1       9.605  72.775  -0.680  1.00  0.00     0.296 HD
ENDBRANCH   5   7
ENDBRANCH   2   5
ENDBRANCH   1   2
BRANCH   1   9
ATOM      9  C   UNL     1       9.212  77.421  -2.312  1.00  0.00     0.121 A 
ATOM     10  C   UNL     1       9.074  78.753  -1.874  1.00  0.00     0.047 A 
ATOM     11  C   UNL     1      10.473  76.971  -2.720  1.00  0.00     0.047 A 
ATOM     12  C   UNL     1      10.182  79.606  -1.846  1.00  0.00     0.016 A 
ATOM     13  C   UNL     1      11.578  77.826  -2.709  1.00  0.00     0.016 A 
ATOM     14  C   UNL     1      11.440  79.154  -2.275  1.00  0.00     0.023 A 
BRANCH  14  15
ATOM     15  C   UNL     1      12.608  80.060  -2.224  1.00  0.00     0.193 C 
ATOM     16  O   UNL     1      12.797  80.753  -1.186  1.00  0.00    -0.289 OA
BRANCH  15  17
ATOM     17  C   UNL     1      13.563  80.175  -3.354  1.00  0.00     0.023 A 
ATOM     18  C   UNL     1      14.931  79.927  -3.149  1.00  0.00     0.014 A 
ATOM     19  C   UNL     1      13.127  80.583  -4.630  1.00  0.00     0.014 A 
ATOM     20  C   UNL     1      15.841  80.071  -4.200  1.00  0.00     0.021 A 
ATOM     21  C   UNL     1      14.041  80.727  -5.677  1.00  0.00     0.021 A 
ATOM     22  C   UNL     1      15.398  80.474  -5.462  1.00  0.00     0.041 A 
ATOM     23  Cl  UNL     1      16.542  80.664  -6.777  1.00  0.00    -0.084 Cl
ENDBRANCH  15  17
ENDBRANCH  14  15
ENDBRANCH   1   9
TORSDOF 6
ENDMDL
MODEL 10
REMARK VINA RESULT:    -8.347      3.511      7.855
REMARK INTER + INTRA:         -11.778
REMARK INTER:                 -10.938
REMARK INTRA:                  -0.840
REMARK UNBOUND:                -0.747
REMARK SMILES CC(C)(Oc1ccc(C(=O)c2ccc(Cl)cc2)cc1)C(=O)O
REMARK SMILES IDX 4 1 2 2 1 3 3 4 20 5 21 6 22 7 5 9 6 10 19 11 7 12 18 13
REMARK SMILES IDX 8 14 9 15 10 16 11 17 12 18 17 19 13 20 16 21 14 22 15 23
REMARK H PARENT 22 8
REMARK Flexibility Score: inf
ROOT
ATOM      1  O   UNL     1      11.689  79.803  -2.892  1.00  0.00    -0.476 OA
ENDROOT
BRANCH   1   2
ATOM      2  C   UNL     1      11.724  79.897  -1.459  1.00  0.00     0.199 C 
ATOM      3  C   UNL     1      12.952  80.719  -1.014  1.00  0.00     0.069 C 
ATOM      4  C   UNL     1      10.454  80.639  -1.023  1.00  0.00     0.069 C 
BRANCH   2   5
ATOM      5  C   UNL     1      11.696  78.522  -0.828  1.00  0.00     0.347 C 
ATOM      6  O   UNL     1      10.698  77.766  -0.979  1.00  0.00    -0.248 OA
BRANCH   5   7
ATOM      7  O   UNL     1      12.808  78.060  -0.129  1.00  0.00    -0.478 OA
ATOM      8  H   UNL     1      12.697  77.488   0.698  1.00  0.00     0.296 HD
ENDBRANCH   5   7
ENDBRANCH   2   5
ENDBRANCH   1   2
BRANCH   1   9
ATOM      9  C   UNL     1      12.770  79.648  -3.783  1.00  0.00     0.121 A 
ATOM     10  C   UNL     1      13.376  80.720  -4.467  1.00  0.00     0.047 A 
ATOM     11  C   UNL     1      13.266  78.354  -3.979  1.00  0.00     0.047 A 
ATOM     12  C   UNL     1      14.457  80.490  -5.325  1.00  0.00     0.016 A 
ATOM     13  C   UNL     1      14.335  78.120  -4.848  1.00  0.00     0.016 A 
ATOM     14  C   UNL     1      14.937  79.188  -5.532  1.00  0.00     0.023 A 
BRANCH  14  15
ATOM     15  C   UNL     1      16.092  78.959  -6.427  1.00  0.00     0.193 C 
ATOM     16  O   UNL     1      16.205  77.842  -7.003  1.00  0.00    -0.289 OA
BRANCH  15  17
ATOM     17  C   UNL     1      17.120  80.002  -6.666  1.00  0.00     0.023 A 
ATOM     18  C   UNL     1      17.159  80.685  -7.894  1.00  0.00     0.014 A 
ATOM     19  C   UNL     1      18.098  80.290  -5.695  1.00  0.00     0.014 A 
ATOM     20  C   UNL     1      18.147  81.642  -8.141  1.00  0.00     0.021 A 
ATOM     21  C   UNL     1      19.086  81.246  -5.947  1.00  0.00     0.021 A 
ATOM     22  C   UNL     1      19.112  81.921  -7.170  1.00  0.00     0.041 A 
ATOM     23  Cl  UNL     1      20.358  83.114  -7.484  1.00  0.00    -0.084 Cl
ENDBRANCH  15  17
ENDBRANCH  14  15
ENDBRANCH   1   9
TORSDOF 6
ENDMDL
MODEL 11
REMARK VINA RESULT:    -8.335      4.390      8.888
REMARK INTER + INTRA:         -11.762
REMARK INTER:                 -11.027
REMARK INTRA:                  -0.735
REMARK UNBOUND:                -0.747
REMARK SMILES CC(C)(Oc1ccc(C(=O)c2ccc(Cl)cc2)cc1)C(=O)O
REMARK SMILES IDX 4 1 2 2 1 3 3 4 20 5 21 6 22 7 5 9 6 10 19 11 7 12 18 13
REMARK SMILES IDX 8 14 9 15 10 16 11 17 12 18 17 19 13 20 16 21 14 22 15 23
REMARK H PARENT 22 8
REMARK Flexibility Score: inf
ROOT
ATOM      1  O   UNL     1       8.023  76.392  -2.389  1.00  0.00    -0.476 OA
ENDROOT
BRANCH   1   2
ATOM      2  C   UNL     1       7.768  75.263  -1.540  1.00  0.00     0.199 C 
ATOM      3  C   UNL     1       6.283  74.852  -1.640  1.00  0.00     0.069 C 
ATOM      4  C   UNL     1       8.632  74.105  -2.056  1.00  0.00     0.069 C 
BRANCH   2   5
ATOM      5  C   UNL     1       8.186  75.553  -0.116  1.00  0.00     0.347 C 
ATOM      6  O   UNL     1       9.221  75.021   0.371  1.00  0.00    -0.248 OA
BRANCH   5   7
ATOM      7  O   UNL     1       7.461  76.466   0.646  1.00  0.00    -0.478 OA
ATOM      8  H   UNL     1       6.566  76.811   0.323  1.00  0.00     0.296 HD
ENDBRANCH   5   7
ENDBRANCH   2   5
ENDBRANCH   1   2
BRANCH   1   9
ATOM      9  C   UNL     1       9.088  77.313  -2.319  1.00  0.00     0.121 A 
ATOM     10  C   UNL     1       8.943  78.641  -1.870  1.00  0.00     0.047 A 
ATOM     11  C   UNL     1      10.357  76.866  -2.708  1.00  0.00     0.047 A 
ATOM     12  C   UNL     1      10.051  79.492  -1.814  1.00  0.00     0.016 A 
ATOM     13  C   UNL     1      11.461  77.720  -2.669  1.00  0.00     0.016 A 
ATOM     14  C   UNL     1      11.316  79.044  -2.224  1.00  0.00     0.023 A 
BRANCH  14  15
ATOM     15  C   UNL     1      12.484  79.948  -2.142  1.00  0.00     0.193 C 
ATOM     16  O   UNL     1      12.671  80.608  -1.083  1.00  0.00    -0.289 OA
BRANCH  15  17
ATOM     17  C   UNL     1      13.439  80.101  -3.267  1.00  0.00     0.023 A 
ATOM     18  C   UNL     1      14.810  79.868  -3.064  1.00  0.00     0.014 A 
ATOM     19  C   UNL     1      13.001  80.528  -4.536  1.00  0.00     0.014 A 
ATOM     20  C   UNL     1      15.721  80.046  -4.109  1.00  0.00     0.021 A 
ATOM     21  C   UNL     1      13.916  80.707  -5.577  1.00  0.00     0.021 A 
ATOM     22  C   UNL     1      15.276  80.468  -5.364  1.00  0.00     0.041 A 
ATOM     23  Cl  UNL     1      16.421  80.702  -6.671  1.00  0.00    -0.084 Cl
ENDBRANCH  15  17
ENDBRANCH  14  15
ENDBRANCH   1   9
TORSDOF 6
ENDMDL
MODEL 12
REMARK VINA RESULT:    -8.328      5.463      7.976
REMARK INTER + INTRA:         -11.753
REMARK INTER:                 -10.882
REMARK INTRA:                  -0.871
REMARK UNBOUND:                -0.747
REMARK SMILES CC(C)(Oc1ccc(C(=O)c2ccc(Cl)cc2)cc1)C(=O)O
REMARK SMILES IDX 4 1 2 2 1 3 3 4 20 5 21 6 22 7 5 9 6 10 19 11 7 12 18 13
REMARK SMILES IDX 8 14 9 15 10 16 11 17 12 18 17 19 13 20 16 21 14 22 15 23
REMARK H PARENT 22 8
REMARK Flexibility Score: inf
ROOT
ATOM      1  O   UNL     1      12.444  79.040  -0.344  1.00  0.00    -0.476 OA
ENDROOT
BRANCH   1   2
ATOM      2  C   UNL     1      13.719  79.229  -0.977  1.00  0.00     0.199 C 
ATOM      3  C   UNL     1      13.734  78.532  -2.354  1.00  0.00     0.069 C 
ATOM      4  C   UNL     1      13.899  80.738  -1.191  1.00  0.00     0.069 C 
BRANCH   2   5
ATOM      5  C   UNL     1      14.842  78.752  -0.083  1.00  0.00     0.347 C 
ATOM      6  O   UNL     1      14.594  78.258   1.052  1.00  0.00    -0.248 OA
BRANCH   5   7
ATOM      7  O   UNL     1      16.156  78.796  -0.539  1.00  0.00    -0.478 OA
ATOM      8  H   UNL     1      16.366  79.104  -1.481  1.00  0.00     0.296 HD
ENDBRANCH   5   7
ENDBRANCH   2   5
ENDBRANCH   1   2
BRANCH   1   9
ATOM      9  C   UNL     1      11.474  78.054  -0.612  1.00  0.00     0.121 A 
ATOM     10  C   UNL     1      10.327  78.282  -1.397  1.00  0.00     0.047 A 
ATOM     11  C   UNL     1      11.682  76.778  -0.075  1.00  0.00     0.047 A 
ATOM     12  C   UNL     1       9.415  77.247  -1.633  1.00  0.00     0.016 A 
ATOM     13  C   UNL     1      10.765  75.748  -0.295  1.00  0.00     0.016 A 
ATOM     14  C   UNL     1       9.620  75.977  -1.075  1.00  0.00     0.023 A 
BRANCH  14  15
ATOM     15  C   UNL     1       8.659  74.885  -1.347  1.00  0.00     0.193 C 
ATOM     16  O   UNL     1       7.630  74.785  -0.623  1.00  0.00    -0.289 OA
BRANCH  15  17
ATOM     17  C   UNL     1       8.869  73.909  -2.444  1.00  0.00     0.023 A 
ATOM     18  C   UNL     1       9.582  72.722  -2.204  1.00  0.00     0.014 A 
ATOM     19  C   UNL     1       8.408  74.175  -3.748  1.00  0.00     0.014 A 
ATOM     20  C   UNL     1       9.817  71.815  -3.242  1.00  0.00     0.021 A 
ATOM     21  C   UNL     1       8.647  73.267  -4.783  1.00  0.00     0.021 A 
ATOM     22  C   UNL     1       9.353  72.088  -4.531  1.00  0.00     0.041 A 
ATOM     23  Cl  UNL     1       9.658  70.955  -5.834  1.00  0.00    -0.084 Cl
ENDBRANCH  15  17
ENDBRANCH  14  15
ENDBRANCH   1   9
TORSDOF 6
ENDMDL
MODEL 13
REMARK VINA RESULT:    -7.921      6.374      8.578
REMARK INTER + INTRA:         -11.216
REMARK INTER:                 -10.499
REMARK INTRA:                  -0.716
REMARK UNBOUND:                -0.747
REMARK SMILES CC(C)(Oc1ccc(C(=O)c2ccc(Cl)cc2)cc1)C(=O)O
REMARK SMILES IDX 4 1 2 2 1 3 3 4 20 5 21 6 22 7 5 9 6 10 19 11 7 12 18 13
REMARK SMILES IDX 8 14 9 15 10 16 11 17 12 18 17 19 13 20 16 21 14 22 15 23
REMARK H PARENT 22 8
REMARK Flexibility Score: inf
ROOT
ATOM      1  O   UNL     1       8.740  72.960  -3.176  1.00  0.00    -0.476 OA
ENDROOT
BRANCH   1   2
ATOM      2  C   UNL     1       9.723  72.317  -4.001  1.00  0.00     0.199 C 
ATOM      3  C   UNL     1      11.000  73.181  -4.073  1.00  0.00     0.069 C 
ATOM      4  C   UNL     1      10.073  70.982  -3.332  1.00  0.00     0.069 C 
BRANCH   2   5
ATOM      5  C   UNL     1       9.160  72.013  -5.372  1.00  0.00     0.347 C 
ATOM      6  O   UNL     1       9.224  70.847  -5.849  1.00  0.00    -0.248 OA
BRANCH   5   7
ATOM      7  O   UNL     1       8.507  73.013  -6.088  1.00  0.00    -0.478 OA
ATOM      8  H   UNL     1       7.639  72.818  -6.572  1.00  0.00     0.296 HD
ENDBRANCH   5   7
ENDBRANCH   2   5
ENDBRANCH   1   2
BRANCH   1   9
ATOM      9  C   UNL     1       8.637  74.326  -2.844  1.00  0.00     0.121 A 
ATOM     10  C   UNL     1       7.888  75.256  -3.592  1.00  0.00     0.047 A 
ATOM     11  C   UNL     1       9.310  74.767  -1.698  1.00  0.00     0.047 A 
ATOM     12  C   UNL     1       7.819  76.594  -3.192  1.00  0.00     0.016 A 
ATOM     13  C   UNL     1       9.256  76.106  -1.306  1.00  0.00     0.016 A 
ATOM     14  C   UNL     1       8.512  77.033  -2.053  1.00  0.00     0.023 A 
BRANCH  14  15
ATOM     15  C   UNL     1       8.417  78.447  -1.629  1.00  0.00     0.193 C 
ATOM     16  O   UNL     1       7.276  78.971  -1.506  1.00  0.00    -0.289 OA
BRANCH  15  17
ATOM     17  C   UNL     1       9.622  79.264  -1.343  1.00  0.00     0.023 A 
ATOM     18  C   UNL     1      10.764  79.143  -2.153  1.00  0.00     0.014 A 
ATOM     19  C   UNL     1       9.663  80.130  -0.233  1.00  0.00     0.014 A 
ATOM     20  C   UNL     1      11.917  79.881  -1.867  1.00  0.00     0.021 A 
ATOM     21  C   UNL     1      10.818  80.864   0.050  1.00  0.00     0.021 A 
ATOM     22  C   UNL     1      11.945  80.739  -0.765  1.00  0.00     0.041 A 
ATOM     23  Cl  UNL     1      13.395  81.657  -0.401  1.00  0.00    -0.084 Cl
ENDBRANCH  15  17
ENDBRANCH  14  15
ENDBRANCH   1   9
TORSDOF 6
ENDMDL
MODEL 14
REMARK VINA RESULT:    -7.882      3.805      8.038
REMARK INTER + INTRA:         -11.164
REMARK INTER:                 -10.594
REMARK INTRA:                  -0.570
REMARK UNBOUND:                -0.747
REMARK SMILES CC(C)(Oc1ccc(C(=O)c2ccc(Cl)cc2)cc1)C(=O)O
REMARK SMILES IDX 4 1 2 2 1 3 3 4 20 5 21 6 22 7 5 9 6 10 19 11 7 12 18 13
REMARK SMILES IDX 8 14 9 15 10 16 11 17 12 18 17 19 13 20 16 21 14 22 15 23
REMARK H PARENT 22 8
REMARK Flexibility Score: inf
ROOT
ATOM      1  O   UNL     1      12.906  80.700  -0.580  1.00  0.00    -0.476 OA
ENDROOT
BRANCH   1   2
ATOM      2  C   UNL     1      12.156  79.949   0.387  1.00  0.00     0.199 C 
ATOM      3  C   UNL     1      11.095  79.082  -0.325  1.00  0.00     0.069 C 
ATOM      4  C   UNL     1      13.144  79.021   1.105  1.00  0.00     0.069 C 
BRANCH   2   5
ATOM      5  C   UNL     1      11.543  80.865   1.423  1.00  0.00     0.347 C 
ATOM      6  O   UNL     1      11.917  80.815   2.627  1.00  0.00    -0.248 OA
BRANCH   5   7
ATOM      7  O   UNL     1      10.605  81.818   1.036  1.00  0.00    -0.478 OA
ATOM      8  H   UNL     1       9.615  81.603   1.047  1.00  0.00     0.296 HD
ENDBRANCH   5   7
ENDBRANCH   2   5
ENDBRANCH   1   2
BRANCH   1   9
ATOM      9  C   UNL     1      13.328  80.296  -1.862  1.00  0.00     0.121 A 
ATOM     10  C   UNL     1      12.457  80.151  -2.960  1.00  0.00     0.047 A 
ATOM     11  C   UNL     1      14.693  80.042  -2.045  1.00  0.00     0.047 A 
ATOM     12  C   UNL     1      12.953  79.762  -4.209  1.00  0.00     0.016 A 
ATOM     13  C   UNL     1      15.187  79.637  -3.286  1.00  0.00     0.016 A 
ATOM     14  C   UNL     1      14.318  79.489  -4.380  1.00  0.00     0.023 A 
BRANCH  14  15
ATOM     15  C   UNL     1      14.834  79.096  -5.709  1.00  0.00     0.193 C 
ATOM     16  O   UNL     1      14.280  78.140  -6.319  1.00  0.00    -0.289 OA
BRANCH  15  17
ATOM     17  C   UNL     1      15.979  79.793  -6.345  1.00  0.00     0.023 A 
ATOM     18  C   UNL     1      17.121  79.068  -6.727  1.00  0.00     0.014 A 
ATOM     19  C   UNL     1      15.965  81.189  -6.529  1.00  0.00     0.014 A 
ATOM     20  C   UNL     1      18.220  79.723  -7.291  1.00  0.00     0.021 A 
ATOM     21  C   UNL     1      17.066  81.840  -7.091  1.00  0.00     0.021 A 
ATOM     22  C   UNL     1      18.194  81.108  -7.471  1.00  0.00     0.041 A 
ATOM     23  Cl  UNL     1      19.577  81.931  -8.170  1.00  0.00    -0.084 Cl
ENDBRANCH  15  17
ENDBRANCH  14  15
ENDBRANCH   1   9
TORSDOF 6
ENDMDL
MODEL 15
REMARK VINA RESULT:    -7.798      3.546      8.050
REMARK INTER + INTRA:         -11.053
REMARK INTER:                 -10.367
REMARK INTRA:                  -0.686
REMARK UNBOUND:                -0.747
REMARK SMILES CC(C)(Oc1ccc(C(=O)c2ccc(Cl)cc2)cc1)C(=O)O
REMARK SMILES IDX 4 1 2 2 1 3 3 4 20 5 21 6 22 7 5 9 6 10 19 11 7 12 18 13
REMARK SMILES IDX 8 14 9 15 10 16 11 17 12 18 17 19 13 20 16 21 14 22 15 23
REMARK H PARENT 22 8
REMARK Flexibility Score: inf
ROOT
ATOM      1  O   UNL     1      12.364  80.483  -1.658  1.00  0.00    -0.476 OA
ENDROOT
BRANCH   1   2
ATOM      2  C   UNL     1      11.705  79.552  -0.786  1.00  0.00     0.199 C 
ATOM      3  C   UNL     1      11.555  78.186  -1.488  1.00  0.00     0.069 C 
ATOM      4  C   UNL     1      12.601  79.374   0.446  1.00  0.00     0.069 C 
BRANCH   2   5
ATOM      5  C   UNL     1      10.377  80.103  -0.316  1.00  0.00     0.347 C 
ATOM      6  O   UNL     1      10.325  81.163   0.365  1.00  0.00    -0.248 OA
BRANCH   5   7
ATOM      7  O   UNL     1       9.194  79.471  -0.692  1.00  0.00    -0.478 OA
ATOM      8  H   UNL     1       9.194  78.498  -0.971  1.00  0.00     0.296 HD
ENDBRANCH   5   7
ENDBRANCH   2   5
ENDBRANCH   1   2
BRANCH   1   9
ATOM      9  C   UNL     1      13.262  80.208  -2.710  1.00  0.00     0.121 A 
ATOM     10  C   UNL     1      14.580  79.752  -2.510  1.00  0.00     0.047 A 
ATOM     11  C   UNL     1      12.801  80.389  -4.019  1.00  0.00     0.047 A 
ATOM     12  C   UNL     1      15.408  79.485  -3.605  1.00  0.00     0.016 A 
ATOM     13  C   UNL     1      13.631  80.139  -5.113  1.00  0.00     0.016 A 
ATOM     14  C   UNL     1      14.946  79.687  -4.914  1.00  0.00     0.023 A 
BRANCH  14  15
ATOM     15  C   UNL     1      15.825  79.383  -6.065  1.00  0.00     0.193 C 
ATOM     16  O   UNL     1      15.612  78.334  -6.734  1.00  0.00    -0.289 OA
BRANCH  15  17
ATOM     17  C   UNL     1      16.946  80.274  -6.454  1.00  0.00     0.023 A 
ATOM     18  C   UNL     1      18.086  80.370  -5.638  1.00  0.00     0.014 A 
ATOM     19  C   UNL     1      16.866  81.073  -7.611  1.00  0.00     0.014 A 
ATOM     20  C   UNL     1      19.130  81.235  -5.979  1.00  0.00     0.021 A 
ATOM     21  C   UNL     1      17.911  81.939  -7.946  1.00  0.00     0.021 A 
ATOM     22  C   UNL     1      19.042  82.022  -7.130  1.00  0.00     0.041 A 
ATOM     23  Cl  UNL     1      20.346  83.115  -7.551  1.00  0.00    -0.084 Cl
ENDBRANCH  15  17
ENDBRANCH  14  15
ENDBRANCH   1   9
TORSDOF 6
ENDMDL
