MODEL 1
REMARK VINA RESULT:   -10.021      0.000      0.000
REMARK INTER + INTRA:         -15.108
REMARK INTER:                 -14.122
REMARK INTRA:                  -0.985
REMARK UNBOUND:                -0.985
REMARK SMILES C=CC(=O)Nc1cccc(Oc2nc(Nc3ccc(N4CCN(C)CC4)cc3)nc3ccsc23)c1
REMARK SMILES IDX 14 1 13 2 12 3 34 4 33 5 32 6 31 7 30 8 29 9 15 10 16 12
REMARK SMILES IDX 19 13 18 14 27 15 17 16 28 17 20 18 24 19 23 20 22 21 25 22
REMARK SMILES IDX 21 23 26 24 11 25 10 26 9 27 35 28 8 29 6 30 7 31 5 32 3 33
REMARK SMILES IDX 4 35 2 36 1 37
REMARK H PARENT 15 11 5 34
REMARK Flexibility Score: inf
ROOT
ATOM      1  C   UNL     1      22.009  34.728  12.768  1.00  0.00     0.231 A 
ATOM      2  N   UNL     1      21.179  33.868  12.100  1.00  0.00    -0.175 NA
ATOM      3  C   UNL     1      19.952  33.529  12.584  1.00  0.00     0.242 A 
ATOM      4  C   UNL     1      19.561  34.080  13.807  1.00  0.00     0.116 A 
ATOM      5  S   UNL     1      18.190  33.817  14.747  1.00  0.00    -0.136 S 
ATOM      6  C   UNL     1      18.662  34.850  16.003  1.00  0.00     0.068 A 
ATOM      7  C   UNL     1      19.905  35.402  15.697  1.00  0.00     0.041 A 
ATOM      8  C   UNL     1      20.396  34.955  14.468  1.00  0.00     0.091 A 
ATOM      9  N   UNL     1      21.607  35.281  13.950  1.00  0.00    -0.212 NA
ENDROOT
BRANCH   1  10
ATOM     10  N   UNL     1      23.288  35.086  12.223  1.00  0.00    -0.324 N 
ATOM     11  H   UNL     1      23.334  35.940  11.624  1.00  0.00     0.170 HD
BRANCH  10  12
ATOM     12  C   UNL     1      24.478  34.287  12.359  1.00  0.00     0.041 A 
ATOM     13  C   UNL     1      26.793  32.686  12.584  1.00  0.00     0.037 A 
ATOM     14  C   UNL     1      26.543  33.708  13.511  1.00  0.00     0.028 A 
ATOM     15  C   UNL     1      25.899  32.496  11.519  1.00  0.00     0.028 A 
ATOM     16  C   UNL     1      25.404  34.511  13.394  1.00  0.00     0.028 A 
ATOM     17  C   UNL     1      24.750  33.291  11.409  1.00  0.00     0.028 A 
BRANCH  13  18
ATOM     18  N   UNL     1      27.935  31.829  12.741  1.00  0.00    -0.369 N 
ATOM     19  C   UNL     1      31.877  30.359  12.621  1.00  0.00     0.105 C 
ATOM     20  N   UNL     1      30.593  31.052  12.404  1.00  0.00    -0.303 NA
ATOM     21  C   UNL     1      29.538  30.073  12.081  1.00  0.00     0.105 C 
ATOM     22  C   UNL     1      30.260  31.926  13.562  1.00  0.00     0.105 C 
ATOM     23  C   UNL     1      28.239  30.805  11.733  1.00  0.00     0.132 C 
ATOM     24  C   UNL     1      28.770  31.923  13.941  1.00  0.00     0.132 C 
ENDBRANCH  13  18
ENDBRANCH  10  12
ENDBRANCH   1  10
BRANCH   3  25
ATOM     25  O   UNL     1      19.164  32.613  11.873  1.00  0.00    -0.437 OA
BRANCH  25  26
ATOM     26  C   UNL     1      18.261  32.942  10.855  1.00  0.00     0.131 A 
ATOM     27  C   UNL     1      17.620  34.183  10.909  1.00  0.00     0.047 A 
ATOM     28  C   UNL     1      17.953  32.048   9.812  1.00  0.00     0.073 A 
ATOM     29  C   UNL     1      16.731  34.560   9.901  1.00  0.00     0.006 A 
ATOM     30  C   UNL     1      17.032  32.406   8.814  1.00  0.00     0.045 A 
ATOM     31  C   UNL     1      16.448  33.685   8.850  1.00  0.00     0.026 A 
BRANCH  30  32
ATOM     32  N   UNL     1      16.758  31.485   7.741  1.00  0.00    -0.322 N 
ATOM     33  C   UNL     1      15.590  30.653   7.671  1.00  0.00     0.247 C 
ATOM     34  H   UNL     1      17.497  31.345   7.017  1.00  0.00     0.170 HD
ATOM     35  O   UNL     1      14.851  30.504   8.683  1.00  0.00    -0.270 OA
BRANCH  33  36
ATOM     36  C   UNL     1      15.288  29.932   6.420  1.00  0.00     0.064 C 
ATOM     37  C   UNL     1      14.795  28.692   6.407  1.00  0.00     0.014 C 
ENDBRANCH  33  36
ENDBRANCH  30  32
ENDBRANCH  25  26
ENDBRANCH   3  25
TORSDOF 7
ENDMDL
MODEL 2
REMARK VINA RESULT:    -9.973      1.386      2.123
REMARK INTER + INTRA:         -15.040
REMARK INTER:                 -14.155
REMARK INTRA:                  -0.884
REMARK UNBOUND:                -0.985
REMARK SMILES C=CC(=O)Nc1cccc(Oc2nc(Nc3ccc(N4CCN(C)CC4)cc3)nc3ccsc23)c1
REMARK SMILES IDX 14 1 13 2 12 3 34 4 33 5 32 6 31 7 30 8 29 9 15 10 16 12
REMARK SMILES IDX 19 13 18 14 27 15 17 16 28 17 20 18 24 19 23 20 22 21 25 22
REMARK SMILES IDX 21 23 26 24 11 25 10 26 9 27 35 28 8 29 6 30 7 31 5 32 3 33
REMARK SMILES IDX 4 35 2 36 1 37
REMARK H PARENT 15 11 5 34
REMARK Flexibility Score: inf
ROOT
ATOM      1  C   UNL     1      20.850  35.514  14.513  1.00  0.00     0.231 A 
ATOM      2  N   UNL     1      20.407  34.499  13.707  1.00  0.00    -0.175 NA
ATOM      3  C   UNL     1      19.134  34.022  13.782  1.00  0.00     0.242 A 
ATOM      4  C   UNL     1      18.280  34.594  14.728  1.00  0.00     0.116 A 
ATOM      5  S   UNL     1      16.705  34.202  15.171  1.00  0.00    -0.136 S 
ATOM      6  C   UNL     1      16.589  35.377  16.386  1.00  0.00     0.068 A 
ATOM      7  C   UNL     1      17.791  36.079  16.458  1.00  0.00     0.041 A 
ATOM      8  C   UNL     1      18.728  35.623  15.528  1.00  0.00     0.091 A 
ATOM      9  N   UNL     1      19.999  36.084  15.417  1.00  0.00    -0.212 NA
ENDROOT
BRANCH   1  10
ATOM     10  N   UNL     1      22.191  36.014  14.395  1.00  0.00    -0.324 N 
ATOM     11  H   UNL     1      22.338  37.037  14.538  1.00  0.00     0.170 HD
BRANCH  10  12
ATOM     12  C   UNL     1      23.318  35.216  13.989  1.00  0.00     0.041 A 
ATOM     13  C   UNL     1      25.544  33.645  13.247  1.00  0.00     0.037 A 
ATOM     14  C   UNL     1      24.771  34.289  12.269  1.00  0.00     0.028 A 
ATOM     15  C   UNL     1      25.172  33.757  14.595  1.00  0.00     0.028 A 
ATOM     16  C   UNL     1      23.661  35.057  12.634  1.00  0.00     0.028 A 
ATOM     17  C   UNL     1      24.068  34.538  14.962  1.00  0.00     0.028 A 
BRANCH  13  18
ATOM     18  N   UNL     1      26.716  32.903  12.871  1.00  0.00    -0.369 N 
ATOM     19  C   UNL     1      29.267  29.732  11.800  1.00  0.00     0.105 C 
ATOM     20  N   UNL     1      28.201  30.606  12.323  1.00  0.00    -0.303 NA
ATOM     21  C   UNL     1      28.770  31.593  13.260  1.00  0.00     0.105 C 
ATOM     22  C   UNL     1      27.423  31.219  11.212  1.00  0.00     0.105 C 
ATOM     23  C   UNL     1      27.646  32.414  13.897  1.00  0.00     0.132 C 
ATOM     24  C   UNL     1      27.030  32.685  11.456  1.00  0.00     0.132 C 
ENDBRANCH  13  18
ENDBRANCH  10  12
ENDBRANCH   1  10
BRANCH   3  25
ATOM     25  O   UNL     1      18.753  32.955  12.956  1.00  0.00    -0.437 OA
BRANCH  25  26
ATOM     26  C   UNL     1      18.215  33.080  11.669  1.00  0.00     0.131 A 
ATOM     27  C   UNL     1      17.441  34.206  11.378  1.00  0.00     0.047 A 
ATOM     28  C   UNL     1      18.398  32.091  10.685  1.00  0.00     0.073 A 
ATOM     29  C   UNL     1      16.907  34.381  10.100  1.00  0.00     0.006 A 
ATOM     30  C   UNL     1      17.834  32.243   9.407  1.00  0.00     0.045 A 
ATOM     31  C   UNL     1      17.113  33.414   9.113  1.00  0.00     0.026 A 
BRANCH  30  32
ATOM     32  N   UNL     1      18.061  31.230   8.408  1.00  0.00    -0.322 N 
ATOM     33  C   UNL     1      17.016  30.502   7.746  1.00  0.00     0.247 C 
ATOM     34  H   UNL     1      19.047  30.943   8.221  1.00  0.00     0.170 HD
ATOM     35  O   UNL     1      15.834  30.537   8.188  1.00  0.00    -0.270 OA
BRANCH  33  36
ATOM     36  C   UNL     1      17.345  29.669   6.573  1.00  0.00     0.064 C 
ATOM     37  C   UNL     1      16.944  28.401   6.458  1.00  0.00     0.014 C 
ENDBRANCH  33  36
ENDBRANCH  30  32
ENDBRANCH  25  26
ENDBRANCH   3  25
TORSDOF 7
ENDMDL
MODEL 3
REMARK VINA RESULT:    -9.894      1.794      2.958
REMARK INTER + INTRA:         -14.928
REMARK INTER:                 -13.835
REMARK INTRA:                  -1.093
REMARK UNBOUND:                -0.985
REMARK SMILES C=CC(=O)Nc1cccc(Oc2nc(Nc3ccc(N4CCN(C)CC4)cc3)nc3ccsc23)c1
REMARK SMILES IDX 14 1 13 2 12 3 34 4 33 5 32 6 31 7 30 8 29 9 15 10 16 12
REMARK SMILES IDX 19 13 18 14 27 15 17 16 28 17 20 18 24 19 23 20 22 21 25 22
REMARK SMILES IDX 21 23 26 24 11 25 10 26 9 27 35 28 8 29 6 30 7 31 5 32 3 33
REMARK SMILES IDX 4 35 2 36 1 37
REMARK H PARENT 15 11 5 34
REMARK Flexibility Score: inf
ROOT
ATOM      1  C   UNL     1      19.808  35.680  15.068  1.00  0.00     0.231 A 
ATOM      2  N   UNL     1      19.321  34.727  14.214  1.00  0.00    -0.175 NA
ATOM      3  C   UNL     1      18.070  34.208  14.351  1.00  0.00     0.242 A 
ATOM      4  C   UNL     1      17.286  34.672  15.411  1.00  0.00     0.116 A 
ATOM      5  S   UNL     1      15.763  34.199  15.945  1.00  0.00    -0.136 S 
ATOM      6  C   UNL     1      15.724  35.261  17.265  1.00  0.00     0.068 A 
ATOM      7  C   UNL     1      16.913  35.988  17.299  1.00  0.00     0.041 A 
ATOM      8  C   UNL     1      17.778  35.641  16.259  1.00  0.00     0.091 A 
ATOM      9  N   UNL     1      19.025  36.146  16.085  1.00  0.00    -0.212 NA
ENDROOT
BRANCH   1  10
ATOM     10  N   UNL     1      21.124  36.226  14.886  1.00  0.00    -0.324 N 
ATOM     11  H   UNL     1      21.259  37.239  15.099  1.00  0.00     0.170 HD
BRANCH  10  12
ATOM     12  C   UNL     1      22.232  35.496  14.328  1.00  0.00     0.041 A 
ATOM     13  C   UNL     1      24.420  34.048  13.286  1.00  0.00     0.037 A 
ATOM     14  C   UNL     1      23.653  34.873  12.451  1.00  0.00     0.028 A 
ATOM     15  C   UNL     1      24.062  33.919  14.636  1.00  0.00     0.028 A 
ATOM     16  C   UNL     1      22.561  35.582  12.963  1.00  0.00     0.028 A 
ATOM     17  C   UNL     1      22.976  34.639  15.153  1.00  0.00     0.028 A 
BRANCH  13  18
ATOM     18  N   UNL     1      25.575  33.366  12.768  1.00  0.00    -0.369 N 
ATOM     19  C   UNL     1      28.436  30.383  11.977  1.00  0.00     0.105 C 
ATOM     20  N   UNL     1      27.387  31.259  12.532  1.00  0.00    -0.303 NA
ATOM     21  C   UNL     1      27.925  32.615  12.752  1.00  0.00     0.105 C 
ATOM     22  C   UNL     1      26.168  31.233  11.679  1.00  0.00     0.105 C 
ATOM     23  C   UNL     1      26.873  33.485  13.445  1.00  0.00     0.132 C 
ATOM     24  C   UNL     1      25.483  32.601  11.522  1.00  0.00     0.132 C 
ENDBRANCH  13  18
ENDBRANCH  10  12
ENDBRANCH   1  10
BRANCH   3  25
ATOM     25  O   UNL     1      17.643  33.206  13.468  1.00  0.00    -0.437 OA
BRANCH  25  26
ATOM     26  C   UNL     1      17.383  33.387  12.104  1.00  0.00     0.131 A 
ATOM     27  C   UNL     1      16.673  34.523  11.706  1.00  0.00     0.047 A 
ATOM     28  C   UNL     1      17.777  32.443  11.138  1.00  0.00     0.073 A 
ATOM     29  C   UNL     1      16.415  34.754  10.354  1.00  0.00     0.006 A 
ATOM     30  C   UNL     1      17.489  32.650   9.779  1.00  0.00     0.045 A 
ATOM     31  C   UNL     1      16.832  33.831   9.392  1.00  0.00     0.026 A 
BRANCH  30  32
ATOM     32  N   UNL     1      17.929  31.683   8.806  1.00  0.00    -0.322 N 
ATOM     33  C   UNL     1      17.046  30.881   8.008  1.00  0.00     0.247 C 
ATOM     34  H   UNL     1      18.953  31.486   8.744  1.00  0.00     0.170 HD
ATOM     35  O   UNL     1      15.819  30.803   8.296  1.00  0.00    -0.270 OA
BRANCH  33  36
ATOM     36  C   UNL     1      17.594  30.105   6.879  1.00  0.00     0.064 C 
ATOM     37  C   UNL     1      18.712  30.456   6.242  1.00  0.00     0.014 C 
ENDBRANCH  33  36
ENDBRANCH  30  32
ENDBRANCH  25  26
ENDBRANCH   3  25
TORSDOF 7
ENDMDL
MODEL 4
REMARK VINA RESULT:    -9.691      3.006      9.437
REMARK INTER + INTRA:         -14.642
REMARK INTER:                 -13.587
REMARK INTRA:                  -1.055
REMARK UNBOUND:                -0.985
REMARK SMILES C=CC(=O)Nc1cccc(Oc2nc(Nc3ccc(N4CCN(C)CC4)cc3)nc3ccsc23)c1
REMARK SMILES IDX 14 1 13 2 12 3 34 4 33 5 32 6 31 7 30 8 29 9 15 10 16 12
REMARK SMILES IDX 19 13 18 14 27 15 17 16 28 17 20 18 24 19 23 20 22 21 25 22
REMARK SMILES IDX 21 23 26 24 11 25 10 26 9 27 35 28 8 29 6 30 7 31 5 32 3 33
REMARK SMILES IDX 4 35 2 36 1 37
REMARK H PARENT 15 11 5 34
REMARK Flexibility Score: inf
ROOT
ATOM      1  C   UNL     1      17.040  34.854  14.580  1.00  0.00     0.231 A 
ATOM      2  N   UNL     1      18.284  34.302  14.428  1.00  0.00    -0.175 NA
ATOM      3  C   UNL     1      19.138  34.149  15.478  1.00  0.00     0.242 A 
ATOM      4  C   UNL     1      18.710  34.590  16.733  1.00  0.00     0.116 A 
ATOM      5  S   UNL     1      19.513  34.658  18.210  1.00  0.00    -0.136 S 
ATOM      6  C   UNL     1      18.229  35.371  19.053  1.00  0.00     0.068 A 
ATOM      7  C   UNL     1      17.163  35.568  18.177  1.00  0.00     0.041 A 
ATOM      8  C   UNL     1      17.452  35.132  16.882  1.00  0.00     0.091 A 
ATOM      9  N   UNL     1      16.622  35.257  15.816  1.00  0.00    -0.212 NA
ENDROOT
BRANCH   1  10
ATOM     10  N   UNL     1      16.151  34.981  13.460  1.00  0.00    -0.324 N 
ATOM     11  H   UNL     1      15.342  35.633  13.559  1.00  0.00     0.170 HD
BRANCH  10  12
ATOM     12  C   UNL     1      16.245  34.192  12.259  1.00  0.00     0.041 A 
ATOM     13  C   UNL     1      16.410  32.598   9.935  1.00  0.00     0.037 A 
ATOM     14  C   UNL     1      16.878  33.920   9.924  1.00  0.00     0.028 A 
ATOM     15  C   UNL     1      15.821  32.091  11.103  1.00  0.00     0.028 A 
ATOM     16  C   UNL     1      16.785  34.716  11.071  1.00  0.00     0.028 A 
ATOM     17  C   UNL     1      15.741  32.882  12.256  1.00  0.00     0.028 A 
BRANCH  13  18
ATOM     18  N   UNL     1      16.560  31.768   8.771  1.00  0.00    -0.369 N 
ATOM     19  C   UNL     1      16.833  28.386   6.282  1.00  0.00     0.105 C 
ATOM     20  N   UNL     1      16.843  29.363   7.386  1.00  0.00    -0.303 NA
ATOM     21  C   UNL     1      17.796  30.450   7.092  1.00  0.00     0.105 C 
ATOM     22  C   UNL     1      15.465  29.843   7.682  1.00  0.00     0.105 C 
ATOM     23  C   UNL     1      17.897  31.393   8.294  1.00  0.00     0.132 C 
ATOM     24  C   UNL     1      15.381  31.343   8.011  1.00  0.00     0.132 C 
ENDBRANCH  13  18
ENDBRANCH  10  12
ENDBRANCH   1  10
BRANCH   3  25
ATOM     25  O   UNL     1      20.414  33.614  15.251  1.00  0.00    -0.437 OA
BRANCH  25  26
ATOM     26  C   UNL     1      21.499  34.313  14.708  1.00  0.00     0.131 A 
ATOM     27  C   UNL     1      21.379  35.693  14.526  1.00  0.00     0.047 A 
ATOM     28  C   UNL     1      22.681  33.662  14.307  1.00  0.00     0.073 A 
ATOM     29  C   UNL     1      22.446  36.431  14.011  1.00  0.00     0.006 A 
ATOM     30  C   UNL     1      23.746  34.392  13.755  1.00  0.00     0.045 A 
ATOM     31  C   UNL     1      23.630  35.789  13.641  1.00  0.00     0.026 A 
BRANCH  30  32
ATOM     32  N   UNL     1      24.956  33.706  13.380  1.00  0.00    -0.322 N 
ATOM     33  C   UNL     1      25.215  33.187  12.068  1.00  0.00     0.247 C 
ATOM     34  H   UNL     1      25.647  33.491  14.133  1.00  0.00     0.170 HD
ATOM     35  O   UNL     1      24.281  33.086  11.224  1.00  0.00    -0.270 OA
BRANCH  33  36
ATOM     36  C   UNL     1      26.574  32.722  11.728  1.00  0.00     0.064 C 
ATOM     37  C   UNL     1      26.799  31.597  11.047  1.00  0.00     0.014 C 
ENDBRANCH  33  36
ENDBRANCH  30  32
ENDBRANCH  25  26
ENDBRANCH   3  25
TORSDOF 7
ENDMDL
MODEL 5
REMARK VINA RESULT:    -9.553      2.110      3.328
REMARK INTER + INTRA:         -14.448
REMARK INTER:                 -13.372
REMARK INTRA:                  -1.076
REMARK UNBOUND:                -0.985
REMARK SMILES C=CC(=O)Nc1cccc(Oc2nc(Nc3ccc(N4CCN(C)CC4)cc3)nc3ccsc23)c1
REMARK SMILES IDX 14 1 13 2 12 3 34 4 33 5 32 6 31 7 30 8 29 9 15 10 16 12
REMARK SMILES IDX 19 13 18 14 27 15 17 16 28 17 20 18 24 19 23 20 22 21 25 22
REMARK SMILES IDX 21 23 26 24 11 25 10 26 9 27 35 28 8 29 6 30 7 31 5 32 3 33
REMARK SMILES IDX 4 35 2 36 1 37
REMARK H PARENT 15 11 5 34
REMARK Flexibility Score: inf
ROOT
ATOM      1  C   UNL     1      18.733  35.365  15.183  1.00  0.00     0.231 A 
ATOM      2  N   UNL     1      18.351  34.484  14.207  1.00  0.00    -0.175 NA
ATOM      3  C   UNL     1      17.077  34.013  14.119  1.00  0.00     0.242 A 
ATOM      4  C   UNL     1      16.156  34.448  15.076  1.00  0.00     0.116 A 
ATOM      5  S   UNL     1      14.553  34.011  15.343  1.00  0.00    -0.136 S 
ATOM      6  C   UNL     1      14.348  34.996  16.705  1.00  0.00     0.068 A 
ATOM      7  C   UNL     1      15.541  35.668  16.965  1.00  0.00     0.041 A 
ATOM      8  C   UNL     1      16.544  35.345  16.049  1.00  0.00     0.091 A 
ATOM      9  N   UNL     1      17.819  35.805  16.098  1.00  0.00    -0.212 NA
ENDROOT
BRANCH   1  10
ATOM     10  N   UNL     1      20.079  35.864  15.237  1.00  0.00    -0.324 N 
ATOM     11  H   UNL     1      20.213  36.859  15.522  1.00  0.00     0.170 HD
BRANCH  10  12
ATOM     12  C   UNL     1      21.236  35.115  14.820  1.00  0.00     0.041 A 
ATOM     13  C   UNL     1      23.509  33.680  13.955  1.00  0.00     0.037 A 
ATOM     14  C   UNL     1      22.784  33.254  15.078  1.00  0.00     0.028 A 
ATOM     15  C   UNL     1      23.115  34.852  13.293  1.00  0.00     0.028 A 
ATOM     16  C   UNL     1      21.665  33.971  15.515  1.00  0.00     0.028 A 
ATOM     17  C   UNL     1      21.986  35.563  13.722  1.00  0.00     0.028 A 
BRANCH  13  18
ATOM     18  N   UNL     1      24.623  32.909  13.477  1.00  0.00    -0.369 N 
ATOM     19  C   UNL     1      28.016  31.719  11.292  1.00  0.00     0.105 C 
ATOM     20  N   UNL     1      26.763  32.315  11.790  1.00  0.00    -0.303 NA
ATOM     21  C   UNL     1      25.766  31.258  12.044  1.00  0.00     0.105 C 
ATOM     22  C   UNL     1      27.021  33.187  12.968  1.00  0.00     0.105 C 
ATOM     23  C   UNL     1      24.429  31.889  12.439  1.00  0.00     0.132 C 
ATOM     24  C   UNL     1      25.952  33.086  14.068  1.00  0.00     0.132 C 
ENDBRANCH  13  18
ENDBRANCH  10  12
ENDBRANCH   1  10
BRANCH   3  25
ATOM     25  O   UNL     1      16.757  33.083  13.121  1.00  0.00    -0.437 OA
BRANCH  25  26
ATOM     26  C   UNL     1      16.645  33.369  11.754  1.00  0.00     0.131 A 
ATOM     27  C   UNL     1      16.295  34.667  11.372  1.00  0.00     0.047 A 
ATOM     28  C   UNL     1      16.833  32.383  10.767  1.00  0.00     0.073 A 
ATOM     29  C   UNL     1      16.197  35.000  10.021  1.00  0.00     0.006 A 
ATOM     30  C   UNL     1      16.700  32.702   9.406  1.00  0.00     0.045 A 
ATOM     31  C   UNL     1      16.412  34.029   9.040  1.00  0.00     0.026 A 
BRANCH  30  32
ATOM     32  N   UNL     1      16.927  31.682   8.414  1.00  0.00    -0.322 N 
ATOM     33  C   UNL     1      15.910  30.801   7.916  1.00  0.00     0.247 C 
ATOM     34  H   UNL     1      17.911  31.512   8.107  1.00  0.00     0.170 HD
ATOM     35  O   UNL     1      14.799  30.708   8.509  1.00  0.00    -0.270 OA
BRANCH  33  36
ATOM     36  C   UNL     1      16.192  29.964   6.734  1.00  0.00     0.064 C 
ATOM     37  C   UNL     1      16.339  28.640   6.811  1.00  0.00     0.014 C 
ENDBRANCH  33  36
ENDBRANCH  30  32
ENDBRANCH  25  26
ENDBRANCH   3  25
TORSDOF 7
ENDMDL
MODEL 6
REMARK VINA RESULT:    -9.429      2.588      4.211
REMARK INTER + INTRA:         -14.273
REMARK INTER:                 -13.599
REMARK INTRA:                  -0.674
REMARK UNBOUND:                -0.985
REMARK SMILES C=CC(=O)Nc1cccc(Oc2nc(Nc3ccc(N4CCN(C)CC4)cc3)nc3ccsc23)c1
REMARK SMILES IDX 14 1 13 2 12 3 34 4 33 5 32 6 31 7 30 8 29 9 15 10 16 12
REMARK SMILES IDX 19 13 18 14 27 15 17 16 28 17 20 18 24 19 23 20 22 21 25 22
REMARK SMILES IDX 21 23 26 24 11 25 10 26 9 27 35 28 8 29 6 30 7 31 5 32 3 33
REMARK SMILES IDX 4 35 2 36 1 37
REMARK H PARENT 15 11 5 34
REMARK Flexibility Score: inf
ROOT
ATOM      1  C   UNL     1      19.083  34.848  17.135  1.00  0.00     0.231 A 
ATOM      2  N   UNL     1      18.583  34.214  16.029  1.00  0.00    -0.175 NA
ATOM      3  C   UNL     1      17.253  34.214  15.738  1.00  0.00     0.242 A 
ATOM      4  C   UNL     1      16.395  34.878  16.618  1.00  0.00     0.116 A 
ATOM      5  S   UNL     1      14.717  35.001  16.641  1.00  0.00    -0.136 S 
ATOM      6  C   UNL     1      14.647  35.910  18.068  1.00  0.00     0.068 A 
ATOM      7  C   UNL     1      15.941  36.116  18.542  1.00  0.00     0.041 A 
ATOM      8  C   UNL     1      16.907  35.526  17.723  1.00  0.00     0.091 A 
ATOM      9  N   UNL     1      18.239  35.517  17.975  1.00  0.00    -0.212 NA
ENDROOT
BRANCH   1  10
ATOM     10  N   UNL     1      20.494  34.851  17.404  1.00  0.00    -0.324 N 
ATOM     11  H   UNL     1      20.809  35.254  18.314  1.00  0.00     0.170 HD
BRANCH  10  12
ATOM     12  C   UNL     1      21.499  34.437  16.460  1.00  0.00     0.041 A 
ATOM     13  C   UNL     1      23.478  33.579  14.639  1.00  0.00     0.037 A 
ATOM     14  C   UNL     1      22.883  34.841  14.498  1.00  0.00     0.028 A 
ATOM     15  C   UNL     1      23.048  32.732  15.672  1.00  0.00     0.028 A 
ATOM     16  C   UNL     1      21.893  35.263  15.391  1.00  0.00     0.028 A 
ATOM     17  C   UNL     1      22.066  33.159  16.576  1.00  0.00     0.028 A 
BRANCH  13  18
ATOM     18  N   UNL     1      24.534  33.173  13.753  1.00  0.00    -0.369 N 
ATOM     19  C   UNL     1      27.597  30.917  11.954  1.00  0.00     0.105 C 
ATOM     20  N   UNL     1      26.607  31.537  12.853  1.00  0.00    -0.303 NA
ATOM     21  C   UNL     1      26.867  32.984  12.971  1.00  0.00     0.105 C 
ATOM     22  C   UNL     1      25.220  31.214  12.418  1.00  0.00     0.105 C 
ATOM     23  C   UNL     1      25.917  33.601  14.001  1.00  0.00     0.132 C 
ATOM     24  C   UNL     1      24.232  32.385  12.556  1.00  0.00     0.132 C 
ENDBRANCH  13  18
ENDBRANCH  10  12
ENDBRANCH   1  10
BRANCH   3  25
ATOM     25  O   UNL     1      16.798  33.513  14.612  1.00  0.00    -0.437 OA
BRANCH  25  26
ATOM     26  C   UNL     1      17.507  33.358  13.414  1.00  0.00     0.131 A 
ATOM     27  C   UNL     1      18.855  33.727  13.386  1.00  0.00     0.047 A 
ATOM     28  C   UNL     1      16.893  32.886  12.239  1.00  0.00     0.073 A 
ATOM     29  C   UNL     1      19.604  33.565  12.220  1.00  0.00     0.006 A 
ATOM     30  C   UNL     1      17.631  32.754  11.052  1.00  0.00     0.045 A 
ATOM     31  C   UNL     1      19.002  33.068  11.061  1.00  0.00     0.026 A 
BRANCH  30  32
ATOM     32  N   UNL     1      16.987  32.240   9.871  1.00  0.00    -0.322 N 
ATOM     33  C   UNL     1      16.425  33.060   8.836  1.00  0.00     0.247 C 
ATOM     34  H   UNL     1      16.836  31.208   9.808  1.00  0.00     0.170 HD
ATOM     35  O   UNL     1      16.245  34.295   9.027  1.00  0.00    -0.270 OA
BRANCH  33  36
ATOM     36  C   UNL     1      16.010  32.439   7.563  1.00  0.00     0.064 C 
ATOM     37  C   UNL     1      16.726  31.486   6.963  1.00  0.00     0.014 C 
ENDBRANCH  33  36
ENDBRANCH  30  32
ENDBRANCH  25  26
ENDBRANCH   3  25
TORSDOF 7
ENDMDL
MODEL 7
REMARK VINA RESULT:    -9.385      2.479      3.356
REMARK INTER + INTRA:         -14.211
REMARK INTER:                 -13.212
REMARK INTRA:                  -0.999
REMARK UNBOUND:                -0.985
REMARK SMILES C=CC(=O)Nc1cccc(Oc2nc(Nc3ccc(N4CCN(C)CC4)cc3)nc3ccsc23)c1
REMARK SMILES IDX 14 1 13 2 12 3 34 4 33 5 32 6 31 7 30 8 29 9 15 10 16 12
REMARK SMILES IDX 19 13 18 14 27 15 17 16 28 17 20 18 24 19 23 20 22 21 25 22
REMARK SMILES IDX 21 23 26 24 11 25 10 26 9 27 35 28 8 29 6 30 7 31 5 32 3 33
REMARK SMILES IDX 4 35 2 36 1 37
REMARK H PARENT 15 11 5 34
REMARK Flexibility Score: inf
ROOT
ATOM      1  C   UNL     1      19.205  32.680  14.298  1.00  0.00     0.231 A 
ATOM      2  N   UNL     1      18.178  32.761  13.395  1.00  0.00    -0.175 NA
ATOM      3  C   UNL     1      17.036  33.453  13.663  1.00  0.00     0.242 A 
ATOM      4  C   UNL     1      16.932  34.077  14.909  1.00  0.00     0.116 A 
ATOM      5  S   UNL     1      15.658  34.915  15.619  1.00  0.00    -0.136 S 
ATOM      6  C   UNL     1      16.457  35.203  17.084  1.00  0.00     0.068 A 
ATOM      7  C   UNL     1      17.728  34.633  17.029  1.00  0.00     0.041 A 
ATOM      8  C   UNL     1      17.975  34.001  15.808  1.00  0.00     0.091 A 
ATOM      9  N   UNL     1      19.104  33.315  15.502  1.00  0.00    -0.212 NA
ENDROOT
BRANCH   1  10
ATOM     10  N   UNL     1      20.408  31.962  13.978  1.00  0.00    -0.324 N 
ATOM     11  H   UNL     1      20.341  30.924  13.892  1.00  0.00     0.170 HD
BRANCH  10  12
ATOM     12  C   UNL     1      21.709  32.569  13.879  1.00  0.00     0.041 A 
ATOM     13  C   UNL     1      24.273  33.744  13.736  1.00  0.00     0.037 A 
ATOM     14  C   UNL     1      23.351  33.922  12.694  1.00  0.00     0.028 A 
ATOM     15  C   UNL     1      23.920  32.940  14.830  1.00  0.00     0.028 A 
ATOM     16  C   UNL     1      22.085  33.331  12.757  1.00  0.00     0.028 A 
ATOM     17  C   UNL     1      22.647  32.359  14.901  1.00  0.00     0.028 A 
BRANCH  13  18
ATOM     18  N   UNL     1      25.551  34.400  13.692  1.00  0.00    -0.369 N 
ATOM     19  C   UNL     1      29.438  35.652  14.707  1.00  0.00     0.105 C 
ATOM     20  N   UNL     1      28.044  35.173  14.676  1.00  0.00    -0.303 NA
ATOM     21  C   UNL     1      27.162  36.218  14.123  1.00  0.00     0.105 C 
ATOM     22  C   UNL     1      27.946  33.871  13.962  1.00  0.00     0.105 C 
ATOM     23  C   UNL     1      25.702  35.766  14.210  1.00  0.00     0.132 C 
ATOM     24  C   UNL     1      26.700  33.738  13.070  1.00  0.00     0.132 C 
ENDBRANCH  13  18
ENDBRANCH  10  12
ENDBRANCH   1  10
BRANCH   3  25
ATOM     25  O   UNL     1      16.005  33.466  12.714  1.00  0.00    -0.437 OA
BRANCH  25  26
ATOM     26  C   UNL     1      16.184  33.499  11.325  1.00  0.00     0.131 A 
ATOM     27  C   UNL     1      16.206  34.741  10.686  1.00  0.00     0.047 A 
ATOM     28  C   UNL     1      16.298  32.324  10.560  1.00  0.00     0.073 A 
ATOM     29  C   UNL     1      16.407  34.820   9.307  1.00  0.00     0.006 A 
ATOM     30  C   UNL     1      16.464  32.393   9.167  1.00  0.00     0.045 A 
ATOM     31  C   UNL     1      16.551  33.654   8.551  1.00  0.00     0.026 A 
BRANCH  30  32
ATOM     32  N   UNL     1      16.609  31.176   8.410  1.00  0.00    -0.322 N 
ATOM     33  C   UNL     1      15.568  30.592   7.614  1.00  0.00     0.247 C 
ATOM     34  H   UNL     1      17.496  30.636   8.521  1.00  0.00     0.170 HD
ATOM     35  O   UNL     1      14.375  30.989   7.732  1.00  0.00    -0.270 OA
BRANCH  33  36
ATOM     36  C   UNL     1      15.893  29.487   6.691  1.00  0.00     0.064 C 
ATOM     37  C   UNL     1      14.979  28.611   6.270  1.00  0.00     0.014 C 
ENDBRANCH  33  36
ENDBRANCH  30  32
ENDBRANCH  25  26
ENDBRANCH   3  25
TORSDOF 7
ENDMDL
MODEL 8
REMARK VINA RESULT:    -9.340      4.073      9.456
REMARK INTER + INTRA:         -14.148
REMARK INTER:                 -12.898
REMARK INTRA:                  -1.250
REMARK UNBOUND:                -0.985
REMARK SMILES C=CC(=O)Nc1cccc(Oc2nc(Nc3ccc(N4CCN(C)CC4)cc3)nc3ccsc23)c1
REMARK SMILES IDX 14 1 13 2 12 3 34 4 33 5 32 6 31 7 30 8 29 9 15 10 16 12
REMARK SMILES IDX 19 13 18 14 27 15 17 16 28 17 20 18 24 19 23 20 22 21 25 22
REMARK SMILES IDX 21 23 26 24 11 25 10 26 9 27 35 28 8 29 6 30 7 31 5 32 3 33
REMARK SMILES IDX 4 35 2 36 1 37
REMARK H PARENT 15 11 5 34
REMARK Flexibility Score: inf
ROOT
ATOM      1  C   UNL     1      17.192  34.933  14.884  1.00  0.00     0.231 A 
ATOM      2  N   UNL     1      18.244  34.057  14.870  1.00  0.00    -0.175 NA
ATOM      3  C   UNL     1      19.114  33.958  15.912  1.00  0.00     0.242 A 
ATOM      4  C   UNL     1      18.911  34.799  17.010  1.00  0.00     0.116 A 
ATOM      5  S   UNL     1      19.822  35.028  18.406  1.00  0.00    -0.136 S 
ATOM      6  C   UNL     1      18.826  36.241  19.044  1.00  0.00     0.068 A 
ATOM      7  C   UNL     1      17.776  36.480  18.159  1.00  0.00     0.041 A 
ATOM      8  C   UNL     1      17.843  35.670  17.023  1.00  0.00     0.091 A 
ATOM      9  N   UNL     1      16.987  35.732  15.973  1.00  0.00    -0.212 NA
ENDROOT
BRANCH   1  10
ATOM     10  N   UNL     1      16.276  34.999  13.780  1.00  0.00    -0.324 N 
ATOM     11  H   UNL     1      15.437  35.612  13.886  1.00  0.00     0.170 HD
BRANCH  10  12
ATOM     12  C   UNL     1      16.383  34.195  12.591  1.00  0.00     0.041 A 
ATOM     13  C   UNL     1      16.627  32.658  10.235  1.00  0.00     0.037 A 
ATOM     14  C   UNL     1      15.764  32.250  11.263  1.00  0.00     0.028 A 
ATOM     15  C   UNL     1      17.399  33.816  10.410  1.00  0.00     0.028 A 
ATOM     16  C   UNL     1      15.652  33.003  12.436  1.00  0.00     0.028 A 
ATOM     17  C   UNL     1      17.276  34.579  11.579  1.00  0.00     0.028 A 
BRANCH  13  18
ATOM     18  N   UNL     1      16.697  31.911   9.010  1.00  0.00    -0.369 N 
ATOM     19  C   UNL     1      16.722  28.715   6.272  1.00  0.00     0.105 C 
ATOM     20  N   UNL     1      16.816  29.606   7.443  1.00  0.00    -0.303 NA
ATOM     21  C   UNL     1      17.812  30.665   7.194  1.00  0.00     0.105 C 
ATOM     22  C   UNL     1      15.474  30.126   7.823  1.00  0.00     0.105 C 
ATOM     23  C   UNL     1      17.998  31.510   8.457  1.00  0.00     0.132 C 
ATOM     24  C   UNL     1      15.475  31.599   8.264  1.00  0.00     0.132 C 
ENDBRANCH  13  18
ENDBRANCH  10  12
ENDBRANCH   1  10
BRANCH   3  25
ATOM     25  O   UNL     1      20.194  33.069  15.821  1.00  0.00    -0.437 OA
BRANCH  25  26
ATOM     26  C   UNL     1      21.531  33.438  15.619  1.00  0.00     0.131 A 
ATOM     27  C   UNL     1      22.511  32.864  16.432  1.00  0.00     0.047 A 
ATOM     28  C   UNL     1      21.902  34.395  14.656  1.00  0.00     0.073 A 
ATOM     29  C   UNL     1      23.856  33.186  16.246  1.00  0.00     0.006 A 
ATOM     30  C   UNL     1      23.250  34.751  14.487  1.00  0.00     0.045 A 
ATOM     31  C   UNL     1      24.229  34.113  15.270  1.00  0.00     0.026 A 
BRANCH  30  32
ATOM     32  N   UNL     1      23.608  35.710  13.474  1.00  0.00    -0.322 N 
ATOM     33  C   UNL     1      23.829  35.382  12.094  1.00  0.00     0.247 C 
ATOM     34  H   UNL     1      23.810  36.689  13.778  1.00  0.00     0.170 HD
ATOM     35  O   UNL     1      23.964  34.178  11.738  1.00  0.00    -0.270 OA
BRANCH  33  36
ATOM     36  C   UNL     1      23.949  36.467  11.101  1.00  0.00     0.064 C 
ATOM     37  C   UNL     1      22.899  37.174  10.681  1.00  0.00     0.014 C 
ENDBRANCH  33  36
ENDBRANCH  30  32
ENDBRANCH  25  26
ENDBRANCH   3  25
TORSDOF 7
ENDMDL
MODEL 9
REMARK VINA RESULT:    -9.262      2.491      2.977
REMARK INTER + INTRA:         -14.037
REMARK INTER:                 -13.106
REMARK INTRA:                  -0.931
REMARK UNBOUND:                -0.985
REMARK SMILES C=CC(=O)Nc1cccc(Oc2nc(Nc3ccc(N4CCN(C)CC4)cc3)nc3ccsc23)c1
REMARK SMILES IDX 14 1 13 2 12 3 34 4 33 5 32 6 31 7 30 8 29 9 15 10 16 12
REMARK SMILES IDX 19 13 18 14 27 15 17 16 28 17 20 18 24 19 23 20 22 21 25 22
REMARK SMILES IDX 21 23 26 24 11 25 10 26 9 27 35 28 8 29 6 30 7 31 5 32 3 33
REMARK SMILES IDX 4 35 2 36 1 37
REMARK H PARENT 15 11 5 34
REMARK Flexibility Score: inf
ROOT
ATOM      1  C   UNL     1      19.691  33.714  12.764  1.00  0.00     0.231 A 
ATOM      2  N   UNL     1      18.546  33.681  12.013  1.00  0.00    -0.175 NA
ATOM      3  C   UNL     1      17.330  33.995  12.539  1.00  0.00     0.242 A 
ATOM      4  C   UNL     1      17.277  34.344  13.891  1.00  0.00     0.116 A 
ATOM      5  S   UNL     1      15.968  34.686  14.891  1.00  0.00    -0.136 S 
ATOM      6  C   UNL     1      16.896  34.912  16.290  1.00  0.00     0.068 A 
ATOM      7  C   UNL     1      18.240  34.711  15.982  1.00  0.00     0.041 A 
ATOM      8  C   UNL     1      18.435  34.387  14.638  1.00  0.00     0.091 A 
ATOM      9  N   UNL     1      19.632  34.082  14.077  1.00  0.00    -0.212 NA
ENDROOT
BRANCH   1  10
ATOM     10  N   UNL     1      20.963  33.400  12.176  1.00  0.00    -0.324 N 
ATOM     11  H   UNL     1      20.961  32.870  11.277  1.00  0.00     0.170 HD
BRANCH  10  12
ATOM     12  C   UNL     1      22.232  33.673  12.800  1.00  0.00     0.041 A 
ATOM     13  C   UNL     1      24.724  34.255  13.991  1.00  0.00     0.037 A 
ATOM     14  C   UNL     1      24.049  33.065  14.302  1.00  0.00     0.028 A 
ATOM     15  C   UNL     1      24.126  35.171  13.113  1.00  0.00     0.028 A 
ATOM     16  C   UNL     1      22.808  32.782  13.723  1.00  0.00     0.028 A 
ATOM     17  C   UNL     1      22.890  34.881  12.522  1.00  0.00     0.028 A 
BRANCH  13  18
ATOM     18  N   UNL     1      26.024  34.515  14.546  1.00  0.00    -0.369 N 
ATOM     19  C   UNL     1      30.108  35.473  14.880  1.00  0.00     0.105 C 
ATOM     20  N   UNL     1      28.763  35.039  14.461  1.00  0.00    -0.303 NA
ATOM     21  C   UNL     1      28.294  33.940  15.325  1.00  0.00     0.105 C 
ATOM     22  C   UNL     1      27.826  36.195  14.406  1.00  0.00     0.105 C 
ATOM     23  C   UNL     1      26.954  33.408  14.809  1.00  0.00     0.132 C 
ATOM     24  C   UNL     1      26.410  35.879  14.916  1.00  0.00     0.132 C 
ENDBRANCH  13  18
ENDBRANCH  10  12
ENDBRANCH   1  10
BRANCH   3  25
ATOM     25  O   UNL     1      16.189  33.904  11.729  1.00  0.00    -0.437 OA
BRANCH  25  26
ATOM     26  C   UNL     1      16.190  33.600  10.362  1.00  0.00     0.131 A 
ATOM     27  C   UNL     1      16.145  34.654   9.445  1.00  0.00     0.047 A 
ATOM     28  C   UNL     1      16.192  32.273   9.892  1.00  0.00     0.073 A 
ATOM     29  C   UNL     1      16.169  34.395   8.074  1.00  0.00     0.006 A 
ATOM     30  C   UNL     1      16.181  32.004   8.514  1.00  0.00     0.045 A 
ATOM     31  C   UNL     1      16.202  33.079   7.608  1.00  0.00     0.026 A 
BRANCH  30  32
ATOM     32  N   UNL     1      16.215  30.637   8.059  1.00  0.00    -0.322 N 
ATOM     33  C   UNL     1      15.112  29.969   7.429  1.00  0.00     0.247 C 
ATOM     34  H   UNL     1      17.061  30.069   8.286  1.00  0.00     0.170 HD
ATOM     35  O   UNL     1      13.956  30.475   7.461  1.00  0.00    -0.270 OA
BRANCH  33  36
ATOM     36  C   UNL     1      15.330  28.659   6.786  1.00  0.00     0.064 C 
ATOM     37  C   UNL     1      16.515  28.288   6.297  1.00  0.00     0.014 C 
ENDBRANCH  33  36
ENDBRANCH  30  32
ENDBRANCH  25  26
ENDBRANCH   3  25
TORSDOF 7
ENDMDL
MODEL 10
REMARK VINA RESULT:    -9.213      2.982      6.609
REMARK INTER + INTRA:         -13.969
REMARK INTER:                 -13.161
REMARK INTRA:                  -0.808
REMARK UNBOUND:                -0.985
REMARK SMILES C=CC(=O)Nc1cccc(Oc2nc(Nc3ccc(N4CCN(C)CC4)cc3)nc3ccsc23)c1
REMARK SMILES IDX 14 1 13 2 12 3 34 4 33 5 32 6 31 7 30 8 29 9 15 10 16 12
REMARK SMILES IDX 19 13 18 14 27 15 17 16 28 17 20 18 24 19 23 20 22 21 25 22
REMARK SMILES IDX 21 23 26 24 11 25 10 26 9 27 35 28 8 29 6 30 7 31 5 32 3 33
REMARK SMILES IDX 4 35 2 36 1 37
REMARK H PARENT 15 11 5 34
REMARK Flexibility Score: inf
ROOT
ATOM      1  C   UNL     1      19.976  34.080  13.410  1.00  0.00     0.231 A 
ATOM      2  N   UNL     1      18.755  34.564  13.800  1.00  0.00    -0.175 NA
ATOM      3  C   UNL     1      17.617  34.299  13.101  1.00  0.00     0.242 A 
ATOM      4  C   UNL     1      17.731  33.518  11.947  1.00  0.00     0.116 A 
ATOM      5  S   UNL     1      16.585  33.079  10.796  1.00  0.00    -0.136 S 
ATOM      6  C   UNL     1      17.671  32.230   9.812  1.00  0.00     0.068 A 
ATOM      7  C   UNL     1      18.944  32.293  10.377  1.00  0.00     0.041 A 
ATOM      8  C   UNL     1      18.961  33.024  11.568  1.00  0.00     0.091 A 
ATOM      9  N   UNL     1      20.072  33.297  12.296  1.00  0.00    -0.212 NA
ENDROOT
BRANCH   1  10
ATOM     10  N   UNL     1      21.156  34.356  14.181  1.00  0.00    -0.324 N 
ATOM     11  H   UNL     1      21.053  34.983  15.010  1.00  0.00     0.170 HD
BRANCH  10  12
ATOM     12  C   UNL     1      22.478  33.915  13.822  1.00  0.00     0.041 A 
ATOM     13  C   UNL     1      25.070  33.012  13.161  1.00  0.00     0.037 A 
ATOM     14  C   UNL     1      24.514  34.120  12.504  1.00  0.00     0.028 A 
ATOM     15  C   UNL     1      24.305  32.333  14.121  1.00  0.00     0.028 A 
ATOM     16  C   UNL     1      23.226  34.560  12.821  1.00  0.00     0.028 A 
ATOM     17  C   UNL     1      23.019  32.783  14.450  1.00  0.00     0.028 A 
BRANCH  13  18
ATOM     18  N   UNL     1      26.415  32.597  12.871  1.00  0.00    -0.369 N 
ATOM     19  C   UNL     1      29.800  30.187  12.208  1.00  0.00     0.105 C 
ATOM     20  N   UNL     1      28.514  30.777  12.623  1.00  0.00    -0.303 NA
ATOM     21  C   UNL     1      28.751  32.007  13.403  1.00  0.00     0.105 C 
ATOM     22  C   UNL     1      27.619  30.977  11.451  1.00  0.00     0.105 C 
ATOM     23  C   UNL     1      27.422  32.546  13.939  1.00  0.00     0.132 C 
ATOM     24  C   UNL     1      26.812  32.286  11.496  1.00  0.00     0.132 C 
ENDBRANCH  13  18
ENDBRANCH  10  12
ENDBRANCH   1  10
BRANCH   3  25
ATOM     25  O   UNL     1      16.404  34.856  13.529  1.00  0.00    -0.437 OA
BRANCH  25  26
ATOM     26  C   UNL     1      15.936  34.857  14.849  1.00  0.00     0.131 A 
ATOM     27  C   UNL     1      14.783  34.127  15.148  1.00  0.00     0.047 A 
ATOM     28  C   UNL     1      16.567  35.601  15.864  1.00  0.00     0.073 A 
ATOM     29  C   UNL     1      14.298  34.082  16.456  1.00  0.00     0.006 A 
ATOM     30  C   UNL     1      16.064  35.590  17.175  1.00  0.00     0.045 A 
ATOM     31  C   UNL     1      14.941  34.796  17.469  1.00  0.00     0.026 A 
BRANCH  30  32
ATOM     32  N   UNL     1      16.746  36.336  18.202  1.00  0.00    -0.322 N 
ATOM     33  C   UNL     1      17.817  35.813  19.002  1.00  0.00     0.247 C 
ATOM     34  H   UNL     1      16.378  37.283  18.442  1.00  0.00     0.170 HD
ATOM     35  O   UNL     1      18.056  34.573  19.017  1.00  0.00    -0.270 OA
BRANCH  33  36
ATOM     36  C   UNL     1      18.603  36.730  19.849  1.00  0.00     0.064 C 
ATOM     37  C   UNL     1      18.243  37.998  20.061  1.00  0.00     0.014 C 
ENDBRANCH  33  36
ENDBRANCH  30  32
ENDBRANCH  25  26
ENDBRANCH   3  25
TORSDOF 7
ENDMDL
MODEL 11
REMARK VINA RESULT:    -9.193      3.221      9.031
REMARK INTER + INTRA:         -13.940
REMARK INTER:                 -12.732
REMARK INTRA:                  -1.208
REMARK UNBOUND:                -0.985
REMARK SMILES C=CC(=O)Nc1cccc(Oc2nc(Nc3ccc(N4CCN(C)CC4)cc3)nc3ccsc23)c1
REMARK SMILES IDX 14 1 13 2 12 3 34 4 33 5 32 6 31 7 30 8 29 9 15 10 16 12
REMARK SMILES IDX 19 13 18 14 27 15 17 16 28 17 20 18 24 19 23 20 22 21 25 22
REMARK SMILES IDX 21 23 26 24 11 25 10 26 9 27 35 28 8 29 6 30 7 31 5 32 3 33
REMARK SMILES IDX 4 35 2 36 1 37
REMARK H PARENT 15 11 5 34
REMARK Flexibility Score: inf
ROOT
ATOM      1  C   UNL     1      20.954  35.195  16.804  1.00  0.00     0.231 A 
ATOM      2  N   UNL     1      21.693  35.896  15.888  1.00  0.00    -0.175 NA
ATOM      3  C   UNL     1      22.880  36.479  16.214  1.00  0.00     0.242 A 
ATOM      4  C   UNL     1      23.324  36.354  17.533  1.00  0.00     0.116 A 
ATOM      5  S   UNL     1      24.662  37.013  18.312  1.00  0.00    -0.136 S 
ATOM      6  C   UNL     1      24.297  36.357  19.830  1.00  0.00     0.068 A 
ATOM      7  C   UNL     1      23.116  35.622  19.736  1.00  0.00     0.041 A 
ATOM      8  C   UNL     1      22.582  35.637  18.446  1.00  0.00     0.091 A 
ATOM      9  N   UNL     1      21.410  35.057  18.083  1.00  0.00    -0.212 NA
ENDROOT
BRANCH   1  10
ATOM     10  N   UNL     1      19.717  34.570  16.426  1.00  0.00    -0.324 N 
ATOM     11  H   UNL     1      19.090  34.242  17.192  1.00  0.00     0.170 HD
BRANCH  10  12
ATOM     12  C   UNL     1      19.343  34.273  15.067  1.00  0.00     0.041 A 
ATOM     13  C   UNL     1      18.556  33.701  12.417  1.00  0.00     0.037 A 
ATOM     14  C   UNL     1      19.883  33.496  12.824  1.00  0.00     0.028 A 
ATOM     15  C   UNL     1      17.635  34.233  13.332  1.00  0.00     0.028 A 
ATOM     16  C   UNL     1      20.277  33.791  14.133  1.00  0.00     0.028 A 
ATOM     17  C   UNL     1      18.027  34.516  14.648  1.00  0.00     0.028 A 
BRANCH  13  18
ATOM     18  N   UNL     1      18.143  33.344  11.088  1.00  0.00    -0.369 N 
ATOM     19  C   UNL     1      15.914  31.778   7.880  1.00  0.00     0.105 C 
ATOM     20  N   UNL     1      16.544  32.090   9.176  1.00  0.00    -0.303 NA
ATOM     21  C   UNL     1      18.006  31.911   9.084  1.00  0.00     0.105 C 
ATOM     22  C   UNL     1      16.138  33.441   9.652  1.00  0.00     0.105 C 
ATOM     23  C   UNL     1      18.642  32.113  10.461  1.00  0.00     0.132 C 
ATOM     24  C   UNL     1      17.272  34.237  10.320  1.00  0.00     0.132 C 
ENDBRANCH  13  18
ENDBRANCH  10  12
ENDBRANCH   1  10
BRANCH   3  25
ATOM     25  O   UNL     1      23.570  37.216  15.242  1.00  0.00    -0.437 OA
BRANCH  25  26
ATOM     26  C   UNL     1      23.767  36.818  13.913  1.00  0.00     0.131 A 
ATOM     27  C   UNL     1      23.180  37.577  12.897  1.00  0.00     0.047 A 
ATOM     28  C   UNL     1      24.497  35.662  13.581  1.00  0.00     0.073 A 
ATOM     29  C   UNL     1      23.372  37.229  11.559  1.00  0.00     0.006 A 
ATOM     30  C   UNL     1      24.665  35.284  12.239  1.00  0.00     0.045 A 
ATOM     31  C   UNL     1      24.122  36.098  11.228  1.00  0.00     0.026 A 
BRANCH  30  32
ATOM     32  N   UNL     1      25.442  34.114  11.924  1.00  0.00    -0.322 N 
ATOM     33  C   UNL     1      24.879  32.836  11.591  1.00  0.00     0.247 C 
ATOM     34  H   UNL     1      26.479  34.172  12.035  1.00  0.00     0.170 HD
ATOM     35  O   UNL     1      23.655  32.604  11.799  1.00  0.00    -0.270 OA
BRANCH  33  36
ATOM     36  C   UNL     1      25.753  31.777  11.051  1.00  0.00     0.064 C 
ATOM     37  C   UNL     1      27.071  31.759  11.258  1.00  0.00     0.014 C 
ENDBRANCH  33  36
ENDBRANCH  30  32
ENDBRANCH  25  26
ENDBRANCH   3  25
TORSDOF 7
ENDMDL
MODEL 12
REMARK VINA RESULT:    -9.174      6.226     11.064
REMARK INTER + INTRA:         -13.913
REMARK INTER:                 -13.042
REMARK INTRA:                  -0.871
REMARK UNBOUND:                -0.985
REMARK SMILES C=CC(=O)Nc1cccc(Oc2nc(Nc3ccc(N4CCN(C)CC4)cc3)nc3ccsc23)c1
REMARK SMILES IDX 14 1 13 2 12 3 34 4 33 5 32 6 31 7 30 8 29 9 15 10 16 12
REMARK SMILES IDX 19 13 18 14 27 15 17 16 28 17 20 18 24 19 23 20 22 21 25 22
REMARK SMILES IDX 21 23 26 24 11 25 10 26 9 27 35 28 8 29 6 30 7 31 5 32 3 33
REMARK SMILES IDX 4 35 2 36 1 37
REMARK H PARENT 15 11 5 34
REMARK Flexibility Score: inf
ROOT
ATOM      1  C   UNL     1      18.086  34.377  13.982  1.00  0.00     0.231 A 
ATOM      2  N   UNL     1      18.746  34.232  15.173  1.00  0.00    -0.175 NA
ATOM      3  C   UNL     1      18.095  34.274  16.368  1.00  0.00     0.242 A 
ATOM      4  C   UNL     1      16.714  34.487  16.348  1.00  0.00     0.116 A 
ATOM      5  S   UNL     1      15.613  34.697  17.603  1.00  0.00    -0.136 S 
ATOM      6  C   UNL     1      14.273  34.940  16.595  1.00  0.00     0.068 A 
ATOM      7  C   UNL     1      14.684  34.867  15.265  1.00  0.00     0.041 A 
ATOM      8  C   UNL     1      16.054  34.619  15.145  1.00  0.00     0.091 A 
ATOM      9  N   UNL     1      16.733  34.558  13.972  1.00  0.00    -0.212 NA
ENDROOT
BRANCH   1  10
ATOM     10  N   UNL     1      18.796  34.305  12.735  1.00  0.00    -0.324 N 
ATOM     11  H   UNL     1      19.671  34.866  12.647  1.00  0.00     0.170 HD
BRANCH  10  12
ATOM     12  C   UNL     1      18.321  33.599  11.574  1.00  0.00     0.041 A 
ATOM     13  C   UNL     1      17.348  32.252   9.291  1.00  0.00     0.037 A 
ATOM     14  C   UNL     1      18.389  31.700  10.052  1.00  0.00     0.028 A 
ATOM     15  C   UNL     1      16.824  33.502   9.655  1.00  0.00     0.028 A 
ATOM     16  C   UNL     1      18.881  32.372  11.175  1.00  0.00     0.028 A 
ATOM     17  C   UNL     1      17.307  34.169  10.789  1.00  0.00     0.028 A 
BRANCH  13  18
ATOM     18  N   UNL     1      16.808  31.532   8.171  1.00  0.00    -0.369 N 
ATOM     19  C   UNL     1      14.849  28.603   5.870  1.00  0.00     0.105 C 
ATOM     20  N   UNL     1      15.579  29.382   6.888  1.00  0.00    -0.303 NA
ATOM     21  C   UNL     1      16.838  29.900   6.320  1.00  0.00     0.105 C 
ATOM     22  C   UNL     1      14.709  30.438   7.473  1.00  0.00     0.105 C 
ATOM     23  C   UNL     1      17.652  30.599   7.413  1.00  0.00     0.132 C 
ATOM     24  C   UNL     1      15.431  31.771   7.732  1.00  0.00     0.132 C 
ENDBRANCH  13  18
ENDBRANCH  10  12
ENDBRANCH   1  10
BRANCH   3  25
ATOM     25  O   UNL     1      18.833  34.158  17.554  1.00  0.00    -0.437 OA
BRANCH  25  26
ATOM     26  C   UNL     1      19.515  35.205  18.188  1.00  0.00     0.131 A 
ATOM     27  C   UNL     1      20.911  35.170  18.215  1.00  0.00     0.047 A 
ATOM     28  C   UNL     1      18.835  36.258  18.828  1.00  0.00     0.073 A 
ATOM     29  C   UNL     1      21.630  36.206  18.814  1.00  0.00     0.006 A 
ATOM     30  C   UNL     1      19.551  37.286  19.465  1.00  0.00     0.045 A 
ATOM     31  C   UNL     1      20.956  37.267  19.423  1.00  0.00     0.026 A 
BRANCH  30  32
ATOM     32  N   UNL     1      18.832  38.369  20.086  1.00  0.00    -0.322 N 
ATOM     33  C   UNL     1      18.850  38.646  21.494  1.00  0.00     0.247 C 
ATOM     34  H   UNL     1      18.185  38.930  19.489  1.00  0.00     0.170 HD
ATOM     35  O   UNL     1      19.307  37.794  22.307  1.00  0.00    -0.270 OA
BRANCH  33  36
ATOM     36  C   UNL     1      18.282  39.914  21.991  1.00  0.00     0.064 C 
ATOM     37  C   UNL     1      17.013  40.266  21.774  1.00  0.00     0.014 C 
ENDBRANCH  33  36
ENDBRANCH  30  32
ENDBRANCH  25  26
ENDBRANCH   3  25
TORSDOF 7
ENDMDL
MODEL 13
REMARK VINA RESULT:    -9.148      1.968      2.727
REMARK INTER + INTRA:         -13.877
REMARK INTER:                 -12.749
REMARK INTRA:                  -1.128
REMARK UNBOUND:                -0.985
REMARK SMILES C=CC(=O)Nc1cccc(Oc2nc(Nc3ccc(N4CCN(C)CC4)cc3)nc3ccsc23)c1
REMARK SMILES IDX 14 1 13 2 12 3 34 4 33 5 32 6 31 7 30 8 29 9 15 10 16 12
REMARK SMILES IDX 19 13 18 14 27 15 17 16 28 17 20 18 24 19 23 20 22 21 25 22
REMARK SMILES IDX 21 23 26 24 11 25 10 26 9 27 35 28 8 29 6 30 7 31 5 32 3 33
REMARK SMILES IDX 4 35 2 36 1 37
REMARK H PARENT 15 11 5 34
REMARK Flexibility Score: inf
ROOT
ATOM      1  C   UNL     1      22.115  35.174  14.185  1.00  0.00     0.231 A 
ATOM      2  N   UNL     1      21.091  34.270  14.078  1.00  0.00    -0.175 NA
ATOM      3  C   UNL     1      20.165  34.111  15.063  1.00  0.00     0.242 A 
ATOM      4  C   UNL     1      20.296  34.896  16.211  1.00  0.00     0.116 A 
ATOM      5  S   UNL     1      19.420  34.902  17.648  1.00  0.00    -0.136 S 
ATOM      6  C   UNL     1      20.351  36.106  18.392  1.00  0.00     0.068 A 
ATOM      7  C   UNL     1      21.362  36.505  17.519  1.00  0.00     0.041 A 
ATOM      8  C   UNL     1      21.320  35.813  16.307  1.00  0.00     0.091 A 
ATOM      9  N   UNL     1      22.218  35.956  15.300  1.00  0.00    -0.212 NA
ENDROOT
BRANCH   1  10
ATOM     10  N   UNL     1      23.064  35.338  13.119  1.00  0.00    -0.324 N 
ATOM     11  H   UNL     1      22.889  36.105  12.433  1.00  0.00     0.170 HD
BRANCH  10  12
ATOM     12  C   UNL     1      24.171  34.450  12.879  1.00  0.00     0.041 A 
ATOM     13  C   UNL     1      26.377  32.744  12.436  1.00  0.00     0.037 A 
ATOM     14  C   UNL     1      25.142  32.481  11.826  1.00  0.00     0.028 A 
ATOM     15  C   UNL     1      26.491  33.842  13.303  1.00  0.00     0.028 A 
ATOM     16  C   UNL     1      24.044  33.318  12.054  1.00  0.00     0.028 A 
ATOM     17  C   UNL     1      25.396  34.689  13.521  1.00  0.00     0.028 A 
BRANCH  13  18
ATOM     18  N   UNL     1      27.515  31.914  12.154  1.00  0.00    -0.369 N 
ATOM     19  C   UNL     1      31.325  30.649  10.893  1.00  0.00     0.105 C 
ATOM     20  N   UNL     1      30.034  31.327  11.110  1.00  0.00    -0.303 NA
ATOM     21  C   UNL     1      28.922  30.412  10.793  1.00  0.00     0.105 C 
ATOM     22  C   UNL     1      29.961  31.903  12.481  1.00  0.00     0.105 C 
ATOM     23  C   UNL     1      27.589  31.158  10.897  1.00  0.00     0.132 C 
ATOM     24  C   UNL     1      28.582  31.761  13.147  1.00  0.00     0.132 C 
ENDBRANCH  13  18
ENDBRANCH  10  12
ENDBRANCH   1  10
BRANCH   3  25
ATOM     25  O   UNL     1      19.164  33.141  14.911  1.00  0.00    -0.437 OA
BRANCH  25  26
ATOM     26  C   UNL     1      17.982  33.306  14.178  1.00  0.00     0.131 A 
ATOM     27  C   UNL     1      16.937  34.032  14.754  1.00  0.00     0.047 A 
ATOM     28  C   UNL     1      17.807  32.730  12.906  1.00  0.00     0.073 A 
ATOM     29  C   UNL     1      15.752  34.241  14.047  1.00  0.00     0.006 A 
ATOM     30  C   UNL     1      16.605  32.905  12.202  1.00  0.00     0.045 A 
ATOM     31  C   UNL     1      15.589  33.694  12.771  1.00  0.00     0.026 A 
BRANCH  30  32
ATOM     32  N   UNL     1      16.462  32.331  10.889  1.00  0.00    -0.322 N 
ATOM     33  C   UNL     1      16.710  33.041   9.667  1.00  0.00     0.247 C 
ATOM     34  H   UNL     1      16.065  31.367  10.819  1.00  0.00     0.170 HD
ATOM     35  O   UNL     1      16.830  34.298   9.671  1.00  0.00    -0.270 OA
BRANCH  33  36
ATOM     36  C   UNL     1      16.771  32.295   8.395  1.00  0.00     0.064 C 
ATOM     37  C   UNL     1      17.872  32.248   7.642  1.00  0.00     0.014 C 
ENDBRANCH  33  36
ENDBRANCH  30  32
ENDBRANCH  25  26
ENDBRANCH   3  25
TORSDOF 7
ENDMDL
MODEL 14
REMARK VINA RESULT:    -9.105      4.961      9.756
REMARK INTER + INTRA:         -13.816
REMARK INTER:                 -12.844
REMARK INTRA:                  -0.972
REMARK UNBOUND:                -0.985
REMARK SMILES C=CC(=O)Nc1cccc(Oc2nc(Nc3ccc(N4CCN(C)CC4)cc3)nc3ccsc23)c1
REMARK SMILES IDX 14 1 13 2 12 3 34 4 33 5 32 6 31 7 30 8 29 9 15 10 16 12
REMARK SMILES IDX 19 13 18 14 27 15 17 16 28 17 20 18 24 19 23 20 22 21 25 22
REMARK SMILES IDX 21 23 26 24 11 25 10 26 9 27 35 28 8 29 6 30 7 31 5 32 3 33
REMARK SMILES IDX 4 35 2 36 1 37
REMARK H PARENT 15 11 5 34
REMARK Flexibility Score: inf
ROOT
ATOM      1  C   UNL     1      17.422  35.257  17.750  1.00  0.00     0.231 A 
ATOM      2  N   UNL     1      18.701  34.773  17.823  1.00  0.00    -0.175 NA
ATOM      3  C   UNL     1      19.638  35.331  18.638  1.00  0.00     0.242 A 
ATOM      4  C   UNL     1      19.258  36.439  19.401  1.00  0.00     0.116 A 
ATOM      5  S   UNL     1      20.153  37.434  20.421  1.00  0.00    -0.136 S 
ATOM      6  C   UNL     1      18.867  38.471  20.795  1.00  0.00     0.068 A 
ATOM      7  C   UNL     1      17.727  38.047  20.113  1.00  0.00     0.041 A 
ATOM      8  C   UNL     1      17.966  36.914  19.332  1.00  0.00     0.091 A 
ATOM      9  N   UNL     1      17.054  36.324  18.519  1.00  0.00    -0.212 NA
ENDROOT
BRANCH   1  10
ATOM     10  N   UNL     1      16.448  34.633  16.899  1.00  0.00    -0.324 N 
ATOM     11  H   UNL     1      15.559  34.309  17.341  1.00  0.00     0.170 HD
BRANCH  10  12
ATOM     12  C   UNL     1      16.664  34.332  15.508  1.00  0.00     0.041 A 
ATOM     13  C   UNL     1      17.143  33.732  12.791  1.00  0.00     0.037 A 
ATOM     14  C   UNL     1      15.885  34.194  13.205  1.00  0.00     0.028 A 
ATOM     15  C   UNL     1      18.147  33.532  13.750  1.00  0.00     0.028 A 
ATOM     16  C   UNL     1      15.642  34.479  14.553  1.00  0.00     0.028 A 
ATOM     17  C   UNL     1      17.909  33.831  15.098  1.00  0.00     0.028 A 
BRANCH  13  18
ATOM     18  N   UNL     1      17.404  33.493  11.398  1.00  0.00    -0.369 N 
ATOM     19  C   UNL     1      16.953  32.256   7.401  1.00  0.00     0.105 C 
ATOM     20  N   UNL     1      16.900  32.445   8.863  1.00  0.00    -0.303 NA
ATOM     21  C   UNL     1      18.237  32.229   9.450  1.00  0.00     0.105 C 
ATOM     22  C   UNL     1      16.305  33.766   9.206  1.00  0.00     0.105 C 
ATOM     23  C   UNL     1      18.151  32.301  10.976  1.00  0.00     0.132 C 
ATOM     24  C   UNL     1      16.986  34.471  10.391  1.00  0.00     0.132 C 
ENDBRANCH  13  18
ENDBRANCH  10  12
ENDBRANCH   1  10
BRANCH   3  25
ATOM     25  O   UNL     1      20.941  34.815  18.639  1.00  0.00    -0.437 OA
BRANCH  25  26
ATOM     26  C   UNL     1      21.684  34.494  17.496  1.00  0.00     0.131 A 
ATOM     27  C   UNL     1      22.489  33.352  17.524  1.00  0.00     0.047 A 
ATOM     28  C   UNL     1      21.674  35.306  16.347  1.00  0.00     0.073 A 
ATOM     29  C   UNL     1      23.226  32.983  16.397  1.00  0.00     0.006 A 
ATOM     30  C   UNL     1      22.441  34.962  15.222  1.00  0.00     0.045 A 
ATOM     31  C   UNL     1      23.193  33.773  15.246  1.00  0.00     0.026 A 
BRANCH  30  32
ATOM     32  N   UNL     1      22.389  35.794  14.048  1.00  0.00    -0.322 N 
ATOM     33  C   UNL     1      23.281  36.889  13.795  1.00  0.00     0.247 C 
ATOM     34  H   UNL     1      21.596  35.651  13.383  1.00  0.00     0.170 HD
ATOM     35  O   UNL     1      24.013  37.343  14.719  1.00  0.00    -0.270 OA
BRANCH  33  36
ATOM     36  C   UNL     1      23.299  37.517  12.460  1.00  0.00     0.064 C 
ATOM     37  C   UNL     1      23.507  36.820  11.342  1.00  0.00     0.014 C 
ENDBRANCH  33  36
ENDBRANCH  30  32
ENDBRANCH  25  26
ENDBRANCH   3  25
TORSDOF 7
ENDMDL
MODEL 15
REMARK VINA RESULT:    -8.998      3.768      7.044
REMARK INTER + INTRA:         -13.666
REMARK INTER:                 -12.425
REMARK INTRA:                  -1.241
REMARK UNBOUND:                -0.985
REMARK SMILES C=CC(=O)Nc1cccc(Oc2nc(Nc3ccc(N4CCN(C)CC4)cc3)nc3ccsc23)c1
REMARK SMILES IDX 14 1 13 2 12 3 34 4 33 5 32 6 31 7 30 8 29 9 15 10 16 12
REMARK SMILES IDX 19 13 18 14 27 15 17 16 28 17 20 18 24 19 23 20 22 21 25 22
REMARK SMILES IDX 21 23 26 24 11 25 10 26 9 27 35 28 8 29 6 30 7 31 5 32 3 33
REMARK SMILES IDX 4 35 2 36 1 37
REMARK H PARENT 15 11 5 34
REMARK Flexibility Score: inf
ROOT
ATOM      1  C   UNL     1      19.636  32.463  13.083  1.00  0.00     0.231 A 
ATOM      2  N   UNL     1      18.729  33.385  13.533  1.00  0.00    -0.175 NA
ATOM      3  C   UNL     1      17.709  33.834  12.751  1.00  0.00     0.242 A 
ATOM      4  C   UNL     1      17.618  33.333  11.450  1.00  0.00     0.116 A 
ATOM      5  S   UNL     1      16.577  33.724  10.188  1.00  0.00    -0.136 S 
ATOM      6  C   UNL     1      17.284  32.668   9.069  1.00  0.00     0.068 A 
ATOM      7  C   UNL     1      18.350  32.007   9.677  1.00  0.00     0.041 A 
ATOM      8  C   UNL     1      18.528  32.396  11.007  1.00  0.00     0.091 A 
ATOM      9  N   UNL     1      19.523  31.960  11.818  1.00  0.00    -0.212 NA
ENDROOT
BRANCH   1  10
ATOM     10  N   UNL     1      20.688  31.990  13.938  1.00  0.00    -0.324 N 
ATOM     11  H   UNL     1      20.554  31.062  14.397  1.00  0.00     0.170 HD
BRANCH  10  12
ATOM     12  C   UNL     1      21.856  32.757  14.284  1.00  0.00     0.041 A 
ATOM     13  C   UNL     1      24.150  34.279  14.910  1.00  0.00     0.037 A 
ATOM     14  C   UNL     1      23.589  33.416  15.863  1.00  0.00     0.028 A 
ATOM     15  C   UNL     1      23.533  34.407  13.657  1.00  0.00     0.028 A 
ATOM     16  C   UNL     1      22.445  32.671  15.559  1.00  0.00     0.028 A 
ATOM     17  C   UNL     1      22.395  33.651  13.347  1.00  0.00     0.028 A 
BRANCH  13  18
ATOM     18  N   UNL     1      25.357  35.000  15.208  1.00  0.00    -0.369 N 
ATOM     19  C   UNL     1      29.377  36.244  15.192  1.00  0.00     0.105 C 
ATOM     20  N   UNL     1      28.096  35.519  15.106  1.00  0.00    -0.303 NA
ATOM     21  C   UNL     1      27.446  35.481  16.430  1.00  0.00     0.105 C 
ATOM     22  C   UNL     1      27.234  36.091  14.035  1.00  0.00     0.105 C 
ATOM     23  C   UNL     1      26.182  34.621  16.363  1.00  0.00     0.132 C 
ATOM     24  C   UNL     1      25.742  36.161  14.403  1.00  0.00     0.132 C 
ENDBRANCH  13  18
ENDBRANCH  10  12
ENDBRANCH   1  10
BRANCH   3  25
ATOM     25  O   UNL     1      16.836  34.808  13.257  1.00  0.00    -0.437 OA
BRANCH  25  26
ATOM     26  C   UNL     1      16.182  34.743  14.494  1.00  0.00     0.131 A 
ATOM     27  C   UNL     1      14.964  34.062  14.568  1.00  0.00     0.047 A 
ATOM     28  C   UNL     1      16.693  35.376  15.642  1.00  0.00     0.073 A 
ATOM     29  C   UNL     1      14.292  33.954  15.787  1.00  0.00     0.006 A 
ATOM     30  C   UNL     1      16.005  35.302  16.864  1.00  0.00     0.045 A 
ATOM     31  C   UNL     1      14.815  34.556  16.934  1.00  0.00     0.026 A 
BRANCH  30  32
ATOM     32  N   UNL     1      16.565  35.933  18.031  1.00  0.00    -0.322 N 
ATOM     33  C   UNL     1      17.665  35.403  18.785  1.00  0.00     0.247 C 
ATOM     34  H   UNL     1      16.083  36.780  18.407  1.00  0.00     0.170 HD
ATOM     35  O   UNL     1      18.047  34.213  18.607  1.00  0.00    -0.270 OA
BRANCH  33  36
ATOM     36  C   UNL     1      18.314  36.244  19.810  1.00  0.00     0.064 C 
ATOM     37  C   UNL     1      18.365  37.574  19.719  1.00  0.00     0.014 C 
ENDBRANCH  33  36
ENDBRANCH  30  32
ENDBRANCH  25  26
ENDBRANCH   3  25
TORSDOF 7
ENDMDL
