MODEL 1
REMARK VINA RESULT:    -9.235      0.000      0.000
REMARK INTER + INTRA:         -22.325
REMARK INTER:                 -18.683
REMARK INTRA:                  -3.642
REMARK UNBOUND:                -3.642
REMARK SMILES Cc1c(C)c2c(c(C)c1OC(=O)CCC(=O)O)CC[C@@](C)(CCC[C@H](C)CCC[C@H](C)CCCC(C)C)O2
REMARK SMILES IDX 24 1 25 2 26 3 27 4 28 5 29 6 30 7 31 8 32 9 33 10 34 11
REMARK SMILES IDX 35 12 36 13 37 14 23 15 22 16 20 17 21 18 19 19 38 20 18 21
REMARK SMILES IDX 5 22 6 23 3 24 7 25 2 26 4 27 8 28 9 29 1 30 10 31 11 32
REMARK SMILES IDX 12 33 13 34 14 35 15 36 16 37 17 38
REMARK H PARENT 17 39
REMARK Flexibility Score: inf
ROOT
ATOM      1  C   UNL     1       6.958  76.528   0.460  1.00  0.00     0.003 C 
ENDROOT
BRANCH   1   2
ATOM      2  C   UNL     1       5.876  75.542  -0.049  1.00  0.00    -0.014 C 
ATOM      3  C   UNL     1       5.266  74.728   1.108  1.00  0.00     0.007 C 
BRANCH   2   4
ATOM      4  C   UNL     1       6.457  74.560  -1.099  1.00  0.00     0.003 C 
BRANCH   4   5
ATOM      5  C   UNL     1       7.138  75.209  -2.322  1.00  0.00     0.001 C 
BRANCH   5   6
ATOM      6  C   UNL     1       8.555  74.695  -2.648  1.00  0.00     0.003 C 
BRANCH   6   7
ATOM      7  C   UNL     1       9.342  74.104  -1.450  1.00  0.00    -0.014 C 
ATOM      8  C   UNL     1      10.188  75.175  -0.740  1.00  0.00     0.007 C 
BRANCH   7   9
ATOM      9  C   UNL     1      10.246  72.951  -1.945  1.00  0.00     0.003 C 
BRANCH   9  10
ATOM     10  C   UNL     1       9.472  71.843  -2.699  1.00  0.00     0.001 C 
BRANCH  10  11
ATOM     11  C   UNL     1      10.323  71.074  -3.734  1.00  0.00     0.003 C 
BRANCH  11  12
ATOM     12  C   UNL     1      10.467  71.727  -5.135  1.00  0.00    -0.017 C 
ATOM     13  C   UNL     1       9.186  72.432  -5.606  1.00  0.00     0.007 C 
ATOM     14  C   UNL     1      11.675  72.669  -5.237  1.00  0.00     0.007 C 
ENDBRANCH  11  12
ENDBRANCH  10  11
ENDBRANCH   9  10
ENDBRANCH   7   9
ENDBRANCH   6   7
ENDBRANCH   5   6
ENDBRANCH   4   5
ENDBRANCH   2   4
ENDBRANCH   1   2
BRANCH   1  15
ATOM     15  C   UNL     1       6.544  78.006   0.351  1.00  0.00     0.004 C 
BRANCH  15  16
ATOM     16  C   UNL     1       7.782  78.921   0.336  1.00  0.00     0.048 C 
BRANCH  16  17
ATOM     17  C   UNL     1       7.880  79.889  -0.880  1.00  0.00     0.107 C 
ATOM     18  C   UNL     1       6.726  80.906  -0.866  1.00  0.00     0.056 C 
ATOM     19  C   UNL     1       7.906  79.159  -2.242  1.00  0.00     0.053 C 
ATOM     20  O   UNL     1       9.094  80.628  -0.747  1.00  0.00    -0.487 OA
ATOM     21  C   UNL     1       9.158  78.289  -2.394  1.00  0.00     0.044 C 
ATOM     22  C   UNL     1      10.346  80.146  -1.151  1.00  0.00     0.127 A 
ATOM     23  C   UNL     1      10.430  79.004  -1.974  1.00  0.00     0.001 A 
ATOM     24  C   UNL     1      11.507  80.818  -0.731  1.00  0.00    -0.002 A 
ATOM     25  C   UNL     1      11.700  78.515  -2.361  1.00  0.00    -0.001 A 
ATOM     26  C   UNL     1      12.778  80.302  -1.079  1.00  0.00    -0.001 A 
ATOM     27  C   UNL     1      11.379  82.036   0.157  1.00  0.00     0.049 C 
ATOM     28  C   UNL     1      11.810  77.294  -3.249  1.00  0.00     0.049 C 
ATOM     29  C   UNL     1      12.867  79.196  -1.956  1.00  0.00     0.137 A 
ATOM     30  C   UNL     1      14.034  80.917  -0.505  1.00  0.00     0.049 C 
BRANCH  29  31
ATOM     31  O   UNL     1      14.113  78.744  -2.417  1.00  0.00    -0.426 OA
BRANCH  31  32
ATOM     32  C   UNL     1      14.842  79.387  -3.423  1.00  0.00     0.311 C 
ATOM     33  O   UNL     1      15.962  79.914  -3.173  1.00  0.00    -0.252 OA
BRANCH  32  34
ATOM     34  C   UNL     1      14.295  79.430  -4.814  1.00  0.00     0.135 C 
BRANCH  34  35
ATOM     35  C   UNL     1      13.746  80.825  -5.120  1.00  0.00     0.134 C 
BRANCH  35  36
ATOM     36  C   UNL     1      14.751  81.625  -5.884  1.00  0.00     0.303 C 
ATOM     37  O   UNL     1      15.806  81.077  -6.304  1.00  0.00    -0.252 OA
BRANCH  36  38
ATOM     38  O   UNL     1      14.543  82.984  -6.091  1.00  0.00    -0.481 OA
ATOM     39  H   UNL     1      13.641  83.330  -6.390  1.00  0.00     0.296 HD
ENDBRANCH  36  38
ENDBRANCH  35  36
ENDBRANCH  34  35
ENDBRANCH  32  34
ENDBRANCH  31  32
ENDBRANCH  29  31
ENDBRANCH  16  17
ENDBRANCH  15  16
ENDBRANCH   1  15
TORSDOF 18
ENDMDL
MODEL 2
REMARK VINA RESULT:    -8.869      2.026      4.592
REMARK INTER + INTRA:         -21.585
REMARK INTER:                 -19.116
REMARK INTRA:                  -2.469
REMARK UNBOUND:                -3.642
REMARK SMILES Cc1c(C)c2c(c(C)c1OC(=O)CCC(=O)O)CC[C@@](C)(CCC[C@H](C)CCC[C@H](C)CCCC(C)C)O2
REMARK SMILES IDX 24 1 25 2 26 3 27 4 28 5 29 6 30 7 31 8 32 9 33 10 34 11
REMARK SMILES IDX 35 12 36 13 37 14 23 15 22 16 20 17 21 18 19 19 38 20 18 21
REMARK SMILES IDX 5 22 6 23 3 24 7 25 2 26 4 27 8 28 9 29 1 30 10 31 11 32
REMARK SMILES IDX 12 33 13 34 14 35 15 36 16 37 17 38
REMARK H PARENT 17 39
REMARK Flexibility Score: inf
ROOT
ATOM      1  C   UNL     1       9.485  80.290  -0.267  1.00  0.00     0.003 C 
ENDROOT
BRANCH   1   2
ATOM      2  C   UNL     1       9.089  79.702  -1.645  1.00  0.00    -0.014 C 
ATOM      3  C   UNL     1       7.871  80.432  -2.241  1.00  0.00     0.007 C 
BRANCH   2   4
ATOM      4  C   UNL     1       8.764  78.189  -1.540  1.00  0.00     0.003 C 
BRANCH   4   5
ATOM      5  C   UNL     1       9.390  77.289  -2.627  1.00  0.00     0.001 C 
BRANCH   5   6
ATOM      6  C   UNL     1      10.042  75.987  -2.119  1.00  0.00     0.003 C 
BRANCH   6   7
ATOM      7  C   UNL     1       9.542  74.685  -2.794  1.00  0.00    -0.014 C 
ATOM      8  C   UNL     1       8.013  74.680  -2.962  1.00  0.00     0.007 C 
BRANCH   7   9
ATOM      9  C   UNL     1       9.991  73.464  -1.957  1.00  0.00     0.003 C 
BRANCH   9  10
ATOM     10  C   UNL     1       9.604  72.106  -2.594  1.00  0.00     0.001 C 
BRANCH  10  11
ATOM     11  C   UNL     1      10.724  71.471  -3.448  1.00  0.00     0.003 C 
BRANCH  11  12
ATOM     12  C   UNL     1      10.679  71.756  -4.973  1.00  0.00    -0.017 C 
ATOM     13  C   UNL     1       9.270  72.106  -5.480  1.00  0.00     0.007 C 
ATOM     14  C   UNL     1      11.695  72.817  -5.417  1.00  0.00     0.007 C 
ENDBRANCH  11  12
ENDBRANCH  10  11
ENDBRANCH   9  10
ENDBRANCH   7   9
ENDBRANCH   6   7
ENDBRANCH   5   6
ENDBRANCH   4   5
ENDBRANCH   2   4
ENDBRANCH   1   2
BRANCH   1  15
ATOM     15  C   UNL     1      11.005  80.335  -0.031  1.00  0.00     0.004 C 
BRANCH  15  16
ATOM     16  C   UNL     1      11.767  79.882  -1.290  1.00  0.00     0.048 C 
BRANCH  16  17
ATOM     17  C   UNL     1      12.998  78.964  -1.030  1.00  0.00     0.107 C 
ATOM     18  C   UNL     1      12.728  78.007   0.145  1.00  0.00     0.056 C 
ATOM     19  C   UNL     1      14.302  79.749  -0.766  1.00  0.00     0.053 C 
ATOM     20  O   UNL     1      13.189  78.159  -2.193  1.00  0.00    -0.487 OA
ATOM     21  C   UNL     1      14.732  80.560  -1.992  1.00  0.00     0.044 C 
ATOM     22  C   UNL     1      13.875  78.593  -3.335  1.00  0.00     0.127 A 
ATOM     23  C   UNL     1      14.660  79.763  -3.284  1.00  0.00     0.001 A 
ATOM     24  C   UNL     1      13.775  77.845  -4.521  1.00  0.00    -0.002 A 
ATOM     25  C   UNL     1      15.334  80.204  -4.447  1.00  0.00    -0.001 A 
ATOM     26  C   UNL     1      14.410  78.310  -5.697  1.00  0.00    -0.001 A 
ATOM     27  C   UNL     1      12.918  76.598  -4.541  1.00  0.00     0.049 C 
ATOM     28  C   UNL     1      16.186  81.454  -4.410  1.00  0.00     0.049 C 
ATOM     29  C   UNL     1      15.250  79.447  -5.634  1.00  0.00     0.137 A 
ATOM     30  C   UNL     1      14.181  77.608  -7.015  1.00  0.00     0.049 C 
BRANCH  29  31
ATOM     31  O   UNL     1      15.990  79.854  -6.755  1.00  0.00    -0.426 OA
BRANCH  31  32
ATOM     32  C   UNL     1      17.310  79.456  -6.992  1.00  0.00     0.311 C 
ATOM     33  O   UNL     1      17.563  78.340  -7.525  1.00  0.00    -0.252 OA
BRANCH  32  34
ATOM     34  C   UNL     1      18.432  80.376  -6.629  1.00  0.00     0.135 C 
BRANCH  34  35
ATOM     35  C   UNL     1      18.669  81.386  -7.754  1.00  0.00     0.134 C 
BRANCH  35  36
ATOM     36  C   UNL     1      17.369  81.795  -8.369  1.00  0.00     0.303 C 
ATOM     37  O   UNL     1      17.031  81.335  -9.494  1.00  0.00    -0.252 OA
BRANCH  36  38
ATOM     38  O   UNL     1      16.556  82.718  -7.723  1.00  0.00    -0.481 OA
ATOM     39  H   UNL     1      16.953  83.418  -7.108  1.00  0.00     0.296 HD
ENDBRANCH  36  38
ENDBRANCH  35  36
ENDBRANCH  34  35
ENDBRANCH  32  34
ENDBRANCH  31  32
ENDBRANCH  29  31
ENDBRANCH  16  17
ENDBRANCH  15  16
ENDBRANCH   1  15
TORSDOF 18
ENDMDL
MODEL 3
REMARK VINA RESULT:    -8.414      3.343      9.301
REMARK INTER + INTRA:         -20.664
REMARK INTER:                 -18.252
REMARK INTRA:                  -2.412
REMARK UNBOUND:                -3.642
REMARK SMILES Cc1c(C)c2c(c(C)c1OC(=O)CCC(=O)O)CC[C@@](C)(CCC[C@H](C)CCC[C@H](C)CCCC(C)C)O2
REMARK SMILES IDX 24 1 25 2 26 3 27 4 28 5 29 6 30 7 31 8 32 9 33 10 34 11
REMARK SMILES IDX 35 12 36 13 37 14 23 15 22 16 20 17 21 18 19 19 38 20 18 21
REMARK SMILES IDX 5 22 6 23 3 24 7 25 2 26 4 27 8 28 9 29 1 30 10 31 11 32
REMARK SMILES IDX 12 33 13 34 14 35 15 36 16 37 17 38
REMARK H PARENT 17 39
REMARK Flexibility Score: inf
ROOT
ATOM      1  C   UNL     1      13.472  78.340  -3.926  1.00  0.00     0.003 C 
ENDROOT
BRANCH   1   2
ATOM      2  C   UNL     1      13.779  78.764  -5.385  1.00  0.00    -0.014 C 
ATOM      3  C   UNL     1      14.876  77.880  -6.010  1.00  0.00     0.007 C 
BRANCH   2   4
ATOM      4  C   UNL     1      14.230  80.246  -5.458  1.00  0.00     0.003 C 
BRANCH   4   5
ATOM      5  C   UNL     1      15.746  80.480  -5.632  1.00  0.00     0.001 C 
BRANCH   5   6
ATOM      6  C   UNL     1      16.138  81.679  -6.519  1.00  0.00     0.003 C 
BRANCH   6   7
ATOM      7  C   UNL     1      16.893  81.324  -7.825  1.00  0.00    -0.014 C 
ATOM      8  C   UNL     1      17.499  79.911  -7.767  1.00  0.00     0.007 C 
BRANCH   7   9
ATOM      9  C   UNL     1      18.003  82.371  -8.081  1.00  0.00     0.003 C 
BRANCH   9  10
ATOM     10  C   UNL     1      19.428  81.836  -7.798  1.00  0.00     0.001 C 
BRANCH  10  11
ATOM     11  C   UNL     1      20.114  82.491  -6.578  1.00  0.00     0.003 C 
BRANCH  11  12
ATOM     12  C   UNL     1      19.626  82.030  -5.179  1.00  0.00    -0.017 C 
ATOM     13  C   UNL     1      19.483  80.504  -5.062  1.00  0.00     0.007 C 
ATOM     14  C   UNL     1      20.482  82.585  -4.032  1.00  0.00     0.007 C 
ENDBRANCH  11  12
ENDBRANCH  10  11
ENDBRANCH   9  10
ENDBRANCH   7   9
ENDBRANCH   6   7
ENDBRANCH   5   6
ENDBRANCH   4   5
ENDBRANCH   2   4
ENDBRANCH   1   2
BRANCH   1  15
ATOM     15  C   UNL     1      13.696  79.464  -2.899  1.00  0.00     0.004 C 
BRANCH  15  16
ATOM     16  C   UNL     1      14.435  78.930  -1.658  1.00  0.00     0.048 C 
BRANCH  16  17
ATOM     17  C   UNL     1      13.780  79.283  -0.290  1.00  0.00     0.107 C 
ATOM     18  C   UNL     1      14.530  80.439   0.394  1.00  0.00     0.056 C 
ATOM     19  C   UNL     1      13.697  78.080   0.676  1.00  0.00     0.053 C 
ATOM     20  O   UNL     1      12.453  79.739  -0.551  1.00  0.00    -0.487 OA
ATOM     21  C   UNL     1      12.781  76.980   0.132  1.00  0.00     0.044 C 
ATOM     22  C   UNL     1      11.361  78.882  -0.745  1.00  0.00     0.127 A 
ATOM     23  C   UNL     1      11.468  77.516  -0.411  1.00  0.00     0.001 A 
ATOM     24  C   UNL     1      10.165  79.404  -1.266  1.00  0.00    -0.002 A 
ATOM     25  C   UNL     1      10.366  76.656  -0.628  1.00  0.00    -0.001 A 
ATOM     26  C   UNL     1       9.078  78.535  -1.527  1.00  0.00    -0.001 A 
ATOM     27  C   UNL     1      10.087  80.873  -1.619  1.00  0.00     0.049 C 
ATOM     28  C   UNL     1      10.460  75.188  -0.270  1.00  0.00     0.049 C 
ATOM     29  C   UNL     1       9.159  77.178  -1.135  1.00  0.00     0.137 A 
ATOM     30  C   UNL     1       7.845  79.048  -2.235  1.00  0.00     0.049 C 
BRANCH  29  31
ATOM     31  O   UNL     1       8.050  76.327  -1.266  1.00  0.00    -0.426 OA
BRANCH  31  32
ATOM     32  C   UNL     1       7.808  75.547  -2.402  1.00  0.00     0.311 C 
ATOM     33  O   UNL     1       7.413  76.078  -3.478  1.00  0.00    -0.252 OA
BRANCH  32  34
ATOM     34  C   UNL     1       8.040  74.071  -2.344  1.00  0.00     0.135 C 
BRANCH  34  35
ATOM     35  C   UNL     1       9.136  73.672  -3.333  1.00  0.00     0.134 C 
BRANCH  35  36
ATOM     36  C   UNL     1       9.807  72.413  -2.886  1.00  0.00     0.303 C 
ATOM     37  O   UNL     1       9.427  71.835  -1.831  1.00  0.00    -0.252 OA
BRANCH  36  38
ATOM     38  O   UNL     1      10.880  71.905  -3.609  1.00  0.00    -0.481 OA
ATOM     39  H   UNL     1      11.832  72.132  -3.352  1.00  0.00     0.296 HD
ENDBRANCH  36  38
ENDBRANCH  35  36
ENDBRANCH  34  35
ENDBRANCH  32  34
ENDBRANCH  31  32
ENDBRANCH  29  31
ENDBRANCH  16  17
ENDBRANCH  15  16
ENDBRANCH   1  15
TORSDOF 18
ENDMDL
MODEL 4
REMARK VINA RESULT:    -8.399      1.392      2.226
REMARK INTER + INTRA:         -20.633
REMARK INTER:                 -18.021
REMARK INTRA:                  -2.612
REMARK UNBOUND:                -3.642
REMARK SMILES Cc1c(C)c2c(c(C)c1OC(=O)CCC(=O)O)CC[C@@](C)(CCC[C@H](C)CCC[C@H](C)CCCC(C)C)O2
REMARK SMILES IDX 24 1 25 2 26 3 27 4 28 5 29 6 30 7 31 8 32 9 33 10 34 11
REMARK SMILES IDX 35 12 36 13 37 14 23 15 22 16 20 17 21 18 19 19 38 20 18 21
REMARK SMILES IDX 5 22 6 23 3 24 7 25 2 26 4 27 8 28 9 29 1 30 10 31 11 32
REMARK SMILES IDX 12 33 13 34 14 35 15 36 16 37 17 38
REMARK H PARENT 17 39
REMARK Flexibility Score: inf
ROOT
ATOM      1  C   UNL     1       7.349  74.939  -0.349  1.00  0.00     0.003 C 
ENDROOT
BRANCH   1   2
ATOM      2  C   UNL     1       7.292  75.026  -1.895  1.00  0.00    -0.014 C 
ATOM      3  C   UNL     1       5.934  74.540  -2.437  1.00  0.00     0.007 C 
BRANCH   2   4
ATOM      4  C   UNL     1       8.420  74.187  -2.548  1.00  0.00     0.003 C 
BRANCH   4   5
ATOM      5  C   UNL     1       9.799  74.261  -1.859  1.00  0.00     0.001 C 
BRANCH   5   6
ATOM      6  C   UNL     1      10.447  72.905  -1.515  1.00  0.00     0.003 C 
BRANCH   6   7
ATOM      7  C   UNL     1      10.324  71.812  -2.606  1.00  0.00    -0.014 C 
ATOM      8  C   UNL     1       9.996  70.436  -2.000  1.00  0.00     0.007 C 
BRANCH   7   9
ATOM      9  C   UNL     1      11.640  71.738  -3.415  1.00  0.00     0.003 C 
BRANCH   9  10
ATOM     10  C   UNL     1      11.794  72.885  -4.444  1.00  0.00     0.001 C 
BRANCH  10  11
ATOM     11  C   UNL     1      10.938  72.707  -5.717  1.00  0.00     0.003 C 
BRANCH  11  12
ATOM     12  C   UNL     1       9.485  72.200  -5.510  1.00  0.00    -0.017 C 
ATOM     13  C   UNL     1       8.427  73.141  -6.109  1.00  0.00     0.007 C 
ATOM     14  C   UNL     1       9.275  70.762  -6.004  1.00  0.00     0.007 C 
ENDBRANCH  11  12
ENDBRANCH  10  11
ENDBRANCH   9  10
ENDBRANCH   7   9
ENDBRANCH   6   7
ENDBRANCH   5   6
ENDBRANCH   4   5
ENDBRANCH   2   4
ENDBRANCH   1   2
BRANCH   1  15
ATOM     15  C   UNL     1       7.252  76.309   0.348  1.00  0.00     0.004 C 
BRANCH  15  16
ATOM     16  C   UNL     1       8.515  77.148   0.080  1.00  0.00     0.048 C 
BRANCH  16  17
ATOM     17  C   UNL     1       8.293  78.429  -0.777  1.00  0.00     0.107 C 
ATOM     18  C   UNL     1       6.941  79.084  -0.442  1.00  0.00     0.056 C 
ATOM     19  C   UNL     1       8.377  78.171  -2.297  1.00  0.00     0.053 C 
ATOM     20  O   UNL     1       9.311  79.366  -0.425  1.00  0.00    -0.487 OA
ATOM     21  C   UNL     1       9.779  77.718  -2.717  1.00  0.00     0.044 C 
ATOM     22  C   UNL     1      10.605  79.345  -0.964  1.00  0.00     0.127 A 
ATOM     23  C   UNL     1      10.883  78.559  -2.102  1.00  0.00     0.001 A 
ATOM     24  C   UNL     1      11.611  80.121  -0.361  1.00  0.00    -0.002 A 
ATOM     25  C   UNL     1      12.196  78.531  -2.626  1.00  0.00    -0.001 A 
ATOM     26  C   UNL     1      12.934  80.056  -0.857  1.00  0.00    -0.001 A 
ATOM     27  C   UNL     1      11.278  80.947   0.861  1.00  0.00     0.049 C 
ATOM     28  C   UNL     1      12.512  77.698  -3.849  1.00  0.00     0.049 C 
ATOM     29  C   UNL     1      13.204  79.320  -2.035  1.00  0.00     0.137 A 
ATOM     30  C   UNL     1      14.057  80.755  -0.126  1.00  0.00     0.049 C 
BRANCH  29  31
ATOM     31  O   UNL     1      14.481  79.344  -2.618  1.00  0.00    -0.426 OA
BRANCH  31  32
ATOM     32  C   UNL     1      14.787  80.071  -3.774  1.00  0.00     0.311 C 
ATOM     33  O   UNL     1      13.962  80.897  -4.255  1.00  0.00    -0.252 OA
BRANCH  32  34
ATOM     34  C   UNL     1      16.117  79.882  -4.430  1.00  0.00     0.135 C 
BRANCH  34  35
ATOM     35  C   UNL     1      16.505  81.143  -5.205  1.00  0.00     0.134 C 
BRANCH  35  36
ATOM     36  C   UNL     1      17.934  81.069  -5.638  1.00  0.00     0.303 C 
ATOM     37  O   UNL     1      18.597  80.013  -5.450  1.00  0.00    -0.252 OA
BRANCH  36  38
ATOM     38  O   UNL     1      18.545  82.182  -6.203  1.00  0.00    -0.481 OA
ATOM     39  H   UNL     1      18.381  83.109  -5.832  1.00  0.00     0.296 HD
ENDBRANCH  36  38
ENDBRANCH  35  36
ENDBRANCH  34  35
ENDBRANCH  32  34
ENDBRANCH  31  32
ENDBRANCH  29  31
ENDBRANCH  16  17
ENDBRANCH  15  16
ENDBRANCH   1  15
TORSDOF 18
ENDMDL
MODEL 5
REMARK VINA RESULT:    -8.224      2.826      7.939
REMARK INTER + INTRA:         -20.279
REMARK INTER:                 -16.268
REMARK INTRA:                  -4.011
REMARK UNBOUND:                -3.642
REMARK SMILES Cc1c(C)c2c(c(C)c1OC(=O)CCC(=O)O)CC[C@@](C)(CCC[C@H](C)CCC[C@H](C)CCCC(C)C)O2
REMARK SMILES IDX 24 1 25 2 26 3 27 4 28 5 29 6 30 7 31 8 32 9 33 10 34 11
REMARK SMILES IDX 35 12 36 13 37 14 23 15 22 16 20 17 21 18 19 19 38 20 18 21
REMARK SMILES IDX 5 22 6 23 3 24 7 25 2 26 4 27 8 28 9 29 1 30 10 31 11 32
REMARK SMILES IDX 12 33 13 34 14 35 15 36 16 37 17 38
REMARK H PARENT 17 39
REMARK Flexibility Score: inf
ROOT
ATOM      1  C   UNL     1      12.314  79.772   0.322  1.00  0.00     0.003 C 
ENDROOT
BRANCH   1   2
ATOM      2  C   UNL     1      13.303  78.664  -0.120  1.00  0.00    -0.014 C 
ATOM      3  C   UNL     1      13.589  77.675   1.027  1.00  0.00     0.007 C 
BRANCH   2   4
ATOM      4  C   UNL     1      14.646  79.268  -0.606  1.00  0.00     0.003 C 
BRANCH   4   5
ATOM      5  C   UNL     1      15.001  79.012  -2.087  1.00  0.00     0.001 C 
BRANCH   5   6
ATOM      6  C   UNL     1      14.486  80.067  -3.087  1.00  0.00     0.003 C 
BRANCH   6   7
ATOM      7  C   UNL     1      13.475  79.549  -4.141  1.00  0.00    -0.014 C 
ATOM      8  C   UNL     1      13.798  78.111  -4.583  1.00  0.00     0.007 C 
BRANCH   7   9
ATOM      9  C   UNL     1      13.474  80.496  -5.365  1.00  0.00     0.003 C 
BRANCH   9  10
ATOM     10  C   UNL     1      14.594  81.564  -5.317  1.00  0.00     0.001 C 
BRANCH  10  11
ATOM     11  C   UNL     1      15.761  81.295  -6.292  1.00  0.00     0.003 C 
BRANCH  11  12
ATOM     12  C   UNL     1      16.901  80.378  -5.774  1.00  0.00    -0.017 C 
ATOM     13  C   UNL     1      17.312  79.296  -6.786  1.00  0.00     0.007 C 
ATOM     14  C   UNL     1      18.129  81.163  -5.289  1.00  0.00     0.007 C 
ENDBRANCH  11  12
ENDBRANCH  10  11
ENDBRANCH   9  10
ENDBRANCH   7   9
ENDBRANCH   6   7
ENDBRANCH   5   6
ENDBRANCH   4   5
ENDBRANCH   2   4
ENDBRANCH   1   2
BRANCH   1  15
ATOM     15  C   UNL     1      12.041  80.822  -0.770  1.00  0.00     0.004 C 
BRANCH  15  16
ATOM     16  C   UNL     1      10.560  81.245  -0.764  1.00  0.00     0.048 C 
BRANCH  16  17
ATOM     17  C   UNL     1       9.734  80.796  -2.005  1.00  0.00     0.107 C 
ATOM     18  C   UNL     1      10.168  81.573  -3.261  1.00  0.00     0.056 C 
ATOM     19  C   UNL     1       8.209  80.943  -1.811  1.00  0.00     0.053 C 
ATOM     20  O   UNL     1      10.024  79.419  -2.242  1.00  0.00    -0.487 OA
ATOM     21  C   UNL     1       7.689  80.022  -0.702  1.00  0.00     0.044 C 
ATOM     22  C   UNL     1       9.397  78.365  -1.564  1.00  0.00     0.127 A 
ATOM     23  C   UNL     1       8.235  78.609  -0.802  1.00  0.00     0.001 A 
ATOM     24  C   UNL     1       9.936  77.071  -1.660  1.00  0.00    -0.002 A 
ATOM     25  C   UNL     1       7.621  77.542  -0.106  1.00  0.00    -0.001 A 
ATOM     26  C   UNL     1       9.350  76.013  -0.926  1.00  0.00    -0.001 A 
ATOM     27  C   UNL     1      11.188  76.848  -2.481  1.00  0.00     0.049 C 
ATOM     28  C   UNL     1       6.370  77.782   0.712  1.00  0.00     0.049 C 
ATOM     29  C   UNL     1       8.148  76.238  -0.213  1.00  0.00     0.137 A 
ATOM     30  C   UNL     1      10.009  74.653  -0.890  1.00  0.00     0.049 C 
BRANCH  29  31
ATOM     31  O   UNL     1       7.479  75.178   0.417  1.00  0.00    -0.426 OA
BRANCH  31  32
ATOM     32  C   UNL     1       6.357  74.543  -0.126  1.00  0.00     0.311 C 
ATOM     33  O   UNL     1       5.258  74.530   0.496  1.00  0.00    -0.252 OA
BRANCH  32  34
ATOM     34  C   UNL     1       6.457  73.893  -1.469  1.00  0.00     0.135 C 
BRANCH  34  35
ATOM     35  C   UNL     1       5.926  74.835  -2.551  1.00  0.00     0.134 C 
BRANCH  35  36
ATOM     36  C   UNL     1       7.020  75.206  -3.501  1.00  0.00     0.303 C 
ATOM     37  O   UNL     1       7.874  74.346  -3.847  1.00  0.00    -0.252 OA
BRANCH  36  38
ATOM     38  O   UNL     1       7.120  76.512  -3.965  1.00  0.00    -0.481 OA
ATOM     39  H   UNL     1       7.044  77.296  -3.329  1.00  0.00     0.296 HD
ENDBRANCH  36  38
ENDBRANCH  35  36
ENDBRANCH  34  35
ENDBRANCH  32  34
ENDBRANCH  31  32
ENDBRANCH  29  31
ENDBRANCH  16  17
ENDBRANCH  15  16
ENDBRANCH   1  15
TORSDOF 18
ENDMDL
MODEL 6
REMARK VINA RESULT:    -8.054      3.041      9.353
REMARK INTER + INTRA:         -19.935
REMARK INTER:                 -17.918
REMARK INTRA:                  -2.017
REMARK UNBOUND:                -3.642
REMARK SMILES Cc1c(C)c2c(c(C)c1OC(=O)CCC(=O)O)CC[C@@](C)(CCC[C@H](C)CCC[C@H](C)CCCC(C)C)O2
REMARK SMILES IDX 24 1 25 2 26 3 27 4 28 5 29 6 30 7 31 8 32 9 33 10 34 11
REMARK SMILES IDX 35 12 36 13 37 14 23 15 22 16 20 17 21 18 19 19 38 20 18 21
REMARK SMILES IDX 5 22 6 23 3 24 7 25 2 26 4 27 8 28 9 29 1 30 10 31 11 32
REMARK SMILES IDX 12 33 13 34 14 35 15 36 16 37 17 38
REMARK H PARENT 17 39
REMARK Flexibility Score: inf
ROOT
ATOM      1  C   UNL     1      15.298  79.754  -3.604  1.00  0.00     0.003 C 
ENDROOT
BRANCH   1   2
ATOM      2  C   UNL     1      13.902  79.511  -4.231  1.00  0.00    -0.014 C 
ATOM      3  C   UNL     1      13.832  78.143  -4.937  1.00  0.00     0.007 C 
BRANCH   2   4
ATOM      4  C   UNL     1      13.543  80.620  -5.254  1.00  0.00     0.003 C 
BRANCH   4   5
ATOM      5  C   UNL     1      14.596  81.734  -5.435  1.00  0.00     0.001 C 
BRANCH   5   6
ATOM      6  C   UNL     1      16.046  81.253  -5.643  1.00  0.00     0.003 C 
BRANCH   6   7
ATOM      7  C   UNL     1      16.375  80.719  -7.060  1.00  0.00    -0.014 C 
ATOM      8  C   UNL     1      17.012  79.319  -7.007  1.00  0.00     0.007 C 
BRANCH   7   9
ATOM      9  C   UNL     1      17.322  81.709  -7.779  1.00  0.00     0.003 C 
BRANCH   9  10
ATOM     10  C   UNL     1      18.821  81.418  -7.526  1.00  0.00     0.001 C 
BRANCH  10  11
ATOM     11  C   UNL     1      19.486  82.379  -6.516  1.00  0.00     0.003 C 
BRANCH  11  12
ATOM     12  C   UNL     1      20.203  81.724  -5.305  1.00  0.00    -0.017 C 
ATOM     13  C   UNL     1      20.355  82.677  -4.107  1.00  0.00     0.007 C 
ATOM     14  C   UNL     1      19.557  80.402  -4.868  1.00  0.00     0.007 C 
ENDBRANCH  11  12
ENDBRANCH  10  11
ENDBRANCH   9  10
ENDBRANCH   7   9
ENDBRANCH   6   7
ENDBRANCH   5   6
ENDBRANCH   4   5
ENDBRANCH   2   4
ENDBRANCH   1   2
BRANCH   1  15
ATOM     15  C   UNL     1      15.279  79.810  -2.066  1.00  0.00     0.004 C 
BRANCH  15  16
ATOM     16  C   UNL     1      13.928  80.341  -1.555  1.00  0.00     0.048 C 
BRANCH  16  17
ATOM     17  C   UNL     1      13.365  79.625  -0.292  1.00  0.00     0.107 C 
ATOM     18  C   UNL     1      14.025  80.170   0.987  1.00  0.00     0.056 C 
ATOM     19  C   UNL     1      13.524  78.089  -0.338  1.00  0.00     0.053 C 
ATOM     20  O   UNL     1      11.973  79.927  -0.208  1.00  0.00    -0.487 OA
ATOM     21  C   UNL     1      12.707  77.469  -1.476  1.00  0.00     0.044 C 
ATOM     22  C   UNL     1      10.983  79.238  -0.923  1.00  0.00     0.127 A 
ATOM     23  C   UNL     1      11.292  78.015  -1.554  1.00  0.00     0.001 A 
ATOM     24  C   UNL     1       9.688  79.777  -0.993  1.00  0.00    -0.002 A 
ATOM     25  C   UNL     1      10.291  77.337  -2.288  1.00  0.00    -0.001 A 
ATOM     26  C   UNL     1       8.699  79.123  -1.766  1.00  0.00    -0.001 A 
ATOM     27  C   UNL     1       9.394  81.094  -0.309  1.00  0.00     0.049 C 
ATOM     28  C   UNL     1      10.602  76.021  -2.968  1.00  0.00     0.049 C 
ATOM     29  C   UNL     1       8.985  77.865  -2.347  1.00  0.00     0.137 A 
ATOM     30  C   UNL     1       7.350  79.770  -1.984  1.00  0.00     0.049 C 
BRANCH  29  31
ATOM     31  O   UNL     1       7.985  77.138  -3.010  1.00  0.00    -0.426 OA
BRANCH  31  32
ATOM     32  C   UNL     1       7.418  75.965  -2.500  1.00  0.00     0.311 C 
ATOM     33  O   UNL     1       6.838  75.143  -3.263  1.00  0.00    -0.252 OA
BRANCH  32  34
ATOM     34  C   UNL     1       7.520  75.676  -1.037  1.00  0.00     0.135 C 
BRANCH  34  35
ATOM     35  C   UNL     1       6.326  74.833  -0.583  1.00  0.00     0.134 C 
BRANCH  35  36
ATOM     36  C   UNL     1       5.617  75.502   0.551  1.00  0.00     0.303 C 
ATOM     37  O   UNL     1       5.731  76.746   0.720  1.00  0.00    -0.252 OA
BRANCH  36  38
ATOM     38  O   UNL     1       4.871  74.744   1.445  1.00  0.00    -0.481 OA
ATOM     39  H   UNL     1       5.012  74.832   2.443  1.00  0.00     0.296 HD
ENDBRANCH  36  38
ENDBRANCH  35  36
ENDBRANCH  34  35
ENDBRANCH  32  34
ENDBRANCH  31  32
ENDBRANCH  29  31
ENDBRANCH  16  17
ENDBRANCH  15  16
ENDBRANCH   1  15
TORSDOF 18
ENDMDL
MODEL 7
REMARK VINA RESULT:    -8.007      3.128      8.180
REMARK INTER + INTRA:         -19.840
REMARK INTER:                 -16.779
REMARK INTRA:                  -3.061
REMARK UNBOUND:                -3.642
REMARK SMILES Cc1c(C)c2c(c(C)c1OC(=O)CCC(=O)O)CC[C@@](C)(CCC[C@H](C)CCC[C@H](C)CCCC(C)C)O2
REMARK SMILES IDX 24 1 25 2 26 3 27 4 28 5 29 6 30 7 31 8 32 9 33 10 34 11
REMARK SMILES IDX 35 12 36 13 37 14 23 15 22 16 20 17 21 18 19 19 38 20 18 21
REMARK SMILES IDX 5 22 6 23 3 24 7 25 2 26 4 27 8 28 9 29 1 30 10 31 11 32
REMARK SMILES IDX 12 33 13 34 14 35 15 36 16 37 17 38
REMARK H PARENT 17 39
REMARK Flexibility Score: inf
ROOT
ATOM      1  C   UNL     1      14.058  78.432  -2.478  1.00  0.00     0.003 C 
ENDROOT
BRANCH   1   2
ATOM      2  C   UNL     1      13.154  78.234  -3.720  1.00  0.00    -0.014 C 
ATOM      3  C   UNL     1      12.084  77.153  -3.473  1.00  0.00     0.007 C 
BRANCH   2   4
ATOM      4  C   UNL     1      13.987  77.837  -4.967  1.00  0.00     0.003 C 
BRANCH   4   5
ATOM      5  C   UNL     1      14.237  78.962  -5.994  1.00  0.00     0.001 C 
BRANCH   5   6
ATOM      6  C   UNL     1      13.673  80.347  -5.617  1.00  0.00     0.003 C 
BRANCH   6   7
ATOM      7  C   UNL     1      14.701  81.351  -5.039  1.00  0.00    -0.014 C 
ATOM      8  C   UNL     1      14.940  82.536  -5.992  1.00  0.00     0.007 C 
BRANCH   7   9
ATOM      9  C   UNL     1      16.034  80.620  -4.754  1.00  0.00     0.003 C 
BRANCH   9  10
ATOM     10  C   UNL     1      17.280  81.398  -5.244  1.00  0.00     0.001 C 
BRANCH  10  11
ATOM     11  C   UNL     1      18.393  80.501  -5.828  1.00  0.00     0.003 C 
BRANCH  11  12
ATOM     12  C   UNL     1      18.218  80.050  -7.303  1.00  0.00    -0.017 C 
ATOM     13  C   UNL     1      17.599  78.649  -7.434  1.00  0.00     0.007 C 
ATOM     14  C   UNL     1      17.446  81.067  -8.154  1.00  0.00     0.007 C 
ENDBRANCH  11  12
ENDBRANCH  10  11
ENDBRANCH   9  10
ENDBRANCH   7   9
ENDBRANCH   6   7
ENDBRANCH   5   6
ENDBRANCH   4   5
ENDBRANCH   2   4
ENDBRANCH   1   2
BRANCH   1  15
ATOM     15  C   UNL     1      13.937  79.830  -1.845  1.00  0.00     0.004 C 
BRANCH  15  16
ATOM     16  C   UNL     1      12.515  80.391  -2.028  1.00  0.00     0.048 C 
BRANCH  16  17
ATOM     17  C   UNL     1      11.661  80.475  -0.729  1.00  0.00     0.107 C 
ATOM     18  C   UNL     1      11.500  81.937  -0.273  1.00  0.00     0.056 C 
ATOM     19  C   UNL     1      12.231  79.634   0.435  1.00  0.00     0.053 C 
ATOM     20  O   UNL     1      10.356  79.985  -1.037  1.00  0.00    -0.487 OA
ATOM     21  C   UNL     1      12.215  78.137   0.110  1.00  0.00     0.044 C 
ATOM     22  C   UNL     1      10.022  78.624  -1.055  1.00  0.00     0.127 A 
ATOM     23  C   UNL     1      10.898  77.675  -0.490  1.00  0.00     0.001 A 
ATOM     24  C   UNL     1       8.805  78.225  -1.634  1.00  0.00    -0.002 A 
ATOM     25  C   UNL     1      10.560  76.302  -0.530  1.00  0.00    -0.001 A 
ATOM     26  C   UNL     1       8.488  76.849  -1.716  1.00  0.00    -0.001 A 
ATOM     27  C   UNL     1       7.892  79.270  -2.237  1.00  0.00     0.049 C 
ATOM     28  C   UNL     1      11.485  75.269   0.077  1.00  0.00     0.049 C 
ATOM     29  C   UNL     1       9.332  75.899  -1.094  1.00  0.00     0.137 A 
ATOM     30  C   UNL     1       7.264  76.392  -2.476  1.00  0.00     0.049 C 
BRANCH  29  31
ATOM     31  O   UNL     1       8.976  74.542  -1.051  1.00  0.00    -0.426 OA
BRANCH  31  32
ATOM     32  C   UNL     1       9.596  73.557  -1.827  1.00  0.00     0.311 C 
ATOM     33  O   UNL     1       9.894  72.435  -1.329  1.00  0.00    -0.252 OA
BRANCH  32  34
ATOM     34  C   UNL     1       9.889  73.831  -3.267  1.00  0.00     0.135 C 
BRANCH  34  35
ATOM     35  C   UNL     1       9.062  72.903  -4.158  1.00  0.00     0.134 C 
BRANCH  35  36
ATOM     36  C   UNL     1       9.896  71.757  -4.632  1.00  0.00     0.303 C 
ATOM     37  O   UNL     1       9.531  71.083  -5.635  1.00  0.00    -0.252 OA
BRANCH  36  38
ATOM     38  O   UNL     1      11.048  71.405  -3.940  1.00  0.00    -0.481 OA
ATOM     39  H   UNL     1      11.011  70.748  -3.171  1.00  0.00     0.296 HD
ENDBRANCH  36  38
ENDBRANCH  35  36
ENDBRANCH  34  35
ENDBRANCH  32  34
ENDBRANCH  31  32
ENDBRANCH  29  31
ENDBRANCH  16  17
ENDBRANCH  15  16
ENDBRANCH   1  15
TORSDOF 18
ENDMDL
MODEL 8
REMARK VINA RESULT:    -7.962      2.082      4.350
REMARK INTER + INTRA:         -19.749
REMARK INTER:                 -17.036
REMARK INTRA:                  -2.714
REMARK UNBOUND:                -3.642
REMARK SMILES Cc1c(C)c2c(c(C)c1OC(=O)CCC(=O)O)CC[C@@](C)(CCC[C@H](C)CCC[C@H](C)CCCC(C)C)O2
REMARK SMILES IDX 24 1 25 2 26 3 27 4 28 5 29 6 30 7 31 8 32 9 33 10 34 11
REMARK SMILES IDX 35 12 36 13 37 14 23 15 22 16 20 17 21 18 19 19 38 20 18 21
REMARK SMILES IDX 5 22 6 23 3 24 7 25 2 26 4 27 8 28 9 29 1 30 10 31 11 32
REMARK SMILES IDX 12 33 13 34 14 35 15 36 16 37 17 38
REMARK H PARENT 17 39
REMARK Flexibility Score: inf
ROOT
ATOM      1  C   UNL     1       8.114  79.214  -1.865  1.00  0.00     0.003 C 
ENDROOT
BRANCH   1   2
ATOM      2  C   UNL     1       7.286  78.363  -0.868  1.00  0.00    -0.014 C 
ATOM      3  C   UNL     1       6.883  79.182   0.373  1.00  0.00     0.007 C 
BRANCH   2   4
ATOM      4  C   UNL     1       8.076  77.111  -0.406  1.00  0.00     0.003 C 
BRANCH   4   5
ATOM      5  C   UNL     1       7.222  75.886  -0.011  1.00  0.00     0.001 C 
BRANCH   5   6
ATOM      6  C   UNL     1       6.934  74.881  -1.144  1.00  0.00     0.003 C 
BRANCH   6   7
ATOM      7  C   UNL     1       7.921  74.921  -2.338  1.00  0.00    -0.014 C 
ATOM      8  C   UNL     1       7.196  75.198  -3.667  1.00  0.00     0.007 C 
BRANCH   7   9
ATOM      9  C   UNL     1       8.689  73.581  -2.419  1.00  0.00     0.003 C 
BRANCH   9  10
ATOM     10  C   UNL     1      10.105  73.720  -3.029  1.00  0.00     0.001 C 
BRANCH  10  11
ATOM     11  C   UNL     1      10.797  72.371  -3.326  1.00  0.00     0.003 C 
BRANCH  11  12
ATOM     12  C   UNL     1      10.875  71.945  -4.816  1.00  0.00    -0.017 C 
ATOM     13  C   UNL     1       9.530  72.069  -5.549  1.00  0.00     0.007 C 
ATOM     14  C   UNL     1      11.985  72.669  -5.591  1.00  0.00     0.007 C 
ENDBRANCH  11  12
ENDBRANCH  10  11
ENDBRANCH   9  10
ENDBRANCH   7   9
ENDBRANCH   6   7
ENDBRANCH   5   6
ENDBRANCH   4   5
ENDBRANCH   2   4
ENDBRANCH   1   2
BRANCH   1  15
ATOM     15  C   UNL     1       9.556  79.480  -1.396  1.00  0.00     0.004 C 
BRANCH  15  16
ATOM     16  C   UNL     1      10.571  78.838  -2.360  1.00  0.00     0.048 C 
BRANCH  16  17
ATOM     17  C   UNL     1      11.950  78.480  -1.733  1.00  0.00     0.107 C 
ATOM     18  C   UNL     1      11.779  77.505  -0.554  1.00  0.00     0.056 C 
ATOM     19  C   UNL     1      12.750  79.716  -1.265  1.00  0.00     0.053 C 
ATOM     20  O   UNL     1      12.715  77.804  -2.730  1.00  0.00    -0.487 OA
ATOM     21  C   UNL     1      13.133  80.619  -2.441  1.00  0.00     0.044 C 
ATOM     22  C   UNL     1      13.447  78.462  -3.727  1.00  0.00     0.127 A 
ATOM     23  C   UNL     1      13.692  79.847  -3.624  1.00  0.00     0.001 A 
ATOM     24  C   UNL     1      13.936  77.724  -4.818  1.00  0.00    -0.002 A 
ATOM     25  C   UNL     1      14.416  80.506  -4.645  1.00  0.00    -0.001 A 
ATOM     26  C   UNL     1      14.620  78.391  -5.863  1.00  0.00    -0.001 A 
ATOM     27  C   UNL     1      13.650  76.241  -4.900  1.00  0.00     0.049 C 
ATOM     28  C   UNL     1      14.693  81.991  -4.549  1.00  0.00     0.049 C 
ATOM     29  C   UNL     1      14.923  79.767  -5.733  1.00  0.00     0.137 A 
ATOM     30  C   UNL     1      15.011  77.643  -7.117  1.00  0.00     0.049 C 
BRANCH  29  31
ATOM     31  O   UNL     1      15.709  80.421  -6.694  1.00  0.00    -0.426 OA
BRANCH  31  32
ATOM     32  C   UNL     1      17.093  80.249  -6.806  1.00  0.00     0.311 C 
ATOM     33  O   UNL     1      17.650  80.213  -7.939  1.00  0.00    -0.252 OA
BRANCH  32  34
ATOM     34  C   UNL     1      17.921  80.127  -5.567  1.00  0.00     0.135 C 
BRANCH  34  35
ATOM     35  C   UNL     1      18.213  81.514  -4.991  1.00  0.00     0.134 C 
BRANCH  35  36
ATOM     36  C   UNL     1      19.579  81.968  -5.394  1.00  0.00     0.303 C 
ATOM     37  O   UNL     1      20.399  82.356  -4.517  1.00  0.00    -0.252 OA
BRANCH  36  38
ATOM     38  O   UNL     1      19.928  82.007  -6.738  1.00  0.00    -0.481 OA
ATOM     39  H   UNL     1      19.405  82.575  -7.393  1.00  0.00     0.296 HD
ENDBRANCH  36  38
ENDBRANCH  35  36
ENDBRANCH  34  35
ENDBRANCH  32  34
ENDBRANCH  31  32
ENDBRANCH  29  31
ENDBRANCH  16  17
ENDBRANCH  15  16
ENDBRANCH   1  15
TORSDOF 18
ENDMDL
MODEL 9
REMARK VINA RESULT:    -7.820      1.638      2.605
REMARK INTER + INTRA:         -19.461
REMARK INTER:                 -17.616
REMARK INTRA:                  -1.845
REMARK UNBOUND:                -3.642
REMARK SMILES Cc1c(C)c2c(c(C)c1OC(=O)CCC(=O)O)CC[C@@](C)(CCC[C@H](C)CCC[C@H](C)CCCC(C)C)O2
REMARK SMILES IDX 24 1 25 2 26 3 27 4 28 5 29 6 30 7 31 8 32 9 33 10 34 11
REMARK SMILES IDX 35 12 36 13 37 14 23 15 22 16 20 17 21 18 19 19 38 20 18 21
REMARK SMILES IDX 5 22 6 23 3 24 7 25 2 26 4 27 8 28 9 29 1 30 10 31 11 32
REMARK SMILES IDX 12 33 13 34 14 35 15 36 16 37 17 38
REMARK H PARENT 17 39
REMARK Flexibility Score: inf
ROOT
ATOM      1  C   UNL     1       7.431  77.469   0.238  1.00  0.00     0.003 C 
ENDROOT
BRANCH   1   2
ATOM      2  C   UNL     1       5.941  77.362   0.652  1.00  0.00    -0.014 C 
ATOM      3  C   UNL     1       5.699  77.963   2.050  1.00  0.00     0.007 C 
BRANCH   2   4
ATOM      4  C   UNL     1       5.461  75.887   0.651  1.00  0.00     0.003 C 
BRANCH   4   5
ATOM      5  C   UNL     1       6.394  74.877  -0.049  1.00  0.00     0.001 C 
BRANCH   5   6
ATOM      6  C   UNL     1       6.155  74.686  -1.561  1.00  0.00     0.003 C 
BRANCH   6   7
ATOM      7  C   UNL     1       7.356  75.037  -2.475  1.00  0.00    -0.014 C 
ATOM      8  C   UNL     1       6.932  75.161  -3.950  1.00  0.00     0.007 C 
BRANCH   7   9
ATOM      9  C   UNL     1       8.453  73.958  -2.325  1.00  0.00     0.003 C 
BRANCH   9  10
ATOM     10  C   UNL     1       9.794  74.347  -2.994  1.00  0.00     0.001 C 
BRANCH  10  11
ATOM     11  C   UNL     1      10.420  73.222  -3.847  1.00  0.00     0.003 C 
BRANCH  11  12
ATOM     12  C   UNL     1       9.556  71.951  -4.061  1.00  0.00    -0.017 C 
ATOM     13  C   UNL     1       9.505  71.496  -5.528  1.00  0.00     0.007 C 
ATOM     14  C   UNL     1       9.962  70.787  -3.145  1.00  0.00     0.007 C 
ENDBRANCH  11  12
ENDBRANCH  10  11
ENDBRANCH   9  10
ENDBRANCH   7   9
ENDBRANCH   6   7
ENDBRANCH   5   6
ENDBRANCH   4   5
ENDBRANCH   2   4
ENDBRANCH   1   2
BRANCH   1  15
ATOM     15  C   UNL     1       7.653  78.272  -1.056  1.00  0.00     0.004 C 
BRANCH  15  16
ATOM     16  C   UNL     1       9.151  78.550  -1.277  1.00  0.00     0.048 C 
BRANCH  16  17
ATOM     17  C   UNL     1       9.638  79.962  -0.839  1.00  0.00     0.107 C 
ATOM     18  C   UNL     1       8.857  80.453   0.393  1.00  0.00     0.056 C 
ATOM     19  C   UNL     1       9.543  81.018  -1.963  1.00  0.00     0.053 C 
ATOM     20  O   UNL     1      11.007  79.846  -0.451  1.00  0.00    -0.487 OA
ATOM     21  C   UNL     1      10.472  80.683  -3.134  1.00  0.00     0.044 C 
ATOM     22  C   UNL     1      12.076  79.863  -1.357  1.00  0.00     0.127 A 
ATOM     23  C   UNL     1      11.866  80.281  -2.687  1.00  0.00     0.001 A 
ATOM     24  C   UNL     1      13.351  79.468  -0.919  1.00  0.00    -0.002 A 
ATOM     25  C   UNL     1      12.948  80.276  -3.599  1.00  0.00    -0.001 A 
ATOM     26  C   UNL     1      14.423  79.418  -1.842  1.00  0.00    -0.001 A 
ATOM     27  C   UNL     1      13.538  79.019   0.514  1.00  0.00     0.049 C 
ATOM     28  C   UNL     1      12.744  80.727  -5.029  1.00  0.00     0.049 C 
ATOM     29  C   UNL     1      14.233  79.897  -3.159  1.00  0.00     0.137 A 
ATOM     30  C   UNL     1      15.759  78.844  -1.429  1.00  0.00     0.049 C 
BRANCH  29  31
ATOM     31  O   UNL     1      15.311  79.977  -4.055  1.00  0.00    -0.426 OA
BRANCH  31  32
ATOM     32  C   UNL     1      15.387  79.234  -5.238  1.00  0.00     0.311 C 
ATOM     33  O   UNL     1      14.901  78.070  -5.302  1.00  0.00    -0.252 OA
BRANCH  32  34
ATOM     34  C   UNL     1      16.033  79.835  -6.444  1.00  0.00     0.135 C 
BRANCH  34  35
ATOM     35  C   UNL     1      16.583  81.223  -6.110  1.00  0.00     0.134 C 
BRANCH  35  36
ATOM     36  C   UNL     1      17.104  81.888  -7.343  1.00  0.00     0.303 C 
ATOM     37  O   UNL     1      16.348  82.629  -8.028  1.00  0.00    -0.252 OA
BRANCH  36  38
ATOM     38  O   UNL     1      18.409  81.652  -7.759  1.00  0.00    -0.481 OA
ATOM     39  H   UNL     1      18.685  80.745  -8.113  1.00  0.00     0.296 HD
ENDBRANCH  36  38
ENDBRANCH  35  36
ENDBRANCH  34  35
ENDBRANCH  32  34
ENDBRANCH  31  32
ENDBRANCH  29  31
ENDBRANCH  16  17
ENDBRANCH  15  16
ENDBRANCH   1  15
TORSDOF 18
ENDMDL
MODEL 10
REMARK VINA RESULT:    -7.778      1.813      3.914
REMARK INTER + INTRA:         -19.376
REMARK INTER:                 -17.470
REMARK INTRA:                  -1.906
REMARK UNBOUND:                -3.642
REMARK SMILES Cc1c(C)c2c(c(C)c1OC(=O)CCC(=O)O)CC[C@@](C)(CCC[C@H](C)CCC[C@H](C)CCCC(C)C)O2
REMARK SMILES IDX 24 1 25 2 26 3 27 4 28 5 29 6 30 7 31 8 32 9 33 10 34 11
REMARK SMILES IDX 35 12 36 13 37 14 23 15 22 16 20 17 21 18 19 19 38 20 18 21
REMARK SMILES IDX 5 22 6 23 3 24 7 25 2 26 4 27 8 28 9 29 1 30 10 31 11 32
REMARK SMILES IDX 12 33 13 34 14 35 15 36 16 37 17 38
REMARK H PARENT 17 39
REMARK Flexibility Score: inf
ROOT
ATOM      1  C   UNL     1       9.176  80.451  -0.189  1.00  0.00     0.003 C 
ENDROOT
BRANCH   1   2
ATOM      2  C   UNL     1       8.443  79.711  -1.337  1.00  0.00    -0.014 C 
ATOM      3  C   UNL     1       7.649  80.689  -2.223  1.00  0.00     0.007 C 
BRANCH   2   4
ATOM      4  C   UNL     1       7.472  78.635  -0.784  1.00  0.00     0.003 C 
BRANCH   4   5
ATOM      5  C   UNL     1       7.723  77.191  -1.267  1.00  0.00     0.001 C 
BRANCH   5   6
ATOM      6  C   UNL     1       8.148  77.045  -2.742  1.00  0.00     0.003 C 
BRANCH   6   7
ATOM      7  C   UNL     1       8.127  75.600  -3.302  1.00  0.00    -0.014 C 
ATOM      8  C   UNL     1       6.706  75.161  -3.694  1.00  0.00     0.007 C 
BRANCH   7   9
ATOM      9  C   UNL     1       8.714  74.630  -2.250  1.00  0.00     0.003 C 
BRANCH   9  10
ATOM     10  C   UNL     1       9.883  73.771  -2.790  1.00  0.00     0.001 C 
BRANCH  10  11
ATOM     11  C   UNL     1       9.433  72.516  -3.571  1.00  0.00     0.003 C 
BRANCH  11  12
ATOM     12  C   UNL     1       9.836  72.449  -5.068  1.00  0.00    -0.017 C 
ATOM     13  C   UNL     1      11.328  72.731  -5.304  1.00  0.00     0.007 C 
ATOM     14  C   UNL     1       9.417  71.137  -5.745  1.00  0.00     0.007 C 
ENDBRANCH  11  12
ENDBRANCH  10  11
ENDBRANCH   9  10
ENDBRANCH   7   9
ENDBRANCH   6   7
ENDBRANCH   5   6
ENDBRANCH   4   5
ENDBRANCH   2   4
ENDBRANCH   1   2
BRANCH   1  15
ATOM     15  C   UNL     1      10.446  81.191  -0.647  1.00  0.00     0.004 C 
BRANCH  15  16
ATOM     16  C   UNL     1      11.272  81.659   0.564  1.00  0.00     0.048 C 
BRANCH  16  17
ATOM     17  C   UNL     1      12.256  80.603   1.149  1.00  0.00     0.107 C 
ATOM     18  C   UNL     1      11.943  80.324   2.629  1.00  0.00     0.056 C 
ATOM     19  C   UNL     1      13.741  81.004   1.003  1.00  0.00     0.053 C 
ATOM     20  O   UNL     1      12.051  79.383   0.438  1.00  0.00    -0.487 OA
ATOM     21  C   UNL     1      14.162  81.088  -0.468  1.00  0.00     0.044 C 
ATOM     22  C   UNL     1      12.634  79.099  -0.804  1.00  0.00     0.127 A 
ATOM     23  C   UNL     1      13.687  79.902  -1.288  1.00  0.00     0.001 A 
ATOM     24  C   UNL     1      12.161  78.005  -1.549  1.00  0.00    -0.002 A 
ATOM     25  C   UNL     1      14.257  79.618  -2.552  1.00  0.00    -0.001 A 
ATOM     26  C   UNL     1      12.698  77.749  -2.833  1.00  0.00    -0.001 A 
ATOM     27  C   UNL     1      11.026  77.169  -1.001  1.00  0.00     0.049 C 
ATOM     28  C   UNL     1      15.391  80.465  -3.086  1.00  0.00     0.049 C 
ATOM     29  C   UNL     1      13.797  78.511  -3.295  1.00  0.00     0.137 A 
ATOM     30  C   UNL     1      12.094  76.680  -3.713  1.00  0.00     0.049 C 
BRANCH  29  31
ATOM     31  O   UNL     1      14.429  78.196  -4.508  1.00  0.00    -0.426 OA
BRANCH  31  32
ATOM     32  C   UNL     1      14.514  79.083  -5.586  1.00  0.00     0.311 C 
ATOM     33  O   UNL     1      13.543  79.832  -5.885  1.00  0.00    -0.252 OA
BRANCH  32  34
ATOM     34  C   UNL     1      15.780  79.158  -6.379  1.00  0.00     0.135 C 
BRANCH  34  35
ATOM     35  C   UNL     1      16.269  80.606  -6.455  1.00  0.00     0.134 C 
BRANCH  35  36
ATOM     36  C   UNL     1      17.626  80.731  -5.840  1.00  0.00     0.303 C 
ATOM     37  O   UNL     1      18.357  79.711  -5.712  1.00  0.00    -0.252 OA
BRANCH  36  38
ATOM     38  O   UNL     1      18.061  81.963  -5.367  1.00  0.00    -0.481 OA
ATOM     39  H   UNL     1      18.561  82.603  -5.970  1.00  0.00     0.296 HD
ENDBRANCH  36  38
ENDBRANCH  35  36
ENDBRANCH  34  35
ENDBRANCH  32  34
ENDBRANCH  31  32
ENDBRANCH  29  31
ENDBRANCH  16  17
ENDBRANCH  15  16
ENDBRANCH   1  15
TORSDOF 18
ENDMDL
MODEL 11
REMARK VINA RESULT:    -7.595      3.257      8.165
REMARK INTER + INTRA:         -19.007
REMARK INTER:                 -17.226
REMARK INTRA:                  -1.781
REMARK UNBOUND:                -3.642
REMARK SMILES Cc1c(C)c2c(c(C)c1OC(=O)CCC(=O)O)CC[C@@](C)(CCC[C@H](C)CCC[C@H](C)CCCC(C)C)O2
REMARK SMILES IDX 24 1 25 2 26 3 27 4 28 5 29 6 30 7 31 8 32 9 33 10 34 11
REMARK SMILES IDX 35 12 36 13 37 14 23 15 22 16 20 17 21 18 19 19 38 20 18 21
REMARK SMILES IDX 5 22 6 23 3 24 7 25 2 26 4 27 8 28 9 29 1 30 10 31 11 32
REMARK SMILES IDX 12 33 13 34 14 35 15 36 16 37 17 38
REMARK H PARENT 17 39
REMARK Flexibility Score: inf
ROOT
ATOM      1  C   UNL     1      11.878  80.788   1.090  1.00  0.00     0.003 C 
ENDROOT
BRANCH   1   2
ATOM      2  C   UNL     1      12.716  79.902   0.134  1.00  0.00    -0.014 C 
ATOM      3  C   UNL     1      13.376  78.730   0.885  1.00  0.00     0.007 C 
BRANCH   2   4
ATOM      4  C   UNL     1      13.822  80.727  -0.574  1.00  0.00     0.003 C 
BRANCH   4   5
ATOM      5  C   UNL     1      14.979  79.912  -1.191  1.00  0.00     0.001 C 
BRANCH   5   6
ATOM      6  C   UNL     1      14.695  79.295  -2.575  1.00  0.00     0.003 C 
BRANCH   6   7
ATOM      7  C   UNL     1      14.405  80.308  -3.711  1.00  0.00    -0.014 C 
ATOM      8  C   UNL     1      12.929  80.274  -4.143  1.00  0.00     0.007 C 
BRANCH   7   9
ATOM      9  C   UNL     1      15.322  80.006  -4.920  1.00  0.00     0.003 C 
BRANCH   9  10
ATOM     10  C   UNL     1      15.894  81.279  -5.591  1.00  0.00     0.001 C 
BRANCH  10  11
ATOM     11  C   UNL     1      16.695  81.003  -6.882  1.00  0.00     0.003 C 
BRANCH  11  12
ATOM     12  C   UNL     1      18.239  81.126  -6.780  1.00  0.00    -0.017 C 
ATOM     13  C   UNL     1      18.842  82.048  -7.852  1.00  0.00     0.007 C 
ATOM     14  C   UNL     1      18.717  81.534  -5.380  1.00  0.00     0.007 C 
ENDBRANCH  11  12
ENDBRANCH  10  11
ENDBRANCH   9  10
ENDBRANCH   7   9
ENDBRANCH   6   7
ENDBRANCH   5   6
ENDBRANCH   4   5
ENDBRANCH   2   4
ENDBRANCH   1   2
BRANCH   1  15
ATOM     15  C   UNL     1      10.416  80.963   0.641  1.00  0.00     0.004 C 
BRANCH  15  16
ATOM     16  C   UNL     1       9.875  79.663   0.019  1.00  0.00     0.048 C 
BRANCH  16  17
ATOM     17  C   UNL     1       9.322  79.798  -1.430  1.00  0.00     0.107 C 
ATOM     18  C   UNL     1       9.577  81.211  -1.984  1.00  0.00     0.056 C 
ATOM     19  C   UNL     1       7.818  79.465  -1.545  1.00  0.00     0.053 C 
ATOM     20  O   UNL     1      10.045  78.886  -2.256  1.00  0.00    -0.487 OA
ATOM     21  C   UNL     1       7.536  77.998  -1.206  1.00  0.00     0.044 C 
ATOM     22  C   UNL     1       9.734  77.524  -2.367  1.00  0.00     0.127 A 
ATOM     23  C   UNL     1       8.504  77.039  -1.877  1.00  0.00     0.001 A 
ATOM     24  C   UNL     1      10.659  76.658  -2.976  1.00  0.00    -0.002 A 
ATOM     25  C   UNL     1       8.209  75.659  -1.976  1.00  0.00    -0.001 A 
ATOM     26  C   UNL     1      10.384  75.271  -3.034  1.00  0.00    -0.001 A 
ATOM     27  C   UNL     1      11.971  77.212  -3.485  1.00  0.00     0.049 C 
ATOM     28  C   UNL     1       6.891  75.121  -1.461  1.00  0.00     0.049 C 
ATOM     29  C   UNL     1       9.125  74.790  -2.602  1.00  0.00     0.137 A 
ATOM     30  C   UNL     1      11.432  74.306  -3.539  1.00  0.00     0.049 C 
BRANCH  29  31
ATOM     31  O   UNL     1       8.780  73.439  -2.766  1.00  0.00    -0.426 OA
BRANCH  31  32
ATOM     32  C   UNL     1       9.532  72.382  -2.243  1.00  0.00     0.311 C 
ATOM     33  O   UNL     1      10.060  72.469  -1.099  1.00  0.00    -0.252 OA
BRANCH  32  34
ATOM     34  C   UNL     1       9.693  71.128  -3.041  1.00  0.00     0.135 C 
BRANCH  34  35
ATOM     35  C   UNL     1      10.380  71.436  -4.372  1.00  0.00     0.134 C 
BRANCH  35  36
ATOM     36  C   UNL     1       9.363  71.642  -5.448  1.00  0.00     0.303 C 
ATOM     37  O   UNL     1       9.005  70.673  -6.172  1.00  0.00    -0.252 OA
BRANCH  36  38
ATOM     38  O   UNL     1       8.847  72.911  -5.680  1.00  0.00    -0.481 OA
ATOM     39  H   UNL     1       9.188  73.478  -6.446  1.00  0.00     0.296 HD
ENDBRANCH  36  38
ENDBRANCH  35  36
ENDBRANCH  34  35
ENDBRANCH  32  34
ENDBRANCH  31  32
ENDBRANCH  29  31
ENDBRANCH  16  17
ENDBRANCH  15  16
ENDBRANCH   1  15
TORSDOF 18
ENDMDL
MODEL 12
REMARK VINA RESULT:    -7.459      3.170      8.124
REMARK INTER + INTRA:         -18.731
REMARK INTER:                 -16.603
REMARK INTRA:                  -2.129
REMARK UNBOUND:                -3.642
REMARK SMILES Cc1c(C)c2c(c(C)c1OC(=O)CCC(=O)O)CC[C@@](C)(CCC[C@H](C)CCC[C@H](C)CCCC(C)C)O2
REMARK SMILES IDX 24 1 25 2 26 3 27 4 28 5 29 6 30 7 31 8 32 9 33 10 34 11
REMARK SMILES IDX 35 12 36 13 37 14 23 15 22 16 20 17 21 18 19 19 38 20 18 21
REMARK SMILES IDX 5 22 6 23 3 24 7 25 2 26 4 27 8 28 9 29 1 30 10 31 11 32
REMARK SMILES IDX 12 33 13 34 14 35 15 36 16 37 17 38
REMARK H PARENT 17 39
REMARK Flexibility Score: inf
ROOT
ATOM      1  C   UNL     1      12.056  80.247   0.793  1.00  0.00     0.003 C 
ENDROOT
BRANCH   1   2
ATOM      2  C   UNL     1      12.674  79.507  -0.420  1.00  0.00    -0.014 C 
ATOM      3  C   UNL     1      13.567  78.334   0.029  1.00  0.00     0.007 C 
BRANCH   2   4
ATOM      4  C   UNL     1      13.516  80.469  -1.298  1.00  0.00     0.003 C 
BRANCH   4   5
ATOM      5  C   UNL     1      14.811  79.876  -1.894  1.00  0.00     0.001 C 
BRANCH   5   6
ATOM      6  C   UNL     1      14.789  79.621  -3.415  1.00  0.00     0.003 C 
BRANCH   6   7
ATOM      7  C   UNL     1      14.345  80.823  -4.286  1.00  0.00    -0.014 C 
ATOM      8  C   UNL     1      13.151  80.464  -5.188  1.00  0.00     0.007 C 
BRANCH   7   9
ATOM      9  C   UNL     1      15.537  81.305  -5.146  1.00  0.00     0.003 C 
BRANCH   9  10
ATOM     10  C   UNL     1      16.802  80.426  -4.991  1.00  0.00     0.001 C 
BRANCH  10  11
ATOM     11  C   UNL     1      18.025  80.938  -5.785  1.00  0.00     0.003 C 
BRANCH  11  12
ATOM     12  C   UNL     1      18.202  80.380  -7.222  1.00  0.00    -0.017 C 
ATOM     13  C   UNL     1      17.597  78.978  -7.403  1.00  0.00     0.007 C 
ATOM     14  C   UNL     1      17.686  81.338  -8.306  1.00  0.00     0.007 C 
ENDBRANCH  11  12
ENDBRANCH  10  11
ENDBRANCH   9  10
ENDBRANCH   7   9
ENDBRANCH   6   7
ENDBRANCH   5   6
ENDBRANCH   4   5
ENDBRANCH   2   4
ENDBRANCH   1   2
BRANCH   1  15
ATOM     15  C   UNL     1      10.673  80.855   0.503  1.00  0.00     0.004 C 
BRANCH  15  16
ATOM     16  C   UNL     1       9.693  79.776   0.008  1.00  0.00     0.048 C 
BRANCH  16  17
ATOM     17  C   UNL     1       9.225  79.928  -1.469  1.00  0.00     0.107 C 
ATOM     18  C   UNL     1       9.480  81.358  -1.979  1.00  0.00     0.056 C 
ATOM     19  C   UNL     1       7.738  79.565  -1.681  1.00  0.00     0.053 C 
ATOM     20  O   UNL     1      10.017  79.050  -2.267  1.00  0.00    -0.487 OA
ATOM     21  C   UNL     1       7.471  78.085  -1.388  1.00  0.00     0.044 C 
ATOM     22  C   UNL     1       9.746  77.684  -2.423  1.00  0.00     0.127 A 
ATOM     23  C   UNL     1       8.500  77.162  -2.017  1.00  0.00     0.001 A 
ATOM     24  C   UNL     1      10.725  76.851  -2.992  1.00  0.00    -0.002 A 
ATOM     25  C   UNL     1       8.243  75.778  -2.161  1.00  0.00    -0.001 A 
ATOM     26  C   UNL     1      10.486  75.460  -3.093  1.00  0.00    -0.001 A 
ATOM     27  C   UNL     1      12.052  77.444  -3.409  1.00  0.00     0.049 C 
ATOM     28  C   UNL     1       6.910  75.201  -1.738  1.00  0.00     0.049 C 
ATOM     29  C   UNL     1       9.215  74.942  -2.747  1.00  0.00     0.137 A 
ATOM     30  C   UNL     1      11.585  74.529  -3.551  1.00  0.00     0.049 C 
BRANCH  29  31
ATOM     31  O   UNL     1       8.912  73.588  -2.958  1.00  0.00    -0.426 OA
BRANCH  31  32
ATOM     32  C   UNL     1       8.913  72.985  -4.220  1.00  0.00     0.311 C 
ATOM     33  O   UNL     1       8.180  73.428  -5.148  1.00  0.00    -0.252 OA
BRANCH  32  34
ATOM     34  C   UNL     1       9.809  71.816  -4.477  1.00  0.00     0.135 C 
BRANCH  34  35
ATOM     35  C   UNL     1       9.725  70.824  -3.315  1.00  0.00     0.134 C 
BRANCH  35  36
ATOM     36  C   UNL     1      10.897  70.991  -2.401  1.00  0.00     0.303 C 
ATOM     37  O   UNL     1      11.905  71.645  -2.782  1.00  0.00    -0.252 OA
BRANCH  36  38
ATOM     38  O   UNL     1      10.891  70.386  -1.150  1.00  0.00    -0.481 OA
ATOM     39  H   UNL     1      11.712  69.909  -0.801  1.00  0.00     0.296 HD
ENDBRANCH  36  38
ENDBRANCH  35  36
ENDBRANCH  34  35
ENDBRANCH  32  34
ENDBRANCH  31  32
ENDBRANCH  29  31
ENDBRANCH  16  17
ENDBRANCH  15  16
ENDBRANCH   1  15
TORSDOF 18
ENDMDL
MODEL 13
REMARK VINA RESULT:    -7.435      2.401      6.659
REMARK INTER + INTRA:         -18.684
REMARK INTER:                 -15.862
REMARK INTRA:                  -2.822
REMARK UNBOUND:                -3.642
REMARK SMILES Cc1c(C)c2c(c(C)c1OC(=O)CCC(=O)O)CC[C@@](C)(CCC[C@H](C)CCC[C@H](C)CCCC(C)C)O2
REMARK SMILES IDX 24 1 25 2 26 3 27 4 28 5 29 6 30 7 31 8 32 9 33 10 34 11
REMARK SMILES IDX 35 12 36 13 37 14 23 15 22 16 20 17 21 18 19 19 38 20 18 21
REMARK SMILES IDX 5 22 6 23 3 24 7 25 2 26 4 27 8 28 9 29 1 30 10 31 11 32
REMARK SMILES IDX 12 33 13 34 14 35 15 36 16 37 17 38
REMARK H PARENT 17 39
REMARK Flexibility Score: inf
ROOT
ATOM      1  C   UNL     1      13.520  77.471   1.558  1.00  0.00     0.003 C 
ENDROOT
BRANCH   1   2
ATOM      2  C   UNL     1      13.228  75.961   1.364  1.00  0.00    -0.014 C 
ATOM      3  C   UNL     1      14.527  75.134   1.339  1.00  0.00     0.007 C 
BRANCH   2   4
ATOM      4  C   UNL     1      12.445  75.702   0.051  1.00  0.00     0.003 C 
BRANCH   4   5
ATOM      5  C   UNL     1      10.909  75.822   0.149  1.00  0.00     0.001 C 
BRANCH   5   6
ATOM      6  C   UNL     1      10.116  74.558  -0.242  1.00  0.00     0.003 C 
BRANCH   6   7
ATOM      7  C   UNL     1      10.465  73.952  -1.625  1.00  0.00    -0.014 C 
ATOM      8  C   UNL     1       9.473  74.402  -2.712  1.00  0.00     0.007 C 
BRANCH   7   9
ATOM      9  C   UNL     1      10.482  72.409  -1.524  1.00  0.00     0.003 C 
BRANCH   9  10
ATOM     10  C   UNL     1      11.151  71.721  -2.738  1.00  0.00     0.001 C 
BRANCH  10  11
ATOM     11  C   UNL     1      10.150  71.128  -3.755  1.00  0.00     0.003 C 
BRANCH  11  12
ATOM     12  C   UNL     1      10.301  71.594  -5.228  1.00  0.00    -0.017 C 
ATOM     13  C   UNL     1       9.053  72.314  -5.763  1.00  0.00     0.007 C 
ATOM     14  C   UNL     1      11.560  72.439  -5.465  1.00  0.00     0.007 C 
ENDBRANCH  11  12
ENDBRANCH  10  11
ENDBRANCH   9  10
ENDBRANCH   7   9
ENDBRANCH   6   7
ENDBRANCH   5   6
ENDBRANCH   4   5
ENDBRANCH   2   4
ENDBRANCH   1   2
BRANCH   1  15
ATOM     15  C   UNL     1      13.933  78.188   0.260  1.00  0.00     0.004 C 
BRANCH  15  16
ATOM     16  C   UNL     1      13.787  79.714   0.409  1.00  0.00     0.048 C 
BRANCH  16  17
ATOM     17  C   UNL     1      13.460  80.482  -0.905  1.00  0.00     0.107 C 
ATOM     18  C   UNL     1      14.744  80.786  -1.696  1.00  0.00     0.056 C 
ATOM     19  C   UNL     1      12.680  81.795  -0.668  1.00  0.00     0.053 C 
ATOM     20  O   UNL     1      12.657  79.627  -1.717  1.00  0.00    -0.487 OA
ATOM     21  C   UNL     1      11.294  81.529  -0.072  1.00  0.00     0.044 C 
ATOM     22  C   UNL     1      11.271  79.487  -1.566  1.00  0.00     0.127 A 
ATOM     23  C   UNL     1      10.551  80.407  -0.776  1.00  0.00     0.001 A 
ATOM     24  C   UNL     1      10.614  78.428  -2.216  1.00  0.00    -0.002 A 
ATOM     25  C   UNL     1       9.155  80.246  -0.615  1.00  0.00    -0.001 A 
ATOM     26  C   UNL     1       9.226  78.239  -2.017  1.00  0.00    -0.001 A 
ATOM     27  C   UNL     1      11.419  77.456  -3.051  1.00  0.00     0.049 C 
ATOM     28  C   UNL     1       8.365  81.226   0.224  1.00  0.00     0.049 C 
ATOM     29  C   UNL     1       8.490  79.195  -1.279  1.00  0.00     0.137 A 
ATOM     30  C   UNL     1       8.535  77.016  -2.576  1.00  0.00     0.049 C 
BRANCH  29  31
ATOM     31  O   UNL     1       7.093  79.099  -1.174  1.00  0.00    -0.426 OA
BRANCH  31  32
ATOM     32  C   UNL     1       6.438  78.584  -0.050  1.00  0.00     0.311 C 
ATOM     33  O   UNL     1       5.505  79.229   0.505  1.00  0.00    -0.252 OA
BRANCH  32  34
ATOM     34  C   UNL     1       6.835  77.245   0.484  1.00  0.00     0.135 C 
BRANCH  34  35
ATOM     35  C   UNL     1       5.606  76.343   0.610  1.00  0.00     0.134 C 
BRANCH  35  36
ATOM     36  C   UNL     1       5.903  74.980   0.075  1.00  0.00     0.303 C 
ATOM     37  O   UNL     1       6.023  74.004   0.864  1.00  0.00    -0.252 OA
BRANCH  36  38
ATOM     38  O   UNL     1       6.093  74.798  -1.290  1.00  0.00    -0.481 OA
ATOM     39  H   UNL     1       6.282  73.879  -1.669  1.00  0.00     0.296 HD
ENDBRANCH  36  38
ENDBRANCH  35  36
ENDBRANCH  34  35
ENDBRANCH  32  34
ENDBRANCH  31  32
ENDBRANCH  29  31
ENDBRANCH  16  17
ENDBRANCH  15  16
ENDBRANCH   1  15
TORSDOF 18
ENDMDL
MODEL 14
REMARK VINA RESULT:    -7.262      1.883      2.848
REMARK INTER + INTRA:         -18.334
REMARK INTER:                 -16.318
REMARK INTRA:                  -2.015
REMARK UNBOUND:                -3.642
REMARK SMILES Cc1c(C)c2c(c(C)c1OC(=O)CCC(=O)O)CC[C@@](C)(CCC[C@H](C)CCC[C@H](C)CCCC(C)C)O2
REMARK SMILES IDX 24 1 25 2 26 3 27 4 28 5 29 6 30 7 31 8 32 9 33 10 34 11
REMARK SMILES IDX 35 12 36 13 37 14 23 15 22 16 20 17 21 18 19 19 38 20 18 21
REMARK SMILES IDX 5 22 6 23 3 24 7 25 2 26 4 27 8 28 9 29 1 30 10 31 11 32
REMARK SMILES IDX 12 33 13 34 14 35 15 36 16 37 17 38
REMARK H PARENT 17 39
REMARK Flexibility Score: inf
ROOT
ATOM      1  C   UNL     1       9.834  76.708  -2.707  1.00  0.00     0.003 C 
ENDROOT
BRANCH   1   2
ATOM      2  C   UNL     1       9.071  75.360  -2.659  1.00  0.00    -0.014 C 
ATOM      3  C   UNL     1       7.583  75.542  -3.014  1.00  0.00     0.007 C 
BRANCH   2   4
ATOM      4  C   UNL     1       9.174  74.703  -1.258  1.00  0.00     0.003 C 
BRANCH   4   5
ATOM      5  C   UNL     1       9.943  73.366  -1.197  1.00  0.00     0.001 C 
BRANCH   5   6
ATOM      6  C   UNL     1       9.601  72.349  -2.305  1.00  0.00     0.003 C 
BRANCH   6   7
ATOM      7  C   UNL     1      10.712  71.319  -2.630  1.00  0.00    -0.014 C 
ATOM      8  C   UNL     1      11.316  70.710  -1.353  1.00  0.00     0.007 C 
BRANCH   7   9
ATOM      9  C   UNL     1      11.817  71.999  -3.472  1.00  0.00     0.003 C 
BRANCH   9  10
ATOM     10  C   UNL     1      11.290  73.148  -4.365  1.00  0.00     0.001 C 
BRANCH  10  11
ATOM     11  C   UNL     1      11.004  72.730  -5.824  1.00  0.00     0.003 C 
BRANCH  11  12
ATOM     12  C   UNL     1       9.568  72.228  -6.132  1.00  0.00    -0.017 C 
ATOM     13  C   UNL     1       9.311  70.795  -5.638  1.00  0.00     0.007 C 
ATOM     14  C   UNL     1       8.477  73.181  -5.626  1.00  0.00     0.007 C 
ENDBRANCH  11  12
ENDBRANCH  10  11
ENDBRANCH   9  10
ENDBRANCH   7   9
ENDBRANCH   6   7
ENDBRANCH   5   6
ENDBRANCH   4   5
ENDBRANCH   2   4
ENDBRANCH   1   2
BRANCH   1  15
ATOM     15  C   UNL     1       9.827  77.466  -1.368  1.00  0.00     0.004 C 
BRANCH  15  16
ATOM     16  C   UNL     1       8.809  78.621  -1.399  1.00  0.00     0.048 C 
BRANCH  16  17
ATOM     17  C   UNL     1       9.344  79.994  -0.894  1.00  0.00     0.107 C 
ATOM     18  C   UNL     1       8.549  80.472   0.335  1.00  0.00     0.056 C 
ATOM     19  C   UNL     1       9.326  81.095  -1.977  1.00  0.00     0.053 C 
ATOM     20  O   UNL     1      10.694  79.803  -0.473  1.00  0.00    -0.487 OA
ATOM     21  C   UNL     1      10.273  80.764  -3.135  1.00  0.00     0.044 C 
ATOM     22  C   UNL     1      11.789  79.807  -1.348  1.00  0.00     0.127 A 
ATOM     23  C   UNL     1      11.636  80.284  -2.666  1.00  0.00     0.001 A 
ATOM     24  C   UNL     1      13.033  79.340  -0.891  1.00  0.00    -0.002 A 
ATOM     25  C   UNL     1      12.742  80.266  -3.547  1.00  0.00    -0.001 A 
ATOM     26  C   UNL     1      14.128  79.279  -1.785  1.00  0.00    -0.001 A 
ATOM     27  C   UNL     1      13.159  78.830   0.528  1.00  0.00     0.049 C 
ATOM     28  C   UNL     1      12.599  80.779  -4.964  1.00  0.00     0.049 C 
ATOM     29  C   UNL     1      13.997  79.814  -3.088  1.00  0.00     0.137 A 
ATOM     30  C   UNL     1      15.425  78.631  -1.359  1.00  0.00     0.049 C 
BRANCH  29  31
ATOM     31  O   UNL     1      15.102  79.881  -3.950  1.00  0.00    -0.426 OA
BRANCH  31  32
ATOM     32  C   UNL     1      15.180  79.182  -5.160  1.00  0.00     0.311 C 
ATOM     33  O   UNL     1      14.549  78.100  -5.322  1.00  0.00    -0.252 OA
BRANCH  32  34
ATOM     34  C   UNL     1      16.005  79.735  -6.278  1.00  0.00     0.135 C 
BRANCH  34  35
ATOM     35  C   UNL     1      16.387  81.186  -5.981  1.00  0.00     0.134 C 
BRANCH  35  36
ATOM     36  C   UNL     1      17.068  81.797  -7.163  1.00  0.00     0.303 C 
ATOM     37  O   UNL     1      18.278  81.535  -7.400  1.00  0.00    -0.252 OA
BRANCH  36  38
ATOM     38  O   UNL     1      16.378  82.691  -7.974  1.00  0.00    -0.481 OA
ATOM     39  H   UNL     1      15.683  82.363  -8.633  1.00  0.00     0.296 HD
ENDBRANCH  36  38
ENDBRANCH  35  36
ENDBRANCH  34  35
ENDBRANCH  32  34
ENDBRANCH  31  32
ENDBRANCH  29  31
ENDBRANCH  16  17
ENDBRANCH  15  16
ENDBRANCH   1  15
TORSDOF 18
ENDMDL
MODEL 15
REMARK VINA RESULT:    -7.243      3.066      7.398
REMARK INTER + INTRA:         -18.295
REMARK INTER:                 -14.896
REMARK INTRA:                  -3.399
REMARK UNBOUND:                -3.642
REMARK SMILES Cc1c(C)c2c(c(C)c1OC(=O)CCC(=O)O)CC[C@@](C)(CCC[C@H](C)CCC[C@H](C)CCCC(C)C)O2
REMARK SMILES IDX 24 1 25 2 26 3 27 4 28 5 29 6 30 7 31 8 32 9 33 10 34 11
REMARK SMILES IDX 35 12 36 13 37 14 23 15 22 16 20 17 21 18 19 19 38 20 18 21
REMARK SMILES IDX 5 22 6 23 3 24 7 25 2 26 4 27 8 28 9 29 1 30 10 31 11 32
REMARK SMILES IDX 12 33 13 34 14 35 15 36 16 37 17 38
REMARK H PARENT 17 39
REMARK Flexibility Score: inf
ROOT
ATOM      1  C   UNL     1      11.181  81.322  -1.211  1.00  0.00     0.003 C 
ENDROOT
BRANCH   1   2
ATOM      2  C   UNL     1      11.239  80.305  -0.044  1.00  0.00    -0.014 C 
ATOM      3  C   UNL     1      11.184  81.012   1.324  1.00  0.00     0.007 C 
BRANCH   2   4
ATOM      4  C   UNL     1      12.527  79.443  -0.110  1.00  0.00     0.003 C 
BRANCH   4   5
ATOM      5  C   UNL     1      13.452  79.709  -1.317  1.00  0.00     0.001 C 
BRANCH   5   6
ATOM      6  C   UNL     1      13.765  78.483  -2.199  1.00  0.00     0.003 C 
BRANCH   6   7
ATOM      7  C   UNL     1      12.741  78.192  -3.325  1.00  0.00    -0.014 C 
ATOM      8  C   UNL     1      11.604  77.275  -2.839  1.00  0.00     0.007 C 
BRANCH   7   9
ATOM      9  C   UNL     1      13.466  77.549  -4.530  1.00  0.00     0.003 C 
BRANCH   9  10
ATOM     10  C   UNL     1      14.158  78.581  -5.453  1.00  0.00     0.001 C 
BRANCH  10  11
ATOM     11  C   UNL     1      13.668  80.032  -5.253  1.00  0.00     0.003 C 
BRANCH  11  12
ATOM     12  C   UNL     1      14.759  81.102  -4.980  1.00  0.00    -0.017 C 
ATOM     13  C   UNL     1      16.171  80.506  -4.859  1.00  0.00     0.007 C 
ATOM     14  C   UNL     1      14.741  82.251  -5.998  1.00  0.00     0.007 C 
ENDBRANCH  11  12
ENDBRANCH  10  11
ENDBRANCH   9  10
ENDBRANCH   7   9
ENDBRANCH   6   7
ENDBRANCH   5   6
ENDBRANCH   4   5
ENDBRANCH   2   4
ENDBRANCH   1   2
BRANCH   1  15
ATOM     15  C   UNL     1       9.913  81.195  -2.075  1.00  0.00     0.004 C 
BRANCH  15  16
ATOM     16  C   UNL     1       9.528  79.717  -2.267  1.00  0.00     0.048 C 
BRANCH  16  17
ATOM     17  C   UNL     1       8.102  79.331  -1.775  1.00  0.00     0.107 C 
ATOM     18  C   UNL     1       7.115  80.492  -1.992  1.00  0.00     0.056 C 
ATOM     19  C   UNL     1       8.063  78.894  -0.293  1.00  0.00     0.053 C 
ATOM     20  O   UNL     1       7.649  78.239  -2.574  1.00  0.00    -0.487 OA
ATOM     21  C   UNL     1       8.864  77.609  -0.062  1.00  0.00     0.044 C 
ATOM     22  C   UNL     1       7.992  76.902  -2.330  1.00  0.00     0.127 A 
ATOM     23  C   UNL     1       8.581  76.539  -1.101  1.00  0.00     0.001 A 
ATOM     24  C   UNL     1       7.734  75.937  -3.318  1.00  0.00    -0.002 A 
ATOM     25  C   UNL     1       8.940  75.190  -0.871  1.00  0.00    -0.001 A 
ATOM     26  C   UNL     1       8.135  74.596  -3.107  1.00  0.00    -0.001 A 
ATOM     27  C   UNL     1       7.106  76.364  -4.627  1.00  0.00     0.049 C 
ATOM     28  C   UNL     1       9.567  74.780   0.443  1.00  0.00     0.049 C 
ATOM     29  C   UNL     1       8.667  74.215  -1.853  1.00  0.00     0.137 A 
ATOM     30  C   UNL     1       8.012  73.580  -4.219  1.00  0.00     0.049 C 
BRANCH  29  31
ATOM     31  O   UNL     1       8.954  72.870  -1.575  1.00  0.00    -0.426 OA
BRANCH  31  32
ATOM     32  C   UNL     1       9.952  72.143  -2.233  1.00  0.00     0.311 C 
ATOM     33  O   UNL     1       9.840  70.896  -2.399  1.00  0.00    -0.252 OA
BRANCH  32  34
ATOM     34  C   UNL     1      11.154  72.857  -2.764  1.00  0.00     0.135 C 
BRANCH  34  35
ATOM     35  C   UNL     1      11.912  71.957  -3.741  1.00  0.00     0.134 C 
BRANCH  35  36
ATOM     36  C   UNL     1      11.533  72.282  -5.150  1.00  0.00     0.303 C 
ATOM     37  O   UNL     1      10.541  71.714  -5.683  1.00  0.00    -0.252 OA
BRANCH  36  38
ATOM     38  O   UNL     1      12.301  73.176  -5.886  1.00  0.00    -0.481 OA
ATOM     39  H   UNL     1      12.397  73.074  -6.888  1.00  0.00     0.296 HD
ENDBRANCH  36  38
ENDBRANCH  35  36
ENDBRANCH  34  35
ENDBRANCH  32  34
ENDBRANCH  31  32
ENDBRANCH  29  31
ENDBRANCH  16  17
ENDBRANCH  15  16
ENDBRANCH   1  15
TORSDOF 18
ENDMDL
