MODEL 1
REMARK VINA RESULT:    -9.457      0.000      0.000
REMARK INTER + INTRA:         -14.632
REMARK INTER:                 -13.051
REMARK INTRA:                  -1.581
REMARK UNBOUND:                -1.581
REMARK SMILES CC(C)Oc1ccc(-c2nn([C@@H](C)c3oc4ccc(F)cc4c(=O)c3-c3cccc(F)c3)c3ncnc(N)c23)cc1F
REMARK SMILES IDX 9 1 10 2 11 3 33 4 39 5 37 6 36 7 35 8 34 9 8 10 5 11 41 12
REMARK SMILES IDX 6 13 42 14 40 15 7 16 4 17 2 18 1 19 3 20 12 21 13 22 14 23
REMARK SMILES IDX 25 24 15 25 23 26 16 27 24 28 22 29 17 30 21 31 18 32 19 33
REMARK SMILES IDX 20 34 26 35 27 36 32 37 28 38 30 39 29 40 31 41 38 42
REMARK H PARENT 38 43 38 44
REMARK Flexibility Score: inf
ROOT
ATOM      1  C   UNL     1      21.263  40.030  -6.411  1.00  0.00     0.106 A 
ATOM      2  N   UNL     1      21.325  40.553  -7.662  1.00  0.00    -0.169 NA
ATOM      3  N   UNL     1      20.356  41.454  -7.786  1.00  0.00    -0.236 N 
ATOM      4  C   UNL     1      19.677  41.503  -6.625  1.00  0.00     0.164 A 
ATOM      5  C   UNL     1      20.221  40.643  -5.721  1.00  0.00     0.089 A 
ATOM      6  C   UNL     1      19.708  40.598  -4.419  1.00  0.00     0.138 A 
ATOM      7  N   UNL     1      18.627  41.383  -4.140  1.00  0.00    -0.219 NA
ATOM      8  C   UNL     1      18.073  42.209  -5.082  1.00  0.00     0.226 A 
ATOM      9  N   UNL     1      18.612  42.288  -6.333  1.00  0.00    -0.217 NA
ENDROOT
BRANCH   1  10
ATOM     10  C   UNL     1      22.130  38.929  -5.961  1.00  0.00     0.006 A 
ATOM     11  C   UNL     1      23.800  36.821  -5.121  1.00  0.00     0.155 A 
ATOM     12  C   UNL     1      23.901  38.087  -4.527  1.00  0.00     0.165 A 
ATOM     13  C   UNL     1      22.819  36.604  -6.111  1.00  0.00     0.050 A 
ATOM     14  F   UNL     1      24.823  38.313  -3.557  1.00  0.00    -0.203 F 
ATOM     15  C   UNL     1      23.068  39.133  -4.936  1.00  0.00     0.053 A 
ATOM     16  C   UNL     1      21.989  37.651  -6.521  1.00  0.00     0.014 A 
BRANCH  11  17
ATOM     17  O   UNL     1      24.689  35.819  -4.698  1.00  0.00    -0.488 OA
BRANCH  17  18
ATOM     18  C   UNL     1      25.922  35.469  -5.334  1.00  0.00     0.167 C 
ATOM     19  C   UNL     1      26.116  33.958  -5.221  1.00  0.00     0.052 C 
ATOM     20  C   UNL     1      27.093  36.203  -4.670  1.00  0.00     0.052 C 
ENDBRANCH  17  18
ENDBRANCH  11  17
ENDBRANCH   1  10
BRANCH   3  21
ATOM     21  C   UNL     1      20.130  42.249  -8.997  1.00  0.00     0.174 C 
ATOM     22  C   UNL     1      21.301  43.208  -9.234  1.00  0.00     0.042 C 
BRANCH  21  23
ATOM     23  C   UNL     1      19.889  41.330 -10.179  1.00  0.00     0.140 A 
ATOM     24  C   UNL     1      18.757  41.479 -11.015  1.00  0.00     0.071 A 
ATOM     25  O   UNL     1      20.736  40.322 -10.387  1.00  0.00    -0.458 OA
ATOM     26  C   UNL     1      18.553  40.550 -12.048  1.00  0.00     0.200 A 
ATOM     27  C   UNL     1      20.579  39.426 -11.354  1.00  0.00     0.138 A 
ATOM     28  O   UNL     1      17.550  40.660 -12.808  1.00  0.00    -0.288 OA
ATOM     29  C   UNL     1      19.472  39.503 -12.228  1.00  0.00     0.068 A 
ATOM     30  C   UNL     1      21.513  38.395 -11.498  1.00  0.00     0.051 A 
ATOM     31  C   UNL     1      19.321  38.537 -13.239  1.00  0.00     0.055 A 
ATOM     32  C   UNL     1      21.354  37.437 -12.503  1.00  0.00     0.043 A 
ATOM     33  C   UNL     1      20.261  37.507 -13.372  1.00  0.00     0.124 A 
ATOM     34  F   UNL     1      20.109  36.575 -14.345  1.00  0.00    -0.207 F 
BRANCH  24  35
ATOM     35  C   UNL     1      17.791  42.577 -10.811  1.00  0.00    -0.008 A 
ATOM     36  C   UNL     1      17.944  43.791 -11.498  1.00  0.00     0.009 A 
ATOM     37  C   UNL     1      16.712  42.405  -9.930  1.00  0.00     0.048 A 
ATOM     38  C   UNL     1      17.017  44.822 -11.310  1.00  0.00     0.004 A 
ATOM     39  C   UNL     1      15.785  43.437  -9.747  1.00  0.00     0.123 A 
ATOM     40  C   UNL     1      15.937  44.644 -10.437  1.00  0.00     0.039 A 
ATOM     41  F   UNL     1      14.736  43.267  -8.902  1.00  0.00    -0.207 F 
ENDBRANCH  24  35
ENDBRANCH  21  23
ENDBRANCH   3  21
BRANCH   6  42
ATOM     42  N   UNL     1      20.325  39.849  -3.369  1.00  0.00    -0.383 N 
ATOM     43  H   UNL     1      20.670  40.344  -2.519  1.00  0.00     0.158 HD
ATOM     44  H   UNL     1      20.618  38.858  -3.504  1.00  0.00     0.158 HD
ENDBRANCH   6  42
TORSDOF 7
ENDMDL
MODEL 2
REMARK VINA RESULT:    -9.390      2.995      9.647
REMARK INTER + INTRA:         -14.538
REMARK INTER:                 -13.046
REMARK INTRA:                  -1.492
REMARK UNBOUND:                -1.581
REMARK SMILES CC(C)Oc1ccc(-c2nn([C@@H](C)c3oc4ccc(F)cc4c(=O)c3-c3cccc(F)c3)c3ncnc(N)c23)cc1F
REMARK SMILES IDX 9 1 10 2 11 3 33 4 39 5 37 6 36 7 35 8 34 9 8 10 5 11 41 12
REMARK SMILES IDX 6 13 42 14 40 15 7 16 4 17 2 18 1 19 3 20 12 21 13 22 14 23
REMARK SMILES IDX 25 24 15 25 23 26 16 27 24 28 22 29 17 30 21 31 18 32 19 33
REMARK SMILES IDX 20 34 26 35 27 36 32 37 28 38 30 39 29 40 31 41 38 42
REMARK H PARENT 38 43 38 44
REMARK Flexibility Score: inf
ROOT
ATOM      1  C   UNL     1      20.055  39.716 -11.220  1.00  0.00     0.106 A 
ATOM      2  N   UNL     1      20.547  40.244 -10.070  1.00  0.00    -0.169 NA
ATOM      3  N   UNL     1      21.255  39.306  -9.450  1.00  0.00    -0.236 N 
ATOM      4  C   UNL     1      21.213  38.186 -10.195  1.00  0.00     0.164 A 
ATOM      5  C   UNL     1      20.488  38.397 -11.328  1.00  0.00     0.089 A 
ATOM      6  C   UNL     1      20.387  37.377 -12.280  1.00  0.00     0.138 A 
ATOM      7  N   UNL     1      20.971  36.178 -11.986  1.00  0.00    -0.219 NA
ATOM      8  C   UNL     1      21.659  35.980 -10.817  1.00  0.00     0.226 A 
ATOM      9  N   UNL     1      21.800  36.997  -9.918  1.00  0.00    -0.217 NA
ENDROOT
BRANCH   1  10
ATOM     10  C   UNL     1      19.140  40.450 -12.109  1.00  0.00     0.006 A 
ATOM     11  C   UNL     1      17.394  41.838 -13.830  1.00  0.00     0.155 A 
ATOM     12  C   UNL     1      16.893  41.144 -12.719  1.00  0.00     0.165 A 
ATOM     13  C   UNL     1      18.788  41.873 -14.046  1.00  0.00     0.050 A 
ATOM     14  F   UNL     1      15.558  41.116 -12.479  1.00  0.00    -0.203 F 
ATOM     15  C   UNL     1      17.758  40.461 -11.859  1.00  0.00     0.053 A 
ATOM     16  C   UNL     1      19.651  41.186 -13.187  1.00  0.00     0.014 A 
BRANCH  11  17
ATOM     17  O   UNL     1      16.476  42.474 -14.683  1.00  0.00    -0.488 OA
BRANCH  17  18
ATOM     18  C   UNL     1      16.168  42.084 -16.024  1.00  0.00     0.167 C 
ATOM     19  C   UNL     1      14.936  42.858 -16.485  1.00  0.00     0.052 C 
ATOM     20  C   UNL     1      15.902  40.576 -16.094  1.00  0.00     0.052 C 
ENDBRANCH  17  18
ENDBRANCH  11  17
ENDBRANCH   1  10
BRANCH   3  21
ATOM     21  C   UNL     1      21.964  39.520  -8.185  1.00  0.00     0.174 C 
ATOM     22  C   UNL     1      23.275  40.276  -8.427  1.00  0.00     0.042 C 
BRANCH  21  23
ATOM     23  C   UNL     1      21.059  40.238  -7.202  1.00  0.00     0.140 A 
ATOM     24  C   UNL     1      20.996  39.858  -5.840  1.00  0.00     0.071 A 
ATOM     25  O   UNL     1      20.260  41.203  -7.657  1.00  0.00    -0.458 OA
ATOM     26  C   UNL     1      20.083  40.514  -4.998  1.00  0.00     0.200 A 
ATOM     27  C   UNL     1      19.387  41.847  -6.892  1.00  0.00     0.138 A 
ATOM     28  O   UNL     1      20.006  40.194  -3.778  1.00  0.00    -0.288 OA
ATOM     29  C   UNL     1      19.261  41.524  -5.523  1.00  0.00     0.068 A 
ATOM     30  C   UNL     1      18.583  42.845  -7.453  1.00  0.00     0.051 A 
ATOM     31  C   UNL     1      18.322  42.214  -4.734  1.00  0.00     0.055 A 
ATOM     32  C   UNL     1      17.650  43.522  -6.663  1.00  0.00     0.043 A 
ATOM     33  C   UNL     1      17.519  43.209  -5.306  1.00  0.00     0.124 A 
ATOM     34  F   UNL     1      16.612  43.867  -4.544  1.00  0.00    -0.207 F 
BRANCH  24  35
ATOM     35  C   UNL     1      21.857  38.788  -5.300  1.00  0.00    -0.008 A 
ATOM     36  C   UNL     1      21.523  37.440  -5.504  1.00  0.00     0.009 A 
ATOM     37  C   UNL     1      23.018  39.119  -4.584  1.00  0.00     0.048 A 
ATOM     38  C   UNL     1      22.351  36.431  -5.000  1.00  0.00     0.004 A 
ATOM     39  C   UNL     1      23.845  38.107  -4.084  1.00  0.00     0.123 A 
ATOM     40  C   UNL     1      23.512  36.764  -4.294  1.00  0.00     0.039 A 
ATOM     41  F   UNL     1      24.973  38.426  -3.399  1.00  0.00    -0.207 F 
ENDBRANCH  24  35
ENDBRANCH  21  23
ENDBRANCH   3  21
BRANCH   6  42
ATOM     42  N   UNL     1      19.789  37.572 -13.564  1.00  0.00    -0.383 N 
ATOM     43  H   UNL     1      18.771  37.788 -13.631  1.00  0.00     0.158 HD
ATOM     44  H   UNL     1      20.288  37.316 -14.443  1.00  0.00     0.158 HD
ENDBRANCH   6  42
TORSDOF 7
ENDMDL
MODEL 3
REMARK VINA RESULT:    -9.186      2.552      8.411
REMARK INTER + INTRA:         -14.257
REMARK INTER:                 -14.143
REMARK INTRA:                  -0.114
REMARK UNBOUND:                -1.581
REMARK SMILES CC(C)Oc1ccc(-c2nn([C@@H](C)c3oc4ccc(F)cc4c(=O)c3-c3cccc(F)c3)c3ncnc(N)c23)cc1F
REMARK SMILES IDX 9 1 10 2 11 3 33 4 39 5 37 6 36 7 35 8 34 9 8 10 5 11 41 12
REMARK SMILES IDX 6 13 42 14 40 15 7 16 4 17 2 18 1 19 3 20 12 21 13 22 14 23
REMARK SMILES IDX 25 24 15 25 23 26 16 27 24 28 22 29 17 30 21 31 18 32 19 33
REMARK SMILES IDX 20 34 26 35 27 36 32 37 28 38 30 39 29 40 31 41 38 42
REMARK H PARENT 38 43 38 44
REMARK Flexibility Score: inf
ROOT
ATOM      1  C   UNL     1      20.530  40.317  -7.274  1.00  0.00     0.106 A 
ATOM      2  N   UNL     1      21.338  39.243  -7.462  1.00  0.00    -0.169 NA
ATOM      3  N   UNL     1      21.517  38.645  -6.289  1.00  0.00    -0.236 N 
ATOM      4  C   UNL     1      20.832  39.333  -5.358  1.00  0.00     0.164 A 
ATOM      5  C   UNL     1      20.177  40.381  -5.929  1.00  0.00     0.089 A 
ATOM      6  C   UNL     1      19.340  41.181  -5.142  1.00  0.00     0.138 A 
ATOM      7  N   UNL     1      19.278  40.905  -3.806  1.00  0.00    -0.219 NA
ATOM      8  C   UNL     1      19.981  39.869  -3.250  1.00  0.00     0.226 A 
ATOM      9  N   UNL     1      20.753  39.060  -4.033  1.00  0.00    -0.217 NA
ENDROOT
BRANCH   1  10
ATOM     10  C   UNL     1      20.201  41.269  -8.348  1.00  0.00     0.006 A 
ATOM     11  C   UNL     1      19.553  43.099 -10.389  1.00  0.00     0.155 A 
ATOM     12  C   UNL     1      20.768  43.207  -9.698  1.00  0.00     0.165 A 
ATOM     13  C   UNL     1      18.682  42.033 -10.082  1.00  0.00     0.050 A 
ATOM     14  F   UNL     1      21.632  44.212  -9.992  1.00  0.00    -0.203 F 
ATOM     15  C   UNL     1      21.096  42.295  -8.690  1.00  0.00     0.053 A 
ATOM     16  C   UNL     1      19.009  41.124  -9.072  1.00  0.00     0.014 A 
BRANCH  11  17
ATOM     17  O   UNL     1      19.258  44.066 -11.365  1.00  0.00    -0.488 OA
BRANCH  17  18
ATOM     18  C   UNL     1      19.787  44.104 -12.693  1.00  0.00     0.167 C 
ATOM     19  C   UNL     1      19.635  45.523 -13.237  1.00  0.00     0.052 C 
ATOM     20  C   UNL     1      19.044  43.111 -13.594  1.00  0.00     0.052 C 
ENDBRANCH  17  18
ENDBRANCH  11  17
ENDBRANCH   1  10
BRANCH   3  21
ATOM     21  C   UNL     1      22.313  37.428  -6.106  1.00  0.00     0.174 C 
ATOM     22  C   UNL     1      21.513  36.376  -5.328  1.00  0.00     0.042 C 
BRANCH  21  23
ATOM     23  C   UNL     1      22.785  36.913  -7.453  1.00  0.00     0.140 A 
ATOM     24  C   UNL     1      24.016  36.231  -7.595  1.00  0.00     0.071 A 
ATOM     25  O   UNL     1      22.045  37.172  -8.530  1.00  0.00    -0.458 OA
ATOM     26  C   UNL     1      24.430  35.846  -8.880  1.00  0.00     0.200 A 
ATOM     27  C   UNL     1      22.400  36.821  -9.760  1.00  0.00     0.138 A 
ATOM     28  O   UNL     1      25.526  35.237  -9.035  1.00  0.00    -0.288 OA
ATOM     29  C   UNL     1      23.617  36.141  -9.986  1.00  0.00     0.068 A 
ATOM     30  C   UNL     1      21.565  37.138 -10.837  1.00  0.00     0.051 A 
ATOM     31  C   UNL     1      23.978  35.789 -11.300  1.00  0.00     0.055 A 
ATOM     32  C   UNL     1      21.933  36.786 -12.138  1.00  0.00     0.043 A 
ATOM     33  C   UNL     1      23.136  36.113 -12.370  1.00  0.00     0.124 A 
ATOM     34  F   UNL     1      23.490  35.776 -13.635  1.00  0.00    -0.207 F 
BRANCH  24  35
ATOM     35  C   UNL     1      24.869  35.934  -6.427  1.00  0.00    -0.008 A 
ATOM     36  C   UNL     1      25.283  36.966  -5.570  1.00  0.00     0.009 A 
ATOM     37  C   UNL     1      25.265  34.612  -6.169  1.00  0.00     0.048 A 
ATOM     38  C   UNL     1      26.081  36.674  -4.458  1.00  0.00     0.004 A 
ATOM     39  C   UNL     1      26.060  34.324  -5.054  1.00  0.00     0.123 A 
ATOM     40  C   UNL     1      26.466  35.354  -4.199  1.00  0.00     0.039 A 
ATOM     41  F   UNL     1      26.436  33.045  -4.799  1.00  0.00    -0.207 F 
ENDBRANCH  24  35
ENDBRANCH  21  23
ENDBRANCH   3  21
BRANCH   6  42
ATOM     42  N   UNL     1      18.492  42.191  -5.692  1.00  0.00    -0.383 N 
ATOM     43  H   UNL     1      17.465  42.150  -5.522  1.00  0.00     0.158 HD
ATOM     44  H   UNL     1      18.836  42.857  -6.417  1.00  0.00     0.158 HD
ENDBRANCH   6  42
TORSDOF 7
ENDMDL
MODEL 4
REMARK VINA RESULT:    -9.049      2.793      4.190
REMARK INTER + INTRA:         -14.068
REMARK INTER:                 -12.251
REMARK INTRA:                  -1.817
REMARK UNBOUND:                -1.581
REMARK SMILES CC(C)Oc1ccc(-c2nn([C@@H](C)c3oc4ccc(F)cc4c(=O)c3-c3cccc(F)c3)c3ncnc(N)c23)cc1F
REMARK SMILES IDX 9 1 10 2 11 3 33 4 39 5 37 6 36 7 35 8 34 9 8 10 5 11 41 12
REMARK SMILES IDX 6 13 42 14 40 15 7 16 4 17 2 18 1 19 3 20 12 21 13 22 14 23
REMARK SMILES IDX 25 24 15 25 23 26 16 27 24 28 22 29 17 30 21 31 18 32 19 33
REMARK SMILES IDX 20 34 26 35 27 36 32 37 28 38 30 39 29 40 31 41 38 42
REMARK H PARENT 38 43 38 44
REMARK Flexibility Score: inf
ROOT
ATOM      1  C   UNL     1      21.341  40.009  -7.240  1.00  0.00     0.106 A 
ATOM      2  N   UNL     1      21.084  41.106  -7.998  1.00  0.00    -0.169 NA
ATOM      3  N   UNL     1      20.285  41.912  -7.307  1.00  0.00    -0.236 N 
ATOM      4  C   UNL     1      20.031  41.335  -6.119  1.00  0.00     0.164 A 
ATOM      5  C   UNL     1      20.688  40.147  -6.018  1.00  0.00     0.089 A 
ATOM      6  C   UNL     1      20.619  39.421  -4.823  1.00  0.00     0.138 A 
ATOM      7  N   UNL     1      19.825  39.918  -3.829  1.00  0.00    -0.219 NA
ATOM      8  C   UNL     1      19.141  41.096  -3.973  1.00  0.00     0.226 A 
ATOM      9  N   UNL     1      19.257  41.825  -5.121  1.00  0.00    -0.217 NA
ENDROOT
BRANCH   1  10
ATOM     10  C   UNL     1      22.116  38.859  -7.734  1.00  0.00     0.006 A 
ATOM     11  C   UNL     1      23.596  36.647  -8.657  1.00  0.00     0.155 A 
ATOM     12  C   UNL     1      22.332  36.929  -9.193  1.00  0.00     0.165 A 
ATOM     13  C   UNL     1      24.138  37.513  -7.684  1.00  0.00     0.050 A 
ATOM     14  F   UNL     1      21.801  36.122 -10.147  1.00  0.00    -0.203 F 
ATOM     15  C   UNL     1      21.599  38.031  -8.743  1.00  0.00     0.053 A 
ATOM     16  C   UNL     1      23.402  38.613  -7.232  1.00  0.00     0.014 A 
BRANCH  11  17
ATOM     17  O   UNL     1      24.272  35.505  -9.118  1.00  0.00    -0.488 OA
BRANCH  17  18
ATOM     18  C   UNL     1      25.638  35.175  -8.853  1.00  0.00     0.167 C 
ATOM     19  C   UNL     1      26.175  34.350 -10.021  1.00  0.00     0.052 C 
ATOM     20  C   UNL     1      25.753  34.380  -7.548  1.00  0.00     0.052 C 
ENDBRANCH  17  18
ENDBRANCH  11  17
ENDBRANCH   1  10
BRANCH   3  21
ATOM     21  C   UNL     1      19.816  43.212  -7.797  1.00  0.00     0.174 C 
ATOM     22  C   UNL     1      20.938  43.939  -8.547  1.00  0.00     0.042 C 
BRANCH  21  23
ATOM     23  C   UNL     1      18.578  43.023  -8.654  1.00  0.00     0.140 A 
ATOM     24  C   UNL     1      17.324  43.556  -8.271  1.00  0.00     0.071 A 
ATOM     25  O   UNL     1      18.672  42.282  -9.757  1.00  0.00    -0.458 OA
ATOM     26  C   UNL     1      16.202  43.283  -9.070  1.00  0.00     0.200 A 
ATOM     27  C   UNL     1      17.636  42.004 -10.539  1.00  0.00     0.138 A 
ATOM     28  O   UNL     1      15.071  43.745  -8.750  1.00  0.00    -0.288 OA
ATOM     29  C   UNL     1      16.350  42.495 -10.223  1.00  0.00     0.068 A 
ATOM     30  C   UNL     1      17.823  41.213 -11.677  1.00  0.00     0.051 A 
ATOM     31  C   UNL     1      15.265  42.180 -11.062  1.00  0.00     0.055 A 
ATOM     32  C   UNL     1      16.738  40.902 -12.502  1.00  0.00     0.043 A 
ATOM     33  C   UNL     1      15.462  41.384 -12.196  1.00  0.00     0.124 A 
ATOM     34  F   UNL     1      14.413  41.078 -12.999  1.00  0.00    -0.207 F 
BRANCH  24  35
ATOM     35  C   UNL     1      17.177  44.374  -7.051  1.00  0.00    -0.008 A 
ATOM     36  C   UNL     1      16.714  43.794  -5.860  1.00  0.00     0.009 A 
ATOM     37  C   UNL     1      17.507  45.739  -7.080  1.00  0.00     0.048 A 
ATOM     38  C   UNL     1      16.589  44.573  -4.705  1.00  0.00     0.004 A 
ATOM     39  C   UNL     1      17.385  46.514  -5.922  1.00  0.00     0.123 A 
ATOM     40  C   UNL     1      16.927  45.931  -4.735  1.00  0.00     0.039 A 
ATOM     41  F   UNL     1      17.712  47.831  -5.947  1.00  0.00    -0.207 F 
ENDBRANCH  24  35
ENDBRANCH  21  23
ENDBRANCH   3  21
BRANCH   6  42
ATOM     42  N   UNL     1      21.409  38.256  -4.578  1.00  0.00    -0.383 N 
ATOM     43  H   UNL     1      21.043  37.509  -3.950  1.00  0.00     0.158 HD
ATOM     44  H   UNL     1      22.415  38.211  -4.847  1.00  0.00     0.158 HD
ENDBRANCH   6  42
TORSDOF 7
ENDMDL
MODEL 5
REMARK VINA RESULT:    -9.022      3.128      5.961
REMARK INTER + INTRA:         -14.031
REMARK INTER:                 -12.320
REMARK INTRA:                  -1.711
REMARK UNBOUND:                -1.581
REMARK SMILES CC(C)Oc1ccc(-c2nn([C@@H](C)c3oc4ccc(F)cc4c(=O)c3-c3cccc(F)c3)c3ncnc(N)c23)cc1F
REMARK SMILES IDX 9 1 10 2 11 3 33 4 39 5 37 6 36 7 35 8 34 9 8 10 5 11 41 12
REMARK SMILES IDX 6 13 42 14 40 15 7 16 4 17 2 18 1 19 3 20 12 21 13 22 14 23
REMARK SMILES IDX 25 24 15 25 23 26 16 27 24 28 22 29 17 30 21 31 18 32 19 33
REMARK SMILES IDX 20 34 26 35 27 36 32 37 28 38 30 39 29 40 31 41 38 42
REMARK H PARENT 38 43 38 44
REMARK Flexibility Score: inf
ROOT
ATOM      1  C   UNL     1      21.007  39.007  -9.072  1.00  0.00     0.106 A 
ATOM      2  N   UNL     1      20.331  40.151  -8.794  1.00  0.00    -0.169 NA
ATOM      3  N   UNL     1      19.648  40.505  -9.877  1.00  0.00    -0.236 N 
ATOM      4  C   UNL     1      19.887  39.597 -10.841  1.00  0.00     0.164 A 
ATOM      5  C   UNL     1      20.719  38.623 -10.379  1.00  0.00     0.089 A 
ATOM      6  C   UNL     1      21.032  37.537 -11.205  1.00  0.00     0.138 A 
ATOM      7  N   UNL     1      20.535  37.547 -12.476  1.00  0.00    -0.219 NA
ATOM      8  C   UNL     1      19.734  38.563 -12.929  1.00  0.00     0.226 A 
ATOM      9  N   UNL     1      19.389  39.591 -12.101  1.00  0.00    -0.217 NA
ENDROOT
BRANCH   1  10
ATOM     10  C   UNL     1      21.947  38.383  -8.126  1.00  0.00     0.006 A 
ATOM     11  C   UNL     1      23.746  37.210  -6.303  1.00  0.00     0.155 A 
ATOM     12  C   UNL     1      22.438  36.720  -6.425  1.00  0.00     0.165 A 
ATOM     13  C   UNL     1      24.164  38.266  -7.140  1.00  0.00     0.050 A 
ATOM     14  F   UNL     1      22.021  35.690  -5.646  1.00  0.00    -0.203 F 
ATOM     15  C   UNL     1      21.546  37.295  -7.335  1.00  0.00     0.053 A 
ATOM     16  C   UNL     1      23.269  38.843  -8.047  1.00  0.00     0.014 A 
BRANCH  11  17
ATOM     17  O   UNL     1      24.588  36.620  -5.345  1.00  0.00    -0.488 OA
BRANCH  17  18
ATOM     18  C   UNL     1      25.862  36.023  -5.603  1.00  0.00     0.167 C 
ATOM     19  C   UNL     1      25.652  34.543  -5.913  1.00  0.00     0.052 C 
ATOM     20  C   UNL     1      26.784  36.184  -4.389  1.00  0.00     0.052 C 
ENDBRANCH  17  18
ENDBRANCH  11  17
ENDBRANCH   1  10
BRANCH   3  21
ATOM     21  C   UNL     1      18.775  41.681  -9.944  1.00  0.00     0.174 C 
ATOM     22  C   UNL     1      17.307  41.252 -10.060  1.00  0.00     0.042 C 
BRANCH  21  23
ATOM     23  C   UNL     1      19.021  42.574  -8.742  1.00  0.00     0.140 A 
ATOM     24  C   UNL     1      19.598  43.858  -8.880  1.00  0.00     0.071 A 
ATOM     25  O   UNL     1      18.742  42.102  -7.528  1.00  0.00    -0.458 OA
ATOM     26  C   UNL     1      19.868  44.605  -7.722  1.00  0.00     0.200 A 
ATOM     27  C   UNL     1      18.980  42.778  -6.411  1.00  0.00     0.138 A 
ATOM     28  O   UNL     1      20.385  45.754  -7.817  1.00  0.00    -0.288 OA
ATOM     29  C   UNL     1      19.559  44.065  -6.463  1.00  0.00     0.068 A 
ATOM     30  C   UNL     1      18.662  42.204  -5.175  1.00  0.00     0.051 A 
ATOM     31  C   UNL     1      19.811  44.759  -5.266  1.00  0.00     0.055 A 
ATOM     32  C   UNL     1      18.918  42.899  -3.990  1.00  0.00     0.043 A 
ATOM     33  C   UNL     1      19.491  44.174  -4.034  1.00  0.00     0.124 A 
ATOM     34  F   UNL     1      19.740  44.844  -2.882  1.00  0.00    -0.207 F 
BRANCH  24  35
ATOM     35  C   UNL     1      19.930  44.413 -10.207  1.00  0.00    -0.008 A 
ATOM     36  C   UNL     1      18.941  45.042 -10.980  1.00  0.00     0.009 A 
ATOM     37  C   UNL     1      21.242  44.316 -10.699  1.00  0.00     0.048 A 
ATOM     38  C   UNL     1      19.266  45.576 -12.232  1.00  0.00     0.004 A 
ATOM     39  C   UNL     1      21.563  44.855 -11.949  1.00  0.00     0.123 A 
ATOM     40  C   UNL     1      20.576  45.486 -12.714  1.00  0.00     0.039 A 
ATOM     41  F   UNL     1      22.833  44.770 -12.420  1.00  0.00    -0.207 F 
ENDBRANCH  24  35
ENDBRANCH  21  23
ENDBRANCH   3  21
BRANCH   6  42
ATOM     42  N   UNL     1      21.758  36.396 -10.741  1.00  0.00    -0.383 N 
ATOM     43  H   UNL     1      22.724  36.517 -10.369  1.00  0.00     0.158 HD
ATOM     44  H   UNL     1      21.435  35.425 -10.940  1.00  0.00     0.158 HD
ENDBRANCH   6  42
TORSDOF 7
ENDMDL
MODEL 6
REMARK VINA RESULT:    -8.893      2.901      5.673
REMARK INTER + INTRA:         -13.853
REMARK INTER:                 -13.156
REMARK INTRA:                  -0.697
REMARK UNBOUND:                -1.581
REMARK SMILES CC(C)Oc1ccc(-c2nn([C@@H](C)c3oc4ccc(F)cc4c(=O)c3-c3cccc(F)c3)c3ncnc(N)c23)cc1F
REMARK SMILES IDX 9 1 10 2 11 3 33 4 39 5 37 6 36 7 35 8 34 9 8 10 5 11 41 12
REMARK SMILES IDX 6 13 42 14 40 15 7 16 4 17 2 18 1 19 3 20 12 21 13 22 14 23
REMARK SMILES IDX 25 24 15 25 23 26 16 27 24 28 22 29 17 30 21 31 18 32 19 33
REMARK SMILES IDX 20 34 26 35 27 36 32 37 28 38 30 39 29 40 31 41 38 42
REMARK H PARENT 38 43 38 44
REMARK Flexibility Score: inf
ROOT
ATOM      1  C   UNL     1      21.461  38.224  -9.396  1.00  0.00     0.106 A 
ATOM      2  N   UNL     1      21.010  39.487  -9.182  1.00  0.00    -0.169 NA
ATOM      3  N   UNL     1      20.378  39.895 -10.277  1.00  0.00    -0.236 N 
ATOM      4  C   UNL     1      20.427  38.904 -11.185  1.00  0.00     0.164 A 
ATOM      5  C   UNL     1      21.078  37.823 -10.673  1.00  0.00     0.089 A 
ATOM      6  C   UNL     1      21.171  36.652 -11.434  1.00  0.00     0.138 A 
ATOM      7  N   UNL     1      20.654  36.678 -12.698  1.00  0.00    -0.219 NA
ATOM      8  C   UNL     1      20.041  37.794 -13.203  1.00  0.00     0.226 A 
ATOM      9  N   UNL     1      19.907  38.915 -12.436  1.00  0.00    -0.217 NA
ENDROOT
BRANCH   1  10
ATOM     10  C   UNL     1      22.293  37.496  -8.424  1.00  0.00     0.006 A 
ATOM     11  C   UNL     1      23.901  36.122  -6.563  1.00  0.00     0.155 A 
ATOM     12  C   UNL     1      22.593  36.501  -6.229  1.00  0.00     0.165 A 
ATOM     13  C   UNL     1      24.383  36.395  -7.860  1.00  0.00     0.050 A 
ATOM     14  F   UNL     1      22.099  36.229  -4.994  1.00  0.00    -0.203 F 
ATOM     15  C   UNL     1      21.790  37.175  -7.153  1.00  0.00     0.053 A 
ATOM     16  C   UNL     1      23.581  37.073  -8.783  1.00  0.00     0.014 A 
BRANCH  11  17
ATOM     17  O   UNL     1      24.676  35.481  -5.582  1.00  0.00    -0.488 OA
BRANCH  17  18
ATOM     18  C   UNL     1      26.093  35.296  -5.623  1.00  0.00     0.167 C 
ATOM     19  C   UNL     1      26.393  33.803  -5.511  1.00  0.00     0.052 C 
ATOM     20  C   UNL     1      26.765  36.058  -4.474  1.00  0.00     0.052 C 
ENDBRANCH  17  18
ENDBRANCH  11  17
ENDBRANCH   1  10
BRANCH   3  21
ATOM     21  C   UNL     1      19.732  41.205 -10.406  1.00  0.00     0.174 C 
ATOM     22  C   UNL     1      18.376  41.066 -11.107  1.00  0.00     0.042 C 
BRANCH  21  23
ATOM     23  C   UNL     1      19.612  41.857  -9.042  1.00  0.00     0.140 A 
ATOM     24  C   UNL     1      19.752  43.255  -8.874  1.00  0.00     0.071 A 
ATOM     25  O   UNL     1      19.434  41.078  -7.975  1.00  0.00    -0.458 OA
ATOM     26  C   UNL     1      19.703  43.787  -7.575  1.00  0.00     0.200 A 
ATOM     27  C   UNL     1      19.380  41.543  -6.733  1.00  0.00     0.138 A 
ATOM     28  O   UNL     1      19.827  45.032  -7.398  1.00  0.00    -0.288 OA
ATOM     29  C   UNL     1      19.516  42.927  -6.482  1.00  0.00     0.068 A 
ATOM     30  C   UNL     1      19.196  40.653  -5.669  1.00  0.00     0.051 A 
ATOM     31  C   UNL     1      19.465  43.396  -5.156  1.00  0.00     0.055 A 
ATOM     32  C   UNL     1      19.151  41.128  -4.356  1.00  0.00     0.043 A 
ATOM     33  C   UNL     1      19.284  42.496  -4.099  1.00  0.00     0.124 A 
ATOM     34  F   UNL     1      19.241  42.952  -2.823  1.00  0.00    -0.207 F 
BRANCH  24  35
ATOM     35  C   UNL     1      19.959  44.150 -10.029  1.00  0.00    -0.008 A 
ATOM     36  C   UNL     1      21.257  44.437 -10.480  1.00  0.00     0.009 A 
ATOM     37  C   UNL     1      18.852  44.714 -10.684  1.00  0.00     0.048 A 
ATOM     38  C   UNL     1      21.444  45.277 -11.583  1.00  0.00     0.004 A 
ATOM     39  C   UNL     1      19.044  45.551 -11.789  1.00  0.00     0.123 A 
ATOM     40  C   UNL     1      20.339  45.830 -12.239  1.00  0.00     0.039 A 
ATOM     41  F   UNL     1      17.974  46.089 -12.428  1.00  0.00    -0.207 F 
ENDBRANCH  24  35
ENDBRANCH  21  23
ENDBRANCH   3  21
BRANCH   6  42
ATOM     42  N   UNL     1      21.687  35.427 -10.909  1.00  0.00    -0.383 N 
ATOM     43  H   UNL     1      21.421  34.523 -11.355  1.00  0.00     0.158 HD
ATOM     44  H   UNL     1      22.163  35.387  -9.982  1.00  0.00     0.158 HD
ENDBRANCH   6  42
TORSDOF 7
ENDMDL
MODEL 7
REMARK VINA RESULT:    -8.702      5.043      8.735
REMARK INTER + INTRA:         -13.590
REMARK INTER:                 -11.529
REMARK INTRA:                  -2.061
REMARK UNBOUND:                -1.581
REMARK SMILES CC(C)Oc1ccc(-c2nn([C@@H](C)c3oc4ccc(F)cc4c(=O)c3-c3cccc(F)c3)c3ncnc(N)c23)cc1F
REMARK SMILES IDX 9 1 10 2 11 3 33 4 39 5 37 6 36 7 35 8 34 9 8 10 5 11 41 12
REMARK SMILES IDX 6 13 42 14 40 15 7 16 4 17 2 18 1 19 3 20 12 21 13 22 14 23
REMARK SMILES IDX 25 24 15 25 23 26 16 27 24 28 22 29 17 30 21 31 18 32 19 33
REMARK SMILES IDX 20 34 26 35 27 36 32 37 28 38 30 39 29 40 31 41 38 42
REMARK H PARENT 38 43 38 44
REMARK Flexibility Score: inf
ROOT
ATOM      1  C   UNL     1      22.940  39.323 -14.212  1.00  0.00     0.106 A 
ATOM      2  N   UNL     1      22.443  38.353 -13.404  1.00  0.00    -0.169 NA
ATOM      3  N   UNL     1      21.547  38.904 -12.593  1.00  0.00    -0.236 N 
ATOM      4  C   UNL     1      21.473  40.217 -12.878  1.00  0.00     0.164 A 
ATOM      5  C   UNL     1      22.314  40.528 -13.903  1.00  0.00     0.089 A 
ATOM      6  C   UNL     1      22.332  41.833 -14.407  1.00  0.00     0.138 A 
ATOM      7  N   UNL     1      21.542  42.760 -13.787  1.00  0.00    -0.219 NA
ATOM      8  C   UNL     1      20.737  42.428 -12.730  1.00  0.00     0.226 A 
ATOM      9  N   UNL     1      20.684  41.142 -12.279  1.00  0.00    -0.217 NA
ENDROOT
BRANCH   1  10
ATOM     10  C   UNL     1      24.031  39.084 -15.172  1.00  0.00     0.006 A 
ATOM     11  C   UNL     1      26.108  38.644 -17.023  1.00  0.00     0.155 A 
ATOM     12  C   UNL     1      26.378  39.233 -15.780  1.00  0.00     0.165 A 
ATOM     13  C   UNL     1      24.791  38.230 -17.315  1.00  0.00     0.050 A 
ATOM     14  F   UNL     1      27.642  39.619 -15.469  1.00  0.00    -0.203 F 
ATOM     15  C   UNL     1      25.350  39.445 -14.855  1.00  0.00     0.053 A 
ATOM     16  C   UNL     1      23.764  38.446 -16.391  1.00  0.00     0.014 A 
BRANCH  11  17
ATOM     17  O   UNL     1      27.172  38.490 -17.928  1.00  0.00    -0.488 OA
BRANCH  17  18
ATOM     18  C   UNL     1      27.300  39.151 -19.190  1.00  0.00     0.167 C 
ATOM     19  C   UNL     1      28.709  38.906 -19.726  1.00  0.00     0.052 C 
ATOM     20  C   UNL     1      27.049  40.655 -19.034  1.00  0.00     0.052 C 
ENDBRANCH  17  18
ENDBRANCH  11  17
ENDBRANCH   1  10
BRANCH   3  21
ATOM     21  C   UNL     1      20.778  38.155 -11.595  1.00  0.00     0.174 C 
ATOM     22  C   UNL     1      20.071  36.961 -12.249  1.00  0.00     0.042 C 
BRANCH  21  23
ATOM     23  C   UNL     1      21.685  37.733 -10.455  1.00  0.00     0.140 A 
ATOM     24  C   UNL     1      21.778  38.489  -9.263  1.00  0.00     0.071 A 
ATOM     25  O   UNL     1      22.457  36.658 -10.618  1.00  0.00    -0.458 OA
ATOM     26  C   UNL     1      22.692  38.085  -8.276  1.00  0.00     0.200 A 
ATOM     27  C   UNL     1      23.330  36.244  -9.708  1.00  0.00     0.138 A 
ATOM     28  O   UNL     1      22.795  38.744  -7.203  1.00  0.00    -0.288 OA
ATOM     29  C   UNL     1      23.485  36.947  -8.493  1.00  0.00     0.068 A 
ATOM     30  C   UNL     1      24.106  35.108  -9.962  1.00  0.00     0.051 A 
ATOM     31  C   UNL     1      24.424  36.495  -7.548  1.00  0.00     0.055 A 
ATOM     32  C   UNL     1      25.038  34.668  -9.019  1.00  0.00     0.043 A 
ATOM     33  C   UNL     1      25.197  35.359  -7.814  1.00  0.00     0.124 A 
ATOM     34  F   UNL     1      26.105  34.929  -6.903  1.00  0.00    -0.207 F 
BRANCH  24  35
ATOM     35  C   UNL     1      20.947  39.690  -9.049  1.00  0.00    -0.008 A 
ATOM     36  C   UNL     1      19.557  39.572  -8.890  1.00  0.00     0.009 A 
ATOM     37  C   UNL     1      21.549  40.958  -8.999  1.00  0.00     0.048 A 
ATOM     38  C   UNL     1      18.778  40.714  -8.675  1.00  0.00     0.004 A 
ATOM     39  C   UNL     1      20.767  42.097  -8.780  1.00  0.00     0.123 A 
ATOM     40  C   UNL     1      19.383  41.974  -8.617  1.00  0.00     0.039 A 
ATOM     41  F   UNL     1      21.350  43.322  -8.722  1.00  0.00    -0.207 F 
ENDBRANCH  24  35
ENDBRANCH  21  23
ENDBRANCH   3  21
BRANCH   6  42
ATOM     42  N   UNL     1      23.058  42.200 -15.582  1.00  0.00    -0.383 N 
ATOM     43  H   UNL     1      22.688  42.952 -16.202  1.00  0.00     0.158 HD
ATOM     44  H   UNL     1      23.839  41.614 -15.947  1.00  0.00     0.158 HD
ENDBRANCH   6  42
TORSDOF 7
ENDMDL
MODEL 8
REMARK VINA RESULT:    -8.701      3.351      6.594
REMARK INTER + INTRA:         -13.588
REMARK INTER:                 -12.203
REMARK INTRA:                  -1.385
REMARK UNBOUND:                -1.581
REMARK SMILES CC(C)Oc1ccc(-c2nn([C@@H](C)c3oc4ccc(F)cc4c(=O)c3-c3cccc(F)c3)c3ncnc(N)c23)cc1F
REMARK SMILES IDX 9 1 10 2 11 3 33 4 39 5 37 6 36 7 35 8 34 9 8 10 5 11 41 12
REMARK SMILES IDX 6 13 42 14 40 15 7 16 4 17 2 18 1 19 3 20 12 21 13 22 14 23
REMARK SMILES IDX 25 24 15 25 23 26 16 27 24 28 22 29 17 30 21 31 18 32 19 33
REMARK SMILES IDX 20 34 26 35 27 36 32 37 28 38 30 39 29 40 31 41 38 42
REMARK H PARENT 38 43 38 44
REMARK Flexibility Score: inf
ROOT
ATOM      1  C   UNL     1      20.414  41.145  -7.100  1.00  0.00     0.106 A 
ATOM      2  N   UNL     1      20.289  42.372  -6.533  1.00  0.00    -0.169 NA
ATOM      3  N   UNL     1      19.631  43.158  -7.379  1.00  0.00    -0.236 N 
ATOM      4  C   UNL     1      19.342  42.441  -8.480  1.00  0.00     0.164 A 
ATOM      5  C   UNL     1      19.793  41.163  -8.346  1.00  0.00     0.089 A 
ATOM      6  C   UNL     1      19.524  40.229  -9.354  1.00  0.00     0.138 A 
ATOM      7  N   UNL     1      18.871  40.673 -10.468  1.00  0.00    -0.219 NA
ATOM      8  C   UNL     1      18.465  41.976 -10.594  1.00  0.00     0.226 A 
ATOM      9  N   UNL     1      18.683  42.868  -9.585  1.00  0.00    -0.217 NA
ENDROOT
BRANCH   1  10
ATOM     10  C   UNL     1      21.178  40.051  -6.479  1.00  0.00     0.006 A 
ATOM     11  C   UNL     1      22.622  37.941  -5.297  1.00  0.00     0.155 A 
ATOM     12  C   UNL     1      23.090  38.552  -6.469  1.00  0.00     0.165 A 
ATOM     13  C   UNL     1      21.445  38.429  -4.691  1.00  0.00     0.050 A 
ATOM     14  F   UNL     1      24.232  38.114  -7.056  1.00  0.00    -0.203 F 
ATOM     15  C   UNL     1      22.380  39.605  -7.053  1.00  0.00     0.053 A 
ATOM     16  C   UNL     1      20.734  39.479  -5.279  1.00  0.00     0.014 A 
BRANCH  11  17
ATOM     17  O   UNL     1      23.355  36.862  -4.774  1.00  0.00    -0.488 OA
BRANCH  17  18
ATOM     18  C   UNL     1      24.488  36.960  -3.908  1.00  0.00     0.167 C 
ATOM     19  C   UNL     1      24.636  38.413  -3.463  1.00  0.00     0.052 C 
ATOM     20  C   UNL     1      25.758  36.497  -4.633  1.00  0.00     0.052 C 
ENDBRANCH  17  18
ENDBRANCH  11  17
ENDBRANCH   1  10
BRANCH   3  21
ATOM     21  C   UNL     1      19.283  44.553  -7.095  1.00  0.00     0.174 C 
ATOM     22  C   UNL     1      19.696  45.456  -8.263  1.00  0.00     0.042 C 
BRANCH  21  23
ATOM     23  C   UNL     1      17.804  44.661  -6.778  1.00  0.00     0.140 A 
ATOM     24  C   UNL     1      17.343  44.879  -5.458  1.00  0.00     0.071 A 
ATOM     25  O   UNL     1      16.925  44.481  -7.763  1.00  0.00    -0.458 OA
ATOM     26  C   UNL     1      15.959  44.896  -5.220  1.00  0.00     0.200 A 
ATOM     27  C   UNL     1      15.611  44.492  -7.579  1.00  0.00     0.138 A 
ATOM     28  O   UNL     1      15.522  45.087  -4.050  1.00  0.00    -0.288 OA
ATOM     29  C   UNL     1      15.071  44.699  -6.290  1.00  0.00     0.068 A 
ATOM     30  C   UNL     1      14.758  44.288  -8.669  1.00  0.00     0.051 A 
ATOM     31  C   UNL     1      13.675  44.697  -6.117  1.00  0.00     0.055 A 
ATOM     32  C   UNL     1      13.373  44.284  -8.487  1.00  0.00     0.043 A 
ATOM     33  C   UNL     1      12.831  44.488  -7.214  1.00  0.00     0.124 A 
ATOM     34  F   UNL     1      11.487  44.482  -7.042  1.00  0.00    -0.207 F 
BRANCH  24  35
ATOM     35  C   UNL     1      18.285  45.075  -4.339  1.00  0.00    -0.008 A 
ATOM     36  C   UNL     1      18.878  46.329  -4.122  1.00  0.00     0.009 A 
ATOM     37  C   UNL     1      18.586  44.003  -3.482  1.00  0.00     0.048 A 
ATOM     38  C   UNL     1      19.760  46.509  -3.050  1.00  0.00     0.004 A 
ATOM     39  C   UNL     1      19.465  44.189  -2.410  1.00  0.00     0.123 A 
ATOM     40  C   UNL     1      20.050  45.441  -2.194  1.00  0.00     0.039 A 
ATOM     41  F   UNL     1      19.749  43.156  -1.577  1.00  0.00    -0.207 F 
ENDBRANCH  24  35
ENDBRANCH  21  23
ENDBRANCH   3  21
BRANCH   6  42
ATOM     42  N   UNL     1      19.815  38.837  -9.216  1.00  0.00    -0.383 N 
ATOM     43  H   UNL     1      20.316  38.337  -9.982  1.00  0.00     0.158 HD
ATOM     44  H   UNL     1      19.378  38.258  -8.468  1.00  0.00     0.158 HD
ENDBRANCH   6  42
TORSDOF 7
ENDMDL
MODEL 9
REMARK VINA RESULT:    -8.649      2.795      4.984
REMARK INTER + INTRA:         -13.516
REMARK INTER:                 -11.881
REMARK INTRA:                  -1.635
REMARK UNBOUND:                -1.581
REMARK SMILES CC(C)Oc1ccc(-c2nn([C@@H](C)c3oc4ccc(F)cc4c(=O)c3-c3cccc(F)c3)c3ncnc(N)c23)cc1F
REMARK SMILES IDX 9 1 10 2 11 3 33 4 39 5 37 6 36 7 35 8 34 9 8 10 5 11 41 12
REMARK SMILES IDX 6 13 42 14 40 15 7 16 4 17 2 18 1 19 3 20 12 21 13 22 14 23
REMARK SMILES IDX 25 24 15 25 23 26 16 27 24 28 22 29 17 30 21 31 18 32 19 33
REMARK SMILES IDX 20 34 26 35 27 36 32 37 28 38 30 39 29 40 31 41 38 42
REMARK H PARENT 38 43 38 44
REMARK Flexibility Score: inf
ROOT
ATOM      1  C   UNL     1      21.433  38.836  -9.540  1.00  0.00     0.106 A 
ATOM      2  N   UNL     1      21.184  40.169  -9.469  1.00  0.00    -0.169 NA
ATOM      3  N   UNL     1      20.588  40.543 -10.597  1.00  0.00    -0.236 N 
ATOM      4  C   UNL     1      20.461  39.459 -11.384  1.00  0.00     0.164 A 
ATOM      5  C   UNL     1      20.957  38.356 -10.758  1.00  0.00     0.089 A 
ATOM      6  C   UNL     1      20.849  37.106 -11.377  1.00  0.00     0.138 A 
ATOM      7  N   UNL     1      20.305  37.067 -12.630  1.00  0.00    -0.219 NA
ATOM      8  C   UNL     1      19.852  38.200 -13.254  1.00  0.00     0.226 A 
ATOM      9  N   UNL     1      19.911  39.407 -12.621  1.00  0.00    -0.217 NA
ENDROOT
BRANCH   1  10
ATOM     10  C   UNL     1      22.175  38.104  -8.501  1.00  0.00     0.006 A 
ATOM     11  C   UNL     1      23.602  36.725  -6.502  1.00  0.00     0.155 A 
ATOM     12  C   UNL     1      22.200  36.694  -6.523  1.00  0.00     0.165 A 
ATOM     13  C   UNL     1      24.289  37.415  -7.522  1.00  0.00     0.050 A 
ATOM     14  F   UNL     1      21.519  36.018  -5.563  1.00  0.00    -0.203 F 
ATOM     15  C   UNL     1      21.489  37.371  -7.519  1.00  0.00     0.053 A 
ATOM     16  C   UNL     1      23.577  38.094  -8.515  1.00  0.00     0.014 A 
BRANCH  11  17
ATOM     17  O   UNL     1      24.263  36.059  -5.456  1.00  0.00    -0.488 OA
BRANCH  17  18
ATOM     18  C   UNL     1      25.634  35.653  -5.455  1.00  0.00     0.167 C 
ATOM     19  C   UNL     1      25.743  34.306  -6.168  1.00  0.00     0.052 C 
ATOM     20  C   UNL     1      26.157  35.534  -4.019  1.00  0.00     0.052 C 
ENDBRANCH  17  18
ENDBRANCH  11  17
ENDBRANCH   1  10
BRANCH   3  21
ATOM     21  C   UNL     1      20.143  41.912 -10.869  1.00  0.00     0.174 C 
ATOM     22  C   UNL     1      20.784  42.437 -12.159  1.00  0.00     0.042 C 
BRANCH  21  23
ATOM     23  C   UNL     1      18.627  41.961 -10.919  1.00  0.00     0.140 A 
ATOM     24  C   UNL     1      17.861  42.320  -9.785  1.00  0.00     0.071 A 
ATOM     25  O   UNL     1      18.013  41.592 -12.042  1.00  0.00    -0.458 OA
ATOM     26  C   UNL     1      16.460  42.274  -9.875  1.00  0.00     0.200 A 
ATOM     27  C   UNL     1      16.693  41.538 -12.167  1.00  0.00     0.138 A 
ATOM     28  O   UNL     1      15.752  42.589  -8.877  1.00  0.00    -0.288 OA
ATOM     29  C   UNL     1      15.857  41.877 -11.079  1.00  0.00     0.068 A 
ATOM     30  C   UNL     1      16.130  41.134 -13.382  1.00  0.00     0.051 A 
ATOM     31  C   UNL     1      14.460  41.804 -11.232  1.00  0.00     0.055 A 
ATOM     32  C   UNL     1      14.741  41.061 -13.524  1.00  0.00     0.043 A 
ATOM     33  C   UNL     1      13.908  41.395 -12.452  1.00  0.00     0.124 A 
ATOM     34  F   UNL     1      12.562  41.320 -12.593  1.00  0.00    -0.207 F 
BRANCH  24  35
ATOM     35  C   UNL     1      18.504  42.726  -8.520  1.00  0.00    -0.008 A 
ATOM     36  C   UNL     1      18.772  44.079  -8.263  1.00  0.00     0.009 A 
ATOM     37  C   UNL     1      18.845  41.754  -7.565  1.00  0.00     0.048 A 
ATOM     38  C   UNL     1      19.370  44.457  -7.056  1.00  0.00     0.004 A 
ATOM     39  C   UNL     1      19.440  42.136  -6.358  1.00  0.00     0.123 A 
ATOM     40  C   UNL     1      19.700  43.487  -6.104  1.00  0.00     0.039 A 
ATOM     41  F   UNL     1      19.761  41.198  -5.431  1.00  0.00    -0.207 F 
ENDBRANCH  24  35
ENDBRANCH  21  23
ENDBRANCH   3  21
BRANCH   6  42
ATOM     42  N   UNL     1      21.191  35.884 -10.720  1.00  0.00    -0.383 N 
ATOM     43  H   UNL     1      20.950  34.974 -11.168  1.00  0.00     0.158 HD
ATOM     44  H   UNL     1      21.497  35.867  -9.724  1.00  0.00     0.158 HD
ENDBRANCH   6  42
TORSDOF 7
ENDMDL
MODEL 10
REMARK VINA RESULT:    -8.604      3.520      5.587
REMARK INTER + INTRA:         -13.454
REMARK INTER:                 -11.468
REMARK INTRA:                  -1.986
REMARK UNBOUND:                -1.581
REMARK SMILES CC(C)Oc1ccc(-c2nn([C@@H](C)c3oc4ccc(F)cc4c(=O)c3-c3cccc(F)c3)c3ncnc(N)c23)cc1F
REMARK SMILES IDX 9 1 10 2 11 3 33 4 39 5 37 6 36 7 35 8 34 9 8 10 5 11 41 12
REMARK SMILES IDX 6 13 42 14 40 15 7 16 4 17 2 18 1 19 3 20 12 21 13 22 14 23
REMARK SMILES IDX 25 24 15 25 23 26 16 27 24 28 22 29 17 30 21 31 18 32 19 33
REMARK SMILES IDX 20 34 26 35 27 36 32 37 28 38 30 39 29 40 31 41 38 42
REMARK H PARENT 38 43 38 44
REMARK Flexibility Score: inf
ROOT
ATOM      1  C   UNL     1      20.486  40.637  -6.651  1.00  0.00     0.106 A 
ATOM      2  N   UNL     1      20.190  41.689  -5.847  1.00  0.00    -0.169 NA
ATOM      3  N   UNL     1      19.288  42.445  -6.464  1.00  0.00    -0.236 N 
ATOM      4  C   UNL     1      19.011  41.882  -7.655  1.00  0.00     0.164 A 
ATOM      5  C   UNL     1      19.723  40.732  -7.812  1.00  0.00     0.089 A 
ATOM      6  C   UNL     1      19.521  39.949  -8.955  1.00  0.00     0.138 A 
ATOM      7  N   UNL     1      18.658  40.424  -9.900  1.00  0.00    -0.219 NA
ATOM      8  C   UNL     1      17.987  41.607  -9.735  1.00  0.00     0.226 A 
ATOM      9  N   UNL     1      18.148  42.338  -8.594  1.00  0.00    -0.217 NA
ENDROOT
BRANCH   1  10
ATOM     10  C   UNL     1      21.525  39.647  -6.324  1.00  0.00     0.006 A 
ATOM     11  C   UNL     1      23.526  37.770  -5.685  1.00  0.00     0.155 A 
ATOM     12  C   UNL     1      22.230  37.631  -5.166  1.00  0.00     0.165 A 
ATOM     13  C   UNL     1      23.801  38.834  -6.569  1.00  0.00     0.050 A 
ATOM     14  F   UNL     1      21.937  36.602  -4.331  1.00  0.00    -0.203 F 
ATOM     15  C   UNL     1      21.233  38.556  -5.489  1.00  0.00     0.053 A 
ATOM     16  C   UNL     1      22.804  39.760  -6.887  1.00  0.00     0.014 A 
BRANCH  11  17
ATOM     17  O   UNL     1      24.498  36.833  -5.297  1.00  0.00    -0.488 OA
BRANCH  17  18
ATOM     18  C   UNL     1      25.500  36.265  -6.144  1.00  0.00     0.167 C 
ATOM     19  C   UNL     1      24.820  35.332  -7.144  1.00  0.00     0.052 C 
ATOM     20  C   UNL     1      26.528  35.489  -5.312  1.00  0.00     0.052 C 
ENDBRANCH  17  18
ENDBRANCH  11  17
ENDBRANCH   1  10
BRANCH   3  21
ATOM     21  C   UNL     1      18.707  43.660  -5.885  1.00  0.00     0.174 C 
ATOM     22  C   UNL     1      19.259  43.898  -4.475  1.00  0.00     0.042 C 
BRANCH  21  23
ATOM     23  C   UNL     1      18.953  44.839  -6.807  1.00  0.00     0.140 A 
ATOM     24  C   UNL     1      17.898  45.677  -7.236  1.00  0.00     0.071 A 
ATOM     25  O   UNL     1      20.187  45.041  -7.269  1.00  0.00    -0.458 OA
ATOM     26  C   UNL     1      18.181  46.707  -8.147  1.00  0.00     0.200 A 
ATOM     27  C   UNL     1      20.494  46.005  -8.128  1.00  0.00     0.138 A 
ATOM     28  O   UNL     1      17.255  47.469  -8.547  1.00  0.00    -0.288 OA
ATOM     29  C   UNL     1      19.496  46.881  -8.608  1.00  0.00     0.068 A 
ATOM     30  C   UNL     1      21.816  46.143  -8.567  1.00  0.00     0.051 A 
ATOM     31  C   UNL     1      19.843  47.889  -9.526  1.00  0.00     0.055 A 
ATOM     32  C   UNL     1      22.151  47.145  -9.482  1.00  0.00     0.043 A 
ATOM     33  C   UNL     1      21.168  48.016  -9.961  1.00  0.00     0.124 A 
ATOM     34  F   UNL     1      21.498  48.985 -10.850  1.00  0.00    -0.207 F 
BRANCH  24  35
ATOM     35  C   UNL     1      16.516  45.480  -6.754  1.00  0.00    -0.008 A 
ATOM     36  C   UNL     1      15.633  44.645  -7.456  1.00  0.00     0.009 A 
ATOM     37  C   UNL     1      16.083  46.127  -5.585  1.00  0.00     0.048 A 
ATOM     38  C   UNL     1      14.329  44.453  -6.986  1.00  0.00     0.004 A 
ATOM     39  C   UNL     1      14.780  45.930  -5.117  1.00  0.00     0.123 A 
ATOM     40  C   UNL     1      13.905  45.093  -5.816  1.00  0.00     0.039 A 
ATOM     41  F   UNL     1      14.364  46.548  -3.982  1.00  0.00    -0.207 F 
ENDBRANCH  24  35
ENDBRANCH  21  23
ENDBRANCH   3  21
BRANCH   6  42
ATOM     42  N   UNL     1      20.099  38.652  -9.117  1.00  0.00    -0.383 N 
ATOM     43  H   UNL     1      19.555  37.902  -9.593  1.00  0.00     0.158 HD
ATOM     44  H   UNL     1      20.965  38.373  -8.608  1.00  0.00     0.158 HD
ENDBRANCH   6  42
TORSDOF 7
ENDMDL
MODEL 11
REMARK VINA RESULT:    -8.580      3.158      5.826
REMARK INTER + INTRA:         -13.421
REMARK INTER:                 -11.180
REMARK INTRA:                  -2.241
REMARK UNBOUND:                -1.581
REMARK SMILES CC(C)Oc1ccc(-c2nn([C@@H](C)c3oc4ccc(F)cc4c(=O)c3-c3cccc(F)c3)c3ncnc(N)c23)cc1F
REMARK SMILES IDX 9 1 10 2 11 3 33 4 39 5 37 6 36 7 35 8 34 9 8 10 5 11 41 12
REMARK SMILES IDX 6 13 42 14 40 15 7 16 4 17 2 18 1 19 3 20 12 21 13 22 14 23
REMARK SMILES IDX 25 24 15 25 23 26 16 27 24 28 22 29 17 30 21 31 18 32 19 33
REMARK SMILES IDX 20 34 26 35 27 36 32 37 28 38 30 39 29 40 31 41 38 42
REMARK H PARENT 38 43 38 44
REMARK Flexibility Score: inf
ROOT
ATOM      1  C   UNL     1      21.159  38.418  -9.565  1.00  0.00     0.106 A 
ATOM      2  N   UNL     1      20.434  39.560  -9.449  1.00  0.00    -0.169 NA
ATOM      3  N   UNL     1      19.788  39.761 -10.593  1.00  0.00    -0.236 N 
ATOM      4  C   UNL     1      20.099  38.758 -11.434  1.00  0.00     0.164 A 
ATOM      5  C   UNL     1      20.941  37.875 -10.829  1.00  0.00     0.089 A 
ATOM      6  C   UNL     1      21.326  36.714 -11.509  1.00  0.00     0.138 A 
ATOM      7  N   UNL     1      20.884  36.559 -12.792  1.00  0.00    -0.219 NA
ATOM      8  C   UNL     1      20.071  37.485 -13.391  1.00  0.00     0.226 A 
ATOM      9  N   UNL     1      19.657  38.588 -12.703  1.00  0.00    -0.217 NA
ENDROOT
BRANCH   1  10
ATOM     10  C   UNL     1      22.076  37.943  -8.516  1.00  0.00     0.006 A 
ATOM     11  C   UNL     1      23.836  37.057  -6.503  1.00  0.00     0.155 A 
ATOM     12  C   UNL     1      22.465  36.774  -6.422  1.00  0.00     0.165 A 
ATOM     13  C   UNL     1      24.329  37.748  -7.629  1.00  0.00     0.050 A 
ATOM     14  F   UNL     1      21.972  36.091  -5.359  1.00  0.00    -0.203 F 
ATOM     15  C   UNL     1      21.591  37.205  -7.425  1.00  0.00     0.053 A 
ATOM     16  C   UNL     1      23.453  38.182  -8.629  1.00  0.00     0.014 A 
BRANCH  11  17
ATOM     17  O   UNL     1      24.663  36.633  -5.448  1.00  0.00    -0.488 OA
BRANCH  17  18
ATOM     18  C   UNL     1      25.936  35.997  -5.585  1.00  0.00     0.167 C 
ATOM     19  C   UNL     1      25.715  34.494  -5.740  1.00  0.00     0.052 C 
ATOM     20  C   UNL     1      26.810  36.280  -4.358  1.00  0.00     0.052 C 
ENDBRANCH  17  18
ENDBRANCH  11  17
ENDBRANCH   1  10
BRANCH   3  21
ATOM     21  C   UNL     1      18.881  40.888 -10.831  1.00  0.00     0.174 C 
ATOM     22  C   UNL     1      17.703  40.843  -9.851  1.00  0.00     0.042 C 
BRANCH  21  23
ATOM     23  C   UNL     1      19.649  42.194 -10.750  1.00  0.00     0.140 A 
ATOM     24  C   UNL     1      20.324  42.727 -11.873  1.00  0.00     0.071 A 
ATOM     25  O   UNL     1      19.736  42.811  -9.572  1.00  0.00    -0.458 OA
ATOM     26  C   UNL     1      21.078  43.901 -11.713  1.00  0.00     0.200 A 
ATOM     27  C   UNL     1      20.436  43.922  -9.382  1.00  0.00     0.138 A 
ATOM     28  O   UNL     1      21.691  44.397 -12.700  1.00  0.00    -0.288 OA
ATOM     29  C   UNL     1      21.142  44.515 -10.452  1.00  0.00     0.068 A 
ATOM     30  C   UNL     1      20.479  44.502  -8.109  1.00  0.00     0.051 A 
ATOM     31  C   UNL     1      21.885  45.688 -10.224  1.00  0.00     0.055 A 
ATOM     32  C   UNL     1      21.223  45.665  -7.892  1.00  0.00     0.043 A 
ATOM     33  C   UNL     1      21.924  46.258  -8.946  1.00  0.00     0.124 A 
ATOM     34  F   UNL     1      22.645  47.385  -8.730  1.00  0.00    -0.207 F 
BRANCH  24  35
ATOM     35  C   UNL     1      20.259  42.068 -13.192  1.00  0.00    -0.008 A 
ATOM     36  C   UNL     1      21.374  41.381 -13.698  1.00  0.00     0.009 A 
ATOM     37  C   UNL     1      19.074  42.124 -13.945  1.00  0.00     0.048 A 
ATOM     38  C   UNL     1      21.300  40.749 -14.944  1.00  0.00     0.004 A 
ATOM     39  C   UNL     1      19.003  41.488 -15.189  1.00  0.00     0.123 A 
ATOM     40  C   UNL     1      20.115  40.800 -15.686  1.00  0.00     0.039 A 
ATOM     41  F   UNL     1      17.856  41.534 -15.912  1.00  0.00    -0.207 F 
ENDBRANCH  24  35
ENDBRANCH  21  23
ENDBRANCH   3  21
BRANCH   6  42
ATOM     42  N   UNL     1      22.067  35.662 -10.887  1.00  0.00    -0.383 N 
ATOM     43  H   UNL     1      23.012  35.414 -11.251  1.00  0.00     0.158 HD
ATOM     44  H   UNL     1      21.622  35.006 -10.211  1.00  0.00     0.158 HD
ENDBRANCH   6  42
TORSDOF 7
ENDMDL
MODEL 12
REMARK VINA RESULT:    -8.526      1.893      4.585
REMARK INTER + INTRA:         -13.346
REMARK INTER:                 -13.265
REMARK INTRA:                  -0.081
REMARK UNBOUND:                -1.581
REMARK SMILES CC(C)Oc1ccc(-c2nn([C@@H](C)c3oc4ccc(F)cc4c(=O)c3-c3cccc(F)c3)c3ncnc(N)c23)cc1F
REMARK SMILES IDX 9 1 10 2 11 3 33 4 39 5 37 6 36 7 35 8 34 9 8 10 5 11 41 12
REMARK SMILES IDX 6 13 42 14 40 15 7 16 4 17 2 18 1 19 3 20 12 21 13 22 14 23
REMARK SMILES IDX 25 24 15 25 23 26 16 27 24 28 22 29 17 30 21 31 18 32 19 33
REMARK SMILES IDX 20 34 26 35 27 36 32 37 28 38 30 39 29 40 31 41 38 42
REMARK H PARENT 38 43 38 44
REMARK Flexibility Score: inf
ROOT
ATOM      1  C   UNL     1      21.562  39.975  -6.929  1.00  0.00     0.106 A 
ATOM      2  N   UNL     1      21.440  40.833  -7.973  1.00  0.00    -0.169 NA
ATOM      3  N   UNL     1      20.504  41.726  -7.672  1.00  0.00    -0.236 N 
ATOM      4  C   UNL     1      20.028  41.440  -6.447  1.00  0.00     0.164 A 
ATOM      5  C   UNL     1      20.675  40.361  -5.927  1.00  0.00     0.089 A 
ATOM      6  C   UNL     1      20.382  39.946  -4.623  1.00  0.00     0.138 A 
ATOM      7  N   UNL     1      19.396  40.613  -3.954  1.00  0.00    -0.219 NA
ATOM      8  C   UNL     1      18.731  41.670  -4.518  1.00  0.00     0.226 A 
ATOM      9  N   UNL     1      19.060  42.104  -5.770  1.00  0.00    -0.217 NA
ENDROOT
BRANCH   1  10
ATOM     10  C   UNL     1      22.442  38.796  -6.960  1.00  0.00     0.006 A 
ATOM     11  C   UNL     1      24.142  36.550  -7.003  1.00  0.00     0.155 A 
ATOM     12  C   UNL     1      22.845  36.448  -6.482  1.00  0.00     0.165 A 
ATOM     13  C   UNL     1      24.568  37.779  -7.550  1.00  0.00     0.050 A 
ATOM     14  F   UNL     1      22.406  35.270  -5.972  1.00  0.00    -0.203 F 
ATOM     15  C   UNL     1      21.996  37.559  -6.467  1.00  0.00     0.053 A 
ATOM     16  C   UNL     1      23.720  38.890  -7.531  1.00  0.00     0.014 A 
BRANCH  11  17
ATOM     17  O   UNL     1      24.965  35.412  -6.958  1.00  0.00    -0.488 OA
BRANCH  17  18
ATOM     18  C   UNL     1      25.533  34.835  -5.779  1.00  0.00     0.167 C 
ATOM     19  C   UNL     1      26.522  35.831  -5.178  1.00  0.00     0.052 C 
ATOM     20  C   UNL     1      26.246  33.521  -6.117  1.00  0.00     0.052 C 
ENDBRANCH  17  18
ENDBRANCH  11  17
ENDBRANCH   1  10
BRANCH   3  21
ATOM     21  C   UNL     1      20.116  42.832  -8.554  1.00  0.00     0.174 C 
ATOM     22  C   UNL     1      21.096  42.950  -9.727  1.00  0.00     0.042 C 
BRANCH  21  23
ATOM     23  C   UNL     1      18.684  42.644  -9.017  1.00  0.00     0.140 A 
ATOM     24  C   UNL     1      18.331  41.636  -9.945  1.00  0.00     0.071 A 
ATOM     25  O   UNL     1      17.755  43.496  -8.582  1.00  0.00    -0.458 OA
ATOM     26  C   UNL     1      17.001  41.562 -10.389  1.00  0.00     0.200 A 
ATOM     27  C   UNL     1      16.489  43.457  -8.976  1.00  0.00     0.138 A 
ATOM     28  O   UNL     1      16.660  40.672 -11.218  1.00  0.00    -0.288 OA
ATOM     29  C   UNL     1      16.058  42.483  -9.904  1.00  0.00     0.068 A 
ATOM     30  C   UNL     1      15.580  44.394  -8.473  1.00  0.00     0.051 A 
ATOM     31  C   UNL     1      14.712  42.467 -10.314  1.00  0.00     0.055 A 
ATOM     32  C   UNL     1      14.246  44.373  -8.889  1.00  0.00     0.043 A 
ATOM     33  C   UNL     1      13.812  43.412  -9.807  1.00  0.00     0.124 A 
ATOM     34  F   UNL     1      12.517  43.396 -10.210  1.00  0.00    -0.207 F 
BRANCH  24  35
ATOM     35  C   UNL     1      19.332  40.679 -10.457  1.00  0.00    -0.008 A 
ATOM     36  C   UNL     1      20.070  40.976 -11.613  1.00  0.00     0.009 A 
ATOM     37  C   UNL     1      19.551  39.467  -9.781  1.00  0.00     0.048 A 
ATOM     38  C   UNL     1      21.026  40.070 -12.085  1.00  0.00     0.004 A 
ATOM     39  C   UNL     1      20.510  38.565 -10.255  1.00  0.00     0.123 A 
ATOM     40  C   UNL     1      21.247  38.867 -11.404  1.00  0.00     0.039 A 
ATOM     41  F   UNL     1      20.728  37.398  -9.597  1.00  0.00    -0.207 F 
ENDBRANCH  24  35
ENDBRANCH  21  23
ENDBRANCH   3  21
BRANCH   6  42
ATOM     42  N   UNL     1      21.130  38.932  -3.947  1.00  0.00    -0.383 N 
ATOM     43  H   UNL     1      20.895  37.929  -4.103  1.00  0.00     0.158 HD
ATOM     44  H   UNL     1      21.770  39.162  -3.157  1.00  0.00     0.158 HD
ENDBRANCH   6  42
TORSDOF 7
ENDMDL
MODEL 13
REMARK VINA RESULT:    -8.262      2.172      2.640
REMARK INTER + INTRA:         -12.982
REMARK INTER:                 -10.832
REMARK INTRA:                  -2.149
REMARK UNBOUND:                -1.581
REMARK SMILES CC(C)Oc1ccc(-c2nn([C@@H](C)c3oc4ccc(F)cc4c(=O)c3-c3cccc(F)c3)c3ncnc(N)c23)cc1F
REMARK SMILES IDX 9 1 10 2 11 3 33 4 39 5 37 6 36 7 35 8 34 9 8 10 5 11 41 12
REMARK SMILES IDX 6 13 42 14 40 15 7 16 4 17 2 18 1 19 3 20 12 21 13 22 14 23
REMARK SMILES IDX 25 24 15 25 23 26 16 27 24 28 22 29 17 30 21 31 18 32 19 33
REMARK SMILES IDX 20 34 26 35 27 36 32 37 28 38 30 39 29 40 31 41 38 42
REMARK H PARENT 38 43 38 44
REMARK Flexibility Score: inf
ROOT
ATOM      1  C   UNL     1      20.944  41.057  -8.342  1.00  0.00     0.106 A 
ATOM      2  N   UNL     1      20.981  41.473  -9.633  1.00  0.00    -0.169 NA
ATOM      3  N   UNL     1      19.993  42.343  -9.820  1.00  0.00    -0.236 N 
ATOM      4  C   UNL     1      19.328  42.479  -8.658  1.00  0.00     0.164 A 
ATOM      5  C   UNL     1      19.898  41.708  -7.691  1.00  0.00     0.089 A 
ATOM      6  C   UNL     1      19.402  41.765  -6.384  1.00  0.00     0.138 A 
ATOM      7  N   UNL     1      18.309  42.552  -6.158  1.00  0.00    -0.219 NA
ATOM      8  C   UNL     1      17.729  43.285  -7.159  1.00  0.00     0.226 A 
ATOM      9  N   UNL     1      18.251  43.266  -8.420  1.00  0.00    -0.217 NA
ENDROOT
BRANCH   1  10
ATOM     10  C   UNL     1      21.837  40.014  -7.811  1.00  0.00     0.006 A 
ATOM     11  C   UNL     1      23.549  38.031  -6.776  1.00  0.00     0.155 A 
ATOM     12  C   UNL     1      22.180  37.773  -6.939  1.00  0.00     0.165 A 
ATOM     13  C   UNL     1      24.065  39.279  -7.182  1.00  0.00     0.050 A 
ATOM     14  F   UNL     1      21.666  36.570  -6.576  1.00  0.00    -0.203 F 
ATOM     15  C   UNL     1      21.330  38.752  -7.461  1.00  0.00     0.053 A 
ATOM     16  C   UNL     1      23.212  40.259  -7.700  1.00  0.00     0.014 A 
BRANCH  11  17
ATOM     17  O   UNL     1      24.350  37.024  -6.211  1.00  0.00    -0.488 OA
BRANCH  17  18
ATOM     18  C   UNL     1      24.777  35.827  -6.866  1.00  0.00     0.167 C 
ATOM     19  C   UNL     1      26.018  35.297  -6.151  1.00  0.00     0.052 C 
ATOM     20  C   UNL     1      25.095  36.108  -8.339  1.00  0.00     0.052 C 
ENDBRANCH  17  18
ENDBRANCH  11  17
ENDBRANCH   1  10
BRANCH   3  21
ATOM     21  C   UNL     1      19.738  43.028 -11.090  1.00  0.00     0.174 C 
ATOM     22  C   UNL     1      20.786  44.121 -11.330  1.00  0.00     0.042 C 
BRANCH  21  23
ATOM     23  C   UNL     1      19.691  42.017 -12.220  1.00  0.00     0.140 A 
ATOM     24  C   UNL     1      18.469  41.454 -12.660  1.00  0.00     0.071 A 
ATOM     25  O   UNL     1      20.839  41.608 -12.760  1.00  0.00    -0.458 OA
ATOM     26  C   UNL     1      18.501  40.469 -13.660  1.00  0.00     0.200 A 
ATOM     27  C   UNL     1      20.909  40.682 -13.708  1.00  0.00     0.138 A 
ATOM     28  O   UNL     1      17.425  39.950 -14.070  1.00  0.00    -0.288 OA
ATOM     29  C   UNL     1      19.735  40.069 -14.198  1.00  0.00     0.068 A 
ATOM     30  C   UNL     1      22.158  40.308 -14.215  1.00  0.00     0.051 A 
ATOM     31  C   UNL     1      19.836  39.083 -15.197  1.00  0.00     0.055 A 
ATOM     32  C   UNL     1      22.249  39.325 -15.205  1.00  0.00     0.043 A 
ATOM     33  C   UNL     1      21.091  38.714 -15.695  1.00  0.00     0.124 A 
ATOM     34  F   UNL     1      21.184  37.759 -16.653  1.00  0.00    -0.207 F 
BRANCH  24  35
ATOM     35  C   UNL     1      17.178  41.874 -12.081  1.00  0.00    -0.008 A 
ATOM     36  C   UNL     1      16.661  41.219 -10.953  1.00  0.00     0.009 A 
ATOM     37  C   UNL     1      16.464  42.937 -12.659  1.00  0.00     0.048 A 
ATOM     38  C   UNL     1      15.442  41.631 -10.402  1.00  0.00     0.004 A 
ATOM     39  C   UNL     1      15.248  43.347 -12.104  1.00  0.00     0.123 A 
ATOM     40  C   UNL     1      14.738  42.696 -10.976  1.00  0.00     0.039 A 
ATOM     41  F   UNL     1      14.562  44.380 -12.657  1.00  0.00    -0.207 F 
ENDBRANCH  24  35
ENDBRANCH  21  23
ENDBRANCH   3  21
BRANCH   6  42
ATOM     42  N   UNL     1      20.046  41.120  -5.283  1.00  0.00    -0.383 N 
ATOM     43  H   UNL     1      20.356  41.686  -4.464  1.00  0.00     0.158 HD
ATOM     44  H   UNL     1      20.390  40.138  -5.350  1.00  0.00     0.158 HD
ENDBRANCH   6  42
TORSDOF 7
ENDMDL
MODEL 14
REMARK VINA RESULT:    -8.255      3.053      4.630
REMARK INTER + INTRA:         -12.973
REMARK INTER:                 -11.238
REMARK INTRA:                  -1.735
REMARK UNBOUND:                -1.581
REMARK SMILES CC(C)Oc1ccc(-c2nn([C@@H](C)c3oc4ccc(F)cc4c(=O)c3-c3cccc(F)c3)c3ncnc(N)c23)cc1F
REMARK SMILES IDX 9 1 10 2 11 3 33 4 39 5 37 6 36 7 35 8 34 9 8 10 5 11 41 12
REMARK SMILES IDX 6 13 42 14 40 15 7 16 4 17 2 18 1 19 3 20 12 21 13 22 14 23
REMARK SMILES IDX 25 24 15 25 23 26 16 27 24 28 22 29 17 30 21 31 18 32 19 33
REMARK SMILES IDX 20 34 26 35 27 36 32 37 28 38 30 39 29 40 31 41 38 42
REMARK H PARENT 38 43 38 44
REMARK Flexibility Score: inf
ROOT
ATOM      1  C   UNL     1      21.354  40.271  -7.330  1.00  0.00     0.106 A 
ATOM      2  N   UNL     1      21.333  41.293  -8.223  1.00  0.00    -0.169 NA
ATOM      3  N   UNL     1      20.522  42.237  -7.758  1.00  0.00    -0.236 N 
ATOM      4  C   UNL     1      20.026  41.821  -6.578  1.00  0.00     0.164 A 
ATOM      5  C   UNL     1      20.534  40.600  -6.254  1.00  0.00     0.089 A 
ATOM      6  C   UNL     1      20.204  40.022  -5.022  1.00  0.00     0.138 A 
ATOM      7  N   UNL     1      19.318  40.693  -4.228  1.00  0.00    -0.219 NA
ATOM      8  C   UNL     1      18.789  41.901  -4.599  1.00  0.00     0.226 A 
ATOM      9  N   UNL     1      19.158  42.484  -5.776  1.00  0.00    -0.217 NA
ENDROOT
BRANCH   1  10
ATOM     10  C   UNL     1      22.076  39.011  -7.572  1.00  0.00     0.006 A 
ATOM     11  C   UNL     1      23.462  36.608  -8.059  1.00  0.00     0.155 A 
ATOM     12  C   UNL     1      23.938  37.522  -7.108  1.00  0.00     0.165 A 
ATOM     13  C   UNL     1      22.255  36.885  -8.734  1.00  0.00     0.050 A 
ATOM     14  F   UNL     1      25.085  37.265  -6.431  1.00  0.00    -0.203 F 
ATOM     15  C   UNL     1      23.247  38.712  -6.858  1.00  0.00     0.053 A 
ATOM     16  C   UNL     1      21.567  38.077  -8.486  1.00  0.00     0.014 A 
BRANCH  11  17
ATOM     17  O   UNL     1      24.217  35.447  -8.297  1.00  0.00    -0.488 OA
BRANCH  17  18
ATOM     18  C   UNL     1      25.221  35.292  -9.304  1.00  0.00     0.167 C 
ATOM     19  C   UNL     1      24.574  35.495 -10.672  1.00  0.00     0.052 C 
ATOM     20  C   UNL     1      25.853  33.897  -9.219  1.00  0.00     0.052 C 
ENDBRANCH  17  18
ENDBRANCH  11  17
ENDBRANCH   1  10
BRANCH   3  21
ATOM     21  C   UNL     1      20.270  43.508  -8.443  1.00  0.00     0.174 C 
ATOM     22  C   UNL     1      21.172  43.640  -9.675  1.00  0.00     0.042 C 
BRANCH  21  23
ATOM     23  C   UNL     1      18.798  43.623  -8.792  1.00  0.00     0.140 A 
ATOM     24  C   UNL     1      18.022  44.729  -8.372  1.00  0.00     0.071 A 
ATOM     25  O   UNL     1      18.219  42.622  -9.453  1.00  0.00    -0.458 OA
ATOM     26  C   UNL     1      16.648  44.740  -8.664  1.00  0.00     0.200 A 
ATOM     27  C   UNL     1      16.925  42.597  -9.750  1.00  0.00     0.138 A 
ATOM     28  O   UNL     1      15.932  45.715  -8.300  1.00  0.00    -0.288 OA
ATOM     29  C   UNL     1      16.081  43.661  -9.362  1.00  0.00     0.068 A 
ATOM     30  C   UNL     1      16.397  41.502 -10.444  1.00  0.00     0.051 A 
ATOM     31  C   UNL     1      14.712  43.608  -9.680  1.00  0.00     0.055 A 
ATOM     32  C   UNL     1      15.035  41.457 -10.751  1.00  0.00     0.043 A 
ATOM     33  C   UNL     1      14.193  42.507 -10.371  1.00  0.00     0.124 A 
ATOM     34  F   UNL     1      12.872  42.456 -10.670  1.00  0.00    -0.207 F 
BRANCH  24  35
ATOM     35  C   UNL     1      18.625  45.853  -7.629  1.00  0.00    -0.008 A 
ATOM     36  C   UNL     1      19.212  46.925  -8.320  1.00  0.00     0.009 A 
ATOM     37  C   UNL     1      18.606  45.854  -6.225  1.00  0.00     0.048 A 
ATOM     38  C   UNL     1      19.770  47.993  -7.608  1.00  0.00     0.004 A 
ATOM     39  C   UNL     1      19.162  46.926  -5.518  1.00  0.00     0.123 A 
ATOM     40  C   UNL     1      19.742  47.994  -6.209  1.00  0.00     0.039 A 
ATOM     41  F   UNL     1      19.137  46.931  -4.161  1.00  0.00    -0.207 F 
ENDBRANCH  24  35
ENDBRANCH  21  23
ENDBRANCH   3  21
BRANCH   6  42
ATOM     42  N   UNL     1      20.822  38.829  -4.536  1.00  0.00    -0.383 N 
ATOM     43  H   UNL     1      21.434  38.272  -5.170  1.00  0.00     0.158 HD
ATOM     44  H   UNL     1      20.532  38.391  -3.636  1.00  0.00     0.158 HD
ENDBRANCH   6  42
TORSDOF 7
ENDMDL
MODEL 15
REMARK VINA RESULT:    -8.235      2.833      4.763
REMARK INTER + INTRA:         -12.945
REMARK INTER:                 -10.975
REMARK INTRA:                  -1.970
REMARK UNBOUND:                -1.581
REMARK SMILES CC(C)Oc1ccc(-c2nn([C@@H](C)c3oc4ccc(F)cc4c(=O)c3-c3cccc(F)c3)c3ncnc(N)c23)cc1F
REMARK SMILES IDX 9 1 10 2 11 3 33 4 39 5 37 6 36 7 35 8 34 9 8 10 5 11 41 12
REMARK SMILES IDX 6 13 42 14 40 15 7 16 4 17 2 18 1 19 3 20 12 21 13 22 14 23
REMARK SMILES IDX 25 24 15 25 23 26 16 27 24 28 22 29 17 30 21 31 18 32 19 33
REMARK SMILES IDX 20 34 26 35 27 36 32 37 28 38 30 39 29 40 31 41 38 42
REMARK H PARENT 38 43 38 44
REMARK Flexibility Score: inf
ROOT
ATOM      1  C   UNL     1      20.871  39.245  -8.508  1.00  0.00     0.106 A 
ATOM      2  N   UNL     1      20.181  40.290  -7.983  1.00  0.00    -0.169 NA
ATOM      3  N   UNL     1      19.448  40.833  -8.950  1.00  0.00    -0.236 N 
ATOM      4  C   UNL     1      19.669  40.143 -10.083  1.00  0.00     0.164 A 
ATOM      5  C   UNL     1      20.539  39.121  -9.855  1.00  0.00     0.089 A 
ATOM      6  C   UNL     1      20.843  38.231 -10.891  1.00  0.00     0.138 A 
ATOM      7  N   UNL     1      20.296  38.480 -12.117  1.00  0.00    -0.219 NA
ATOM      8  C   UNL     1      19.455  39.541 -12.329  1.00  0.00     0.226 A 
ATOM      9  N   UNL     1      19.121  40.373 -11.301  1.00  0.00    -0.217 NA
ENDROOT
BRANCH   1  10
ATOM     10  C   UNL     1      21.861  38.474  -7.739  1.00  0.00     0.006 A 
ATOM     11  C   UNL     1      23.759  37.016  -6.253  1.00  0.00     0.155 A 
ATOM     12  C   UNL     1      22.414  36.620  -6.270  1.00  0.00     0.165 A 
ATOM     13  C   UNL     1      24.158  38.125  -7.029  1.00  0.00     0.050 A 
ATOM     14  F   UNL     1      22.012  35.543  -5.549  1.00  0.00    -0.203 F 
ATOM     15  C   UNL     1      21.471  37.337  -7.013  1.00  0.00     0.053 A 
ATOM     16  C   UNL     1      23.213  38.842  -7.769  1.00  0.00     0.014 A 
BRANCH  11  17
ATOM     17  O   UNL     1      24.656  36.282  -5.458  1.00  0.00    -0.488 OA
BRANCH  17  18
ATOM     18  C   UNL     1      25.977  35.886  -5.833  1.00  0.00     0.167 C 
ATOM     19  C   UNL     1      25.974  34.384  -6.113  1.00  0.00     0.052 C 
ATOM     20  C   UNL     1      26.972  36.213  -4.714  1.00  0.00     0.052 C 
ENDBRANCH  17  18
ENDBRANCH  11  17
ENDBRANCH   1  10
BRANCH   3  21
ATOM     21  C   UNL     1      18.547  41.972  -8.749  1.00  0.00     0.174 C 
ATOM     22  C   UNL     1      18.521  42.380  -7.272  1.00  0.00     0.042 C 
BRANCH  21  23
ATOM     23  C   UNL     1      18.955  43.118  -9.656  1.00  0.00     0.140 A 
ATOM     24  C   UNL     1      18.048  43.693 -10.576  1.00  0.00     0.071 A 
ATOM     25  O   UNL     1      20.219  43.540  -9.623  1.00  0.00    -0.458 OA
ATOM     26  C   UNL     1      18.509  44.701 -11.439  1.00  0.00     0.200 A 
ATOM     27  C   UNL     1      20.691  44.490 -10.419  1.00  0.00     0.138 A 
ATOM     28  O   UNL     1      17.719  45.231 -12.271  1.00  0.00    -0.288 OA
ATOM     29  C   UNL     1      19.849  45.112 -11.368  1.00  0.00     0.068 A 
ATOM     30  C   UNL     1      22.034  44.869 -10.321  1.00  0.00     0.051 A 
ATOM     31  C   UNL     1      20.375  46.110 -12.209  1.00  0.00     0.055 A 
ATOM     32  C   UNL     1      22.548  45.860 -11.163  1.00  0.00     0.043 A 
ATOM     33  C   UNL     1      21.721  46.480 -12.104  1.00  0.00     0.124 A 
ATOM     34  F   UNL     1      22.225  47.438 -12.920  1.00  0.00    -0.207 F 
BRANCH  24  35
ATOM     35  C   UNL     1      16.643  43.247 -10.650  1.00  0.00    -0.008 A 
ATOM     36  C   UNL     1      15.695  43.732  -9.735  1.00  0.00     0.009 A 
ATOM     37  C   UNL     1      16.249  42.336 -11.645  1.00  0.00     0.048 A 
ATOM     38  C   UNL     1      14.363  43.314  -9.820  1.00  0.00     0.004 A 
ATOM     39  C   UNL     1      14.915  41.924 -11.728  1.00  0.00     0.123 A 
ATOM     40  C   UNL     1      13.973  42.414 -10.818  1.00  0.00     0.039 A 
ATOM     41  F   UNL     1      14.533  41.051 -12.695  1.00  0.00    -0.207 F 
ENDBRANCH  24  35
ENDBRANCH  21  23
ENDBRANCH   3  21
BRANCH   6  42
ATOM     42  N   UNL     1      21.612  37.043 -10.691  1.00  0.00    -0.383 N 
ATOM     43  H   UNL     1      22.068  36.581 -11.507  1.00  0.00     0.158 HD
ATOM     44  H   UNL     1      21.574  36.512  -9.794  1.00  0.00     0.158 HD
ENDBRANCH   6  42
TORSDOF 7
ENDMDL
